# generated using pymatgen
data_Ti(CuTe)4
_symmetry_space_group_name_H-M   'P 1'
_cell_length_a   16.88945888
_cell_length_b   16.89338800
_cell_length_c   20.71665080
_cell_angle_alpha   90.01458532
_cell_angle_beta   90.02124102
_cell_angle_gamma   120.00419423
_symmetry_Int_Tables_number   1
_chemical_formula_structural   Ti(CuTe)4
_chemical_formula_sum   'Ti24 Cu96 Te96'
_cell_volume   5118.75362999
_cell_formula_units_Z   24
loop_
 _symmetry_equiv_pos_site_id
 _symmetry_equiv_pos_as_xyz
  1  'x, y, z'
loop_
 _atom_type_symbol
 _atom_type_oxidation_number
  Ti4+  4.0
  Cu+  1.0
  Te2-  -2.0
loop_
 _atom_site_type_symbol
 _atom_site_label
 _atom_site_symmetry_multiplicity
 _atom_site_fract_x
 _atom_site_fract_y
 _atom_site_fract_z
 _atom_site_occupancy
  Ti4+  Ti0  1  0.00252160  0.00331457  0.25901952  1
  Ti4+  Ti1  1  -0.00264127  0.49825047  0.25512599  1
  Ti4+  Ti2  1  0.50241504  -0.00042543  0.25872460  1
  Ti4+  Ti3  1  0.50258248  0.50237348  0.25765185  1
  Ti4+  Ti4  1  0.33553381  0.17031802  0.59057645  1
  Ti4+  Ti5  1  0.33729459  0.66864874  0.58907719  1
  Ti4+  Ti6  1  0.83320766  0.16548696  0.59445148  1
  Ti4+  Ti7  1  0.83544818  0.66706435  0.59159218  1
  Ti4+  Ti8  1  0.16111227  0.33064025  0.92423227  1
  Ti4+  Ti9  1  0.16631328  0.83364233  0.91992806  1
  Ti4+  Ti10  1  0.66210156  0.33012028  0.92644591  1
  Ti4+  Ti11  1  0.66460027  0.82988870  0.92443020  1
  Ti4+  Ti12  1  0.00071119  -0.00064896  0.75386310  1
  Ti4+  Ti13  1  0.00113316  0.49898429  0.75481605  1
  Ti4+  Ti14  1  0.49921790  0.00065063  0.75588536  1
  Ti4+  Ti15  1  0.50082520  0.50146871  0.75641885  1
  Ti4+  Ti16  1  0.33044521  0.16522288  0.08927800  1
  Ti4+  Ti17  1  0.33431332  0.66773664  0.08893739  1
  Ti4+  Ti18  1  0.83328523  0.16626619  0.08785304  1
  Ti4+  Ti19  1  0.83155710  0.66445924  0.08797281  1
  Ti4+  Ti20  1  0.16921811  0.33411059  0.42281456  1
  Ti4+  Ti21  1  0.16746620  0.83344589  0.42100118  1
  Ti4+  Ti22  1  0.66857680  0.33487308  0.42372035  1
  Ti4+  Ti23  1  0.66726096  0.83546801  0.42341919  1
  Cu+  Cu24  1  0.90492657  0.08419994  0.81134167  1
  Cu+  Cu25  1  0.90096582  0.31441387  0.81074167  1
  Cu+  Cu26  1  0.90386234  0.81060806  0.80622575  1
  Cu+  Cu27  1  0.73592361  0.48020127  0.14175697  1
  Cu+  Cu28  1  0.01990476  0.25969321  0.14299464  1
  Cu+  Cu29  1  0.35919325  0.42875667  0.47222352  1
  Cu+  Cu30  1  0.40423819  0.09539902  0.80618238  1
  Cu+  Cu31  1  0.57469718  0.93104085  0.47718323  1
  Cu+  Cu32  1  0.07361154  0.14759751  0.47726085  1
  Cu+  Cu33  1  0.52582535  0.76280824  0.14169986  1
  Cu+  Cu34  1  0.40415046  0.81071657  0.80512168  1
  Cu+  Cu35  1  0.74101465  0.25269563  0.14642845  1
  Cu+  Cu36  1  0.16292315  0.08357636  0.17188160  1
  Cu+  Cu37  1  0.16275111  0.58283389  0.16981527  1
  Cu+  Cu38  1  0.66012161  0.07934922  0.17105351  1
  Cu+  Cu39  1  0.66211163  0.57855848  0.17043313  1
  Cu+  Cu40  1  0.41556008  0.33531595  0.17108936  1
  Cu+  Cu41  1  0.42497221  0.83515201  0.17187503  1
  Cu+  Cu42  1  0.91889223  0.33782902  0.16704105  1
  Cu+  Cu43  1  0.91752726  0.83598619  0.17243530  1
  Cu+  Cu44  1  0.41685233  0.08245518  0.17183652  1
  Cu+  Cu45  1  0.42319404  0.58857273  0.17142848  1
  Cu+  Cu46  1  0.92506162  0.08631194  0.17108797  1
  Cu+  Cu47  1  0.91141730  0.57619701  0.16752540  1
  Cu+  Cu48  1  0.49963345  0.25116175  0.50518257  1
  Cu+  Cu49  1  0.49818955  0.75435089  0.50331369  1
  Cu+  Cu50  1  0.99812691  0.24528549  0.50782008  1
  Cu+  Cu51  1  0.99847954  0.74920269  0.50520585  1
  Cu+  Cu52  1  0.25431598  0.00332567  0.50375793  1
  Cu+  Cu53  1  0.25975988  0.50326460  0.50288649  1
  Cu+  Cu54  1  0.74959640  0.00436513  0.50656610  1
  Cu+  Cu55  1  0.75282092  0.50465203  0.50582730  1
  Cu+  Cu56  1  0.25454420  0.25155789  0.50278830  1
  Cu+  Cu57  1  0.25305448  0.74919361  0.50254009  1
  Cu+  Cu58  1  0.75465574  0.25234784  0.50751092  1
  Cu+  Cu59  1  0.75386634  0.74971380  0.50655200  1
  Cu+  Cu60  1  0.32928433  0.41463378  0.83903615  1
  Cu+  Cu61  1  0.33024948  0.91675204  0.83421703  1
  Cu+  Cu62  1  0.82877346  0.41203198  0.84037494  1
  Cu+  Cu63  1  0.82873935  0.91088638  0.83715834  1
  Cu+  Cu64  1  0.07931620  0.17021206  0.83552083  1
  Cu+  Cu65  1  0.08617164  0.67081753  0.83356316  1
  Cu+  Cu66  1  0.57908502  0.16999816  0.83838728  1
  Cu+  Cu67  1  0.58277713  0.66896882  0.83778493  1
  Cu+  Cu68  1  0.07707488  0.40857465  0.83658052  1
  Cu+  Cu69  1  0.08193062  0.91089873  0.83295085  1
  Cu+  Cu70  1  0.58279685  0.41575262  0.83938018  1
  Cu+  Cu71  1  0.57758881  0.90877257  0.83777609  1
  Cu+  Cu72  1  0.17123440  0.08701021  0.67337936  1
  Cu+  Cu73  1  0.17200815  0.58486554  0.67201957  1
  Cu+  Cu74  1  0.66839180  0.08504639  0.67791798  1
  Cu+  Cu75  1  0.67155047  0.58653016  0.67620253  1
  Cu+  Cu76  1  0.41830363  0.33537276  0.67551062  1
  Cu+  Cu77  1  0.41709490  0.83191849  0.67718924  1
  Cu+  Cu78  1  0.91681553  0.32899601  0.68159859  1
  Cu+  Cu79  1  0.91729755  0.82906632  0.67780727  1
  Cu+  Cu80  1  0.41713787  0.08865618  0.67817130  1
  Cu+  Cu81  1  0.41974852  0.58624402  0.67385298  1
  Cu+  Cu82  1  0.91650856  0.08426372  0.68091001  1
  Cu+  Cu83  1  0.91762564  0.58396923  0.67405029  1
  Cu+  Cu84  1  -0.00034035  0.24874833  0.01316221  1
  Cu+  Cu85  1  0.00130559  0.75154877  0.00566691  1
  Cu+  Cu86  1  0.49673957  0.24832270  0.01034741  1
  Cu+  Cu87  1  0.50226125  0.75076047  0.01323555  1
  Cu+  Cu88  1  0.24553379  0.49658225  0.00720332  1
  Cu+  Cu89  1  0.24694448  0.99779575  0.00567493  1
  Cu+  Cu90  1  0.74643061  0.49400080  0.01280955  1
  Cu+  Cu91  1  0.74802055  0.99519041  0.00864918  1
  Cu+  Cu92  1  0.24368469  0.24793055  0.00787982  1
  Cu+  Cu93  1  0.25023339  0.75324105  0.00537410  1
  Cu+  Cu94  1  0.74574871  0.24853118  0.01505711  1
  Cu+  Cu95  1  0.74903721  0.74815346  0.00847246  1
  Cu+  Cu96  1  0.33953955  0.42154256  0.34361872  1
  Cu+  Cu97  1  0.33642402  0.91624423  0.34035295  1
  Cu+  Cu98  1  0.83372860  0.41667248  0.34172365  1
  Cu+  Cu99  1  0.83846387  0.92162827  0.34241548  1
  Cu+  Cu100  1  0.08355915  0.16614342  0.34733536  1
  Cu+  Cu101  1  0.07953521  0.66370225  0.33898854  1
  Cu+  Cu102  1  0.58509280  0.16522902  0.34397583  1
  Cu+  Cu103  1  0.58527274  0.66774676  0.34227136  1
  Cu+  Cu104  1  0.08032020  0.41727981  0.34041064  1
  Cu+  Cu105  1  0.08390262  0.91957951  0.34227994  1
  Cu+  Cu106  1  0.58439667  0.41834147  0.34313508  1
  Cu+  Cu107  1  0.58373654  0.91948158  0.34766269  1
  Cu+  Cu108  1  -0.00115058  -0.00471613  0.11560409  1
  Cu+  Cu109  1  0.00340214  0.50559052  0.11057540  1
  Cu+  Cu110  1  0.49204825  -0.00312519  0.11606594  1
  Cu+  Cu111  1  0.49423945  0.49676201  0.11509606  1
  Cu+  Cu112  1  0.33603323  0.16546720  0.44723887  1
  Cu+  Cu113  1  0.33030474  0.66511157  0.44521475  1
  Cu+  Cu114  1  0.83624078  0.17096034  0.45139904  1
  Cu+  Cu115  1  0.83432907  0.66843256  0.44906681  1
  Cu+  Cu116  1  0.17035771  0.33656122  0.78111358  1
  Cu+  Cu117  1  0.16587565  0.83152848  0.77426341  1
  Cu+  Cu118  1  0.66762210  0.33795221  0.78353626  1
  Cu+  Cu119  1  0.66482409  0.83344316  0.78093934  1
  Te2-  Te120  1  0.00125911  -0.00005336  0.38989567  1
  Te2-  Te121  1  -0.00121713  0.49997120  0.38378744  1
  Te2-  Te122  1  0.49885190  0.00119547  0.38903138  1
  Te2-  Te123  1  0.50569322  0.50396138  0.38789955  1
  Te2-  Te124  1  0.33340802  0.17160042  0.72122839  1
  Te2-  Te125  1  0.33463226  0.66503179  0.71956994  1
  Te2-  Te126  1  0.83043028  0.16349903  0.72674670  1
  Te2-  Te127  1  0.83459460  0.66333238  0.72286365  1
  Te2-  Te128  1  0.16631674  0.33362449  0.05455130  1
  Te2-  Te129  1  0.16596807  0.83330952  0.04864757  1
  Te2-  Te130  1  0.65999320  0.32858857  0.05827246  1
  Te2-  Te131  1  0.66951871  0.83220244  0.05488306  1
  Te2-  Te132  1  0.48889742  0.24784111  0.88432432  1
  Te2-  Te133  1  0.49036675  0.74203838  0.88583415  1
  Te2-  Te134  1  0.98326374  0.24095379  0.88576105  1
  Te2-  Te135  1  0.99184317  0.74308764  0.88011705  1
  Te2-  Te136  1  0.24934744  0.00677746  0.87971183  1
  Te2-  Te137  1  0.24561114  0.50057349  0.88118763  1
  Te2-  Te138  1  0.74727180  0.00183251  0.88249293  1
  Te2-  Te139  1  0.74996671  0.50035453  0.88551619  1
  Te2-  Te140  1  0.24595479  0.24512987  0.88171501  1
  Te2-  Te141  1  0.25265361  0.74612289  0.87976297  1
  Te2-  Te142  1  0.74609287  0.24115107  0.88673392  1
  Te2-  Te143  1  0.75013084  0.74241340  0.88281417  1
  Te2-  Te144  1  0.33234908  0.41989361  0.21643219  1
  Te2-  Te145  1  0.33304350  0.91314218  0.21422919  1
  Te2-  Te146  1  0.82015986  0.40850235  0.21600370  1
  Te2-  Te147  1  0.83158710  0.91882726  0.21638668  1
  Te2-  Te148  1  0.09197913  0.17814060  0.21999298  1
  Te2-  Te149  1  0.07952176  0.66826650  0.21267885  1
  Te2-  Te150  1  0.58465208  0.17293981  0.21797732  1
  Te2-  Te151  1  0.59313704  0.67587063  0.21644326  1
  Te2-  Te152  1  0.08737548  0.41498478  0.21471288  1
  Te2-  Te153  1  0.08592141  0.91593300  0.21634105  1
  Te2-  Te154  1  0.58306865  0.40948325  0.21715433  1
  Te2-  Te155  1  0.59305779  0.91566074  0.22016119  1
  Te2-  Te156  1  0.16298781  0.08088029  0.54771954  1
  Te2-  Te157  1  0.16727778  0.58025224  0.54588576  1
  Te2-  Te158  1  0.66017372  0.08422229  0.55205683  1
  Te2-  Te159  1  0.66328033  0.58234061  0.55059973  1
  Te2-  Te160  1  0.42428627  0.34349014  0.54963764  1
  Te2-  Te161  1  0.41931866  0.84308392  0.55056396  1
  Te2-  Te162  1  0.92136604  0.33592745  0.55418236  1
  Te2-  Te163  1  0.92141006  0.83929830  0.55148638  1
  Te2-  Te164  1  0.42094960  0.08428375  0.55135805  1
  Te2-  Te165  1  0.42827157  0.58614848  0.54816469  1
  Te2-  Te166  1  0.91689495  0.07608494  0.55356471  1
  Te2-  Te167  1  0.92086740  0.58110295  0.54883289  1
  Te2-  Te168  1  0.00080483  -0.00085616  0.88119661  1
  Te2-  Te169  1  0.00060918  0.50196403  0.88165081  1
  Te2-  Te170  1  0.49884456  -0.00040356  0.88308460  1
  Te2-  Te171  1  0.49789624  0.49985159  0.88267258  1
  Te2-  Te172  1  0.33245828  0.16686765  0.21553151  1
  Te2-  Te173  1  0.33128549  0.66602792  0.21569875  1
  Te2-  Te174  1  0.83330875  0.16672220  0.21497562  1
  Te2-  Te175  1  0.83282204  0.66618773  0.21488608  1
  Te2-  Te176  1  0.16869773  0.33479540  0.55018264  1
  Te2-  Te177  1  0.16883065  0.83373595  0.54718674  1
  Te2-  Te178  1  0.66856336  0.33571708  0.55003820  1
  Te2-  Te179  1  0.66773768  0.83387609  0.55005745  1
  Te2-  Te180  1  0.32993488  0.41665175  0.71161124  1
  Te2-  Te181  1  0.32750269  0.91519247  0.70699366  1
  Te2-  Te182  1  0.82777230  0.41369012  0.71207529  1
  Te2-  Te183  1  0.82630030  0.91109115  0.70952427  1
  Te2-  Te184  1  0.08911513  0.17402609  0.70947623  1
  Te2-  Te185  1  0.08774250  0.67027080  0.70784572  1
  Te2-  Te186  1  0.58884252  0.17532546  0.71227266  1
  Te2-  Te187  1  0.58823567  0.67316190  0.71185234  1
  Te2-  Te188  1  0.09004608  0.41520527  0.70980166  1
  Te2-  Te189  1  0.09038336  0.91654592  0.70682813  1
  Te2-  Te190  1  0.58769558  0.41655166  0.71285098  1
  Te2-  Te191  1  0.58799432  0.91521845  0.71112399  1
  Te2-  Te192  1  0.15888377  0.07881235  0.04524623  1
  Te2-  Te193  1  0.16312769  0.58359610  0.04307170  1
  Te2-  Te194  1  0.65841881  0.07551444  0.04482409  1
  Te2-  Te195  1  0.65772967  0.57819465  0.04381250  1
  Te2-  Te196  1  0.41440074  0.33666565  0.04454837  1
  Te2-  Te197  1  0.41905171  0.83995837  0.04409810  1
  Te2-  Te198  1  0.91895864  0.34086999  0.04075169  1
  Te2-  Te199  1  0.91842178  0.83691288  0.04513332  1
  Te2-  Te200  1  0.41575965  0.07867103  0.04499616  1
  Te2-  Te201  1  0.41613787  0.57767156  0.04388837  1
  Te2-  Te202  1  0.91785870  0.07656644  0.04428768  1
  Te2-  Te203  1  0.91988195  0.58105382  0.04073542  1
  Te2-  Te204  1  0.49697328  0.24817774  0.37888217  1
  Te2-  Te205  1  0.49440204  0.74650482  0.37717973  1
  Te2-  Te206  1  0.99491489  0.24926937  0.38014091  1
  Te2-  Te207  1  0.99547623  0.74893783  0.37827869  1
  Te2-  Te208  1  0.25482591  0.00515878  0.37707365  1
  Te2-  Te209  1  0.25134023  0.50551155  0.37574822  1
  Te2-  Te210  1  0.75637047  0.00891475  0.37983620  1
  Te2-  Te211  1  0.75399096  0.50641156  0.37924378  1
  Te2-  Te212  1  0.25718412  0.24915102  0.37564502  1
  Te2-  Te213  1  0.25067579  0.74589479  0.37569596  1
  Te2-  Te214  1  0.75446130  0.24833342  0.38077013  1
  Te2-  Te215  1  0.75513234  0.75124375  0.37978653  1
