# generated using pymatgen
data_Ti(CuTe)4
_symmetry_space_group_name_H-M   'P 1'
_cell_length_a   16.89319006
_cell_length_b   16.89279068
_cell_length_c   20.70748921
_cell_angle_alpha   90.01564183
_cell_angle_beta   89.96943476
_cell_angle_gamma   119.99330377
_symmetry_Int_Tables_number   1
_chemical_formula_structural   Ti(CuTe)4
_chemical_formula_sum   'Ti24 Cu96 Te96'
_cell_volume   5118.00119504
_cell_formula_units_Z   24
loop_
 _symmetry_equiv_pos_site_id
 _symmetry_equiv_pos_as_xyz
  1  'x, y, z'
loop_
 _atom_type_symbol
 _atom_type_oxidation_number
  Ti4+  4.0
  Cu+  1.0
  Te2-  -2.0
loop_
 _atom_site_type_symbol
 _atom_site_label
 _atom_site_symmetry_multiplicity
 _atom_site_fract_x
 _atom_site_fract_y
 _atom_site_fract_z
 _atom_site_occupancy
  Ti4+  Ti0  1  -0.00175192  -0.00073746  0.25856357  1
  Ti4+  Ti1  1  0.00117145  0.49841047  0.25585062  1
  Ti4+  Ti2  1  0.50149294  0.00401592  0.25641109  1
  Ti4+  Ti3  1  0.49658793  0.49788148  0.26189302  1
  Ti4+  Ti4  1  0.33453272  0.16824381  0.59126678  1
  Ti4+  Ti5  1  0.33319106  0.66682786  0.58893884  1
  Ti4+  Ti6  1  0.83452855  0.16612076  0.59703207  1
  Ti4+  Ti7  1  0.83304344  0.66729279  0.58714251  1
  Ti4+  Ti8  1  0.16708162  0.33070629  0.92557863  1
  Ti4+  Ti9  1  0.16813130  0.83414657  0.91926854  1
  Ti4+  Ti10  1  0.66811337  0.33338478  0.92731430  1
  Ti4+  Ti11  1  0.66448410  0.83171225  0.92302909  1
  Ti4+  Ti12  1  0.00288758  0.00117850  0.75344939  1
  Ti4+  Ti13  1  -0.00123557  0.50013162  0.75448294  1
  Ti4+  Ti14  1  0.49859265  -0.00253576  0.75317066  1
  Ti4+  Ti15  1  0.50028182  0.50081951  0.75710560  1
  Ti4+  Ti16  1  0.33430543  0.16616831  0.08919569  1
  Ti4+  Ti17  1  0.33172542  0.66401424  0.08962565  1
  Ti4+  Ti18  1  0.83247747  0.16642471  0.08766118  1
  Ti4+  Ti19  1  0.83344753  0.66807505  0.08885783  1
  Ti4+  Ti20  1  0.16512326  0.33289768  0.42334650  1
  Ti4+  Ti21  1  0.16638307  0.83305669  0.41923548  1
  Ti4+  Ti22  1  0.66604249  0.33291217  0.42334824  1
  Ti4+  Ti23  1  0.66785040  0.83478730  0.42064215  1
  Cu+  Cu24  1  0.23707629  0.47170335  0.14154773  1
  Cu+  Cu25  1  0.34403078  0.42212171  0.48107870  1
  Cu+  Cu26  1  0.57976593  0.65963181  0.48037722  1
  Cu+  Cu27  1  0.91471690  0.08578888  0.81758948  1
  Cu+  Cu28  1  0.85586052  0.93157645  0.47506152  1
  Cu+  Cu29  1  0.51777111  0.26395899  0.14476840  1
  Cu+  Cu30  1  0.74552800  0.26068425  0.14580550  1
  Cu+  Cu31  1  0.91226185  0.32342970  0.81679726  1
  Cu+  Cu32  1  0.57604986  0.42236034  0.47984656  1
  Cu+  Cu33  1  0.19228807  0.09659756  0.80599810  1
  Cu+  Cu34  1  0.67228020  0.08616847  0.81716194  1
  Cu+  Cu35  1  0.40417851  0.80791533  0.80461854  1
  Cu+  Cu36  1  0.16211344  0.08144430  0.17203895  1
  Cu+  Cu37  1  0.16498320  0.57444272  0.16990021  1
  Cu+  Cu38  1  0.66219802  0.08592540  0.16881645  1
  Cu+  Cu39  1  0.66444207  0.58365026  0.17396892  1
  Cu+  Cu40  1  0.41887369  0.33691114  0.17345903  1
  Cu+  Cu41  1  0.41783301  0.83708758  0.17164130  1
  Cu+  Cu42  1  0.91874254  0.33925510  0.16866176  1
  Cu+  Cu43  1  0.91547657  0.83689156  0.17204666  1
  Cu+  Cu44  1  0.42363520  0.08804510  0.16927401  1
  Cu+  Cu45  1  0.41016422  0.57598902  0.17450215  1
  Cu+  Cu46  1  0.91669729  0.07983071  0.17222696  1
  Cu+  Cu47  1  0.91948768  0.58441914  0.16951291  1
  Cu+  Cu48  1  0.49611364  0.25023298  0.50478972  1
  Cu+  Cu49  1  0.49445487  0.74782258  0.50147200  1
  Cu+  Cu50  1  0.99538639  0.24814011  0.50809994  1
  Cu+  Cu51  1  0.99687065  0.74635135  0.49987196  1
  Cu+  Cu52  1  0.25021295  0.00194331  0.50445942  1
  Cu+  Cu53  1  0.25280942  0.50413705  0.50269607  1
  Cu+  Cu54  1  0.75632581  0.00504790  0.50692501  1
  Cu+  Cu55  1  0.74909522  0.50315629  0.50177443  1
  Cu+  Cu56  1  0.25251932  0.24957291  0.50503411  1
  Cu+  Cu57  1  0.25229930  0.75026501  0.50244325  1
  Cu+  Cu58  1  0.75208856  0.24908537  0.50969527  1
  Cu+  Cu59  1  0.75528534  0.75115089  0.49922566  1
  Cu+  Cu60  1  0.33150937  0.41606193  0.83967834  1
  Cu+  Cu61  1  0.32803486  0.90914585  0.83181358  1
  Cu+  Cu62  1  0.82969923  0.41379103  0.83807328  1
  Cu+  Cu63  1  0.82865022  0.91265269  0.83519911  1
  Cu+  Cu64  1  0.09075569  0.17093648  0.83579152  1
  Cu+  Cu65  1  0.08437128  0.67183456  0.83332153  1
  Cu+  Cu66  1  0.58585681  0.17238316  0.83796140  1
  Cu+  Cu67  1  0.58491456  0.66968976  0.83754344  1
  Cu+  Cu68  1  0.08530044  0.41632824  0.83825456  1
  Cu+  Cu69  1  0.09201828  0.92117013  0.83278507  1
  Cu+  Cu70  1  0.58374535  0.41558369  0.84151556  1
  Cu+  Cu71  1  0.58098184  0.90949022  0.83398890  1
  Cu+  Cu72  1  0.17258296  0.08693194  0.67752730  1
  Cu+  Cu73  1  0.16757484  0.58452832  0.67151622  1
  Cu+  Cu74  1  0.66975520  0.08394677  0.68281099  1
  Cu+  Cu75  1  0.66827803  0.58448518  0.67490530  1
  Cu+  Cu76  1  0.41665509  0.33353536  0.67859729  1
  Cu+  Cu77  1  0.41356420  0.82846898  0.67575184  1
  Cu+  Cu78  1  0.91399188  0.32972769  0.68441878  1
  Cu+  Cu79  1  0.91569424  0.83088883  0.67031414  1
  Cu+  Cu80  1  0.41634760  0.08484321  0.67311545  1
  Cu+  Cu81  1  0.41639286  0.58415995  0.67596934  1
  Cu+  Cu82  1  0.91694793  0.08493943  0.68388794  1
  Cu+  Cu83  1  0.91303373  0.58322914  0.67110472  1
  Cu+  Cu84  1  0.00104035  0.24773179  0.01055171  1
  Cu+  Cu85  1  0.00293396  0.75505843  0.00338953  1
  Cu+  Cu86  1  0.50439867  0.25147411  0.01502184  1
  Cu+  Cu87  1  0.49983534  0.74891134  0.00815426  1
  Cu+  Cu88  1  0.24720217  0.49310145  0.01338888  1
  Cu+  Cu89  1  0.24931361  0.99747382  0.00468678  1
  Cu+  Cu90  1  0.74971357  0.50012848  0.00981694  1
  Cu+  Cu91  1  0.74751736  0.99605336  0.00864235  1
  Cu+  Cu92  1  0.25060727  0.24811899  0.00985843  1
  Cu+  Cu93  1  0.24885278  0.75037939  0.00478528  1
  Cu+  Cu94  1  0.74927200  0.25065841  0.01575411  1
  Cu+  Cu95  1  0.74823758  0.75135863  0.00789381  1
  Cu+  Cu96  1  0.33249684  0.41535364  0.34942340  1
  Cu+  Cu97  1  0.33720536  0.92092902  0.33878255  1
  Cu+  Cu98  1  0.83654456  0.41548253  0.34142123  1
  Cu+  Cu99  1  0.83641139  0.92017129  0.34581378  1
  Cu+  Cu100  1  0.07790180  0.16305694  0.34240293  1
  Cu+  Cu101  1  0.08392775  0.66313267  0.33737696  1
  Cu+  Cu102  1  0.58472178  0.16654491  0.34363760  1
  Cu+  Cu103  1  0.57925528  0.66431152  0.34775063  1
  Cu+  Cu104  1  0.07943459  0.41456305  0.34155864  1
  Cu+  Cu105  1  0.08066036  0.91685242  0.34035808  1
  Cu+  Cu106  1  0.58038916  0.41609109  0.34952453  1
  Cu+  Cu107  1  0.58410487  0.92277173  0.33949366  1
  Cu+  Cu108  1  0.00069836  -0.00063468  0.11569752  1
  Cu+  Cu109  1  0.00317386  0.50806220  0.11246776  1
  Cu+  Cu110  1  0.49572469  -0.00502705  0.11264751  1
  Cu+  Cu111  1  0.50273658  0.50513204  0.11931448  1
  Cu+  Cu112  1  0.33029266  0.16217530  0.44810528  1
  Cu+  Cu113  1  0.32955950  0.66767272  0.44427389  1
  Cu+  Cu114  1  0.83178462  0.16922167  0.45293789  1
  Cu+  Cu115  1  0.83583602  0.66578685  0.44163805  1
  Cu+  Cu116  1  0.16973021  0.33936109  0.78219835  1
  Cu+  Cu117  1  0.16288924  0.83083355  0.77312355  1
  Cu+  Cu118  1  0.66561705  0.33757656  0.78390787  1
  Cu+  Cu119  1  0.66799355  0.83086619  0.77771001  1
  Te2-  Te120  1  0.00195136  0.00044478  0.38967391  1
  Te2-  Te121  1  0.00097006  0.50044793  0.38477463  1
  Te2-  Te122  1  0.50010002  0.00167482  0.38544194  1
  Te2-  Te123  1  0.49802823  0.49965876  0.39458183  1
  Te2-  Te124  1  0.33832929  0.16887551  0.72162550  1
  Te2-  Te125  1  0.33013363  0.66256735  0.71924262  1
  Te2-  Te126  1  0.83322508  0.16540726  0.73046448  1
  Te2-  Te127  1  0.83375609  0.66759784  0.71597178  1
  Te2-  Te128  1  0.16515343  0.32649622  0.05583064  1
  Te2-  Te129  1  0.16687614  0.83305561  0.04797669  1
  Te2-  Te130  1  0.67001703  0.33762279  0.05907446  1
  Te2-  Te131  1  0.66419801  0.83156464  0.05178342  1
  Te2-  Te132  1  0.49720364  0.24805933  0.88716714  1
  Te2-  Te133  1  0.49093336  0.74279380  0.88210247  1
  Te2-  Te134  1  0.99214485  0.24395263  0.88435831  1
  Te2-  Te135  1  0.99719958  0.75277170  0.87719974  1
  Te2-  Te136  1  0.26040405  0.00852544  0.87914599  1
  Te2-  Te137  1  0.25061870  0.50173327  0.88586532  1
  Te2-  Te138  1  0.75285480  0.00765178  0.88278453  1
  Te2-  Te139  1  0.75268930  0.50314691  0.88381001  1
  Te2-  Te140  1  0.25747100  0.24821511  0.88389918  1
  Te2-  Te141  1  0.25080867  0.74192068  0.87926009  1
  Te2-  Te142  1  0.75509214  0.24442881  0.88758991  1
  Te2-  Te143  1  0.75218198  0.74790473  0.88181421  1
  Te2-  Te144  1  0.32354811  0.40736597  0.22137635  1
  Te2-  Te145  1  0.33119922  0.91989454  0.21288139  1
  Te2-  Te146  1  0.82738789  0.41692989  0.21572668  1
  Te2-  Te147  1  0.82585008  0.91397108  0.21895123  1
  Te2-  Te148  1  0.08396171  0.17110989  0.21676435  1
  Te2-  Te149  1  0.08861059  0.66813682  0.21129329  1
  Te2-  Te150  1  0.59089820  0.18216272  0.21798108  1
  Te2-  Te151  1  0.57928399  0.66684150  0.21924409  1
  Te2-  Te152  1  0.08329856  0.40581634  0.21598592  1
  Te2-  Te153  1  0.08374407  0.91362815  0.21490613  1
  Te2-  Te154  1  0.58761854  0.41636924  0.22129076  1
  Te2-  Te155  1  0.58726583  0.91890612  0.21369032  1
  Te2-  Te156  1  0.16376617  0.08322222  0.55043224  1
  Te2-  Te157  1  0.16294290  0.58146383  0.54576913  1
  Te2-  Te158  1  0.66460313  0.08063950  0.55436047  1
  Te2-  Te159  1  0.65649250  0.58011753  0.54899745  1
  Te2-  Te160  1  0.42204264  0.34510110  0.55266562  1
  Te2-  Te161  1  0.41955973  0.83807905  0.54862456  1
  Te2-  Te162  1  0.91890745  0.33727593  0.55644553  1
  Te2-  Te163  1  0.92292612  0.84023430  0.54493571  1
  Te2-  Te164  1  0.41928759  0.08287612  0.54748425  1
  Te2-  Te165  1  0.42233846  0.57919083  0.55023718  1
  Te2-  Te166  1  0.92394005  0.08207779  0.55536701  1
  Te2-  Te167  1  0.91585929  0.57916676  0.54526375  1
  Te2-  Te168  1  0.00011017  -0.00166100  0.88126478  1
  Te2-  Te169  1  0.00102155  0.50320907  0.88173988  1
  Te2-  Te170  1  0.49818942  -0.00131264  0.88081536  1
  Te2-  Te171  1  0.50045977  0.50144486  0.88364597  1
  Te2-  Te172  1  0.33183960  0.16557418  0.21608059  1
  Te2-  Te173  1  0.33286682  0.66868204  0.21644830  1
  Te2-  Te174  1  0.83299254  0.16781486  0.21428317  1
  Te2-  Te175  1  0.83445127  0.66776156  0.21533466  1
  Te2-  Te176  1  0.16655865  0.33448600  0.55044761  1
  Te2-  Te177  1  0.16536973  0.83214272  0.54562574  1
  Te2-  Te178  1  0.66660525  0.33425397  0.55051108  1
  Te2-  Te179  1  0.66603926  0.83264701  0.54838601  1
  Te2-  Te180  1  0.32819280  0.41497427  0.71318211  1
  Te2-  Te181  1  0.32644382  0.91410677  0.70600034  1
  Te2-  Te182  1  0.82505331  0.41452331  0.71106737  1
  Te2-  Te183  1  0.82838814  0.91168852  0.70868458  1
  Te2-  Te184  1  0.09025134  0.17679958  0.70935448  1
  Te2-  Te185  1  0.08334020  0.67022013  0.70701907  1
  Te2-  Te186  1  0.58553534  0.17291879  0.71134970  1
  Te2-  Te187  1  0.58601630  0.67168578  0.71110377  1
  Te2-  Te188  1  0.08796093  0.41567878  0.71085090  1
  Te2-  Te189  1  0.08605140  0.91331259  0.70578911  1
  Te2-  Te190  1  0.58662034  0.41538788  0.71398699  1
  Te2-  Te191  1  0.58586943  0.91032128  0.70726250  1
  Te2-  Te192  1  0.16202954  0.07850126  0.04523450  1
  Te2-  Te193  1  0.16090406  0.58037237  0.04232776  1
  Te2-  Te194  1  0.65854573  0.07733800  0.04270312  1
  Te2-  Te195  1  0.66101017  0.58149951  0.04669837  1
  Te2-  Te196  1  0.42055660  0.34065268  0.04662089  1
  Te2-  Te197  1  0.41696254  0.83540852  0.04447683  1
  Te2-  Te198  1  0.92301345  0.34080552  0.04274243  1
  Te2-  Te199  1  0.91840779  0.83906848  0.04471578  1
  Te2-  Te200  1  0.41858173  0.07819191  0.04269710  1
  Te2-  Te201  1  0.41962149  0.57902104  0.04642595  1
  Te2-  Te202  1  0.91735847  0.07762244  0.04580753  1
  Te2-  Te203  1  0.92087979  0.58492539  0.04259752  1
  Te2-  Te204  1  0.49215996  0.24404631  0.37836910  1
  Te2-  Te205  1  0.49423802  0.75212518  0.37537176  1
  Te2-  Te206  1  0.99213507  0.24612060  0.38173383  1
  Te2-  Te207  1  0.99565135  0.74571900  0.37347615  1
  Te2-  Te208  1  0.25125474  0.00483199  0.37690731  1
  Te2-  Te209  1  0.24972835  0.50554770  0.37629103  1
  Te2-  Te210  1  0.75292853  0.00884793  0.37942898  1
  Te2-  Te211  1  0.75425967  0.50449324  0.37525079  1
  Te2-  Te212  1  0.24848352  0.24285553  0.37849830  1
  Te2-  Te213  1  0.25391360  0.74986706  0.37490645  1
  Te2-  Te214  1  0.75356627  0.24754994  0.38200109  1
  Te2-  Te215  1  0.75279980  0.74600835  0.37276358  1
