# generated using pymatgen
data_Ti(CuTe)4
_symmetry_space_group_name_H-M   'P 1'
_cell_length_a   16.88842331
_cell_length_b   16.88619567
_cell_length_c   20.70679744
_cell_angle_alpha   90.01537848
_cell_angle_beta   89.96975976
_cell_angle_gamma   119.99435722
_symmetry_Int_Tables_number   1
_chemical_formula_structural   Ti(CuTe)4
_chemical_formula_sum   'Ti24 Cu96 Te96'
_cell_volume   5114.33440183
_cell_formula_units_Z   24
loop_
 _symmetry_equiv_pos_site_id
 _symmetry_equiv_pos_as_xyz
  1  'x, y, z'
loop_
 _atom_type_symbol
 _atom_type_oxidation_number
  Ti4+  4.0
  Cu+  1.0
  Te2-  -2.0
loop_
 _atom_site_type_symbol
 _atom_site_label
 _atom_site_symmetry_multiplicity
 _atom_site_fract_x
 _atom_site_fract_y
 _atom_site_fract_z
 _atom_site_occupancy
  Ti4+  Ti0  1  -0.00212057  0.00006661  0.25521329  1
  Ti4+  Ti1  1  0.00004199  0.50022941  0.25759641  1
  Ti4+  Ti2  1  0.50280525  0.00325559  0.26057270  1
  Ti4+  Ti3  1  0.50007479  0.50047181  0.25953722  1
  Ti4+  Ti4  1  0.33467723  0.16569482  0.59230755  1
  Ti4+  Ti5  1  0.33023796  0.66531184  0.58912681  1
  Ti4+  Ti6  1  0.83225923  0.16526950  0.59275090  1
  Ti4+  Ti7  1  0.83016188  0.66283232  0.59039630  1
  Ti4+  Ti8  1  0.17031864  0.33666775  0.92174128  1
  Ti4+  Ti9  1  0.16863272  0.83317442  0.92266999  1
  Ti4+  Ti10  1  0.66517569  0.33244171  0.92740791  1
  Ti4+  Ti11  1  0.66989445  0.83444181  0.92325815  1
  Ti4+  Ti12  1  -0.00167274  -0.00156326  0.75256773  1
  Ti4+  Ti13  1  0.00084849  0.50020702  0.75579323  1
  Ti4+  Ti14  1  0.49994283  0.00021731  0.75643302  1
  Ti4+  Ti15  1  0.49941012  0.49927400  0.75462686  1
  Ti4+  Ti16  1  0.33507047  0.16872116  0.09026921  1
  Ti4+  Ti17  1  0.33416251  0.66797593  0.08964796  1
  Ti4+  Ti18  1  0.83336605  0.16592051  0.08721048  1
  Ti4+  Ti19  1  0.83415343  0.66701719  0.08820890  1
  Ti4+  Ti20  1  0.16599636  0.33304052  0.42167468  1
  Ti4+  Ti21  1  0.16638012  0.83147800  0.42115971  1
  Ti4+  Ti22  1  0.66515526  0.33419785  0.42384110  1
  Ti4+  Ti23  1  0.66684915  0.83444260  0.42241300  1
  Cu+  Cu24  1  0.74664814  0.25897627  0.14747489  1
  Cu+  Cu25  1  0.40865187  0.08819261  0.81568847  1
  Cu+  Cu26  1  0.19360256  0.59719447  0.80526400  1
  Cu+  Cu27  1  0.73748732  0.97795801  0.13998688  1
  Cu+  Cu28  1  0.51837238  0.26301750  0.14820680  1
  Cu+  Cu29  1  0.68862812  0.59290122  0.80782842  1
  Cu+  Cu30  1  0.34856886  0.91939363  0.47559680  1
  Cu+  Cu31  1  0.06847776  0.64132828  0.47307698  1
  Cu+  Cu32  1  0.40784771  0.31808201  0.81102523  1
  Cu+  Cu33  1  0.56876983  0.42645259  0.47655761  1
  Cu+  Cu34  1  0.68931810  0.09645423  0.81009407  1
  Cu+  Cu35  1  0.57894862  0.15393432  0.48296142  1
  Cu+  Cu36  1  0.16301260  0.08404730  0.17097746  1
  Cu+  Cu37  1  0.16451613  0.58331312  0.17226764  1
  Cu+  Cu38  1  0.66408573  0.08249077  0.17018560  1
  Cu+  Cu39  1  0.66472556  0.58187949  0.17209053  1
  Cu+  Cu40  1  0.42236557  0.33918593  0.17323012  1
  Cu+  Cu41  1  0.41737836  0.83658530  0.17286718  1
  Cu+  Cu42  1  0.91920716  0.33970480  0.16987286  1
  Cu+  Cu43  1  0.91770910  0.83737837  0.16872451  1
  Cu+  Cu44  1  0.42259601  0.08795342  0.17372135  1
  Cu+  Cu45  1  0.41728810  0.58283345  0.17289467  1
  Cu+  Cu46  1  0.91416382  0.07652357  0.16727559  1
  Cu+  Cu47  1  0.91968147  0.58380618  0.17088794  1
  Cu+  Cu48  1  0.49522292  0.24809438  0.50503693  1
  Cu+  Cu49  1  0.49713474  0.74861146  0.50337238  1
  Cu+  Cu50  1  0.99753208  0.24827179  0.50548463  1
  Cu+  Cu51  1  0.99567996  0.74106759  0.50311507  1
  Cu+  Cu52  1  0.25602838  0.00085842  0.50288620  1
  Cu+  Cu53  1  0.24752060  0.50143662  0.50294013  1
  Cu+  Cu54  1  0.74889061  0.00200668  0.50557632  1
  Cu+  Cu55  1  0.74464229  0.50327686  0.50399091  1
  Cu+  Cu56  1  0.25184662  0.24967035  0.50409025  1
  Cu+  Cu57  1  0.24775037  0.74393975  0.50208965  1
  Cu+  Cu58  1  0.75076932  0.24479413  0.50664328  1
  Cu+  Cu59  1  0.74824463  0.74697953  0.50424216  1
  Cu+  Cu60  1  0.32730737  0.41231733  0.83430156  1
  Cu+  Cu61  1  0.32559152  0.91402181  0.83609163  1
  Cu+  Cu62  1  0.83056369  0.41390517  0.83948093  1
  Cu+  Cu63  1  0.82952352  0.91452172  0.83483826  1
  Cu+  Cu64  1  0.08531930  0.16864981  0.83437568  1
  Cu+  Cu65  1  0.09045569  0.66822787  0.83637717  1
  Cu+  Cu66  1  0.58538458  0.16969797  0.83937954  1
  Cu+  Cu67  1  0.58915830  0.66964742  0.83602206  1
  Cu+  Cu68  1  0.09216704  0.42334375  0.83607387  1
  Cu+  Cu69  1  0.08392677  0.91545926  0.83481864  1
  Cu+  Cu70  1  0.58359535  0.41505962  0.83768125  1
  Cu+  Cu71  1  0.59025750  0.92072949  0.83777386  1
  Cu+  Cu72  1  0.16836066  0.08275995  0.67305003  1
  Cu+  Cu73  1  0.16857921  0.58579521  0.67713039  1
  Cu+  Cu74  1  0.67018435  0.08496383  0.68140252  1
  Cu+  Cu75  1  0.66775917  0.58357458  0.67937529  1
  Cu+  Cu76  1  0.41517302  0.33009905  0.68116125  1
  Cu+  Cu77  1  0.41400430  0.83172703  0.67428017  1
  Cu+  Cu78  1  0.91308936  0.32890213  0.67554848  1
  Cu+  Cu79  1  0.91266790  0.82858700  0.67239913  1
  Cu+  Cu80  1  0.41672772  0.08430116  0.68305877  1
  Cu+  Cu81  1  0.41342717  0.58295848  0.67216773  1
  Cu+  Cu82  1  0.91334018  0.08156866  0.67445848  1
  Cu+  Cu83  1  0.91195955  0.58032558  0.67450029  1
  Cu+  Cu84  1  0.00567847  0.25416054  0.00393640  1
  Cu+  Cu85  1  0.00394136  0.75022896  0.00538658  1
  Cu+  Cu86  1  0.50188991  0.25081045  0.01699662  1
  Cu+  Cu87  1  0.50417765  0.75336731  0.00708197  1
  Cu+  Cu88  1  0.25073671  0.50015143  0.00717936  1
  Cu+  Cu89  1  0.24932381  0.99759174  0.00842206  1
  Cu+  Cu90  1  0.74898341  0.49883676  0.01094121  1
  Cu+  Cu91  1  0.75052330  0.99770690  0.01147347  1
  Cu+  Cu92  1  0.25107075  0.25346888  0.00747562  1
  Cu+  Cu93  1  0.25030494  0.75157534  0.00779810  1
  Cu+  Cu94  1  0.74788381  0.24937024  0.01662326  1
  Cu+  Cu95  1  0.75061043  0.74998472  0.00790395  1
  Cu+  Cu96  1  0.33477547  0.41697941  0.34149620  1
  Cu+  Cu97  1  0.33749086  0.92026070  0.34682287  1
  Cu+  Cu98  1  0.83466030  0.41902090  0.34248218  1
  Cu+  Cu99  1  0.83464067  0.91888840  0.34029974  1
  Cu+  Cu100  1  0.08039128  0.16342842  0.33879625  1
  Cu+  Cu101  1  0.08176743  0.66271657  0.34468800  1
  Cu+  Cu102  1  0.58319627  0.16708283  0.35108543  1
  Cu+  Cu103  1  0.58225629  0.66492630  0.34201846  1
  Cu+  Cu104  1  0.08123741  0.41681535  0.34020002  1
  Cu+  Cu105  1  0.07994171  0.91825899  0.33870868  1
  Cu+  Cu106  1  0.58064217  0.41924317  0.34855551  1
  Cu+  Cu107  1  0.58490676  0.92005311  0.34376370  1
  Cu+  Cu108  1  0.00396266  0.00021404  0.11090025  1
  Cu+  Cu109  1  0.00363268  0.50365152  0.11402721  1
  Cu+  Cu110  1  0.49573822  -0.00266343  0.11704860  1
  Cu+  Cu111  1  0.50089170  0.50528896  0.11684438  1
  Cu+  Cu112  1  0.32576410  0.16328508  0.44783185  1
  Cu+  Cu113  1  0.33558159  0.66389291  0.44587683  1
  Cu+  Cu114  1  0.83718004  0.16597754  0.44994760  1
  Cu+  Cu115  1  0.83519459  0.67320735  0.44698715  1
  Cu+  Cu116  1  0.15903517  0.32883371  0.77792153  1
  Cu+  Cu117  1  0.15743572  0.82903247  0.77897462  1
  Cu+  Cu118  1  0.66908628  0.33552070  0.78330645  1
  Cu+  Cu119  1  0.66280879  0.83135483  0.77949960  1
  Te2-  Te120  1  -0.00132519  0.00001504  0.38446213  1
  Te2-  Te121  1  -0.00173906  0.49646339  0.38829757  1
  Te2-  Te122  1  0.50271180  0.00075721  0.39245516  1
  Te2-  Te123  1  0.49688805  0.50209828  0.39035076  1
  Te2-  Te124  1  0.33026961  0.16415107  0.72413923  1
  Te2-  Te125  1  0.33570418  0.66801366  0.71952625  1
  Te2-  Te126  1  0.83633964  0.16676425  0.72375683  1
  Te2-  Te127  1  0.83451359  0.66614487  0.72091125  1
  Te2-  Te128  1  0.16846631  0.33563487  0.05057737  1
  Te2-  Te129  1  0.16726832  0.83288727  0.05145121  1
  Te2-  Te130  1  0.66807092  0.33571715  0.05905082  1
  Te2-  Te131  1  0.66737983  0.83105596  0.05356241  1
  Te2-  Te132  1  0.49024835  0.24527816  0.88791853  1
  Te2-  Te133  1  0.50024634  0.75051443  0.88047796  1
  Te2-  Te134  1  1.00052148  0.25302159  0.87780541  1
  Te2-  Te135  1  0.99888163  0.74666114  0.87897079  1
  Te2-  Te136  1  0.25049906  0.00792751  0.88276245  1
  Te2-  Te137  1  0.26102993  0.51116924  0.88146600  1
  Te2-  Te138  1  0.75856537  0.00896754  0.88424507  1
  Te2-  Te139  1  0.75287741  0.50423111  0.88445108  1
  Te2-  Te140  1  0.25216999  0.24394221  0.88180029  1
  Te2-  Te141  1  0.25935236  0.74919432  0.88218137  1
  Te2-  Te142  1  0.75351860  0.24773397  0.88809412  1
  Te2-  Te143  1  0.75776829  0.74830684  0.88203917  1
  Te2-  Te144  1  0.32970781  0.41422506  0.21577857  1
  Te2-  Te145  1  0.33325775  0.91993808  0.21908075  1
  Te2-  Te146  1  0.82595822  0.41665724  0.21678765  1
  Te2-  Te147  1  0.82264609  0.90917542  0.21462822  1
  Te2-  Te148  1  0.08173323  0.17152534  0.21300800  1
  Te2-  Te149  1  0.08589812  0.67193726  0.21769561  1
  Te2-  Te150  1  0.59155687  0.17927104  0.22181224  1
  Te2-  Te151  1  0.58577363  0.67089186  0.21617447  1
  Te2-  Te152  1  0.08512306  0.41437666  0.21450934  1
  Te2-  Te153  1  0.08516814  0.91541678  0.21321096  1
  Te2-  Te154  1  0.59114442  0.41653211  0.22136263  1
  Te2-  Te155  1  0.58576061  0.91430099  0.21744114  1
  Te2-  Te156  1  0.16655605  0.08007432  0.54682640  1
  Te2-  Te157  1  0.15624468  0.57664911  0.55002572  1
  Te2-  Te158  1  0.65731812  0.07578482  0.55434333  1
  Te2-  Te159  1  0.65540429  0.58058414  0.55227653  1
  Te2-  Te160  1  0.41787402  0.33883726  0.55315521  1
  Te2-  Te161  1  0.41948132  0.83855749  0.54864511  1
  Te2-  Te162  1  0.91742663  0.33634348  0.54988591  1
  Te2-  Te163  1  0.91764385  0.83230400  0.54622199  1
  Te2-  Te164  1  0.42292253  0.07782041  0.55396205  1
  Te2-  Te165  1  0.41571186  0.58022304  0.54662020  1
  Te2-  Te166  1  0.91683956  0.07965851  0.54874883  1
  Te2-  Te167  1  0.91246525  0.57168242  0.54880538  1
  Te2-  Te168  1  -0.00019883  -0.00005394  0.87881714  1
  Te2-  Te169  1  0.00032450  0.49987837  0.88262777  1
  Te2-  Te170  1  0.49713326  -0.00227632  0.88375326  1
  Te2-  Te171  1  0.49763760  0.50028003  0.88209049  1
  Te2-  Te172  1  0.33179279  0.16797171  0.21706920  1
  Te2-  Te173  1  0.33323902  0.66775055  0.21608613  1
  Te2-  Te174  1  0.83580822  0.16837604  0.21459600  1
  Te2-  Te175  1  0.83484425  0.66865745  0.21444259  1
  Te2-  Te176  1  0.16622898  0.33272892  0.54806121  1
  Te2-  Te177  1  0.16508520  0.83131968  0.54880688  1
  Te2-  Te178  1  0.66658204  0.33266980  0.55117159  1
  Te2-  Te179  1  0.66522294  0.83237216  0.54878748  1
  Te2-  Te180  1  0.32551405  0.41394351  0.70855239  1
  Te2-  Te181  1  0.32543249  0.91145503  0.71043353  1
  Te2-  Te182  1  0.82745135  0.41201917  0.71326043  1
  Te2-  Te183  1  0.82554192  0.91130371  0.70920580  1
  Te2-  Te184  1  0.08506297  0.17017760  0.70768043  1
  Te2-  Te185  1  0.08265314  0.67159831  0.70888688  1
  Te2-  Te186  1  0.58857840  0.17541570  0.71222725  1
  Te2-  Te187  1  0.58301212  0.67183381  0.70897919  1
  Te2-  Te188  1  0.08461988  0.41295821  0.70874002  1
  Te2-  Te189  1  0.08376493  0.91221906  0.70780781  1
  Te2-  Te190  1  0.58718283  0.41163951  0.71047089  1
  Te2-  Te191  1  0.58386468  0.91180729  0.71061945  1
  Te2-  Te192  1  0.16454000  0.08329826  0.04418277  1
  Te2-  Te193  1  0.16320285  0.58202636  0.04508765  1
  Te2-  Te194  1  0.65741075  0.07666978  0.04337792  1
  Te2-  Te195  1  0.66073234  0.58061893  0.04557271  1
  Te2-  Te196  1  0.42002997  0.34199584  0.04585724  1
  Te2-  Te197  1  0.42023418  0.83923283  0.04561810  1
  Te2-  Te198  1  0.92206194  0.33970160  0.04280783  1
  Te2-  Te199  1  0.92123420  0.83804443  0.04243400  1
  Te2-  Te200  1  0.41837507  0.07835246  0.04641225  1
  Te2-  Te201  1  0.42045188  0.58330075  0.04541845  1
  Te2-  Te202  1  0.92374258  0.08400365  0.04090669  1
  Te2-  Te203  1  0.92029997  0.58085595  0.04431101  1
  Te2-  Te204  1  0.49008605  0.24657115  0.37840567  1
  Te2-  Te205  1  0.49541099  0.74878396  0.37700399  1
  Te2-  Te206  1  0.99480909  0.24725399  0.37804333  1
  Te2-  Te207  1  0.99423097  0.74815566  0.37578672  1
  Te2-  Te208  1  0.24966693  0.00508017  0.37620326  1
  Te2-  Te209  1  0.25118503  0.50435823  0.37649340  1
  Te2-  Te210  1  0.75402684  0.00721854  0.37915302  1
  Te2-  Te211  1  0.75375707  0.50773084  0.37832104  1
  Te2-  Te212  1  0.25061051  0.24655088  0.37713480  1
  Te2-  Te213  1  0.25491030  0.74648524  0.37476623  1
  Te2-  Te214  1  0.75553454  0.24990657  0.37988653  1
  Te2-  Te215  1  0.75220033  0.74862619  0.37753078  1
