# generated using pymatgen
data_Ti(CuTe)4
_symmetry_space_group_name_H-M   'P 1'
_cell_length_a   16.90680646
_cell_length_b   16.90427853
_cell_length_c   20.72729773
_cell_angle_alpha   89.96314278
_cell_angle_beta   90.01954032
_cell_angle_gamma   120.00908264
_symmetry_Int_Tables_number   1
_chemical_formula_structural   Ti(CuTe)4
_chemical_formula_sum   'Ti24 Cu96 Te96'
_cell_volume   5129.69676730
_cell_formula_units_Z   24
loop_
 _symmetry_equiv_pos_site_id
 _symmetry_equiv_pos_as_xyz
  1  'x, y, z'
loop_
 _atom_type_symbol
 _atom_type_oxidation_number
  Ti4+  4.0
  Cu+  1.0
  Te2-  -2.0
loop_
 _atom_site_type_symbol
 _atom_site_label
 _atom_site_symmetry_multiplicity
 _atom_site_fract_x
 _atom_site_fract_y
 _atom_site_fract_z
 _atom_site_occupancy
  Ti4+  Ti0  1  0.00219545  0.00119364  0.25673149  1
  Ti4+  Ti1  1  -0.00133477  0.49885412  0.25820841  1
  Ti4+  Ti2  1  0.49746301  -0.00236903  0.25682843  1
  Ti4+  Ti3  1  0.50106943  0.49859235  0.26098112  1
  Ti4+  Ti4  1  0.33365154  0.17142883  0.59058439  1
  Ti4+  Ti5  1  0.33365802  0.66863048  0.58878779  1
  Ti4+  Ti6  1  0.83104391  0.16545312  0.59223778  1
  Ti4+  Ti7  1  0.83407804  0.66787457  0.59545094  1
  Ti4+  Ti8  1  0.16581537  0.33341408  0.92712613  1
  Ti4+  Ti9  1  0.16775510  0.83577406  0.92175161  1
  Ti4+  Ti10  1  0.66659413  0.33089584  0.92126223  1
  Ti4+  Ti11  1  0.66661866  0.83147001  0.92268083  1
  Ti4+  Ti12  1  -0.00028381  0.00046335  0.75396929  1
  Ti4+  Ti13  1  0.00025887  0.49844159  0.75304187  1
  Ti4+  Ti14  1  0.49848367  0.00124984  0.75344768  1
  Ti4+  Ti15  1  0.50011944  0.50058459  0.75519399  1
  Ti4+  Ti16  1  0.33283285  0.16469768  0.08836053  1
  Ti4+  Ti17  1  0.33371245  0.66692157  0.08824768  1
  Ti4+  Ti18  1  0.83395895  0.16714932  0.08850515  1
  Ti4+  Ti19  1  0.83316082  0.66552466  0.08972976  1
  Ti4+  Ti20  1  0.16751808  0.33251833  0.42199728  1
  Ti4+  Ti21  1  0.16581113  0.83250059  0.42288067  1
  Ti4+  Ti22  1  0.66639664  0.33235393  0.42360353  1
  Ti4+  Ti23  1  0.66564265  0.83386996  0.42234846  1
  Cu+  Cu24  1  0.91247577  0.82433682  0.81533571  1
  Cu+  Cu25  1  0.01622743  0.26163427  0.14530174  1
  Cu+  Cu26  1  0.67789181  0.58806523  0.81380035  1
  Cu+  Cu27  1  0.57110802  0.93054448  0.47303990  1
  Cu+  Cu28  1  0.24820274  0.25857510  0.14710835  1
  Cu+  Cu29  1  0.23820573  0.97545331  0.14004923  1
  Cu+  Cu30  1  0.58109297  0.43082683  0.47907122  1
  Cu+  Cu31  1  0.40376132  0.09683439  0.80372497  1
  Cu+  Cu32  1  0.91395904  0.58747032  0.81282880  1
  Cu+  Cu33  1  0.91312076  0.31449334  0.80756147  1
  Cu+  Cu34  1  0.67901707  0.08514923  0.80967345  1
  Cu+  Cu35  1  0.35173761  0.43049924  0.47581927  1
  Cu+  Cu36  1  0.16355923  0.07974099  0.16842285  1
  Cu+  Cu37  1  0.16362471  0.58355659  0.17003573  1
  Cu+  Cu38  1  0.66275434  0.08016966  0.17182354  1
  Cu+  Cu39  1  0.66536113  0.57840043  0.17450876  1
  Cu+  Cu40  1  0.42045948  0.33839387  0.17334588  1
  Cu+  Cu41  1  0.41899521  0.83584782  0.16983000  1
  Cu+  Cu42  1  0.92003723  0.33822923  0.17153213  1
  Cu+  Cu43  1  0.91813696  0.83537013  0.17115024  1
  Cu+  Cu44  1  0.41366683  0.07507909  0.16966259  1
  Cu+  Cu45  1  0.41701442  0.58151776  0.17244563  1
  Cu+  Cu46  1  0.92197834  0.08613866  0.16970885  1
  Cu+  Cu47  1  0.91595004  0.57949411  0.17240318  1
  Cu+  Cu48  1  0.49774274  0.25420751  0.50439082  1
  Cu+  Cu49  1  0.49640853  0.75441226  0.50178434  1
  Cu+  Cu50  1  0.99700418  0.24902710  0.50573589  1
  Cu+  Cu51  1  0.99791081  0.75036007  0.50809565  1
  Cu+  Cu52  1  0.25041793  0.00285570  0.50598863  1
  Cu+  Cu53  1  0.25451965  0.50369358  0.50341237  1
  Cu+  Cu54  1  0.74491788  0.00212137  0.50469644  1
  Cu+  Cu55  1  0.75157078  0.50449616  0.50847107  1
  Cu+  Cu56  1  0.25626250  0.25409521  0.50300238  1
  Cu+  Cu57  1  0.24944634  0.74720749  0.50314225  1
  Cu+  Cu58  1  0.75257453  0.24713039  0.50542025  1
  Cu+  Cu59  1  0.75323406  0.75045114  0.50647143  1
  Cu+  Cu60  1  0.33011714  0.41512197  0.84034068  1
  Cu+  Cu61  1  0.33079113  0.92256559  0.83500176  1
  Cu+  Cu62  1  0.83030622  0.41051608  0.83231397  1
  Cu+  Cu63  1  0.82749318  0.91226676  0.83449126  1
  Cu+  Cu64  1  0.08586218  0.17154808  0.83868022  1
  Cu+  Cu65  1  0.08743604  0.67209685  0.83419104  1
  Cu+  Cu66  1  0.58242439  0.16831480  0.83351797  1
  Cu+  Cu67  1  0.58635353  0.66989689  0.83607372  1
  Cu+  Cu68  1  0.08356640  0.41089967  0.83761903  1
  Cu+  Cu69  1  0.08718651  0.91572268  0.83443735  1
  Cu+  Cu70  1  0.58664332  0.41473129  0.83466158  1
  Cu+  Cu71  1  0.58551689  0.91366290  0.83653465  1
  Cu+  Cu72  1  0.16777046  0.08772108  0.67301104  1
  Cu+  Cu73  1  0.17031828  0.58270375  0.67161607  1
  Cu+  Cu74  1  0.66751448  0.08392765  0.67975914  1
  Cu+  Cu75  1  0.66953911  0.58544743  0.68244592  1
  Cu+  Cu76  1  0.41467727  0.33491031  0.67614968  1
  Cu+  Cu77  1  0.41340539  0.83140317  0.67259683  1
  Cu+  Cu78  1  0.91605805  0.32843815  0.67913073  1
  Cu+  Cu79  1  0.91653903  0.83133776  0.68246782  1
  Cu+  Cu80  1  0.41192319  0.08764143  0.67640294  1
  Cu+  Cu81  1  0.41368354  0.58523073  0.67366003  1
  Cu+  Cu82  1  0.91535864  0.08446034  0.67348011  1
  Cu+  Cu83  1  0.91621100  0.58509722  0.68084297  1
  Cu+  Cu84  1  0.00262529  0.25218502  0.01521282  1
  Cu+  Cu85  1  0.00046808  0.75002796  0.00881828  1
  Cu+  Cu86  1  0.50181029  0.24988799  0.00687742  1
  Cu+  Cu87  1  0.50266091  0.74953250  0.00658910  1
  Cu+  Cu88  1  0.24877213  0.49890284  0.00900422  1
  Cu+  Cu89  1  0.24978885  0.99759678  0.01095385  1
  Cu+  Cu90  1  0.74942278  0.49710199  0.00892986  1
  Cu+  Cu91  1  0.74745347  0.99519675  0.00735649  1
  Cu+  Cu92  1  0.24931569  0.25231707  0.01561654  1
  Cu+  Cu93  1  0.25140141  0.75325217  0.00501367  1
  Cu+  Cu94  1  0.74883187  0.24875213  0.00719860  1
  Cu+  Cu95  1  0.74760653  0.74756668  0.01012153  1
  Cu+  Cu96  1  0.33700825  0.41595135  0.34755614  1
  Cu+  Cu97  1  0.33241177  0.91477678  0.34072446  1
  Cu+  Cu98  1  0.83546205  0.41564983  0.34213755  1
  Cu+  Cu99  1  0.83650856  0.91847933  0.34084379  1
  Cu+  Cu100  1  0.08244901  0.16430833  0.34255525  1
  Cu+  Cu101  1  0.07852852  0.66193332  0.34210860  1
  Cu+  Cu102  1  0.58265863  0.16264982  0.34026221  1
  Cu+  Cu103  1  0.58465492  0.66520209  0.34285787  1
  Cu+  Cu104  1  0.08006835  0.41613343  0.34172105  1
  Cu+  Cu105  1  0.08217225  0.91692124  0.34195392  1
  Cu+  Cu106  1  0.58232529  0.41665228  0.34886808  1
  Cu+  Cu107  1  0.58107026  0.91828666  0.34467514  1
  Cu+  Cu108  1  -0.00506404  -0.00378275  0.11321707  1
  Cu+  Cu109  1  0.00176397  0.50407759  0.11473843  1
  Cu+  Cu110  1  0.50261156  -0.00063190  0.11330473  1
  Cu+  Cu111  1  0.50381166  0.50580667  0.11874458  1
  Cu+  Cu112  1  0.33281041  0.16222290  0.44806235  1
  Cu+  Cu113  1  0.33134028  0.66554208  0.44481874  1
  Cu+  Cu114  1  0.83653434  0.16567173  0.44878416  1
  Cu+  Cu115  1  0.83557903  0.66890741  0.45203935  1
  Cu+  Cu116  1  0.17026962  0.33336558  0.78289818  1
  Cu+  Cu117  1  0.16914160  0.83279966  0.77645508  1
  Cu+  Cu118  1  0.66661777  0.33293934  0.77610654  1
  Cu+  Cu119  1  0.66382011  0.83309009  0.77750184  1
  Te2-  Te120  1  0.00034492  -0.00034909  0.38524400  1
  Te2-  Te121  1  -0.00111725  0.49828463  0.38730421  1
  Te2-  Te122  1  0.49619613  -0.00014075  0.38726771  1
  Te2-  Te123  1  0.50298106  0.50317275  0.39287390  1
  Te2-  Te124  1  0.32988653  0.17101473  0.72123784  1
  Te2-  Te125  1  0.33280829  0.66804824  0.71793745  1
  Te2-  Te126  1  0.83301518  0.16313793  0.72446677  1
  Te2-  Te127  1  0.83432167  0.66676317  0.72855476  1
  Te2-  Te128  1  0.16844868  0.33697042  0.05906872  1
  Te2-  Te129  1  0.16567625  0.83066949  0.05162241  1
  Te2-  Te130  1  0.66646611  0.33129606  0.04939149  1
  Te2-  Te131  1  0.66615322  0.83130235  0.05110540  1
  Te2-  Te132  1  0.49397547  0.24862350  0.88090811  1
  Te2-  Te133  1  0.49607699  0.74634281  0.88058077  1
  Te2-  Te134  1  0.99183623  0.24328536  0.88717895  1
  Te2-  Te135  1  0.99157413  0.74546678  0.88276756  1
  Te2-  Te136  1  0.25152809  0.00983191  0.88374040  1
  Te2-  Te137  1  0.25006225  0.50357697  0.88323141  1
  Te2-  Te138  1  0.75577069  0.00517317  0.88189238  1
  Te2-  Te139  1  0.75619862  0.50662500  0.88257061  1
  Te2-  Te140  1  0.25188682  0.24827197  0.88724007  1
  Te2-  Te141  1  0.25448273  0.75299442  0.87872692  1
  Te2-  Te142  1  0.75370978  0.24306161  0.88092693  1
  Te2-  Te143  1  0.75544047  0.74330514  0.88418483  1
  Te2-  Te144  1  0.32779677  0.41474023  0.22025635  1
  Te2-  Te145  1  0.32320623  0.90693231  0.21518638  1
  Te2-  Te146  1  0.82703501  0.41172194  0.21651271  1
  Te2-  Te147  1  0.83201144  0.91795507  0.21451417  1
  Te2-  Te148  1  0.09105863  0.17764733  0.21659732  1
  Te2-  Te149  1  0.08354896  0.67014924  0.21614844  1
  Te2-  Te150  1  0.58223096  0.16843250  0.21440692  1
  Te2-  Te151  1  0.58565678  0.66811699  0.21674971  1
  Te2-  Te152  1  0.09032390  0.41632147  0.21624417  1
  Te2-  Te153  1  0.08579541  0.91161617  0.21582507  1
  Te2-  Te154  1  0.58557437  0.41173407  0.22145061  1
  Te2-  Te155  1  0.58494657  0.91330873  0.21765771  1
  Te2-  Te156  1  0.16390842  0.08617034  0.54748460  1
  Te2-  Te157  1  0.16263553  0.57905400  0.54628411  1
  Te2-  Te158  1  0.65677730  0.08149544  0.55239424  1
  Te2-  Te159  1  0.66109337  0.58417843  0.55445922  1
  Te2-  Te160  1  0.42361812  0.34857892  0.55086569  1
  Te2-  Te161  1  0.41667792  0.84278839  0.54744871  1
  Te2-  Te162  1  0.91860397  0.33710462  0.55235519  1
  Te2-  Te163  1  0.91912416  0.83856083  0.55455576  1
  Te2-  Te164  1  0.41899967  0.08633198  0.54970325  1
  Te2-  Te165  1  0.42497975  0.58656253  0.54818694  1
  Te2-  Te166  1  0.91473243  0.07974160  0.54777380  1
  Te2-  Te167  1  0.91871152  0.58240011  0.55333899  1
  Te2-  Te168  1  -0.00046276  -0.00068104  0.88089429  1
  Te2-  Te169  1  0.00091561  0.50066427  0.88081015  1
  Te2-  Te170  1  0.50024898  -0.00116592  0.88079722  1
  Te2-  Te171  1  0.50107194  0.49924506  0.88210299  1
  Te2-  Te172  1  0.33415707  0.16576723  0.21568140  1
  Te2-  Te173  1  0.33276447  0.66685486  0.21455300  1
  Te2-  Te174  1  0.83296854  0.16675290  0.21520654  1
  Te2-  Te175  1  0.83448563  0.66665529  0.21613547  1
  Te2-  Te176  1  0.16663264  0.33397122  0.54875371  1
  Te2-  Te177  1  0.16757405  0.83399773  0.54916374  1
  Te2-  Te178  1  0.66740321  0.33273941  0.55028498  1
  Te2-  Te179  1  0.66518159  0.83290410  0.54902915  1
  Te2-  Te180  1  0.32763065  0.41662502  0.71321269  1
  Te2-  Te181  1  0.32666466  0.91489005  0.70785320  1
  Te2-  Te182  1  0.82592237  0.41183401  0.70612293  1
  Te2-  Te183  1  0.82606840  0.91446067  0.70849640  1
  Te2-  Te184  1  0.08474302  0.17351881  0.71210152  1
  Te2-  Te185  1  0.08929870  0.67171179  0.70784814  1
  Te2-  Te186  1  0.58471741  0.17438921  0.70676085  1
  Te2-  Te187  1  0.58378888  0.67301824  0.70960069  1
  Te2-  Te188  1  0.08873414  0.41341193  0.71050073  1
  Te2-  Te189  1  0.08994249  0.91756214  0.70854354  1
  Te2-  Te190  1  0.58493856  0.41232728  0.70855779  1
  Te2-  Te191  1  0.58244830  0.91163924  0.70932074  1
  Te2-  Te192  1  0.15885797  0.07876424  0.04209693  1
  Te2-  Te193  1  0.16220940  0.58311291  0.04341100  1
  Te2-  Te194  1  0.66221539  0.07932280  0.04474287  1
  Te2-  Te195  1  0.66109783  0.57795246  0.04717343  1
  Te2-  Te196  1  0.42214917  0.33923894  0.04628837  1
  Te2-  Te197  1  0.42077217  0.83801999  0.04337908  1
  Te2-  Te198  1  0.91824482  0.34063925  0.04433248  1
  Te2-  Te199  1  0.91803874  0.83702199  0.04464213  1
  Te2-  Te200  1  0.42147786  0.08048726  0.04305368  1
  Te2-  Te201  1  0.41908382  0.57999783  0.04564931  1
  Te2-  Te202  1  0.91772648  0.07840909  0.04302747  1
  Te2-  Te203  1  0.91908577  0.58016702  0.04529130  1
  Te2-  Te204  1  0.49405174  0.24378252  0.37788093  1
  Te2-  Te205  1  0.49359039  0.74525179  0.37552520  1
  Te2-  Te206  1  0.99515310  0.24689672  0.37893863  1
  Te2-  Te207  1  0.99410898  0.74719006  0.38074652  1
  Te2-  Te208  1  0.25185672  0.00351437  0.37854492  1
  Te2-  Te209  1  0.25152004  0.50446800  0.37615712  1
  Te2-  Te210  1  0.75353850  0.00587861  0.37729087  1
  Te2-  Te211  1  0.75510382  0.50559153  0.38078238  1
  Te2-  Te212  1  0.25234036  0.24370856  0.37712398  1
  Te2-  Te213  1  0.24928200  0.74521992  0.37719528  1
  Te2-  Te214  1  0.75180677  0.24584306  0.37962337  1
  Te2-  Te215  1  0.75410474  0.74905409  0.38022078  1
