# generated using pymatgen
data_Ti(CuTe)4
_symmetry_space_group_name_H-M   'P 1'
_cell_length_a   16.89993250
_cell_length_b   16.89715600
_cell_length_c   20.72094037
_cell_angle_alpha   89.98347757
_cell_angle_beta   89.98616969
_cell_angle_gamma   120.00513382
_symmetry_Int_Tables_number   1
_chemical_formula_structural   Ti(CuTe)4
_chemical_formula_sum   'Ti24 Cu96 Te96'
_cell_volume   5124.08288277
_cell_formula_units_Z   24
loop_
 _symmetry_equiv_pos_site_id
 _symmetry_equiv_pos_as_xyz
  1  'x, y, z'
loop_
 _atom_type_symbol
 _atom_type_oxidation_number
  Ti4+  4.0
  Cu+  1.0
  Te2-  -2.0
loop_
 _atom_site_type_symbol
 _atom_site_label
 _atom_site_symmetry_multiplicity
 _atom_site_fract_x
 _atom_site_fract_y
 _atom_site_fract_z
 _atom_site_occupancy
  Ti4+  Ti0  1  0.00469592  0.00153368  0.25541686  1
  Ti4+  Ti1  1  0.00209628  0.50133918  0.25746488  1
  Ti4+  Ti2  1  0.50489601  0.00385937  0.25891951  1
  Ti4+  Ti3  1  0.50258170  0.50243476  0.25964206  1
  Ti4+  Ti4  1  0.33364264  0.16648332  0.59382988  1
  Ti4+  Ti5  1  0.33013637  0.66912092  0.58631266  1
  Ti4+  Ti6  1  0.83263523  0.16732058  0.58915987  1
  Ti4+  Ti7  1  0.82859205  0.66437883  0.58911268  1
  Ti4+  Ti8  1  0.16739261  0.33107576  0.92181122  1
  Ti4+  Ti9  1  0.16555609  0.83094423  0.92504231  1
  Ti4+  Ti10  1  0.66495975  0.33118042  0.92928731  1
  Ti4+  Ti11  1  0.66492495  0.83095074  0.92499358  1
  Ti4+  Ti12  1  -0.00156001  -0.00118371  0.75314069  1
  Ti4+  Ti13  1  -0.00159498  0.49929323  0.75623540  1
  Ti4+  Ti14  1  0.49861659  -0.00119123  0.75781854  1
  Ti4+  Ti15  1  0.49729765  0.49970725  0.75604118  1
  Ti4+  Ti16  1  0.33261486  0.16607873  0.08985081  1
  Ti4+  Ti17  1  0.33510391  0.66626090  0.09039122  1
  Ti4+  Ti18  1  0.83284929  0.16567066  0.08727018  1
  Ti4+  Ti19  1  0.83499476  0.66619061  0.08901212  1
  Ti4+  Ti20  1  0.16741131  0.33444638  0.42074615  1
  Ti4+  Ti21  1  0.16816924  0.83405759  0.42071253  1
  Ti4+  Ti22  1  0.66762018  0.33508756  0.42264178  1
  Ti4+  Ti23  1  0.66760514  0.83461282  0.41894721  1
  Cu+  Cu24  1  0.57865295  0.92833808  0.47541353  1
  Cu+  Cu25  1  0.02514463  0.76222057  0.14083420  1
  Cu+  Cu26  1  0.06850821  0.65088617  0.47439511  1
  Cu+  Cu27  1  0.57271843  0.65355110  0.47634796  1
  Cu+  Cu28  1  0.35239262  0.93271829  0.47353568  1
  Cu+  Cu29  1  0.06876522  0.42175824  0.47297180  1
  Cu+  Cu30  1  0.51705891  0.26202153  0.14634218  1
  Cu+  Cu31  1  0.18001733  0.08504700  0.81057622  1
  Cu+  Cu32  1  0.41270192  0.31700399  0.81274836  1
  Cu+  Cu33  1  0.57022295  0.42142465  0.47823466  1
  Cu+  Cu34  1  0.52614944  0.76380876  0.14240745  1
  Cu+  Cu35  1  0.74708830  0.26117590  0.14554570  1
  Cu+  Cu36  1  0.16282329  0.08153679  0.16976015  1
  Cu+  Cu37  1  0.16478881  0.58095894  0.17161093  1
  Cu+  Cu38  1  0.66471464  0.08547540  0.16970114  1
  Cu+  Cu39  1  0.66384111  0.58125722  0.17209024  1
  Cu+  Cu40  1  0.42119506  0.33724810  0.17337398  1
  Cu+  Cu41  1  0.42384676  0.83631995  0.17354762  1
  Cu+  Cu42  1  0.91925598  0.33754165  0.17047790  1
  Cu+  Cu43  1  0.92556094  0.83652994  0.16965382  1
  Cu+  Cu44  1  0.42157797  0.08633003  0.17205187  1
  Cu+  Cu45  1  0.42451040  0.58852554  0.17313933  1
  Cu+  Cu46  1  0.92190187  0.08380048  0.16902005  1
  Cu+  Cu47  1  0.92526916  0.58732729  0.17005723  1
  Cu+  Cu48  1  0.49575301  0.24961201  0.50636965  1
  Cu+  Cu49  1  0.49442935  0.75114272  0.49859993  1
  Cu+  Cu50  1  0.99618889  0.25087128  0.50323582  1
  Cu+  Cu51  1  0.99325512  0.74526681  0.50346758  1
  Cu+  Cu52  1  0.25437241  0.00396719  0.50655422  1
  Cu+  Cu53  1  0.24525155  0.50363537  0.49952225  1
  Cu+  Cu54  1  0.75027878  0.00569660  0.50197366  1
  Cu+  Cu55  1  0.74652702  0.50370539  0.50251549  1
  Cu+  Cu56  1  0.25114204  0.24832906  0.50605137  1
  Cu+  Cu57  1  0.25111709  0.75070184  0.49841165  1
  Cu+  Cu58  1  0.75193015  0.24794017  0.50306840  1
  Cu+  Cu59  1  0.74691903  0.74422564  0.50109400  1
  Cu+  Cu60  1  0.32862075  0.40967099  0.83540291  1
  Cu+  Cu61  1  0.32891114  0.91170580  0.83925524  1
  Cu+  Cu62  1  0.83088002  0.41339005  0.84207892  1
  Cu+  Cu63  1  0.82740812  0.91162987  0.83693060  1
  Cu+  Cu64  1  0.08781848  0.16812130  0.83370432  1
  Cu+  Cu65  1  0.08218378  0.66701686  0.83938802  1
  Cu+  Cu66  1  0.58379866  0.16715086  0.84238283  1
  Cu+  Cu67  1  0.58127968  0.66991212  0.83905949  1
  Cu+  Cu68  1  0.08622246  0.41572346  0.83687070  1
  Cu+  Cu69  1  0.08441572  0.91279706  0.83715237  1
  Cu+  Cu70  1  0.58243973  0.41193329  0.84195926  1
  Cu+  Cu71  1  0.58091786  0.91102722  0.83977481  1
  Cu+  Cu72  1  0.16846998  0.08301626  0.67968599  1
  Cu+  Cu73  1  0.16448551  0.58552969  0.67289194  1
  Cu+  Cu74  1  0.66812362  0.08349777  0.67633359  1
  Cu+  Cu75  1  0.66399016  0.58400212  0.67642577  1
  Cu+  Cu76  1  0.41417803  0.33124674  0.68250064  1
  Cu+  Cu77  1  0.41510880  0.83407475  0.67339557  1
  Cu+  Cu78  1  0.91419955  0.33133625  0.67527444  1
  Cu+  Cu79  1  0.91170087  0.82883994  0.67211358  1
  Cu+  Cu80  1  0.41668203  0.08477208  0.67884469  1
  Cu+  Cu81  1  0.41362617  0.58681768  0.67263130  1
  Cu+  Cu82  1  0.91247702  0.08324406  0.67178136  1
  Cu+  Cu83  1  0.91076730  0.58224552  0.67540947  1
  Cu+  Cu84  1  0.00267160  0.24954231  0.00384906  1
  Cu+  Cu85  1  0.00334773  0.75031988  0.01155256  1
  Cu+  Cu86  1  0.50164569  0.25018773  0.01659951  1
  Cu+  Cu87  1  0.50374199  0.75070038  0.01384728  1
  Cu+  Cu88  1  0.24921596  0.49480079  0.00670907  1
  Cu+  Cu89  1  0.24566155  0.99606318  0.00965227  1
  Cu+  Cu90  1  0.74774806  0.49647418  0.01119457  1
  Cu+  Cu91  1  0.74750301  0.99593748  0.00699967  1
  Cu+  Cu92  1  0.24780344  0.24845092  0.00826136  1
  Cu+  Cu93  1  0.24787745  0.74780972  0.00895613  1
  Cu+  Cu94  1  0.74717171  0.24947879  0.01588706  1
  Cu+  Cu95  1  0.74700272  0.74828334  0.00768601  1
  Cu+  Cu96  1  0.33718099  0.41682936  0.34131949  1
  Cu+  Cu97  1  0.34041436  0.92193290  0.34502955  1
  Cu+  Cu98  1  0.83615313  0.41865481  0.34157680  1
  Cu+  Cu99  1  0.84221440  0.92043709  0.33722216  1
  Cu+  Cu100  1  0.08516961  0.16466196  0.33980329  1
  Cu+  Cu101  1  0.08339589  0.66591832  0.34514864  1
  Cu+  Cu102  1  0.58619048  0.16923894  0.34457806  1
  Cu+  Cu103  1  0.58514370  0.66556980  0.34651335  1
  Cu+  Cu104  1  0.08207267  0.41781624  0.34397944  1
  Cu+  Cu105  1  0.08542662  0.91930860  0.34025739  1
  Cu+  Cu106  1  0.58235126  0.41834770  0.34892293  1
  Cu+  Cu107  1  0.58647645  0.92145467  0.34534732  1
  Cu+  Cu108  1  -0.00475347  -0.00178542  0.11110653  1
  Cu+  Cu109  1  0.00290421  0.49909789  0.11308220  1
  Cu+  Cu110  1  0.49555137  -0.00316393  0.11604119  1
  Cu+  Cu111  1  0.49766173  0.49914172  0.11669467  1
  Cu+  Cu112  1  0.33054818  0.16671319  0.45042914  1
  Cu+  Cu113  1  0.33250433  0.66566479  0.44127541  1
  Cu+  Cu114  1  0.83559903  0.16754628  0.44487469  1
  Cu+  Cu115  1  0.83487566  0.66942671  0.44455558  1
  Cu+  Cu116  1  0.16293750  0.33281095  0.77750943  1
  Cu+  Cu117  1  0.16482050  0.82933606  0.78201925  1
  Cu+  Cu118  1  0.66817738  0.33274374  0.78765006  1
  Cu+  Cu119  1  0.66508138  0.83343204  0.78153354  1
  Te2-  Te120  1  0.00392709  0.00132059  0.38491047  1
  Te2-  Te121  1  -0.00166907  0.49998876  0.38950303  1
  Te2-  Te122  1  0.50544942  0.00592268  0.39081276  1
  Te2-  Te123  1  0.49789549  0.50014010  0.39193823  1
  Te2-  Te124  1  0.33366615  0.16492792  0.72561319  1
  Te2-  Te125  1  0.32993245  0.66837234  0.71450049  1
  Te2-  Te126  1  0.83314670  0.16661937  0.71805862  1
  Te2-  Te127  1  0.82924156  0.66557854  0.71774929  1
  Te2-  Te128  1  0.16540982  0.33078306  0.05061297  1
  Te2-  Te129  1  0.16940388  0.83253859  0.05559808  1
  Te2-  Te130  1  0.66748566  0.33514523  0.06175584  1
  Te2-  Te131  1  0.67032407  0.83400037  0.05624038  1
  Te2-  Te132  1  0.49197261  0.24223650  0.88903374  1
  Te2-  Te133  1  0.49175016  0.74522859  0.88727745  1
  Te2-  Te134  1  0.99754634  0.24570017  0.87797482  1
  Te2-  Te135  1  0.99428618  0.74693504  0.88446928  1
  Te2-  Te136  1  0.25424103  0.00448136  0.88393470  1
  Te2-  Te137  1  0.25434780  0.50222139  0.88080641  1
  Te2-  Te138  1  0.75007455  0.00187052  0.88140496  1
  Te2-  Te139  1  0.74967267  0.50131203  0.88519964  1
  Te2-  Te140  1  0.25571971  0.24132665  0.88280389  1
  Te2-  Te141  1  0.25030227  0.74417523  0.88316733  1
  Te2-  Te142  1  0.75074062  0.24611032  0.88858092  1
  Te2-  Te143  1  0.74950814  0.74417715  0.88208708  1
  Te2-  Te144  1  0.33369227  0.41810142  0.21533839  1
  Te2-  Te145  1  0.33604667  0.91847451  0.21758527  1
  Te2-  Te146  1  0.82983791  0.41932778  0.21580676  1
  Te2-  Te147  1  0.83406061  0.91461204  0.21160733  1
  Te2-  Te148  1  0.08892013  0.17395754  0.21453803  1
  Te2-  Te149  1  0.09228303  0.67514079  0.21808442  1
  Te2-  Te150  1  0.59119925  0.17985452  0.21877870  1
  Te2-  Te151  1  0.59298523  0.67625191  0.21932869  1
  Te2-  Te152  1  0.08508058  0.41389530  0.21709193  1
  Te2-  Te153  1  0.09461836  0.91584747  0.21540767  1
  Te2-  Te154  1  0.59039825  0.41638944  0.22155092  1
  Te2-  Te155  1  0.59356458  0.91984916  0.21822144  1
  Te2-  Te156  1  0.16393410  0.08040238  0.55180632  1
  Te2-  Te157  1  0.15443992  0.58113452  0.54682451  1
  Te2-  Te158  1  0.65792377  0.08220821  0.55029245  1
  Te2-  Te159  1  0.65091545  0.57669237  0.55055675  1
  Te2-  Te160  1  0.41708422  0.33984991  0.55449632  1
  Te2-  Te161  1  0.41990851  0.84489101  0.54739220  1
  Te2-  Te162  1  0.91727738  0.34193884  0.54956171  1
  Te2-  Te163  1  0.91453823  0.83467708  0.54598314  1
  Te2-  Te164  1  0.42407893  0.08366615  0.55267793  1
  Te2-  Te165  1  0.41371904  0.58065162  0.54615475  1
  Te2-  Te166  1  0.91765276  0.08178858  0.54572438  1
  Te2-  Te167  1  0.91265730  0.57500444  0.54935709  1
  Te2-  Te168  1  -0.00186931  -0.00209771  0.87999048  1
  Te2-  Te169  1  0.00076390  0.49809746  0.88244694  1
  Te2-  Te170  1  0.49789675  -0.00334993  0.88401549  1
  Te2-  Te171  1  0.49758800  0.49954884  0.88284881  1
  Te2-  Te172  1  0.33239696  0.16660920  0.21672529  1
  Te2-  Te173  1  0.33373580  0.66692365  0.21711269  1
  Te2-  Te174  1  0.83583154  0.16687106  0.21418578  1
  Te2-  Te175  1  0.83522812  0.66715133  0.21560592  1
  Te2-  Te176  1  0.16646076  0.33474339  0.54753511  1
  Te2-  Te177  1  0.16384872  0.83184758  0.54811863  1
  Te2-  Te178  1  0.66726193  0.33366357  0.54933345  1
  Te2-  Te179  1  0.66497300  0.83370352  0.54636015  1
  Te2-  Te180  1  0.32546367  0.41646978  0.70880050  1
  Te2-  Te181  1  0.32679249  0.91408546  0.71282534  1
  Te2-  Te182  1  0.82628575  0.41281284  0.71466001  1
  Te2-  Te183  1  0.82646379  0.91334840  0.71001893  1
  Te2-  Te184  1  0.08298583  0.17133818  0.70709866  1
  Te2-  Te185  1  0.08107863  0.67063806  0.71204028  1
  Te2-  Te186  1  0.58652926  0.17168109  0.71576069  1
  Te2-  Te187  1  0.58207644  0.67208564  0.71227025  1
  Te2-  Te188  1  0.08475758  0.41551628  0.70980447  1
  Te2-  Te189  1  0.08209231  0.90945457  0.70947614  1
  Te2-  Te190  1  0.58640320  0.41436938  0.71425523  1
  Te2-  Te191  1  0.58388279  0.91323445  0.71256543  1
  Te2-  Te192  1  0.16006499  0.07936228  0.04449028  1
  Te2-  Te193  1  0.16358043  0.57850909  0.04533970  1
  Te2-  Te194  1  0.65862843  0.07623473  0.04394162  1
  Te2-  Te195  1  0.66110224  0.57954408  0.04661776  1
  Te2-  Te196  1  0.41752370  0.33909956  0.04569195  1
  Te2-  Te197  1  0.41818201  0.83802351  0.04573582  1
  Te2-  Te198  1  0.92168150  0.33810948  0.04277234  1
  Te2-  Te199  1  0.91787907  0.83754615  0.04241330  1
  Te2-  Te200  1  0.41623369  0.07677598  0.04523370  1
  Te2-  Te201  1  0.41841803  0.57802244  0.04561053  1
  Te2-  Te202  1  0.91837227  0.08026675  0.04197662  1
  Te2-  Te203  1  0.91915336  0.57762667  0.04364841  1
  Te2-  Te204  1  0.49311073  0.24582111  0.37951995  1
  Te2-  Te205  1  0.49373213  0.74799760  0.37177867  1
  Te2-  Te206  1  0.99571973  0.24569512  0.37565830  1
  Te2-  Te207  1  0.99511932  0.74961529  0.37589493  1
  Te2-  Te208  1  0.25476377  0.00810623  0.37864610  1
  Te2-  Te209  1  0.25513394  0.50608460  0.37310090  1
  Te2-  Te210  1  0.75924945  0.00762517  0.37478781  1
  Te2-  Te211  1  0.75586019  0.50806798  0.37627473  1
  Te2-  Te212  1  0.25391467  0.24796128  0.37918535  1
  Te2-  Te213  1  0.25622518  0.74887151  0.37209509  1
  Te2-  Te214  1  0.75577810  0.24980882  0.37750724  1
  Te2-  Te215  1  0.75778410  0.75128854  0.37462268  1
