# generated using pymatgen
data_Ti(CuTe)4
_symmetry_space_group_name_H-M   'P 1'
_cell_length_a   16.89104917
_cell_length_b   16.89387476
_cell_length_c   20.71093213
_cell_angle_alpha   90.04252877
_cell_angle_beta   90.00144136
_cell_angle_gamma   119.99480219
_symmetry_Int_Tables_number   1
_chemical_formula_structural   Ti(CuTe)4
_chemical_formula_sum   'Ti24 Cu96 Te96'
_cell_volume   5118.45339111
_cell_formula_units_Z   24
loop_
 _symmetry_equiv_pos_site_id
 _symmetry_equiv_pos_as_xyz
  1  'x, y, z'
loop_
 _atom_type_symbol
 _atom_type_oxidation_number
  Ti4+  4.0
  Cu+  1.0
  Te2-  -2.0
loop_
 _atom_site_type_symbol
 _atom_site_label
 _atom_site_symmetry_multiplicity
 _atom_site_fract_x
 _atom_site_fract_y
 _atom_site_fract_z
 _atom_site_occupancy
  Ti4+  Ti0  1  -0.00208284  0.00137019  0.25906564  1
  Ti4+  Ti1  1  0.00212484  0.50208423  0.26009271  1
  Ti4+  Ti2  1  0.49825084  0.00053204  0.26005934  1
  Ti4+  Ti3  1  0.49771975  0.50106356  0.25479297  1
  Ti4+  Ti4  1  0.33182008  0.16358840  0.58927358  1
  Ti4+  Ti5  1  0.33341625  0.66594189  0.59404643  1
  Ti4+  Ti6  1  0.83301425  0.16490177  0.59476255  1
  Ti4+  Ti7  1  0.83448148  0.66345532  0.58652735  1
  Ti4+  Ti8  1  0.16702131  0.33250380  0.92435469  1
  Ti4+  Ti9  1  0.16891210  0.83680964  0.92552041  1
  Ti4+  Ti10  1  0.66850953  0.33402550  0.92260413  1
  Ti4+  Ti11  1  0.66482743  0.83278971  0.92046835  1
  Ti4+  Ti12  1  0.00221836  -0.00038686  0.75442333  1
  Ti4+  Ti13  1  -0.00062098  0.49917788  0.75566413  1
  Ti4+  Ti14  1  0.49981535  -0.00105203  0.75326201  1
  Ti4+  Ti15  1  0.49987504  0.49959007  0.75212559  1
  Ti4+  Ti16  1  0.33470142  0.16855679  0.08939339  1
  Ti4+  Ti17  1  0.33289939  0.66730638  0.08921541  1
  Ti4+  Ti18  1  0.83367765  0.16713912  0.09110373  1
  Ti4+  Ti19  1  0.83390417  0.66851163  0.08767324  1
  Ti4+  Ti20  1  0.16618575  0.33282696  0.42483513  1
  Ti4+  Ti21  1  0.16604852  0.83414699  0.42123737  1
  Ti4+  Ti22  1  0.66662366  0.33369695  0.42081523  1
  Ti4+  Ti23  1  0.66590815  0.83381773  0.42249545  1
  Cu+  Cu24  1  0.67452994  0.08728000  0.81539379  1
  Cu+  Cu25  1  0.84919115  0.41813068  0.47589230  1
  Cu+  Cu26  1  0.57405350  0.14527330  0.47605715  1
  Cu+  Cu27  1  0.19260769  0.09508362  0.80552395  1
  Cu+  Cu28  1  0.40523812  0.81935147  0.81110129  1
  Cu+  Cu29  1  0.40567541  0.58802172  0.80961952  1
  Cu+  Cu30  1  0.24012289  0.76246695  0.14397004  1
  Cu+  Cu31  1  0.91091983  0.32039883  0.81498620  1
  Cu+  Cu32  1  0.06900106  0.14088951  0.47558534  1
  Cu+  Cu33  1  0.91413871  0.08718444  0.81541014  1
  Cu+  Cu34  1  0.08143739  0.65084665  0.47657886  1
  Cu+  Cu35  1  0.23731542  0.47955963  0.14234721  1
  Cu+  Cu36  1  0.16414754  0.08637223  0.17362611  1
  Cu+  Cu37  1  0.16421067  0.58368619  0.17152149  1
  Cu+  Cu38  1  0.66424329  0.08229339  0.17460485  1
  Cu+  Cu39  1  0.66369026  0.58569769  0.16895628  1
  Cu+  Cu40  1  0.41646870  0.33800551  0.16893190  1
  Cu+  Cu41  1  0.41434599  0.83837893  0.17261098  1
  Cu+  Cu42  1  0.91856048  0.33651544  0.17422995  1
  Cu+  Cu43  1  0.91585304  0.83799228  0.17111822  1
  Cu+  Cu44  1  0.41923939  0.08461235  0.17304246  1
  Cu+  Cu45  1  0.41338490  0.57766010  0.16889566  1
  Cu+  Cu46  1  0.91866864  0.08349802  0.17367771  1
  Cu+  Cu47  1  0.91843689  0.58484797  0.17245069  1
  Cu+  Cu48  1  0.49703157  0.24369344  0.50233056  1
  Cu+  Cu49  1  0.49801832  0.74843333  0.50752766  1
  Cu+  Cu50  1  0.99795916  0.24478383  0.50778364  1
  Cu+  Cu51  1  0.99701981  0.74251436  0.49983704  1
  Cu+  Cu52  1  0.25021546  0.00412268  0.50235736  1
  Cu+  Cu53  1  0.25426743  0.50325582  0.50730628  1
  Cu+  Cu54  1  0.75077927  0.00191616  0.50620615  1
  Cu+  Cu55  1  0.75782755  0.50328071  0.49917126  1
  Cu+  Cu56  1  0.24446841  0.24219481  0.50473691  1
  Cu+  Cu57  1  0.25212731  0.74789556  0.50678540  1
  Cu+  Cu58  1  0.74990279  0.24610979  0.50601574  1
  Cu+  Cu59  1  0.75081230  0.74652245  0.50206511  1
  Cu+  Cu60  1  0.32950216  0.41604743  0.83611046  1
  Cu+  Cu61  1  0.32657849  0.91274190  0.83707771  1
  Cu+  Cu62  1  0.82934392  0.41255525  0.83604396  1
  Cu+  Cu63  1  0.82890588  0.91400061  0.83362620  1
  Cu+  Cu64  1  0.08906064  0.16885605  0.83558003  1
  Cu+  Cu65  1  0.08528849  0.67059847  0.83888160  1
  Cu+  Cu66  1  0.58815391  0.17369745  0.83467977  1
  Cu+  Cu67  1  0.58114315  0.66912215  0.83268137  1
  Cu+  Cu68  1  0.08396755  0.41302747  0.83721209  1
  Cu+  Cu69  1  0.09165802  0.92194845  0.83721903  1
  Cu+  Cu70  1  0.58608405  0.41553109  0.83562528  1
  Cu+  Cu71  1  0.58403761  0.91125303  0.83229364  1
  Cu+  Cu72  1  0.17005123  0.08308087  0.67810950  1
  Cu+  Cu73  1  0.16817892  0.58519412  0.67716777  1
  Cu+  Cu74  1  0.66850430  0.08481965  0.68230243  1
  Cu+  Cu75  1  0.67048108  0.58225657  0.66895100  1
  Cu+  Cu76  1  0.41486351  0.32943530  0.67094171  1
  Cu+  Cu77  1  0.41408188  0.82908417  0.68044752  1
  Cu+  Cu78  1  0.91478767  0.32981431  0.68251009  1
  Cu+  Cu79  1  0.91719486  0.82682426  0.66955405  1
  Cu+  Cu80  1  0.41470754  0.08209600  0.67370225  1
  Cu+  Cu81  1  0.41539607  0.58506485  0.68034313  1
  Cu+  Cu82  1  0.91634505  0.08307725  0.68289803  1
  Cu+  Cu83  1  0.91719996  0.58352598  0.67350337  1
  Cu+  Cu84  1  0.00092043  0.25052697  0.01156768  1
  Cu+  Cu85  1  0.00335382  0.75354325  0.00845566  1
  Cu+  Cu86  1  0.50522477  0.25230853  0.00693549  1
  Cu+  Cu87  1  0.50166147  0.75248474  0.00740255  1
  Cu+  Cu88  1  0.24874932  0.49778045  0.01298975  1
  Cu+  Cu89  1  0.25154821  1.00057398  0.01043241  1
  Cu+  Cu90  1  0.75139528  0.49860073  0.00577676  1
  Cu+  Cu91  1  0.74927459  0.99944811  0.00885765  1
  Cu+  Cu92  1  0.25027865  0.25124182  0.00852952  1
  Cu+  Cu93  1  0.24974825  0.75353220  0.01472772  1
  Cu+  Cu94  1  0.75047611  0.25134520  0.01044473  1
  Cu+  Cu95  1  0.74954317  0.75231541  0.00398151  1
  Cu+  Cu96  1  0.33407373  0.41861797  0.34072919  1
  Cu+  Cu97  1  0.33440284  0.92007166  0.34382994  1
  Cu+  Cu98  1  0.83730312  0.42032803  0.34667843  1
  Cu+  Cu99  1  0.83304971  0.91976679  0.34182961  1
  Cu+  Cu100  1  0.07939143  0.16324152  0.34699928  1
  Cu+  Cu101  1  0.08424504  0.66604923  0.34708954  1
  Cu+  Cu102  1  0.58177901  0.16404500  0.34676533  1
  Cu+  Cu103  1  0.57882694  0.66442091  0.33836292  1
  Cu+  Cu104  1  0.08569703  0.41954687  0.34510938  1
  Cu+  Cu105  1  0.08194327  0.92124319  0.34080437  1
  Cu+  Cu106  1  0.58015627  0.41991412  0.33720754  1
  Cu+  Cu107  1  0.58062847  0.91830502  0.34351910  1
  Cu+  Cu108  1  0.00157549  0.00115475  0.11655090  1
  Cu+  Cu109  1  -0.00480772  0.49933982  0.11749167  1
  Cu+  Cu110  1  0.50338352  0.00317175  0.11764764  1
  Cu+  Cu111  1  0.50378997  0.50161983  0.11096600  1
  Cu+  Cu112  1  0.33573485  0.17266507  0.44578880  1
  Cu+  Cu113  1  0.33636329  0.66750293  0.45107618  1
  Cu+  Cu114  1  0.83418393  0.16616989  0.45089179  1
  Cu+  Cu115  1  0.83186501  0.66926027  0.44181244  1
  Cu+  Cu116  1  0.16815620  0.33392363  0.77995985  1
  Cu+  Cu117  1  0.16105442  0.82978074  0.78155530  1
  Cu+  Cu118  1  0.66567607  0.33677702  0.77739593  1
  Cu+  Cu119  1  0.66980403  0.83003538  0.77462592  1
  Te2-  Te120  1  -0.00430920  -0.00314247  0.39024484  1
  Te2-  Te121  1  0.00286483  0.49982016  0.39229931  1
  Te2-  Te122  1  0.49783685  -0.00173031  0.39082079  1
  Te2-  Te123  1  0.49860589  0.50092151  0.38392884  1
  Te2-  Te124  1  0.33704650  0.16767866  0.71998810  1
  Te2-  Te125  1  0.32992515  0.66458073  0.72663042  1
  Te2-  Te126  1  0.83326179  0.16504176  0.72781389  1
  Te2-  Te127  1  0.83322086  0.66417685  0.71546853  1
  Te2-  Te128  1  0.16600022  0.33090996  0.05415625  1
  Te2-  Te129  1  0.16620938  0.83671359  0.05591635  1
  Te2-  Te130  1  0.66909672  0.33536981  0.05120622  1
  Te2-  Te131  1  0.66682166  0.83346968  0.04903702  1
  Te2-  Te132  1  0.49727780  0.24779508  0.88082638  1
  Te2-  Te133  1  0.48823761  0.74489169  0.88177526  1
  Te2-  Te134  1  0.99169304  0.24340310  0.88500579  1
  Te2-  Te135  1  0.99912801  0.75328269  0.88200758  1
  Te2-  Te136  1  0.25985499  0.01084238  0.88429533  1
  Te2-  Te137  1  0.24954972  0.50518751  0.88499987  1
  Te2-  Te138  1  0.75361805  0.00870958  0.88263601  1
  Te2-  Te139  1  0.75439966  0.50448615  0.87972326  1
  Te2-  Te140  1  0.25629474  0.24941499  0.88235863  1
  Te2-  Te141  1  0.25146573  0.74515820  0.88712407  1
  Te2-  Te142  1  0.75645975  0.24340580  0.88480075  1
  Te2-  Te143  1  0.74928849  0.74741671  0.87767942  1
  Te2-  Te144  1  0.32203126  0.40967551  0.21542926  1
  Te2-  Te145  1  0.32427796  0.91720517  0.21820698  1
  Te2-  Te146  1  0.83204564  0.41754537  0.21927035  1
  Te2-  Te147  1  0.82644266  0.91580752  0.21639605  1
  Te2-  Te148  1  0.08492038  0.17394004  0.22026626  1
  Te2-  Te149  1  0.08633316  0.67469435  0.21929689  1
  Te2-  Te150  1  0.58608022  0.17201503  0.21964171  1
  Te2-  Te151  1  0.58143758  0.67224430  0.21248422  1
  Te2-  Te152  1  0.08647572  0.41379388  0.21881297  1
  Te2-  Te153  1  0.08428747  0.91707702  0.21515749  1
  Te2-  Te154  1  0.58467400  0.41679995  0.21171698  1
  Te2-  Te155  1  0.58199234  0.91343395  0.21739156  1
  Te2-  Te156  1  0.15667494  0.07432915  0.55179401  1
  Te2-  Te157  1  0.16086728  0.57714469  0.55174557  1
  Te2-  Te158  1  0.66041869  0.07832368  0.55380454  1
  Te2-  Te159  1  0.66402137  0.57698400  0.54343349  1
  Te2-  Te160  1  0.41595190  0.33254059  0.54484435  1
  Te2-  Te161  1  0.41841347  0.83686028  0.55305472  1
  Te2-  Te162  1  0.92067269  0.33629410  0.55383944  1
  Te2-  Te163  1  0.92063139  0.83394775  0.54393341  1
  Te2-  Te164  1  0.41663204  0.07441990  0.54841788  1
  Te2-  Te165  1  0.42027214  0.58136487  0.55349500  1
  Te2-  Te166  1  0.91720745  0.07633817  0.55430416  1
  Te2-  Te167  1  0.92457609  0.57482611  0.54833863  1
  Te2-  Te168  1  -0.00192085  -0.00170598  0.88222175  1
  Te2-  Te169  1  0.00005787  0.50035813  0.88264426  1
  Te2-  Te170  1  0.50034705  0.00025858  0.88077706  1
  Te2-  Te171  1  0.50065170  0.50001992  0.87910978  1
  Te2-  Te172  1  0.33426002  0.17010658  0.21553961  1
  Te2-  Te173  1  0.33463543  0.66800651  0.21642357  1
  Te2-  Te174  1  0.83324927  0.16735040  0.21760075  1
  Te2-  Te175  1  0.83188392  0.66859380  0.21384829  1
  Te2-  Te176  1  0.16800981  0.33361815  0.55163784  1
  Te2-  Te177  1  0.16593814  0.83374117  0.54807219  1
  Te2-  Te178  1  0.66630683  0.33438769  0.54834572  1
  Te2-  Te179  1  0.66799955  0.83145731  0.54846058  1
  Te2-  Te180  1  0.32680766  0.41111524  0.70864301  1
  Te2-  Te181  1  0.32499810  0.91290840  0.71066391  1
  Te2-  Te182  1  0.82660799  0.41431460  0.70939077  1
  Te2-  Te183  1  0.83000110  0.90940371  0.70690608  1
  Te2-  Te184  1  0.08904925  0.17444424  0.70881390  1
  Te2-  Te185  1  0.08560858  0.67174282  0.71226768  1
  Te2-  Te186  1  0.58444342  0.17345763  0.70853604  1
  Te2-  Te187  1  0.58940411  0.67109546  0.70586624  1
  Te2-  Te188  1  0.08818850  0.41441650  0.71063132  1
  Te2-  Te189  1  0.08564166  0.91067895  0.70976432  1
  Te2-  Te190  1  0.58492246  0.41343152  0.70804021  1
  Te2-  Te191  1  0.58766168  0.91141784  0.70639136  1
  Te2-  Te192  1  0.16221059  0.08201403  0.04639360  1
  Te2-  Te193  1  0.15855149  0.58016445  0.04430476  1
  Te2-  Te194  1  0.66211339  0.08149923  0.04716083  1
  Te2-  Te195  1  0.66380868  0.58242193  0.04152997  1
  Te2-  Te196  1  0.42099080  0.33919569  0.04275170  1
  Te2-  Te197  1  0.42204882  0.84132348  0.04559335  1
  Te2-  Te198  1  0.91997884  0.33940080  0.04753884  1
  Te2-  Te199  1  0.91878262  0.83999014  0.04393265  1
  Te2-  Te200  1  0.42186288  0.08314743  0.04657941  1
  Te2-  Te201  1  0.42136683  0.58278658  0.04246686  1
  Te2-  Te202  1  0.91895331  0.08049976  0.04693103  1
  Te2-  Te203  1  0.92077841  0.58301192  0.04521096  1
  Te2-  Te204  1  0.49447164  0.25040810  0.37515464  1
  Te2-  Te205  1  0.49412413  0.74792423  0.38002316  1
  Te2-  Te206  1  0.99327811  0.24919545  0.38057132  1
  Te2-  Te207  1  0.99393748  0.74975409  0.37363385  1
  Te2-  Te208  1  0.25131291  0.00747616  0.37739989  1
  Te2-  Te209  1  0.25422327  0.50596298  0.38136264  1
  Te2-  Te210  1  0.75080097  0.00644333  0.38001041  1
  Te2-  Te211  1  0.74995517  0.50620466  0.37337464  1
  Te2-  Te212  1  0.25249375  0.24865735  0.37731059  1
  Te2-  Te213  1  0.25631181  0.74967320  0.37929035  1
  Te2-  Te214  1  0.75513028  0.24731963  0.37770906  1
  Te2-  Te215  1  0.74948012  0.74809071  0.37504599  1
