# generated using pymatgen
data_Ti(CuTe)4
_symmetry_space_group_name_H-M   'P 1'
_cell_length_a   16.89207712
_cell_length_b   16.89189142
_cell_length_c   20.71445250
_cell_angle_alpha   89.98170755
_cell_angle_beta   90.02666792
_cell_angle_gamma   120.00726623
_symmetry_Int_Tables_number   1
_chemical_formula_structural   Ti(CuTe)4
_chemical_formula_sum   'Ti24 Cu96 Te96'
_cell_volume   5118.39236318
_cell_formula_units_Z   24
loop_
 _symmetry_equiv_pos_site_id
 _symmetry_equiv_pos_as_xyz
  1  'x, y, z'
loop_
 _atom_type_symbol
 _atom_type_oxidation_number
  Ti4+  4.0
  Cu+  1.0
  Te2-  -2.0
loop_
 _atom_site_type_symbol
 _atom_site_label
 _atom_site_symmetry_multiplicity
 _atom_site_fract_x
 _atom_site_fract_y
 _atom_site_fract_z
 _atom_site_occupancy
  Ti4+  Ti0  1  -0.00128048  0.00055331  0.25598424  1
  Ti4+  Ti1  1  -0.00108584  0.50236306  0.25616252  1
  Ti4+  Ti2  1  0.50107139  -0.00324696  0.25696014  1
  Ti4+  Ti3  1  0.49825959  0.49516409  0.26102796  1
  Ti4+  Ti4  1  0.33320586  0.16514267  0.58858509  1
  Ti4+  Ti5  1  0.33342919  0.66764725  0.58859331  1
  Ti4+  Ti6  1  0.83599658  0.17216662  0.59123867  1
  Ti4+  Ti7  1  0.83290784  0.67040089  0.58970434  1
  Ti4+  Ti8  1  0.16618219  0.33248557  0.92561694  1
  Ti4+  Ti9  1  0.16710617  0.83297638  0.92701632  1
  Ti4+  Ti10  1  0.66697961  0.33178068  0.92526127  1
  Ti4+  Ti11  1  0.66605853  0.83177639  0.92532155  1
  Ti4+  Ti12  1  0.00145294  0.00180679  0.75656262  1
  Ti4+  Ti13  1  0.00018588  0.50061208  0.75626559  1
  Ti4+  Ti14  1  0.50053236  0.00061469  0.75623219  1
  Ti4+  Ti15  1  0.50063747  0.50109383  0.75663057  1
  Ti4+  Ti16  1  0.33274654  0.16771756  0.08975929  1
  Ti4+  Ti17  1  0.33363376  0.66704316  0.08925869  1
  Ti4+  Ti18  1  0.83286895  0.16380492  0.08858023  1
  Ti4+  Ti19  1  0.83357132  0.66390599  0.08861398  1
  Ti4+  Ti20  1  0.16369440  0.33376128  0.42070028  1
  Ti4+  Ti21  1  0.16791132  0.83520202  0.42110182  1
  Ti4+  Ti22  1  0.66653493  0.33199225  0.42020271  1
  Ti4+  Ti23  1  0.66724175  0.83150552  0.42060241  1
  Cu+  Cu24  1  0.57940523  0.42186780  0.48090636  1
  Cu+  Cu25  1  0.35753360  0.92974390  0.47252012  1
  Cu+  Cu26  1  0.24442694  0.76157424  0.14302851  1
  Cu+  Cu27  1  0.73610310  0.47476640  0.13984993  1
  Cu+  Cu28  1  0.90648055  0.31186520  0.81038942  1
  Cu+  Cu29  1  0.06967357  0.43167847  0.47157461  1
  Cu+  Cu30  1  0.23861061  0.26351354  0.14218621  1
  Cu+  Cu31  1  0.73677585  0.97322647  0.13866362  1
  Cu+  Cu32  1  0.33711138  0.41890487  0.48408176  1
  Cu+  Cu33  1  0.57732290  0.65499124  0.48016560  1
  Cu+  Cu34  1  0.07183728  0.93031953  0.47080560  1
  Cu+  Cu35  1  0.01539778  0.76051887  0.14267515  1
  Cu+  Cu36  1  0.16419574  0.08752140  0.17020857  1
  Cu+  Cu37  1  0.16435838  0.58583239  0.17038126  1
  Cu+  Cu38  1  0.66548847  0.07512483  0.17058189  1
  Cu+  Cu39  1  0.66361165  0.57455202  0.17276206  1
  Cu+  Cu40  1  0.41396334  0.33516852  0.17293589  1
  Cu+  Cu41  1  0.41715733  0.83731944  0.17051556  1
  Cu+  Cu42  1  0.91885828  0.33600351  0.17033752  1
  Cu+  Cu43  1  0.92095880  0.83760262  0.16968509  1
  Cu+  Cu44  1  0.41857991  0.08146274  0.17116867  1
  Cu+  Cu45  1  0.41776620  0.57959774  0.17307704  1
  Cu+  Cu46  1  0.91160074  0.07556594  0.16896333  1
  Cu+  Cu47  1  0.91679226  0.58025184  0.16804925  1
  Cu+  Cu48  1  0.49568674  0.24690976  0.50081741  1
  Cu+  Cu49  1  0.49640784  0.74711344  0.50100145  1
  Cu+  Cu50  1  0.99610054  0.25696461  0.50289089  1
  Cu+  Cu51  1  0.99832751  0.75656572  0.50343412  1
  Cu+  Cu52  1  0.25139418  0.00215389  0.50122838  1
  Cu+  Cu53  1  0.24635502  0.50407134  0.50096250  1
  Cu+  Cu54  1  0.75377981  0.00451732  0.50530597  1
  Cu+  Cu55  1  0.75209491  0.50489292  0.50244840  1
  Cu+  Cu56  1  0.25086436  0.24501374  0.50112935  1
  Cu+  Cu57  1  0.25701821  0.75403036  0.50166438  1
  Cu+  Cu58  1  0.75528345  0.25100365  0.50310530  1
  Cu+  Cu59  1  0.75180247  0.74689144  0.50146721  1
  Cu+  Cu60  1  0.33163589  0.41425336  0.84004308  1
  Cu+  Cu61  1  0.33102055  0.91296429  0.84035594  1
  Cu+  Cu62  1  0.83049670  0.41176008  0.83857314  1
  Cu+  Cu63  1  0.83123776  0.91614103  0.83968324  1
  Cu+  Cu64  1  0.08841511  0.17058134  0.83877695  1
  Cu+  Cu65  1  0.08622327  0.67086227  0.84067279  1
  Cu+  Cu66  1  0.58417047  0.16967520  0.83818084  1
  Cu+  Cu67  1  0.58441927  0.67011320  0.83958454  1
  Cu+  Cu68  1  0.08172627  0.41158790  0.83816823  1
  Cu+  Cu69  1  0.08356720  0.91374356  0.84051357  1
  Cu+  Cu70  1  0.58604239  0.41668016  0.83987030  1
  Cu+  Cu71  1  0.58495077  0.91527829  0.83916400  1
  Cu+  Cu72  1  0.16914548  0.08328169  0.67489559  1
  Cu+  Cu73  1  0.16873513  0.58690530  0.67418539  1
  Cu+  Cu74  1  0.67034876  0.08726706  0.67532851  1
  Cu+  Cu75  1  0.66807756  0.58613266  0.67689704  1
  Cu+  Cu76  1  0.41711422  0.33217419  0.67591785  1
  Cu+  Cu77  1  0.41743567  0.83281349  0.67438535  1
  Cu+  Cu78  1  0.91687476  0.33464816  0.67999064  1
  Cu+  Cu79  1  0.91607555  0.83488929  0.67460886  1
  Cu+  Cu80  1  0.41525759  0.08264973  0.67460627  1
  Cu+  Cu81  1  0.41549810  0.58400420  0.67587492  1
  Cu+  Cu82  1  0.91939292  0.08995200  0.67487980  1
  Cu+  Cu83  1  0.91595031  0.58918723  0.67411637  1
  Cu+  Cu84  1  0.00189100  0.24952155  0.00852614  1
  Cu+  Cu85  1  0.00387372  0.75017384  0.01348470  1
  Cu+  Cu86  1  0.50212711  0.25215837  0.00900629  1
  Cu+  Cu87  1  0.50168907  0.74988497  0.00883277  1
  Cu+  Cu88  1  0.24991457  0.49712624  0.00774161  1
  Cu+  Cu89  1  0.24943087  0.99850535  0.00833681  1
  Cu+  Cu90  1  0.74800350  0.49366087  0.01173338  1
  Cu+  Cu91  1  0.74734119  0.99292810  0.01156530  1
  Cu+  Cu92  1  0.24928528  0.25369753  0.01404708  1
  Cu+  Cu93  1  0.24865456  0.75173752  0.01423571  1
  Cu+  Cu94  1  0.74993723  0.25001973  0.00900985  1
  Cu+  Cu95  1  0.74810374  0.74847563  0.00761566  1
  Cu+  Cu96  1  0.33298234  0.41504993  0.34999796  1
  Cu+  Cu97  1  0.33816905  0.91692051  0.34502730  1
  Cu+  Cu98  1  0.83322591  0.41620529  0.34010864  1
  Cu+  Cu99  1  0.83406083  0.91596845  0.34107957  1
  Cu+  Cu100  1  0.07853160  0.16564026  0.33958826  1
  Cu+  Cu101  1  0.08207349  0.66676747  0.34106413  1
  Cu+  Cu102  1  0.58463706  0.16108567  0.33965195  1
  Cu+  Cu103  1  0.58283431  0.65968838  0.34774784  1
  Cu+  Cu104  1  0.07900565  0.42006074  0.34373865  1
  Cu+  Cu105  1  0.08197798  0.92048988  0.34324632  1
  Cu+  Cu106  1  0.58042861  0.41350172  0.34759490  1
  Cu+  Cu107  1  0.58383207  0.91484854  0.34081721  1
  Cu+  Cu108  1  0.00096385  -0.00015918  0.11218471  1
  Cu+  Cu109  1  0.00140327  0.49604557  0.11243119  1
  Cu+  Cu110  1  0.50223842  0.00540867  0.11396880  1
  Cu+  Cu111  1  0.50136239  0.50270210  0.11681898  1
  Cu+  Cu112  1  0.33279972  0.16612272  0.44299459  1
  Cu+  Cu113  1  0.33395048  0.66834448  0.44374526  1
  Cu+  Cu114  1  0.83117001  0.16308896  0.44758344  1
  Cu+  Cu115  1  0.83745195  0.66551516  0.44585486  1
  Cu+  Cu116  1  0.17022914  0.33647362  0.78236274  1
  Cu+  Cu117  1  0.16778660  0.83502724  0.78428951  1
  Cu+  Cu118  1  0.66547233  0.33459074  0.78219105  1
  Cu+  Cu119  1  0.66825791  0.83508968  0.78293837  1
  Te2-  Te120  1  -0.00233028  0.00263712  0.38628809  1
  Te2-  Te121  1  -0.00383678  0.50354821  0.38667926  1
  Te2-  Te122  1  0.50464339  -0.00121392  0.38748694  1
  Te2-  Te123  1  0.49806976  0.49555261  0.39396701  1
  Te2-  Te124  1  0.33420844  0.16654036  0.71687550  1
  Te2-  Te125  1  0.33364416  0.66775360  0.71689400  1
  Te2-  Te126  1  0.83412197  0.16803198  0.72155529  1
  Te2-  Te127  1  0.83335425  0.67048052  0.71826449  1
  Te2-  Te128  1  0.16451279  0.33525505  0.05657653  1
  Te2-  Te129  1  0.16871059  0.83728095  0.05972839  1
  Te2-  Te130  1  0.66482899  0.32802790  0.05615528  1
  Te2-  Te131  1  0.66441422  0.82684279  0.05641718  1
  Te2-  Te132  1  0.49578662  0.24843563  0.88330637  1
  Te2-  Te133  1  0.49433147  0.74753831  0.88343134  1
  Te2-  Te134  1  0.99259893  0.24208112  0.88305185  1
  Te2-  Te135  1  0.99541880  0.74665051  0.88661877  1
  Te2-  Te136  1  0.25240580  0.00316304  0.88287765  1
  Te2-  Te137  1  0.25072456  0.50273683  0.88190229  1
  Te2-  Te138  1  0.75184754  0.00375935  0.88516801  1
  Te2-  Te139  1  0.75390993  0.50291297  0.88471911  1
  Te2-  Te140  1  0.25376948  0.24793089  0.88694675  1
  Te2-  Te141  1  0.25247583  0.74650801  0.88730800  1
  Te2-  Te142  1  0.75126196  0.24236106  0.88343333  1
  Te2-  Te143  1  0.75278649  0.74724164  0.88222998  1
  Te2-  Te144  1  0.32457079  0.41343955  0.22116720  1
  Te2-  Te145  1  0.32683374  0.91519297  0.21833805  1
  Te2-  Te146  1  0.82609162  0.41126981  0.21463009  1
  Te2-  Te147  1  0.82516497  0.90776153  0.21553972  1
  Te2-  Te148  1  0.07993510  0.17308659  0.21403240  1
  Te2-  Te149  1  0.08711391  0.67828366  0.21568615  1
  Te2-  Te150  1  0.58765207  0.16660504  0.21370793  1
  Te2-  Te151  1  0.58556335  0.66455552  0.21917937  1
  Te2-  Te152  1  0.08570408  0.41844610  0.21665137  1
  Te2-  Te153  1  0.09036650  0.91934265  0.21638212  1
  Te2-  Te154  1  0.58181359  0.40597408  0.21963068  1
  Te2-  Te155  1  0.58378940  0.90600982  0.21557499  1
  Te2-  Te156  1  0.15994218  0.08020890  0.54861412  1
  Te2-  Te157  1  0.16053207  0.58592566  0.54784806  1
  Te2-  Te158  1  0.66481178  0.08408522  0.54924260  1
  Te2-  Te159  1  0.65577949  0.57859184  0.55094233  1
  Te2-  Te160  1  0.42089133  0.34163206  0.54969205  1
  Te2-  Te161  1  0.42509049  0.84117538  0.54823448  1
  Te2-  Te162  1  0.92000937  0.34732456  0.55220643  1
  Te2-  Te163  1  0.91717693  0.84412704  0.54873225  1
  Te2-  Te164  1  0.42189433  0.08108717  0.54828744  1
  Te2-  Te165  1  0.41910732  0.57739638  0.54965367  1
  Te2-  Te166  1  0.92281037  0.08844982  0.54852558  1
  Te2-  Te167  1  0.91958453  0.58692663  0.54733436  1
  Te2-  Te168  1  0.00086717  0.00060501  0.88271461  1
  Te2-  Te169  1  0.00057739  0.50004149  0.88296534  1
  Te2-  Te170  1  0.50065291  0.00017897  0.88242047  1
  Te2-  Te171  1  0.50079479  0.50047536  0.88284850  1
  Te2-  Te172  1  0.33312823  0.16491285  0.21653421  1
  Te2-  Te173  1  0.33409624  0.66653872  0.21607343  1
  Te2-  Te174  1  0.83464397  0.16714587  0.21533215  1
  Te2-  Te175  1  0.83450690  0.66737181  0.21610602  1
  Te2-  Te176  1  0.16664332  0.33235264  0.54836031  1
  Te2-  Te177  1  0.16759252  0.83334587  0.54830303  1
  Te2-  Te178  1  0.66677812  0.33350640  0.54726035  1
  Te2-  Te179  1  0.66726742  0.83354069  0.54763187  1
  Te2-  Te180  1  0.32895002  0.41403043  0.71261676  1
  Te2-  Te181  1  0.32847924  0.91325640  0.71300471  1
  Te2-  Te182  1  0.82796973  0.41865650  0.71124710  1
  Te2-  Te183  1  0.83011318  0.91887890  0.71241541  1
  Te2-  Te184  1  0.08924246  0.17368527  0.71237211  1
  Te2-  Te185  1  0.08555967  0.67303326  0.71359546  1
  Te2-  Te186  1  0.58554133  0.17252892  0.71183460  1
  Te2-  Te187  1  0.58537675  0.67329278  0.71294172  1
  Te2-  Te188  1  0.08933232  0.41726752  0.71087530  1
  Te2-  Te189  1  0.08549615  0.91397289  0.71325707  1
  Te2-  Te190  1  0.58703575  0.41575681  0.71268646  1
  Te2-  Te191  1  0.58767775  0.91631490  0.71208319  1
  Te2-  Te192  1  0.16084890  0.07985821  0.04335889  1
  Te2-  Te193  1  0.16130034  0.57861116  0.04355077  1
  Te2-  Te194  1  0.66070909  0.07917880  0.04342513  1
  Te2-  Te195  1  0.66041972  0.57855591  0.04506012  1
  Te2-  Te196  1  0.42173841  0.34102548  0.04633928  1
  Te2-  Te197  1  0.42177597  0.84015595  0.04432591  1
  Te2-  Te198  1  0.91931309  0.33643757  0.04419558  1
  Te2-  Te199  1  0.91807674  0.83733244  0.04317751  1
  Te2-  Te200  1  0.41885168  0.08184233  0.04481915  1
  Te2-  Te201  1  0.41906079  0.58000451  0.04634360  1
  Te2-  Te202  1  0.92021937  0.07901037  0.04259481  1
  Te2-  Te203  1  0.92065657  0.57740291  0.04177247  1
  Te2-  Te204  1  0.49346770  0.24048444  0.37458133  1
  Te2-  Te205  1  0.49405624  0.74471529  0.37459686  1
  Te2-  Te206  1  0.99091082  0.24753723  0.37597541  1
  Te2-  Te207  1  0.99474382  0.74877276  0.37600592  1
  Te2-  Te208  1  0.25476314  0.00734699  0.37386360  1
  Te2-  Te209  1  0.25177051  0.50756910  0.37415953  1
  Te2-  Te210  1  0.75295236  0.00408464  0.37807825  1
  Te2-  Te211  1  0.75330447  0.50571524  0.37535877  1
  Te2-  Te212  1  0.24737094  0.24259435  0.37520545  1
  Te2-  Te213  1  0.25132057  0.74512321  0.37536800  1
  Te2-  Te214  1  0.75393727  0.24684394  0.37707981  1
  Te2-  Te215  1  0.75571098  0.74620198  0.37552958  1
