# generated using pymatgen
data_Ti(CuTe)4
_symmetry_space_group_name_H-M   'P 1'
_cell_length_a   16.87447213
_cell_length_b   16.87282348
_cell_length_c   20.68956574
_cell_angle_alpha   89.97420261
_cell_angle_beta   90.01208648
_cell_angle_gamma   120.00541635
_symmetry_Int_Tables_number   1
_chemical_formula_structural   Ti(CuTe)4
_chemical_formula_sum   'Ti24 Cu96 Te96'
_cell_volume   5101.24540055
_cell_formula_units_Z   24
loop_
 _symmetry_equiv_pos_site_id
 _symmetry_equiv_pos_as_xyz
  1  'x, y, z'
loop_
 _atom_type_symbol
 _atom_type_oxidation_number
  Ti4+  4.0
  Cu+  1.0
  Te2-  -2.0
loop_
 _atom_site_type_symbol
 _atom_site_label
 _atom_site_symmetry_multiplicity
 _atom_site_fract_x
 _atom_site_fract_y
 _atom_site_fract_z
 _atom_site_occupancy
  Ti4+  Ti0  1  -0.00011338  0.00079803  0.25864060  1
  Ti4+  Ti1  1  0.00180131  0.50105426  0.25909171  1
  Ti4+  Ti2  1  0.49868325  -0.00203656  0.25872217  1
  Ti4+  Ti3  1  0.50225142  0.49745432  0.25856399  1
  Ti4+  Ti4  1  0.33319424  0.16542966  0.59071399  1
  Ti4+  Ti5  1  0.33065493  0.66786355  0.59196144  1
  Ti4+  Ti6  1  0.83173147  0.16588161  0.59094711  1
  Ti4+  Ti7  1  0.83308833  0.66591426  0.59083583  1
  Ti4+  Ti8  1  0.16758225  0.33456937  0.91994416  1
  Ti4+  Ti9  1  0.16712518  0.83295338  0.92682665  1
  Ti4+  Ti10  1  0.66401284  0.33566356  0.92716122  1
  Ti4+  Ti11  1  0.66956364  0.83501426  0.92163073  1
  Ti4+  Ti12  1  -0.00204775  0.00077159  0.75400323  1
  Ti4+  Ti13  1  0.00211676  0.50228069  0.75553933  1
  Ti4+  Ti14  1  0.49771280  -0.00146263  0.75584329  1
  Ti4+  Ti15  1  0.50083604  0.49811388  0.75424332  1
  Ti4+  Ti16  1  0.33467862  0.16776155  0.08887390  1
  Ti4+  Ti17  1  0.33218756  0.66786978  0.09102207  1
  Ti4+  Ti18  1  0.83410768  0.16671826  0.08837495  1
  Ti4+  Ti19  1  0.83254088  0.66519888  0.08913863  1
  Ti4+  Ti20  1  0.16675309  0.33283034  0.42282801  1
  Ti4+  Ti21  1  0.16691494  0.83207835  0.42221022  1
  Ti4+  Ti22  1  0.66536566  0.33397812  0.42380988  1
  Ti4+  Ti23  1  0.66705952  0.83260997  0.42223713  1
  Cu+  Cu24  1  0.23564506  0.76380973  0.14330597  1
  Cu+  Cu25  1  0.07221008  0.64485492  0.47452149  1
  Cu+  Cu26  1  0.90368992  0.09824572  0.80431070  1
  Cu+  Cu27  1  0.68824372  0.59236268  0.80900307  1
  Cu+  Cu28  1  0.74699541  0.48213195  0.14548889  1
  Cu+  Cu29  1  0.41698737  0.59214828  0.81165279  1
  Cu+  Cu30  1  0.51713981  0.25276138  0.14544460  1
  Cu+  Cu31  1  0.18695838  0.59838149  0.80940775  1
  Cu+  Cu32  1  0.35347142  0.92631359  0.47401496  1
  Cu+  Cu33  1  0.56955656  0.42955584  0.47678428  1
  Cu+  Cu34  1  0.40775226  0.31180336  0.80824758  1
  Cu+  Cu35  1  0.07290085  0.92666714  0.47330300  1
  Cu+  Cu36  1  0.16256366  0.08197709  0.17215721  1
  Cu+  Cu37  1  0.16531298  0.58787822  0.17310337  1
  Cu+  Cu38  1  0.66511404  0.07922112  0.17101617  1
  Cu+  Cu39  1  0.66385011  0.57658313  0.16992967  1
  Cu+  Cu40  1  0.42295059  0.33630806  0.16994204  1
  Cu+  Cu41  1  0.41178695  0.83433052  0.17297720  1
  Cu+  Cu42  1  0.92062100  0.33490311  0.17108088  1
  Cu+  Cu43  1  0.91860364  0.83755703  0.17278813  1
  Cu+  Cu44  1  0.42023080  0.08110814  0.17156801  1
  Cu+  Cu45  1  0.41881939  0.58101095  0.17318730  1
  Cu+  Cu46  1  0.91920603  0.08206667  0.17112795  1
  Cu+  Cu47  1  0.91867089  0.57942726  0.17177895  1
  Cu+  Cu48  1  0.49758518  0.25302080  0.50444739  1
  Cu+  Cu49  1  0.49817154  0.74934295  0.50486724  1
  Cu+  Cu50  1  0.99598551  0.24776814  0.50557460  1
  Cu+  Cu51  1  0.99740945  0.74719984  0.50236283  1
  Cu+  Cu52  1  0.25201311  0.00209044  0.50226135  1
  Cu+  Cu53  1  0.24785079  0.50155412  0.50576183  1
  Cu+  Cu54  1  0.75058914  0.00251129  0.50502843  1
  Cu+  Cu55  1  0.74538812  0.50175774  0.50469366  1
  Cu+  Cu56  1  0.25152633  0.24842153  0.50419020  1
  Cu+  Cu57  1  0.25088616  0.74641363  0.50233306  1
  Cu+  Cu58  1  0.75075028  0.24686481  0.50613338  1
  Cu+  Cu59  1  0.75134579  0.74775313  0.50375946  1
  Cu+  Cu60  1  0.32939898  0.41199516  0.83184346  1
  Cu+  Cu61  1  0.32947299  0.91394000  0.83911697  1
  Cu+  Cu62  1  0.83187474  0.41983191  0.83949392  1
  Cu+  Cu63  1  0.83096437  0.92126588  0.83382593  1
  Cu+  Cu64  1  0.07958615  0.17008055  0.83312340  1
  Cu+  Cu65  1  0.08813783  0.67128144  0.83917584  1
  Cu+  Cu66  1  0.57972069  0.16690903  0.83953385  1
  Cu+  Cu67  1  0.59155995  0.67282921  0.83416586  1
  Cu+  Cu68  1  0.09029676  0.42103786  0.83294937  1
  Cu+  Cu69  1  0.08437216  0.91527538  0.83979719  1
  Cu+  Cu70  1  0.58609953  0.41356711  0.83713509  1
  Cu+  Cu71  1  0.58519384  0.91538413  0.83487621  1
  Cu+  Cu72  1  0.16728538  0.08163620  0.67410591  1
  Cu+  Cu73  1  0.16838628  0.58688741  0.68025948  1
  Cu+  Cu74  1  0.66602997  0.08368033  0.67404364  1
  Cu+  Cu75  1  0.66970782  0.58213818  0.68062376  1
  Cu+  Cu76  1  0.41727452  0.32847956  0.68034287  1
  Cu+  Cu77  1  0.41321582  0.83330319  0.67466103  1
  Cu+  Cu78  1  0.91398808  0.33161907  0.67422301  1
  Cu+  Cu79  1  0.91642156  0.83106072  0.67444065  1
  Cu+  Cu80  1  0.41425875  0.08161270  0.67421524  1
  Cu+  Cu81  1  0.41353000  0.58399242  0.67949259  1
  Cu+  Cu82  1  0.91231053  0.08513988  0.67640463  1
  Cu+  Cu83  1  0.91677509  0.58447957  0.67425059  1
  Cu+  Cu84  1  0.00110127  0.25132992  0.00501337  1
  Cu+  Cu85  1  0.00147664  0.74967300  0.00940781  1
  Cu+  Cu86  1  0.50070056  0.25305039  0.01576863  1
  Cu+  Cu87  1  0.50331236  0.75148631  0.00750047  1
  Cu+  Cu88  1  0.25064378  0.50036756  0.00779919  1
  Cu+  Cu89  1  0.24974625  0.99895802  0.00937395  1
  Cu+  Cu90  1  0.74693417  0.49907517  0.01570206  1
  Cu+  Cu91  1  0.75151154  1.00008597  0.00692584  1
  Cu+  Cu92  1  0.24794728  0.25020938  0.00495446  1
  Cu+  Cu93  1  0.24726662  0.75178674  0.01575486  1
  Cu+  Cu94  1  0.74863027  0.25138787  0.00894464  1
  Cu+  Cu95  1  0.75104811  0.75261343  0.00575972  1
  Cu+  Cu96  1  0.33568617  0.41646071  0.34157148  1
  Cu+  Cu97  1  0.33587289  0.91648548  0.34622254  1
  Cu+  Cu98  1  0.83562785  0.41778026  0.34439781  1
  Cu+  Cu99  1  0.83567419  0.91763612  0.34121655  1
  Cu+  Cu100  1  0.08251860  0.16450508  0.34159506  1
  Cu+  Cu101  1  0.08226397  0.66338733  0.34655401  1
  Cu+  Cu102  1  0.58197285  0.16400398  0.34389531  1
  Cu+  Cu103  1  0.58425571  0.66397424  0.34104204  1
  Cu+  Cu104  1  0.08456497  0.41885045  0.34139214  1
  Cu+  Cu105  1  0.08051915  0.91922659  0.34427984  1
  Cu+  Cu106  1  0.58240750  0.41709585  0.34853328  1
  Cu+  Cu107  1  0.58080067  0.91510617  0.34116625  1
  Cu+  Cu108  1  -0.00029767  0.00058898  0.11517096  1
  Cu+  Cu109  1  0.00268326  0.49609124  0.11525861  1
  Cu+  Cu110  1  0.50373644  -0.00293717  0.11507627  1
  Cu+  Cu111  1  0.49741715  0.50253408  0.11395826  1
  Cu+  Cu112  1  0.33306213  0.16646387  0.44643496  1
  Cu+  Cu113  1  0.33754257  0.66306664  0.44879560  1
  Cu+  Cu114  1  0.83373364  0.16593853  0.44805425  1
  Cu+  Cu115  1  0.83345387  0.66638905  0.44656142  1
  Cu+  Cu116  1  0.16503908  0.33131989  0.77342771  1
  Cu+  Cu117  1  0.16509172  0.83661216  0.78293236  1
  Cu+  Cu118  1  0.67132296  0.32795446  0.78419672  1
  Cu+  Cu119  1  0.66683869  0.83497333  0.77523143  1
  Te2-  Te120  1  -0.00178223  0.00168592  0.38963627  1
  Te2-  Te121  1  -0.00021472  0.49717118  0.38963712  1
  Te2-  Te122  1  0.50218919  -0.00028169  0.38916176  1
  Te2-  Te123  1  0.49906215  0.50090357  0.38901870  1
  Te2-  Te124  1  0.33073572  0.16167322  0.72104863  1
  Te2-  Te125  1  0.33473026  0.67041929  0.72375952  1
  Te2-  Te126  1  0.82940554  0.16842225  0.72136088  1
  Te2-  Te127  1  0.83658294  0.66765413  0.72125799  1
  Te2-  Te128  1  0.16643502  0.33397818  0.04821952  1
  Te2-  Te129  1  0.16442569  0.83585574  0.05746057  1
  Te2-  Te130  1  0.66727543  0.33248170  0.05897284  1
  Te2-  Te131  1  0.66861657  0.83486902  0.05012726  1
  Te2-  Te132  1  0.49100105  0.24539431  0.88705776  1
  Te2-  Te133  1  0.49621712  0.74873004  0.88126323  1
  Te2-  Te134  1  0.99440340  0.25348511  0.87903341  1
  Te2-  Te135  1  0.99655270  0.74703040  0.88353031  1
  Te2-  Te136  1  0.25208479  0.00379756  0.88364896  1
  Te2-  Te137  1  0.25835937  0.51088040  0.88113606  1
  Te2-  Te138  1  0.75151959  0.00904214  0.88100006  1
  Te2-  Te139  1  0.75437758  0.50887163  0.88716579  1
  Te2-  Te140  1  0.24858459  0.24267543  0.87867616  1
  Te2-  Te141  1  0.25692563  0.74864653  0.88763926  1
  Te2-  Te142  1  0.74866236  0.25120051  0.88293036  1
  Te2-  Te143  1  0.76022888  0.75253725  0.87963712  1
  Te2-  Te144  1  0.33180058  0.41246440  0.21561673  1
  Te2-  Te145  1  0.32446980  0.91588029  0.21913798  1
  Te2-  Te146  1  0.82855115  0.40941446  0.21828740  1
  Te2-  Te147  1  0.82836381  0.91481086  0.21560907  1
  Te2-  Te148  1  0.08610674  0.17252871  0.21599583  1
  Te2-  Te149  1  0.08376839  0.67522091  0.21939671  1
  Te2-  Te150  1  0.59037684  0.17126768  0.21787396  1
  Te2-  Te151  1  0.58761705  0.66777527  0.21523254  1
  Te2-  Te152  1  0.08847849  0.41822203  0.21527931  1
  Te2-  Te153  1  0.08592464  0.91478811  0.21736139  1
  Te2-  Te154  1  0.59046581  0.40913532  0.21973137  1
  Te2-  Te155  1  0.58152263  0.91124545  0.21504056  1
  Te2-  Te156  1  0.16066680  0.08032997  0.54834793  1
  Te2-  Te157  1  0.15747942  0.57880810  0.55225595  1
  Te2-  Te158  1  0.65988617  0.07952069  0.54871745  1
  Te2-  Te159  1  0.65867211  0.58227021  0.55289109  1
  Te2-  Te160  1  0.41728019  0.33985009  0.55269854  1
  Te2-  Te161  1  0.42023354  0.84013672  0.54899514  1
  Te2-  Te162  1  0.91804052  0.33784229  0.54885920  1
  Te2-  Te163  1  0.91906162  0.83849415  0.54856991  1
  Te2-  Te164  1  0.42245704  0.08280475  0.54809863  1
  Te2-  Te165  1  0.41551320  0.58242171  0.55141006  1
  Te2-  Te166  1  0.91772147  0.08018653  0.54951648  1
  Te2-  Te167  1  0.91560660  0.57653652  0.54819216  1
  Te2-  Te168  1  0.00002761  0.00148337  0.88089795  1
  Te2-  Te169  1  0.00146442  0.50054639  0.88270191  1
  Te2-  Te170  1  0.49938814  -0.00210213  0.88221035  1
  Te2-  Te171  1  0.49999103  0.50075664  0.88222532  1
  Te2-  Te172  1  0.33324113  0.16635218  0.21574682  1
  Te2-  Te173  1  0.33448753  0.66511431  0.21792293  1
  Te2-  Te174  1  0.83438160  0.16566040  0.21479330  1
  Te2-  Te175  1  0.83367228  0.66656082  0.21598321  1
  Te2-  Te176  1  0.16533742  0.33198266  0.54914114  1
  Te2-  Te177  1  0.16677670  0.83266751  0.55024807  1
  Te2-  Te178  1  0.66671154  0.33225349  0.55061086  1
  Te2-  Te179  1  0.66696071  0.83307716  0.54861438  1
  Te2-  Te180  1  0.32648549  0.41163560  0.70563283  1
  Te2-  Te181  1  0.32452102  0.91286183  0.71220051  1
  Te2-  Te182  1  0.82921738  0.41567650  0.71256343  1
  Te2-  Te183  1  0.82605600  0.91192006  0.70702310  1
  Te2-  Te184  1  0.08606836  0.17193765  0.70606438  1
  Te2-  Te185  1  0.08567463  0.67609604  0.71141397  1
  Te2-  Te186  1  0.58375522  0.17079809  0.71219033  1
  Te2-  Te187  1  0.58618185  0.67256217  0.70693913  1
  Te2-  Te188  1  0.08480442  0.41309655  0.70705448  1
  Te2-  Te189  1  0.08475015  0.91366724  0.71225581  1
  Te2-  Te190  1  0.58900545  0.41017558  0.71057900  1
  Te2-  Te191  1  0.58398803  0.91341372  0.70892770  1
  Te2-  Te192  1  0.16242178  0.08178413  0.04512077  1
  Te2-  Te193  1  0.15992866  0.57875726  0.04513683  1
  Te2-  Te194  1  0.66193272  0.08075543  0.04390649  1
  Te2-  Te195  1  0.65913165  0.58369039  0.04345763  1
  Te2-  Te196  1  0.41648237  0.34135057  0.04340940  1
  Te2-  Te197  1  0.42133439  0.83949912  0.04489322  1
  Te2-  Te198  1  0.91922518  0.33878628  0.04379080  1
  Te2-  Te199  1  0.91941268  0.83762512  0.04571684  1
  Te2-  Te200  1  0.41988275  0.07894212  0.04463124  1
  Te2-  Te201  1  0.41903622  0.58298888  0.04574193  1
  Te2-  Te202  1  0.92113800  0.08207968  0.04369811  1
  Te2-  Te203  1  0.92090580  0.57961804  0.04478430  1
  Te2-  Te204  1  0.49245606  0.24432062  0.37763432  1
  Te2-  Te205  1  0.49515264  0.74526237  0.37759698  1
  Te2-  Te206  1  0.99533503  0.24806294  0.37807836  1
  Te2-  Te207  1  0.99311561  0.74711536  0.37517114  1
  Te2-  Te208  1  0.25250590  0.00601615  0.37521142  1
  Te2-  Te209  1  0.25397280  0.50492696  0.37846177  1
  Te2-  Te210  1  0.75158725  0.00428386  0.37770285  1
  Te2-  Te211  1  0.75504448  0.50709059  0.37787214  1
  Te2-  Te212  1  0.25268786  0.24669218  0.37796200  1
  Te2-  Te213  1  0.25435725  0.74443949  0.37588229  1
  Te2-  Te214  1  0.75181360  0.24761876  0.37986184  1
  Te2-  Te215  1  0.75386204  0.74728191  0.37749888  1
