# generated using pymatgen
data_Ti(CuTe)4
_symmetry_space_group_name_H-M   'P 1'
_cell_length_a   16.89066119
_cell_length_b   16.88654907
_cell_length_c   20.71496537
_cell_angle_alpha   90.01948202
_cell_angle_beta   89.91968064
_cell_angle_gamma   119.98169665
_symmetry_Int_Tables_number   1
_chemical_formula_structural   Ti(CuTe)4
_chemical_formula_sum   'Ti24 Cu96 Te96'
_cell_volume   5117.78463685
_cell_formula_units_Z   24
loop_
 _symmetry_equiv_pos_site_id
 _symmetry_equiv_pos_as_xyz
  1  'x, y, z'
loop_
 _atom_type_symbol
 _atom_type_oxidation_number
  Ti4+  4.0
  Cu+  1.0
  Te2-  -2.0
loop_
 _atom_site_type_symbol
 _atom_site_label
 _atom_site_symmetry_multiplicity
 _atom_site_fract_x
 _atom_site_fract_y
 _atom_site_fract_z
 _atom_site_occupancy
  Ti4+  Ti0  1  0.00019335  0.00281324  0.25920474  1
  Ti4+  Ti1  1  0.00047029  0.49913640  0.25607215  1
  Ti4+  Ti2  1  0.49877268  0.00118787  0.25939903  1
  Ti4+  Ti3  1  0.50198332  0.50433644  0.25834947  1
  Ti4+  Ti4  1  0.33246242  0.16700002  0.59037281  1
  Ti4+  Ti5  1  0.33613216  0.66861700  0.59038966  1
  Ti4+  Ti6  1  0.83345128  0.16436244  0.59409170  1
  Ti4+  Ti7  1  0.83260080  0.66691002  0.59091211  1
  Ti4+  Ti8  1  0.16932793  0.33227316  0.92267132  1
  Ti4+  Ti9  1  0.16495703  0.83103421  0.92063245  1
  Ti4+  Ti10  1  0.66704638  0.33107960  0.92039356  1
  Ti4+  Ti11  1  0.66618240  0.83337177  0.92866071  1
  Ti4+  Ti12  1  -0.00079223  -0.00090402  0.75557105  1
  Ti4+  Ti13  1  0.00056193  0.50071144  0.75143019  1
  Ti4+  Ti14  1  0.49978729  0.00032751  0.75487641  1
  Ti4+  Ti15  1  0.49875415  0.49875694  0.75554269  1
  Ti4+  Ti16  1  0.33290134  0.16554912  0.09034132  1
  Ti4+  Ti17  1  0.33209303  0.66588910  0.08830043  1
  Ti4+  Ti18  1  0.83515864  0.16780465  0.08921270  1
  Ti4+  Ti19  1  0.83159120  0.66535045  0.08810697  1
  Ti4+  Ti20  1  0.16636671  0.33320387  0.42398634  1
  Ti4+  Ti21  1  0.16651806  0.83407796  0.42177676  1
  Ti4+  Ti22  1  0.66637371  0.33463106  0.42249267  1
  Ti4+  Ti23  1  0.66537161  0.83418245  0.42327204  1
  Cu+  Cu24  1  0.02640043  0.26365174  0.14013906  1
  Cu+  Cu25  1  0.35688454  0.42888638  0.47331639  1
  Cu+  Cu26  1  0.90635552  0.59276162  0.80447198  1
  Cu+  Cu27  1  0.07043354  0.14467854  0.47728187  1
  Cu+  Cu28  1  0.51297880  0.76100830  0.14688338  1
  Cu+  Cu29  1  0.91437496  0.32068169  0.80927566  1
  Cu+  Cu30  1  0.35500548  0.92781191  0.47544796  1
  Cu+  Cu31  1  0.68247575  0.08489884  0.81049661  1
  Cu+  Cu32  1  0.41017847  0.31265621  0.80772124  1
  Cu+  Cu33  1  0.18523019  0.08810278  0.80751249  1
  Cu+  Cu34  1  0.18833297  0.59291648  0.80419297  1
  Cu+  Cu35  1  0.74524610  0.76282404  0.14470465  1
  Cu+  Cu36  1  0.16415852  0.08377892  0.17336931  1
  Cu+  Cu37  1  0.16051243  0.57999288  0.16927568  1
  Cu+  Cu38  1  0.66310584  0.08423621  0.17192347  1
  Cu+  Cu39  1  0.66376702  0.58723819  0.16932315  1
  Cu+  Cu40  1  0.41820641  0.33642930  0.17343995  1
  Cu+  Cu41  1  0.41799058  0.83835925  0.17226476  1
  Cu+  Cu42  1  0.92367466  0.33657078  0.16991304  1
  Cu+  Cu43  1  0.91543478  0.83663883  0.17222744  1
  Cu+  Cu44  1  0.41645435  0.08186323  0.17383306  1
  Cu+  Cu45  1  0.42045997  0.58543380  0.17086489  1
  Cu+  Cu46  1  0.92449487  0.08933573  0.17133877  1
  Cu+  Cu47  1  0.91648660  0.57948337  0.17031389  1
  Cu+  Cu48  1  0.49682572  0.25218398  0.50312537  1
  Cu+  Cu49  1  0.49615864  0.74830612  0.50350432  1
  Cu+  Cu50  1  0.99513687  0.24273915  0.50715022  1
  Cu+  Cu51  1  0.99514474  0.74810081  0.50459552  1
  Cu+  Cu52  1  0.25271201  0.00277335  0.50339527  1
  Cu+  Cu53  1  0.25631632  0.50236495  0.50560562  1
  Cu+  Cu54  1  0.74963438  0.00199300  0.50653352  1
  Cu+  Cu55  1  0.75152360  0.50371532  0.50509832  1
  Cu+  Cu56  1  0.25016026  0.24899710  0.50426093  1
  Cu+  Cu57  1  0.25524724  0.75342368  0.50443790  1
  Cu+  Cu58  1  0.75001801  0.24867562  0.50804009  1
  Cu+  Cu59  1  0.75089315  0.74951481  0.50554242  1
  Cu+  Cu60  1  0.33046803  0.40984050  0.83555759  1
  Cu+  Cu61  1  0.32821269  0.91332395  0.83448933  1
  Cu+  Cu62  1  0.82914728  0.41427121  0.83127402  1
  Cu+  Cu63  1  0.82861697  0.91191945  0.84030723  1
  Cu+  Cu64  1  0.08839652  0.16808482  0.83596020  1
  Cu+  Cu65  1  0.08456772  0.66884939  0.83226466  1
  Cu+  Cu66  1  0.58858389  0.16853394  0.83373979  1
  Cu+  Cu67  1  0.58321518  0.66813254  0.84199964  1
  Cu+  Cu68  1  0.08807300  0.41616063  0.83439409  1
  Cu+  Cu69  1  0.08665307  0.91534007  0.83540763  1
  Cu+  Cu70  1  0.58203794  0.41013528  0.83515181  1
  Cu+  Cu71  1  0.58490780  0.91441266  0.84140197  1
  Cu+  Cu72  1  0.16737625  0.08470200  0.67825136  1
  Cu+  Cu73  1  0.17282785  0.58706107  0.67516077  1
  Cu+  Cu74  1  0.66974449  0.08421047  0.68147371  1
  Cu+  Cu75  1  0.66842693  0.58572098  0.67435772  1
  Cu+  Cu76  1  0.41267318  0.33130337  0.67874142  1
  Cu+  Cu77  1  0.41652033  0.83330493  0.67532799  1
  Cu+  Cu78  1  0.91497048  0.32862840  0.67885174  1
  Cu+  Cu79  1  0.91288399  0.83004444  0.67469273  1
  Cu+  Cu80  1  0.41421739  0.08279513  0.67404589  1
  Cu+  Cu81  1  0.41724182  0.58584338  0.67633135  1
  Cu+  Cu82  1  0.91288865  0.08028357  0.67780371  1
  Cu+  Cu83  1  0.91441874  0.58609035  0.67605518  1
  Cu+  Cu84  1  0.00481982  0.25171994  0.01127609  1
  Cu+  Cu85  1  0.00047059  0.74856191  0.00491466  1
  Cu+  Cu86  1  0.50166639  0.24814940  0.00730208  1
  Cu+  Cu87  1  0.50208536  0.75160323  0.01562869  1
  Cu+  Cu88  1  0.24810232  0.49803528  0.00679915  1
  Cu+  Cu89  1  0.24740569  0.99603468  0.00863058  1
  Cu+  Cu90  1  0.74824397  0.49569126  0.00516860  1
  Cu+  Cu91  1  0.74880991  0.99853601  0.01226307  1
  Cu+  Cu92  1  0.25033418  0.24786225  0.00979014  1
  Cu+  Cu93  1  0.24617347  0.74780257  0.00570714  1
  Cu+  Cu94  1  0.75038730  0.24972156  0.00665578  1
  Cu+  Cu95  1  0.74620989  0.74985510  0.01543543  1
  Cu+  Cu96  1  0.33847118  0.42163700  0.34513292  1
  Cu+  Cu97  1  0.33577564  0.91849423  0.34610005  1
  Cu+  Cu98  1  0.83607401  0.41703733  0.33992195  1
  Cu+  Cu99  1  0.83458408  0.92056742  0.34344499  1
  Cu+  Cu100  1  0.08091692  0.16545438  0.34795157  1
  Cu+  Cu101  1  0.08012044  0.66332988  0.33983737  1
  Cu+  Cu102  1  0.58126193  0.16579612  0.34323941  1
  Cu+  Cu103  1  0.58282681  0.66833946  0.34379325  1
  Cu+  Cu104  1  0.08063126  0.41686285  0.34143790  1
  Cu+  Cu105  1  0.07994155  0.91744460  0.34182931  1
  Cu+  Cu106  1  0.58426088  0.42088381  0.34123285  1
  Cu+  Cu107  1  0.58022581  0.91787772  0.34401761  1
  Cu+  Cu108  1  0.00120539  -0.00175689  0.11669248  1
  Cu+  Cu109  1  -0.00329690  0.50021780  0.11209994  1
  Cu+  Cu110  1  0.50000848  0.00316462  0.11657960  1
  Cu+  Cu111  1  0.49774846  0.49611251  0.11528043  1
  Cu+  Cu112  1  0.33374390  0.16667772  0.44619065  1
  Cu+  Cu113  1  0.32857660  0.66465664  0.44752182  1
  Cu+  Cu114  1  0.82951504  0.16759451  0.45151780  1
  Cu+  Cu115  1  0.83160547  0.66692080  0.44800826  1
  Cu+  Cu116  1  0.16573220  0.33170382  0.77810636  1
  Cu+  Cu117  1  0.16695443  0.83371286  0.77541321  1
  Cu+  Cu118  1  0.66534354  0.33312777  0.77502786  1
  Cu+  Cu119  1  0.66443162  0.82881888  0.78620239  1
  Te2-  Te120  1  -0.00165865  -0.00137020  0.38967263  1
  Te2-  Te121  1  -0.00048274  0.49984118  0.38525056  1
  Te2-  Te122  1  0.50148040  0.00263614  0.39000032  1
  Te2-  Te123  1  0.50455130  0.50407129  0.38854455  1
  Te2-  Te124  1  0.33357394  0.16471445  0.72238410  1
  Te2-  Te125  1  0.33752469  0.66984258  0.72114768  1
  Te2-  Te126  1  0.83529936  0.16478118  0.72666086  1
  Te2-  Te127  1  0.83084600  0.66739228  0.72217807  1
  Te2-  Te128  1  0.17174116  0.33442391  0.05265346  1
  Te2-  Te129  1  0.16431639  0.83036162  0.04931457  1
  Te2-  Te130  1  0.66704588  0.33144729  0.04881169  1
  Te2-  Te131  1  0.66712394  0.83620489  0.06088326  1
  Te2-  Te132  1  0.49374439  0.24024986  0.88124058  1
  Te2-  Te133  1  0.49524506  0.74796582  0.88790202  1
  Te2-  Te134  1  0.99727918  0.24532103  0.88330666  1
  Te2-  Te135  1  0.99209370  0.74688448  0.87915669  1
  Te2-  Te136  1  0.25567674  0.00582884  0.88262360  1
  Te2-  Te137  1  0.25642160  0.50468225  0.88077577  1
  Te2-  Te138  1  0.75599165  0.00607957  0.88639374  1
  Te2-  Te139  1  0.75014661  0.50373024  0.87913393  1
  Te2-  Te140  1  0.25633436  0.24229677  0.88366987  1
  Te2-  Te141  1  0.25362040  0.74589886  0.87993136  1
  Te2-  Te142  1  0.75730242  0.24482880  0.88091237  1
  Te2-  Te143  1  0.75037853  0.74610999  0.88823638  1
  Te2-  Te144  1  0.33120630  0.41841819  0.21770868  1
  Te2-  Te145  1  0.32752364  0.91399609  0.21882934  1
  Te2-  Te146  1  0.82934830  0.41114728  0.21388675  1
  Te2-  Te147  1  0.82794561  0.92079638  0.21714977  1
  Te2-  Te148  1  0.09098677  0.17712860  0.22031532  1
  Te2-  Te149  1  0.08453274  0.67109488  0.21414768  1
  Te2-  Te150  1  0.58468757  0.17266725  0.21732391  1
  Te2-  Te151  1  0.58963302  0.68104073  0.21802188  1
  Te2-  Te152  1  0.09200177  0.41469666  0.21619902  1
  Te2-  Te153  1  0.08259099  0.91492603  0.21590344  1
  Te2-  Te154  1  0.58777646  0.42003009  0.21515376  1
  Te2-  Te155  1  0.58847306  0.91741899  0.21821846  1
  Te2-  Te156  1  0.16033245  0.07844640  0.55071680  1
  Te2-  Te157  1  0.16666457  0.58329466  0.54780470  1
  Te2-  Te158  1  0.66248481  0.08082378  0.55422908  1
  Te2-  Te159  1  0.66108566  0.58141621  0.54893666  1
  Te2-  Te160  1  0.41914479  0.34013226  0.55146418  1
  Te2-  Te161  1  0.42455432  0.84271948  0.55001418  1
  Te2-  Te162  1  0.91904504  0.33483746  0.55155644  1
  Te2-  Te163  1  0.91864632  0.83889786  0.54943694  1
  Te2-  Te164  1  0.42205300  0.08424256  0.54838616  1
  Te2-  Te165  1  0.42483027  0.58270476  0.55071713  1
  Te2-  Te166  1  0.91625500  0.07364090  0.55224419  1
  Te2-  Te167  1  0.91895736  0.58116106  0.54992041  1
  Te2-  Te168  1  -0.00017123  -0.00186231  0.88231817  1
  Te2-  Te169  1  -0.00116965  0.49824167  0.87970418  1
  Te2-  Te170  1  0.49735297  -0.00059283  0.88175264  1
  Te2-  Te171  1  0.49960655  0.49715545  0.88241251  1
  Te2-  Te172  1  0.33322845  0.16773317  0.21690214  1
  Te2-  Te173  1  0.33059242  0.66655788  0.21513161  1
  Te2-  Te174  1  0.83281411  0.16780190  0.21586325  1
  Te2-  Te175  1  0.83308456  0.66568784  0.21509591  1
  Te2-  Te176  1  0.16529967  0.33324866  0.55127876  1
  Te2-  Te177  1  0.16508874  0.83316917  0.54859050  1
  Te2-  Te178  1  0.66550580  0.33437267  0.54883410  1
  Te2-  Te179  1  0.66479613  0.83256791  0.54965854  1
  Te2-  Te180  1  0.32589750  0.41587489  0.70953253  1
  Te2-  Te181  1  0.32745709  0.91391280  0.70883468  1
  Te2-  Te182  1  0.82606461  0.41308286  0.70492869  1
  Te2-  Te183  1  0.82542815  0.91104022  0.71425001  1
  Te2-  Te184  1  0.08344995  0.17243938  0.70961470  1
  Te2-  Te185  1  0.08740681  0.67438317  0.70524856  1
  Te2-  Te186  1  0.58435137  0.17282496  0.70753339  1
  Te2-  Te187  1  0.58609009  0.67195721  0.71464424  1
  Te2-  Te188  1  0.08839418  0.41402051  0.70665946  1
  Te2-  Te189  1  0.08357854  0.91173059  0.70855348  1
  Te2-  Te190  1  0.58609951  0.41479226  0.70806004  1
  Te2-  Te191  1  0.58558541  0.91164732  0.71377866  1
  Te2-  Te192  1  0.16102498  0.07889205  0.04668273  1
  Te2-  Te193  1  0.15991118  0.57898975  0.04326793  1
  Te2-  Te194  1  0.66162592  0.08144571  0.04586526  1
  Te2-  Te195  1  0.65902751  0.57625583  0.04285996  1
  Te2-  Te196  1  0.42025144  0.33648476  0.04584896  1
  Te2-  Te197  1  0.41596835  0.83906633  0.04473938  1
  Te2-  Te198  1  0.92004779  0.33963656  0.04248289  1
  Te2-  Te199  1  0.92012852  0.83809784  0.04418927  1
  Te2-  Te200  1  0.41741881  0.07893967  0.04649092  1
  Te2-  Te201  1  0.41783610  0.57797685  0.04404679  1
  Te2-  Te202  1  0.92026603  0.07927649  0.04481285  1
  Te2-  Te203  1  0.91722284  0.57950407  0.04301295  1
  Te2-  Te204  1  0.49498283  0.25048015  0.37717984  1
  Te2-  Te205  1  0.49264641  0.74793764  0.37830064  1
  Te2-  Te206  1  0.99257330  0.24869727  0.38038299  1
  Te2-  Te207  1  0.99443273  0.74737865  0.37818610  1
  Te2-  Te208  1  0.25037595  0.00658649  0.37654257  1
  Te2-  Te209  1  0.25050031  0.50546832  0.37825428  1
  Te2-  Te210  1  0.75086419  0.00682001  0.38029822  1
  Te2-  Te211  1  0.75420700  0.50568362  0.37805730  1
  Te2-  Te212  1  0.25444518  0.24863269  0.37681938  1
  Te2-  Te213  1  0.25008786  0.74557127  0.37690207  1
  Te2-  Te214  1  0.75156624  0.24792203  0.38028886  1
  Te2-  Te215  1  0.75318368  0.74989571  0.37884409  1
