# generated using pymatgen
data_Ti(CuTe)4
_symmetry_space_group_name_H-M   'P 1'
_cell_length_a   16.89614918
_cell_length_b   16.89612284
_cell_length_c   20.71411354
_cell_angle_alpha   90.01417025
_cell_angle_beta   89.97245080
_cell_angle_gamma   119.99592024
_symmetry_Int_Tables_number   1
_chemical_formula_structural   Ti(CuTe)4
_chemical_formula_sum   'Ti24 Cu96 Te96'
_cell_volume   5121.41041284
_cell_formula_units_Z   24
loop_
 _symmetry_equiv_pos_site_id
 _symmetry_equiv_pos_as_xyz
  1  'x, y, z'
loop_
 _atom_type_symbol
 _atom_type_oxidation_number
  Ti4+  4.0
  Cu+  1.0
  Te2-  -2.0
loop_
 _atom_site_type_symbol
 _atom_site_label
 _atom_site_symmetry_multiplicity
 _atom_site_fract_x
 _atom_site_fract_y
 _atom_site_fract_z
 _atom_site_occupancy
  Ti4+  Ti0  1  -0.00048052  0.00060704  0.26387172  1
  Ti4+  Ti1  1  -0.00074565  0.50001301  0.26245417  1
  Ti4+  Ti2  1  0.50045515  0.00052601  0.25588437  1
  Ti4+  Ti3  1  0.49968199  0.50023704  0.25565283  1
  Ti4+  Ti4  1  0.33455202  0.16665229  0.58857878  1
  Ti4+  Ti5  1  0.33312101  0.66437423  0.58683603  1
  Ti4+  Ti6  1  0.83128815  0.16589857  0.59202857  1
  Ti4+  Ti7  1  0.83483177  0.66748494  0.59026365  1
  Ti4+  Ti8  1  0.16348095  0.32988287  0.92348293  1
  Ti4+  Ti9  1  0.16855064  0.83623118  0.92478856  1
  Ti4+  Ti10  1  0.66969543  0.33643118  0.92390224  1
  Ti4+  Ti11  1  0.66886440  0.83296232  0.92327530  1
  Ti4+  Ti12  1  0.00168956  0.00134076  0.75441350  1
  Ti4+  Ti13  1  -0.00126181  0.49837347  0.75501807  1
  Ti4+  Ti14  1  0.49833799  -0.00137976  0.75474308  1
  Ti4+  Ti15  1  0.50210710  0.50084610  0.75449599  1
  Ti4+  Ti16  1  0.33374516  0.16773605  0.08913074  1
  Ti4+  Ti17  1  0.33294142  0.66603289  0.08733979  1
  Ti4+  Ti18  1  0.83294400  0.16669934  0.09178586  1
  Ti4+  Ti19  1  0.83413630  0.66780398  0.09118832  1
  Ti4+  Ti20  1  0.16866331  0.33512938  0.41979841  1
  Ti4+  Ti21  1  0.16550160  0.83319264  0.41868397  1
  Ti4+  Ti22  1  0.66467759  0.33121710  0.42143329  1
  Ti4+  Ti23  1  0.66618591  0.83349035  0.42046389  1
  Cu+  Cu24  1  0.57014565  0.14088871  0.47050199  1
  Cu+  Cu25  1  0.69349857  0.59648319  0.80704528  1
  Cu+  Cu26  1  0.91036174  0.08594482  0.81740254  1
  Cu+  Cu27  1  0.84174678  0.42004226  0.48030658  1
  Cu+  Cu28  1  0.90480095  0.31526112  0.81233707  1
  Cu+  Cu29  1  0.84390242  0.92213890  0.48105325  1
  Cu+  Cu30  1  0.18929227  0.09349884  0.80823879  1
  Cu+  Cu31  1  0.35691526  0.42784292  0.46997833  1
  Cu+  Cu32  1  0.07926259  0.92205813  0.48032361  1
  Cu+  Cu33  1  0.08066005  0.16105341  0.48322524  1
  Cu+  Cu34  1  0.07971546  0.41977355  0.48196485  1
  Cu+  Cu35  1  0.07870331  0.65660112  0.47811203  1
  Cu+  Cu36  1  0.16435430  0.08315463  0.17619295  1
  Cu+  Cu37  1  0.16400899  0.58190866  0.17374322  1
  Cu+  Cu38  1  0.66301536  0.08285216  0.17190347  1
  Cu+  Cu39  1  0.66347102  0.58207616  0.17123158  1
  Cu+  Cu40  1  0.41764214  0.33724346  0.17056283  1
  Cu+  Cu41  1  0.41923599  0.83606385  0.16917037  1
  Cu+  Cu42  1  0.91716630  0.33635917  0.17652954  1
  Cu+  Cu43  1  0.91720404  0.83629791  0.17647900  1
  Cu+  Cu44  1  0.42080379  0.08493837  0.17077536  1
  Cu+  Cu45  1  0.41715090  0.58108048  0.16937729  1
  Cu+  Cu46  1  0.91691056  0.08168078  0.17736700  1
  Cu+  Cu47  1  0.91704248  0.58178070  0.17564970  1
  Cu+  Cu48  1  0.49634493  0.24273392  0.50106291  1
  Cu+  Cu49  1  0.49539173  0.74686379  0.50044764  1
  Cu+  Cu50  1  0.99036694  0.24574004  0.50291493  1
  Cu+  Cu51  1  0.99238713  0.74580884  0.50027051  1
  Cu+  Cu52  1  0.25232394  0.00598329  0.49986757  1
  Cu+  Cu53  1  0.25665302  0.50629445  0.49889039  1
  Cu+  Cu54  1  0.75213992  0.00324501  0.50333857  1
  Cu+  Cu55  1  0.75128875  0.50304289  0.50329096  1
  Cu+  Cu56  1  0.25652295  0.25080880  0.50038532  1
  Cu+  Cu57  1  0.25129242  0.74613452  0.49923153  1
  Cu+  Cu58  1  0.74740403  0.24564971  0.50324391  1
  Cu+  Cu59  1  0.75154978  0.74861864  0.50308186  1
  Cu+  Cu60  1  0.33017745  0.41415484  0.83705876  1
  Cu+  Cu61  1  0.32979698  0.91584652  0.83725974  1
  Cu+  Cu62  1  0.82802855  0.41209285  0.83666821  1
  Cu+  Cu63  1  0.82616131  0.91314113  0.83615912  1
  Cu+  Cu64  1  0.08665047  0.17099555  0.83497744  1
  Cu+  Cu65  1  0.08348179  0.66981745  0.83912627  1
  Cu+  Cu66  1  0.58403151  0.16830477  0.83760262  1
  Cu+  Cu67  1  0.59084390  0.66776600  0.83647107  1
  Cu+  Cu68  1  0.07875295  0.40966960  0.83612046  1
  Cu+  Cu69  1  0.09063161  0.91902370  0.83722806  1
  Cu+  Cu70  1  0.59123175  0.42307310  0.83701341  1
  Cu+  Cu71  1  0.58430417  0.91614917  0.83683723  1
  Cu+  Cu72  1  0.17011111  0.08552121  0.67921283  1
  Cu+  Cu73  1  0.16881852  0.58363772  0.67378869  1
  Cu+  Cu74  1  0.66526894  0.08247247  0.67560360  1
  Cu+  Cu75  1  0.67209780  0.58618504  0.67754151  1
  Cu+  Cu76  1  0.41652290  0.33225803  0.67283715  1
  Cu+  Cu77  1  0.41302210  0.82893585  0.67184576  1
  Cu+  Cu78  1  0.91412382  0.33043144  0.68192957  1
  Cu+  Cu79  1  0.91778076  0.83319620  0.67625855  1
  Cu+  Cu80  1  0.41399137  0.08113370  0.67420228  1
  Cu+  Cu81  1  0.41571738  0.58281039  0.67205647  1
  Cu+  Cu82  1  0.91601447  0.08470897  0.68427304  1
  Cu+  Cu83  1  0.91721883  0.58381962  0.67623883  1
  Cu+  Cu84  1  -0.00101505  0.24861246  0.01115804  1
  Cu+  Cu85  1  0.00518341  0.75442692  0.01013947  1
  Cu+  Cu86  1  0.50467792  0.25472589  0.00676728  1
  Cu+  Cu87  1  0.50301575  0.74969348  0.00533142  1
  Cu+  Cu88  1  0.24536081  0.49573128  0.00717868  1
  Cu+  Cu89  1  0.24966991  1.00014944  0.00935075  1
  Cu+  Cu90  1  0.75236686  0.50077400  0.00878403  1
  Cu+  Cu91  1  0.74964001  0.99773407  0.00998528  1
  Cu+  Cu92  1  0.24634929  0.24845382  0.00903366  1
  Cu+  Cu93  1  0.24805988  0.75091054  0.00820211  1
  Cu+  Cu94  1  0.75056053  0.25312579  0.01041263  1
  Cu+  Cu95  1  0.75147720  0.75255287  0.00921105  1
  Cu+  Cu96  1  0.33792975  0.41981509  0.34179448  1
  Cu+  Cu97  1  0.33623334  0.91927293  0.33695741  1
  Cu+  Cu98  1  0.83540427  0.41812150  0.34911892  1
  Cu+  Cu99  1  0.83645208  0.91856629  0.35016361  1
  Cu+  Cu100  1  0.08187606  0.16426048  0.34967712  1
  Cu+  Cu101  1  0.08059090  0.66359984  0.34727665  1
  Cu+  Cu102  1  0.57975731  0.16187916  0.34324901  1
  Cu+  Cu103  1  0.58079232  0.66441833  0.33856545  1
  Cu+  Cu104  1  0.08222694  0.41971954  0.34865006  1
  Cu+  Cu105  1  0.08091973  0.91880436  0.34895298  1
  Cu+  Cu106  1  0.57978027  0.41692830  0.33874331  1
  Cu+  Cu107  1  0.58188513  0.91831719  0.33911881  1
  Cu+  Cu108  1  0.00011807  0.00056287  0.12195026  1
  Cu+  Cu109  1  -0.00014694  0.50053749  0.12002697  1
  Cu+  Cu110  1  0.49878148  -0.00086939  0.11275486  1
  Cu+  Cu111  1  0.50052610  0.50108079  0.11237176  1
  Cu+  Cu112  1  0.33519789  0.16644014  0.44156584  1
  Cu+  Cu113  1  0.33703839  0.67252332  0.44010365  1
  Cu+  Cu114  1  0.82874319  0.16414844  0.44635936  1
  Cu+  Cu115  1  0.82620063  0.66262314  0.44554359  1
  Cu+  Cu116  1  0.17135131  0.33971914  0.78001093  1
  Cu+  Cu117  1  0.16594528  0.82917914  0.78218328  1
  Cu+  Cu118  1  0.65954999  0.32931614  0.78210908  1
  Cu+  Cu119  1  0.65832829  0.82912317  0.78113725  1
  Te2-  Te120  1  0.00032733  0.00141165  0.39870872  1
  Te2-  Te121  1  -0.00080417  0.49989570  0.39701182  1
  Te2-  Te122  1  0.49710518  -0.00434506  0.38738433  1
  Te2-  Te123  1  0.50345779  0.50235294  0.38703858  1
  Te2-  Te124  1  0.33732744  0.16862353  0.71848226  1
  Te2-  Te125  1  0.33354184  0.66487496  0.71557637  1
  Te2-  Te126  1  0.82823168  0.16388776  0.72332210  1
  Te2-  Te127  1  0.83848256  0.66919700  0.72014722  1
  Te2-  Te128  1  0.16471598  0.33174616  0.05202187  1
  Te2-  Te129  1  0.16959590  0.83601915  0.05369028  1
  Te2-  Te130  1  0.66828704  0.33619636  0.05260141  1
  Te2-  Te131  1  0.66622837  0.83228651  0.05191440  1
  Te2-  Te132  1  0.49976238  0.25348498  0.88019950  1
  Te2-  Te133  1  0.49932284  0.74641249  0.87880598  1
  Te2-  Te134  1  0.98660487  0.24153033  0.88499876  1
  Te2-  Te135  1  0.99698092  0.75171495  0.88349212  1
  Te2-  Te136  1  0.25883246  0.01122877  0.88364297  1
  Te2-  Te137  1  0.24671044  0.49988476  0.88041266  1
  Te2-  Te138  1  0.75107933  0.00719076  0.88392399  1
  Te2-  Te139  1  0.76061216  0.51032501  0.88284168  1
  Te2-  Te140  1  0.25354535  0.24676579  0.88285892  1
  Te2-  Te141  1  0.25181712  0.74824909  0.88218970  1
  Te2-  Te142  1  0.75088865  0.24344686  0.88437761  1
  Te2-  Te143  1  0.75984172  0.74937089  0.88320554  1
  Te2-  Te144  1  0.32752820  0.41429443  0.21564965  1
  Te2-  Te145  1  0.32991986  0.91566574  0.21173364  1
  Te2-  Te146  1  0.82828621  0.41478475  0.22187200  1
  Te2-  Te147  1  0.82874754  0.91457863  0.22299367  1
  Te2-  Te148  1  0.08475017  0.17112167  0.22211303  1
  Te2-  Te149  1  0.08480848  0.67011300  0.22019390  1
  Te2-  Te150  1  0.58696379  0.17340733  0.21739319  1
  Te2-  Te151  1  0.58482827  0.67169369  0.21333932  1
  Te2-  Te152  1  0.08493431  0.41509758  0.22108801  1
  Te2-  Te153  1  0.08470210  0.91551135  0.22175355  1
  Te2-  Te154  1  0.58533651  0.41397668  0.21374632  1
  Te2-  Te155  1  0.58645102  0.91482355  0.21397382  1
  Te2-  Te156  1  0.15845843  0.08039380  0.55166461  1
  Te2-  Te157  1  0.15630666  0.57682082  0.54856642  1
  Te2-  Te158  1  0.65954269  0.07745387  0.54924788  1
  Te2-  Te159  1  0.66453669  0.58241140  0.54983756  1
  Te2-  Te160  1  0.42389778  0.33890214  0.54670285  1
  Te2-  Te161  1  0.41649992  0.83562477  0.54559445  1
  Te2-  Te162  1  0.91832071  0.34056977  0.55357621  1
  Te2-  Te163  1  0.92225773  0.84293287  0.55068926  1
  Te2-  Te164  1  0.41637442  0.07500170  0.54810540  1
  Te2-  Te165  1  0.42288784  0.58025038  0.54656612  1
  Te2-  Te166  1  0.92058358  0.07948926  0.55473482  1
  Te2-  Te167  1  0.92167998  0.57896322  0.55046315  1
  Te2-  Te168  1  -0.00115804  -0.00099419  0.88158933  1
  Te2-  Te169  1  -0.00124133  0.49966564  0.88177935  1
  Te2-  Te170  1  0.49913858  -0.00055649  0.88110724  1
  Te2-  Te171  1  0.49874974  0.49942560  0.88139390  1
  Te2-  Te172  1  0.33535908  0.16855648  0.21547756  1
  Te2-  Te173  1  0.33447887  0.66722029  0.21369149  1
  Te2-  Te174  1  0.83112534  0.16631169  0.21822940  1
  Te2-  Te175  1  0.83154198  0.66615440  0.21761336  1
  Te2-  Te176  1  0.16575740  0.33335658  0.54853206  1
  Te2-  Te177  1  0.16643404  0.83331469  0.54644658  1
  Te2-  Te178  1  0.66482999  0.33352740  0.54914617  1
  Te2-  Te179  1  0.66434769  0.83219128  0.54746750  1
  Te2-  Te180  1  0.32989725  0.41432620  0.71008991  1
  Te2-  Te181  1  0.32662726  0.91170618  0.71067846  1
  Te2-  Te182  1  0.82472275  0.41391623  0.71038649  1
  Te2-  Te183  1  0.82641600  0.91149494  0.71021657  1
  Te2-  Te184  1  0.08902455  0.17681844  0.70851173  1
  Te2-  Te185  1  0.08680207  0.67094647  0.71176116  1
  Te2-  Te186  1  0.58391256  0.17076312  0.71069159  1
  Te2-  Te187  1  0.58585326  0.67235676  0.70868970  1
  Te2-  Te188  1  0.08734225  0.41393840  0.70913669  1
  Te2-  Te189  1  0.08767706  0.91304509  0.71039390  1
  Te2-  Te190  1  0.58673213  0.41357555  0.70911681  1
  Te2-  Te191  1  0.58311569  0.91207806  0.70983378  1
  Te2-  Te192  1  0.16048557  0.07999583  0.04891022  1
  Te2-  Te193  1  0.16031423  0.58055643  0.04633784  1
  Te2-  Te194  1  0.66252012  0.08186242  0.04555769  1
  Te2-  Te195  1  0.66361382  0.58225452  0.04476243  1
  Te2-  Te196  1  0.41805349  0.33848514  0.04378888  1
  Te2-  Te197  1  0.41967203  0.83704451  0.04242797  1
  Te2-  Te198  1  0.91954759  0.33898662  0.04934746  1
  Te2-  Te199  1  0.92060504  0.83989791  0.04923935  1
  Te2-  Te200  1  0.42117091  0.08416433  0.04407385  1
  Te2-  Te201  1  0.41713802  0.57925891  0.04234227  1
  Te2-  Te202  1  0.91838025  0.07949553  0.05004598  1
  Te2-  Te203  1  0.92164180  0.58359540  0.04839081  1
  Te2-  Te204  1  0.49323811  0.24774680  0.37439013  1
  Te2-  Te205  1  0.49557129  0.74843846  0.37411418  1
  Te2-  Te206  1  0.99150319  0.24692392  0.37654279  1
  Te2-  Te207  1  0.98919971  0.74521034  0.37430597  1
  Te2-  Te208  1  0.25480330  0.00693011  0.37364168  1
  Te2-  Te209  1  0.25530484  0.50940176  0.37288926  1
  Te2-  Te210  1  0.75103558  0.00675050  0.37647879  1
  Te2-  Te211  1  0.74880360  0.50455831  0.37635661  1
  Te2-  Te212  1  0.25533461  0.24756530  0.37385853  1
  Te2-  Te213  1  0.25445641  0.74926596  0.37258844  1
  Te2-  Te214  1  0.75223445  0.24496708  0.37594647  1
  Te2-  Te215  1  0.75017257  0.74468451  0.37598579  1
