# generated using pymatgen
data_Ti(CuTe)4
_symmetry_space_group_name_H-M   'P 1'
_cell_length_a   16.87562362
_cell_length_b   16.87538378
_cell_length_c   20.68939848
_cell_angle_alpha   89.97985185
_cell_angle_beta   90.03199263
_cell_angle_gamma   120.01381709
_symmetry_Int_Tables_number   1
_chemical_formula_structural   Ti(CuTe)4
_chemical_formula_sum   'Ti24 Cu96 Te96'
_cell_volume   5101.89400803
_cell_formula_units_Z   24
loop_
 _symmetry_equiv_pos_site_id
 _symmetry_equiv_pos_as_xyz
  1  'x, y, z'
loop_
 _atom_type_symbol
 _atom_type_oxidation_number
  Ti4+  4.0
  Cu+  1.0
  Te2-  -2.0
loop_
 _atom_site_type_symbol
 _atom_site_label
 _atom_site_symmetry_multiplicity
 _atom_site_fract_x
 _atom_site_fract_y
 _atom_site_fract_z
 _atom_site_occupancy
  Ti4+  Ti0  1  0.00279375  0.00023739  0.25867355  1
  Ti4+  Ti1  1  0.00211896  0.50310864  0.25600815  1
  Ti4+  Ti2  1  0.50384202  0.00562687  0.25692146  1
  Ti4+  Ti3  1  0.50338954  0.50418096  0.25837235  1
  Ti4+  Ti4  1  0.33444388  0.16940235  0.59266446  1
  Ti4+  Ti5  1  0.33534022  0.66919645  0.59161914  1
  Ti4+  Ti6  1  0.83594740  0.16580764  0.59131183  1
  Ti4+  Ti7  1  0.83143910  0.66613119  0.59322502  1
  Ti4+  Ti8  1  0.16149005  0.32849303  0.92262871  1
  Ti4+  Ti9  1  0.16272712  0.82984485  0.92231933  1
  Ti4+  Ti10  1  0.66267278  0.32953352  0.92388985  1
  Ti4+  Ti11  1  0.66200868  0.82875913  0.92746440  1
  Ti4+  Ti12  1  0.00150078  0.00050430  0.75607918  1
  Ti4+  Ti13  1  -0.00164972  0.49900723  0.75428779  1
  Ti4+  Ti14  1  0.49976707  -0.00127416  0.75561175  1
  Ti4+  Ti15  1  0.49977043  0.49914880  0.75666710  1
  Ti4+  Ti16  1  0.33327244  0.16611829  0.08999333  1
  Ti4+  Ti17  1  0.33303126  0.66583148  0.08696469  1
  Ti4+  Ti18  1  0.83007305  0.16492450  0.08742372  1
  Ti4+  Ti19  1  0.83362291  0.66492790  0.08735463  1
  Ti4+  Ti20  1  0.16693759  0.33203753  0.42176754  1
  Ti4+  Ti21  1  0.17001457  0.83449320  0.42372469  1
  Ti4+  Ti22  1  0.66825196  0.33756728  0.42522684  1
  Ti4+  Ti23  1  0.66826497  0.83519810  0.42258869  1
  Cu+  Cu24  1  0.74625327  0.26566025  0.14080005  1
  Cu+  Cu25  1  0.74993139  0.76059624  0.14570995  1
  Cu+  Cu26  1  0.40293958  0.80759920  0.80746659  1
  Cu+  Cu27  1  0.57034828  0.43221930  0.47606578  1
  Cu+  Cu28  1  0.40057422  0.31255491  0.80845354  1
  Cu+  Cu29  1  0.40388975  0.08534889  0.80962612  1
  Cu+  Cu30  1  0.90018529  0.30787606  0.80515995  1
  Cu+  Cu31  1  0.51864879  0.26495079  0.14521861  1
  Cu+  Cu32  1  0.51796466  0.76423959  0.14340074  1
  Cu+  Cu33  1  0.90132509  0.59045289  0.80720838  1
  Cu+  Cu34  1  0.02488129  0.76415277  0.13984097  1
  Cu+  Cu35  1  0.07243540  0.14191388  0.47477450  1
  Cu+  Cu36  1  0.16379086  0.08248880  0.17273437  1
  Cu+  Cu37  1  0.16291959  0.58235970  0.16864702  1
  Cu+  Cu38  1  0.66306060  0.08787419  0.16712185  1
  Cu+  Cu39  1  0.66307867  0.58414531  0.16878967  1
  Cu+  Cu40  1  0.42152924  0.33842607  0.17284763  1
  Cu+  Cu41  1  0.42022387  0.83840201  0.16948023  1
  Cu+  Cu42  1  0.91684835  0.33713431  0.16954382  1
  Cu+  Cu43  1  0.92363645  0.83739549  0.17022577  1
  Cu+  Cu44  1  0.42393318  0.08813445  0.16994936  1
  Cu+  Cu45  1  0.42261000  0.58755331  0.16894423  1
  Cu+  Cu46  1  0.92073714  0.08411029  0.17116853  1
  Cu+  Cu47  1  0.92610119  0.58668699  0.16672809  1
  Cu+  Cu48  1  0.49962573  0.25630702  0.50755599  1
  Cu+  Cu49  1  0.49821801  0.75172872  0.50564699  1
  Cu+  Cu50  1  0.99848384  0.24388112  0.50417373  1
  Cu+  Cu51  1  0.99913944  0.74730268  0.50801596  1
  Cu+  Cu52  1  0.25547378  0.00374528  0.50632587  1
  Cu+  Cu53  1  0.25361112  0.50513706  0.50536498  1
  Cu+  Cu54  1  0.75362552  0.00441593  0.50419771  1
  Cu+  Cu55  1  0.74632627  0.50423065  0.50749507  1
  Cu+  Cu56  1  0.24915524  0.24628057  0.50342046  1
  Cu+  Cu57  1  0.25659028  0.75173138  0.50582609  1
  Cu+  Cu58  1  0.75532518  0.25106006  0.50785236  1
  Cu+  Cu59  1  0.75157845  0.74899181  0.50575677  1
  Cu+  Cu60  1  0.32829919  0.41142053  0.83758908  1
  Cu+  Cu61  1  0.32947128  0.91114777  0.83593521  1
  Cu+  Cu62  1  0.82997298  0.41315449  0.83649567  1
  Cu+  Cu63  1  0.83129947  0.91233631  0.84144813  1
  Cu+  Cu64  1  0.08351240  0.16948931  0.83606808  1
  Cu+  Cu65  1  0.07741606  0.66870343  0.83436084  1
  Cu+  Cu66  1  0.58048376  0.16863921  0.83584440  1
  Cu+  Cu67  1  0.58274563  0.66858716  0.84089145  1
  Cu+  Cu68  1  0.07665541  0.40707979  0.83511099  1
  Cu+  Cu69  1  0.08113779  0.91146318  0.83606604  1
  Cu+  Cu70  1  0.57652557  0.40755571  0.83603617  1
  Cu+  Cu71  1  0.57671412  0.90665415  0.83867337  1
  Cu+  Cu72  1  0.16821324  0.08451601  0.67628187  1
  Cu+  Cu73  1  0.17083577  0.58725492  0.67307896  1
  Cu+  Cu74  1  0.67065917  0.08299429  0.67437624  1
  Cu+  Cu75  1  0.66817989  0.58529009  0.67835643  1
  Cu+  Cu76  1  0.41687618  0.33256007  0.67950906  1
  Cu+  Cu77  1  0.41590264  0.82960880  0.67893216  1
  Cu+  Cu78  1  0.91604022  0.32757758  0.67665990  1
  Cu+  Cu79  1  0.91652945  0.83116439  0.67528516  1
  Cu+  Cu80  1  0.41945947  0.08857119  0.67960933  1
  Cu+  Cu81  1  0.41861002  0.58841318  0.67442449  1
  Cu+  Cu82  1  0.91834922  0.08390274  0.67617461  1
  Cu+  Cu83  1  0.91280973  0.58470625  0.67854463  1
  Cu+  Cu84  1  -0.00181778  0.24711947  0.00636963  1
  Cu+  Cu85  1  -0.00005897  0.74723639  0.01157387  1
  Cu+  Cu86  1  0.49840306  0.24815304  0.01546273  1
  Cu+  Cu87  1  0.50002673  0.74835087  0.01436541  1
  Cu+  Cu88  1  0.24453777  0.49197689  0.00445559  1
  Cu+  Cu89  1  0.24602407  0.99619853  0.00759030  1
  Cu+  Cu90  1  0.74832752  0.49650995  0.00661096  1
  Cu+  Cu91  1  0.74612727  0.99441706  0.00836993  1
  Cu+  Cu92  1  0.24612213  0.24877628  0.00865325  1
  Cu+  Cu93  1  0.24635162  0.74743732  0.00513888  1
  Cu+  Cu94  1  0.74581334  0.24774831  0.01165499  1
  Cu+  Cu95  1  0.74565396  0.74716174  0.01512471  1
  Cu+  Cu96  1  0.33599433  0.41869030  0.34084760  1
  Cu+  Cu97  1  0.33941702  0.92035685  0.34000418  1
  Cu+  Cu98  1  0.83815096  0.42146900  0.34104413  1
  Cu+  Cu99  1  0.83636656  0.91733620  0.34267549  1
  Cu+  Cu100  1  0.08288201  0.16314939  0.34612505  1
  Cu+  Cu101  1  0.08615088  0.66693962  0.34119555  1
  Cu+  Cu102  1  0.58616371  0.16963747  0.34477464  1
  Cu+  Cu103  1  0.58466077  0.66935772  0.34419406  1
  Cu+  Cu104  1  0.08253435  0.41825801  0.33899621  1
  Cu+  Cu105  1  0.08543269  0.91682916  0.34365821  1
  Cu+  Cu106  1  0.58411028  0.42160505  0.34789249  1
  Cu+  Cu107  1  0.58494600  0.92066813  0.34115031  1
  Cu+  Cu108  1  0.00064144  0.00292934  0.11425295  1
  Cu+  Cu109  1  0.00199722  0.49720402  0.11001974  1
  Cu+  Cu110  1  0.49529506  -0.00282493  0.11114064  1
  Cu+  Cu111  1  0.49500820  0.49739195  0.11358273  1
  Cu+  Cu112  1  0.33582838  0.16623246  0.44903614  1
  Cu+  Cu113  1  0.33402176  0.66597167  0.44835042  1
  Cu+  Cu114  1  0.83265886  0.16905207  0.44817110  1
  Cu+  Cu115  1  0.83864713  0.67102539  0.45089475  1
  Cu+  Cu116  1  0.16836000  0.33775118  0.77792864  1
  Cu+  Cu117  1  0.16708761  0.83342249  0.77755226  1
  Cu+  Cu118  1  0.66778434  0.33441438  0.77926782  1
  Cu+  Cu119  1  0.67142830  0.83704802  0.78536606  1
  Te2-  Te120  1  0.00051796  -0.00354943  0.38889056  1
  Te2-  Te121  1  0.00271009  0.50208316  0.38468009  1
  Te2-  Te122  1  0.50348131  0.00371127  0.38540931  1
  Te2-  Te123  1  0.49927371  0.50429867  0.38856321  1
  Te2-  Te124  1  0.33179272  0.16616696  0.72435770  1
  Te2-  Te125  1  0.33203562  0.66390841  0.72285687  1
  Te2-  Te126  1  0.83305064  0.16234131  0.72216355  1
  Te2-  Te127  1  0.83176187  0.66850726  0.72412777  1
  Te2-  Te128  1  0.16209158  0.32942376  0.05151514  1
  Te2-  Te129  1  0.16744930  0.83182105  0.05242543  1
  Te2-  Te130  1  0.66565711  0.33387858  0.05552251  1
  Te2-  Te131  1  0.66581814  0.83289343  0.05919355  1
  Te2-  Te132  1  0.48638827  0.24126165  0.88652329  1
  Te2-  Te133  1  0.48740936  0.73921817  0.88688513  1
  Te2-  Te134  1  0.98693105  0.23897071  0.88089946  1
  Te2-  Te135  1  0.98832976  0.74595331  0.88389207  1
  Te2-  Te136  1  0.24836573  0.00266950  0.88149014  1
  Te2-  Te137  1  0.24610473  0.49862541  0.87854509  1
  Te2-  Te138  1  0.74618574  -0.00210319  0.88230050  1
  Te2-  Te139  1  0.74568400  0.50093669  0.88076419  1
  Te2-  Te140  1  0.24853439  0.24074855  0.88302274  1
  Te2-  Te141  1  0.24573839  0.74060918  0.87950135  1
  Te2-  Te142  1  0.74735757  0.24229578  0.88358935  1
  Te2-  Te143  1  0.74904423  0.74473822  0.88725703  1
  Te2-  Te144  1  0.33341890  0.41942339  0.21469536  1
  Te2-  Te145  1  0.33347407  0.91952628  0.21377619  1
  Te2-  Te146  1  0.82839866  0.42022046  0.21480092  1
  Te2-  Te147  1  0.83021025  0.91632711  0.21646456  1
  Te2-  Te148  1  0.08679238  0.17203378  0.21840020  1
  Te2-  Te149  1  0.09289033  0.67790044  0.21509901  1
  Te2-  Te150  1  0.59223719  0.18262759  0.21781195  1
  Te2-  Te151  1  0.59094797  0.67991372  0.21763531  1
  Te2-  Te152  1  0.08500251  0.41520980  0.21296956  1
  Te2-  Te153  1  0.09193891  0.91562082  0.21746191  1
  Te2-  Te154  1  0.59252430  0.41991008  0.21968109  1
  Te2-  Te155  1  0.59181448  0.92084301  0.21486718  1
  Te2-  Te156  1  0.16165514  0.07779587  0.55034682  1
  Te2-  Te157  1  0.16401744  0.58346081  0.54777205  1
  Te2-  Te158  1  0.66464061  0.08208278  0.54884574  1
  Te2-  Te159  1  0.65652732  0.58332581  0.55250604  1
  Te2-  Te160  1  0.41580917  0.34218094  0.55194173  1
  Te2-  Te161  1  0.42246316  0.84176734  0.55208446  1
  Te2-  Te162  1  0.92362997  0.33691657  0.54967683  1
  Te2-  Te163  1  0.91902713  0.83645886  0.54968533  1
  Te2-  Te164  1  0.42278978  0.08705186  0.55167484  1
  Te2-  Te165  1  0.42137628  0.58382552  0.54894435  1
  Te2-  Te166  1  0.91969319  0.07512697  0.55042238  1
  Te2-  Te167  1  0.91495372  0.57902774  0.55129455  1
  Te2-  Te168  1  0.00072605  -0.00028449  0.88253754  1
  Te2-  Te169  1  -0.00028006  0.49905651  0.88187617  1
  Te2-  Te170  1  0.49871400  -0.00153796  0.88350173  1
  Te2-  Te171  1  0.49725360  0.49725702  0.88367484  1
  Te2-  Te172  1  0.33460346  0.16829783  0.21693440  1
  Te2-  Te173  1  0.33353220  0.66841262  0.21391619  1
  Te2-  Te174  1  0.83351303  0.16745588  0.21434145  1
  Te2-  Te175  1  0.83485137  0.66566778  0.21487495  1
  Te2-  Te176  1  0.16839585  0.33515314  0.54861913  1
  Te2-  Te177  1  0.16939693  0.83382821  0.54997314  1
  Te2-  Te178  1  0.66914645  0.33435312  0.55193988  1
  Te2-  Te179  1  0.66792849  0.83521033  0.54867954  1
  Te2-  Te180  1  0.32852929  0.41723081  0.70959018  1
  Te2-  Te181  1  0.32745497  0.91472436  0.70774096  1
  Te2-  Te182  1  0.82598859  0.41091576  0.70792677  1
  Te2-  Te183  1  0.82928580  0.91350108  0.71351400  1
  Te2-  Te184  1  0.08791220  0.17387735  0.71094045  1
  Te2-  Te185  1  0.08605465  0.67226646  0.70813649  1
  Te2-  Te186  1  0.59085681  0.17288593  0.71013720  1
  Te2-  Te187  1  0.58630639  0.67314958  0.71507206  1
  Te2-  Te188  1  0.08803960  0.41656798  0.70808423  1
  Te2-  Te189  1  0.08660869  0.91355705  0.71024408  1
  Te2-  Te190  1  0.58857541  0.41449651  0.70998762  1
  Te2-  Te191  1  0.58782894  0.91353478  0.71158236  1
  Te2-  Te192  1  0.16063323  0.07947549  0.04642895  1
  Te2-  Te193  1  0.16107470  0.57825996  0.04212421  1
  Te2-  Te194  1  0.65625894  0.07527494  0.04137790  1
  Te2-  Te195  1  0.65795849  0.57489179  0.04338327  1
  Te2-  Te196  1  0.41630704  0.33866874  0.04439698  1
  Te2-  Te197  1  0.41629373  0.83850119  0.04116828  1
  Te2-  Te198  1  0.91854208  0.33744246  0.04137541  1
  Te2-  Te199  1  0.91939398  0.83931112  0.04244170  1
  Te2-  Te200  1  0.41568561  0.07591538  0.04299471  1
  Te2-  Te201  1  0.41477981  0.57471509  0.04204511  1
  Te2-  Te202  1  0.91630316  0.07813790  0.04453010  1
  Te2-  Te203  1  0.91763682  0.57529569  0.04080497  1
  Te2-  Te204  1  0.49558731  0.24917356  0.37975039  1
  Te2-  Te205  1  0.49568328  0.75083939  0.37851574  1
  Te2-  Te206  1  0.99453079  0.24828663  0.37657414  1
  Te2-  Te207  1  0.99761159  0.74737658  0.38026933  1
  Te2-  Te208  1  0.25599202  0.00643384  0.37927301  1
  Te2-  Te209  1  0.25204921  0.50436202  0.37793530  1
  Te2-  Te210  1  0.75538585  0.00722843  0.37787499  1
  Te2-  Te211  1  0.75689448  0.50973623  0.37996573  1
  Te2-  Te212  1  0.25641100  0.24845705  0.37650059  1
  Te2-  Te213  1  0.25663482  0.75024195  0.37832227  1
  Te2-  Te214  1  0.75554581  0.25287310  0.38058907  1
  Te2-  Te215  1  0.75449027  0.74785210  0.37940844  1
