# generated using pymatgen
data_Ti(CuTe)4
_symmetry_space_group_name_H-M   'P 1'
_cell_length_a   16.89060539
_cell_length_b   16.89144691
_cell_length_c   20.70981842
_cell_angle_alpha   90.01351864
_cell_angle_beta   90.01219063
_cell_angle_gamma   119.99507994
_symmetry_Int_Tables_number   1
_chemical_formula_structural   Ti(CuTe)4
_chemical_formula_sum   'Ti24 Cu96 Te96'
_cell_volume   5117.29527170
_cell_formula_units_Z   24
loop_
 _symmetry_equiv_pos_site_id
 _symmetry_equiv_pos_as_xyz
  1  'x, y, z'
loop_
 _atom_type_symbol
 _atom_type_oxidation_number
  Ti4+  4.0
  Cu+  1.0
  Te2-  -2.0
loop_
 _atom_site_type_symbol
 _atom_site_label
 _atom_site_symmetry_multiplicity
 _atom_site_fract_x
 _atom_site_fract_y
 _atom_site_fract_z
 _atom_site_occupancy
  Ti4+  Ti0  1  0.00304911  -0.00101354  0.25651441  1
  Ti4+  Ti1  1  0.00166452  0.49825546  0.25690935  1
  Ti4+  Ti2  1  0.49896589  -0.00074123  0.25652573  1
  Ti4+  Ti3  1  0.50147963  0.49883347  0.25842534  1
  Ti4+  Ti4  1  0.33044199  0.17026862  0.59284379  1
  Ti4+  Ti5  1  0.33370572  0.67088353  0.59394215  1
  Ti4+  Ti6  1  0.83151679  0.16886528  0.58986421  1
  Ti4+  Ti7  1  0.83195670  0.66959783  0.58883098  1
  Ti4+  Ti8  1  0.16724911  0.33287141  0.92885512  1
  Ti4+  Ti9  1  0.16557405  0.82917746  0.92276407  1
  Ti4+  Ti10  1  0.66367574  0.33080880  0.92369806  1
  Ti4+  Ti11  1  0.66815744  0.83182239  0.92213193  1
  Ti4+  Ti12  1  -0.00186566  -0.00035203  0.75672198  1
  Ti4+  Ti13  1  0.00050544  0.50268707  0.75493145  1
  Ti4+  Ti14  1  0.49985315  0.00249548  0.75387559  1
  Ti4+  Ti15  1  0.49871403  0.50015369  0.75648274  1
  Ti4+  Ti16  1  0.33407875  0.16322919  0.08732378  1
  Ti4+  Ti17  1  0.33337196  0.66600028  0.08888964  1
  Ti4+  Ti18  1  0.83380416  0.16613546  0.08695224  1
  Ti4+  Ti19  1  0.83340052  0.66535085  0.08842513  1
  Ti4+  Ti20  1  0.16803807  0.33286914  0.42375572  1
  Ti4+  Ti21  1  0.16630922  0.83356547  0.42354807  1
  Ti4+  Ti22  1  0.66692901  0.33449836  0.42167695  1
  Ti4+  Ti23  1  0.66684428  0.83521845  0.42157287  1
  Cu+  Cu24  1  0.24615484  0.48790256  0.14777889  1
  Cu+  Cu25  1  0.41339406  0.81972664  0.81071760  1
  Cu+  Cu26  1  0.01271053  0.25441632  0.14605601  1
  Cu+  Cu27  1  0.18403086  0.58628851  0.81013607  1
  Cu+  Cu28  1  0.24038285  0.97441947  0.13750708  1
  Cu+  Cu29  1  0.51993015  0.25761541  0.14156356  1
  Cu+  Cu30  1  0.07243348  0.93218212  0.47450495  1
  Cu+  Cu31  1  0.25114007  0.25060564  0.15351862  1
  Cu+  Cu32  1  0.90452803  0.80691339  0.80552294  1
  Cu+  Cu33  1  0.40332128  0.31078170  0.81159654  1
  Cu+  Cu34  1  0.57050305  0.93009668  0.47427924  1
  Cu+  Cu35  1  0.57089158  0.42972677  0.47549767  1
  Cu+  Cu36  1  0.16274564  0.07392216  0.16765092  1
  Cu+  Cu37  1  0.16310882  0.57850053  0.16979795  1
  Cu+  Cu38  1  0.66333071  0.07938299  0.16901350  1
  Cu+  Cu39  1  0.66618726  0.58150301  0.17203454  1
  Cu+  Cu40  1  0.42587767  0.33936771  0.16930166  1
  Cu+  Cu41  1  0.41899234  0.83661984  0.17049684  1
  Cu+  Cu42  1  0.92134434  0.33634264  0.16845616  1
  Cu+  Cu43  1  0.92094599  0.83426155  0.17043144  1
  Cu+  Cu44  1  0.41849008  0.07785792  0.16739711  1
  Cu+  Cu45  1  0.41790621  0.58070459  0.17129760  1
  Cu+  Cu46  1  0.92050334  0.08254906  0.16878111  1
  Cu+  Cu47  1  0.91952384  0.58132802  0.17110109  1
  Cu+  Cu48  1  0.49858765  0.25722010  0.50566217  1
  Cu+  Cu49  1  0.49801996  0.75618113  0.50576537  1
  Cu+  Cu50  1  0.99714688  0.24923306  0.50516714  1
  Cu+  Cu51  1  0.99770253  0.75588541  0.50346510  1
  Cu+  Cu52  1  0.24501418  0.00327964  0.50663628  1
  Cu+  Cu53  1  0.24964237  0.50316817  0.50800583  1
  Cu+  Cu54  1  0.74625520  0.00490661  0.50284544  1
  Cu+  Cu55  1  0.74669373  0.50415393  0.50266146  1
  Cu+  Cu56  1  0.25283037  0.25072261  0.50601059  1
  Cu+  Cu57  1  0.25110486  0.74851724  0.50688786  1
  Cu+  Cu58  1  0.75347506  0.25047635  0.50282364  1
  Cu+  Cu59  1  0.75329949  0.75124001  0.50226706  1
  Cu+  Cu60  1  0.32947304  0.41121466  0.84049792  1
  Cu+  Cu61  1  0.33065212  0.91265851  0.83570428  1
  Cu+  Cu62  1  0.82966612  0.41578989  0.83712709  1
  Cu+  Cu63  1  0.83092984  0.90891022  0.83645984  1
  Cu+  Cu64  1  0.08344270  0.16916254  0.84166271  1
  Cu+  Cu65  1  0.08944177  0.66962391  0.83435936  1
  Cu+  Cu66  1  0.58381091  0.17193692  0.83618739  1
  Cu+  Cu67  1  0.58725932  0.67121013  0.83626744  1
  Cu+  Cu68  1  0.08613938  0.41670945  0.84098675  1
  Cu+  Cu69  1  0.07902880  0.91012336  0.83786608  1
  Cu+  Cu70  1  0.57806648  0.40950466  0.83783221  1
  Cu+  Cu71  1  0.58507487  0.91416942  0.83642417  1
  Cu+  Cu72  1  0.16551409  0.08758459  0.67732300  1
  Cu+  Cu73  1  0.16976148  0.58724060  0.68133694  1
  Cu+  Cu74  1  0.66855219  0.08851720  0.67379457  1
  Cu+  Cu75  1  0.66650435  0.58513934  0.67416936  1
  Cu+  Cu76  1  0.41361656  0.33282487  0.68161199  1
  Cu+  Cu77  1  0.41534979  0.83457151  0.68039849  1
  Cu+  Cu78  1  0.91581427  0.33311091  0.67370576  1
  Cu+  Cu79  1  0.91490721  0.83213155  0.67753243  1
  Cu+  Cu80  1  0.41542377  0.09069824  0.67448886  1
  Cu+  Cu81  1  0.41546331  0.58695853  0.67659758  1
  Cu+  Cu82  1  0.91333122  0.08769612  0.67385041  1
  Cu+  Cu83  1  0.91530016  0.58655672  0.67145256  1
  Cu+  Cu84  1  0.00338615  0.25236388  0.01465391  1
  Cu+  Cu85  1  0.00006842  0.74779643  0.00668403  1
  Cu+  Cu86  1  0.50180439  0.24853373  0.01197606  1
  Cu+  Cu87  1  0.50439456  0.75278895  0.00770771  1
  Cu+  Cu88  1  0.24974494  0.49728704  0.01586232  1
  Cu+  Cu89  1  0.24748230  0.99204830  0.00902074  1
  Cu+  Cu90  1  0.74540156  0.49509361  0.00699674  1
  Cu+  Cu91  1  0.74895984  0.99590874  0.00413893  1
  Cu+  Cu92  1  0.24926232  0.24876607  0.01834480  1
  Cu+  Cu93  1  0.25112943  0.74994147  0.00894895  1
  Cu+  Cu94  1  0.74658641  0.24859207  0.00648182  1
  Cu+  Cu95  1  0.74966148  0.75048964  0.00802842  1
  Cu+  Cu96  1  0.33505095  0.41600361  0.34485899  1
  Cu+  Cu97  1  0.33360897  0.91540776  0.34181264  1
  Cu+  Cu98  1  0.83774277  0.41694297  0.33973156  1
  Cu+  Cu99  1  0.83637636  0.91807555  0.33970842  1
  Cu+  Cu100  1  0.08691021  0.16590505  0.34282274  1
  Cu+  Cu101  1  0.08375628  0.66180766  0.34110605  1
  Cu+  Cu102  1  0.58293003  0.16514640  0.34041572  1
  Cu+  Cu103  1  0.58328310  0.66536609  0.34225893  1
  Cu+  Cu104  1  0.08413466  0.41692082  0.34334769  1
  Cu+  Cu105  1  0.08362362  0.91781031  0.34536617  1
  Cu+  Cu106  1  0.58217730  0.41771372  0.34606978  1
  Cu+  Cu107  1  0.58137685  0.91862806  0.34522651  1
  Cu+  Cu108  1  -0.00621203  -0.00542279  0.11235506  1
  Cu+  Cu109  1  -0.00226843  0.50023599  0.11288646  1
  Cu+  Cu110  1  0.50416538  -0.00267535  0.11096924  1
  Cu+  Cu111  1  0.50535927  0.50651881  0.11509629  1
  Cu+  Cu112  1  0.33726926  0.16452077  0.45054802  1
  Cu+  Cu113  1  0.33407142  0.66431495  0.45162711  1
  Cu+  Cu114  1  0.83684400  0.16778457  0.44633614  1
  Cu+  Cu115  1  0.83590175  0.66651801  0.44555090  1
  Cu+  Cu116  1  0.16316081  0.33166173  0.78545032  1
  Cu+  Cu117  1  0.16705122  0.83708656  0.77922427  1
  Cu+  Cu118  1  0.67016349  0.33838186  0.77982659  1
  Cu+  Cu119  1  0.66805070  0.83646241  0.77827084  1
  Te2-  Te120  1  -0.00040422  0.00128176  0.38647971  1
  Te2-  Te121  1  0.00071415  0.49831394  0.38576322  1
  Te2-  Te122  1  0.49759627  0.00180595  0.38687673  1
  Te2-  Te123  1  0.49959538  0.50194512  0.38847580  1
  Te2-  Te124  1  0.32920356  0.16627333  0.72348420  1
  Te2-  Te125  1  0.33549322  0.66878432  0.72640482  1
  Te2-  Te126  1  0.83201795  0.16969201  0.71920454  1
  Te2-  Te127  1  0.83077818  0.66459284  0.71905052  1
  Te2-  Te128  1  0.16777892  0.33242537  0.06194825  1
  Te2-  Te129  1  0.16349334  0.82634498  0.05319501  1
  Te2-  Te130  1  0.66789558  0.33235695  0.05457367  1
  Te2-  Te131  1  0.66853933  0.83366283  0.05144972  1
  Te2-  Te132  1  0.48873403  0.24103989  0.88527052  1
  Te2-  Te133  1  0.49373711  0.74362363  0.88250152  1
  Te2-  Te134  1  0.99744444  0.25028393  0.88721573  1
  Te2-  Te135  1  0.99284529  0.73997381  0.88098813  1
  Te2-  Te136  1  0.24905418  -0.00116506  0.88173932  1
  Te2-  Te137  1  0.25650426  0.50533812  0.88773514  1
  Te2-  Te138  1  0.75371367  0.00206925  0.87831356  1
  Te2-  Te139  1  0.74709844  0.50150361  0.88098453  1
  Te2-  Te140  1  0.25049088  0.24301175  0.88880390  1
  Te2-  Te141  1  0.25658256  0.74345879  0.88313934  1
  Te2-  Te142  1  0.75101969  0.24706144  0.88073381  1
  Te2-  Te143  1  0.75252738  0.74095585  0.88251474  1
  Te2-  Te144  1  0.32562231  0.41000706  0.21865587  1
  Te2-  Te145  1  0.32501739  0.90953300  0.21586588  1
  Te2-  Te146  1  0.83130471  0.41251354  0.21388652  1
  Te2-  Te147  1  0.83320860  0.91583367  0.21339884  1
  Te2-  Te148  1  0.09126141  0.17450971  0.21664072  1
  Te2-  Te149  1  0.08776688  0.66916012  0.21507913  1
  Te2-  Te150  1  0.58842564  0.17222039  0.21441338  1
  Te2-  Te151  1  0.58462464  0.66880818  0.21583137  1
  Te2-  Te152  1  0.09046099  0.40915901  0.21760357  1
  Te2-  Te153  1  0.08752729  0.90955513  0.21783682  1
  Te2-  Te154  1  0.59061510  0.41441620  0.21868362  1
  Te2-  Te155  1  0.58516048  0.91373448  0.21775321  1
  Te2-  Te156  1  0.15643724  0.08455950  0.55155399  1
  Te2-  Te157  1  0.16195074  0.58265712  0.55428225  1
  Te2-  Te158  1  0.65660326  0.08428132  0.54842602  1
  Te2-  Te159  1  0.65788140  0.58481367  0.54855988  1
  Te2-  Te160  1  0.41781231  0.34457997  0.55407509  1
  Te2-  Te161  1  0.41751311  0.84393397  0.55300137  1
  Te2-  Te162  1  0.92017491  0.34076680  0.54811834  1
  Te2-  Te163  1  0.91813110  0.84430954  0.55065005  1
  Te2-  Te164  1  0.41594475  0.08678809  0.54802592  1
  Te2-  Te165  1  0.41937805  0.58668538  0.55030035  1
  Te2-  Te166  1  0.91463390  0.08067719  0.54786484  1
  Te2-  Te167  1  0.91678581  0.58521069  0.54530643  1
  Te2-  Te168  1  -0.00091010  -0.00123464  0.88346179  1
  Te2-  Te169  1  -0.00136351  0.50067186  0.88196328  1
  Te2-  Te170  1  0.50083510  0.00085535  0.88068714  1
  Te2-  Te171  1  0.50063159  0.50141492  0.88317692  1
  Te2-  Te172  1  0.33556939  0.16574952  0.21584233  1
  Te2-  Te173  1  0.33379165  0.66704245  0.21592032  1
  Te2-  Te174  1  0.83317742  0.16557150  0.21405070  1
  Te2-  Te175  1  0.83535677  0.66591813  0.21467172  1
  Te2-  Te176  1  0.16562276  0.33379599  0.55002408  1
  Te2-  Te177  1  0.16563748  0.83368403  0.55033145  1
  Te2-  Te178  1  0.66850549  0.33555562  0.54849508  1
  Te2-  Te179  1  0.66827446  0.83598958  0.54839910  1
  Te2-  Te180  1  0.32491651  0.41685168  0.71350049  1
  Te2-  Te181  1  0.32695147  0.91944786  0.70894260  1
  Te2-  Te182  1  0.82938650  0.41706481  0.70992477  1
  Te2-  Te183  1  0.82748885  0.91712002  0.70941472  1
  Te2-  Te184  1  0.08184930  0.17268930  0.71490934  1
  Te2-  Te185  1  0.08439208  0.67533359  0.70846830  1
  Te2-  Te186  1  0.58520753  0.17518878  0.71046351  1
  Te2-  Te187  1  0.58537578  0.67287772  0.71090802  1
  Te2-  Te188  1  0.08548357  0.41409289  0.71282218  1
  Te2-  Te189  1  0.08666305  0.91660803  0.71043577  1
  Te2-  Te190  1  0.58666599  0.41576672  0.71057918  1
  Te2-  Te191  1  0.58839919  0.91816033  0.70905981  1
  Te2-  Te192  1  0.15857934  0.07514808  0.04154634  1
  Te2-  Te193  1  0.15969762  0.58002780  0.04327303  1
  Te2-  Te194  1  0.66228276  0.07860466  0.04227836  1
  Te2-  Te195  1  0.66180152  0.58044030  0.04496936  1
  Te2-  Te196  1  0.42187782  0.34022717  0.04328299  1
  Te2-  Te197  1  0.42057434  0.83799559  0.04418442  1
  Te2-  Te198  1  0.91715629  0.33921802  0.04186834  1
  Te2-  Te199  1  0.91966059  0.83650824  0.04359841  1
  Te2-  Te200  1  0.41970942  0.07537631  0.04066375  1
  Te2-  Te201  1  0.42289091  0.58250118  0.04419721  1
  Te2-  Te202  1  0.91879376  0.07850798  0.04160725  1
  Te2-  Te203  1  0.91635380  0.57793435  0.04361557  1
  Te2-  Te204  1  0.49389186  0.24571199  0.37761018  1
  Te2-  Te205  1  0.49354736  0.74622364  0.37815870  1
  Te2-  Te206  1  0.99694200  0.24669943  0.37816169  1
  Te2-  Te207  1  0.99561440  0.74502823  0.37617580  1
  Te2-  Te208  1  0.25482711  0.00612899  0.37877973  1
  Te2-  Te209  1  0.25354393  0.50506970  0.38077241  1
  Te2-  Te210  1  0.75478961  0.00708084  0.37539742  1
  Te2-  Te211  1  0.75566982  0.50585867  0.37547825  1
  Te2-  Te212  1  0.25545244  0.24672112  0.38042723  1
  Te2-  Te213  1  0.25235545  0.74652751  0.38083274  1
  Te2-  Te214  1  0.75272549  0.24778817  0.37705556  1
  Te2-  Te215  1  0.75352260  0.74889156  0.37685303  1
