# generated using pymatgen
data_Ti(CuTe)4
_symmetry_space_group_name_H-M   'P 1'
_cell_length_a   16.87686961
_cell_length_b   16.87735088
_cell_length_c   20.69095256
_cell_angle_alpha   90.01070465
_cell_angle_beta   90.01015124
_cell_angle_gamma   120.00253372
_symmetry_Int_Tables_number   1
_chemical_formula_structural   Ti(CuTe)4
_chemical_formula_sum   'Ti24 Cu96 Te96'
_cell_volume   5103.82968593
_cell_formula_units_Z   24
loop_
 _symmetry_equiv_pos_site_id
 _symmetry_equiv_pos_as_xyz
  1  'x, y, z'
loop_
 _atom_type_symbol
 _atom_type_oxidation_number
  Ti4+  4.0
  Cu+  1.0
  Te2-  -2.0
loop_
 _atom_site_type_symbol
 _atom_site_label
 _atom_site_symmetry_multiplicity
 _atom_site_fract_x
 _atom_site_fract_y
 _atom_site_fract_z
 _atom_site_occupancy
  Ti4+  Ti0  1  0.00149725  -0.00311613  0.26065936  1
  Ti4+  Ti1  1  -0.00184337  0.49680649  0.25736502  1
  Ti4+  Ti2  1  0.49823027  -0.00239446  0.26064296  1
  Ti4+  Ti3  1  0.49956822  0.49795937  0.25699514  1
  Ti4+  Ti4  1  0.33327786  0.16696251  0.59154951  1
  Ti4+  Ti5  1  0.33211395  0.66661400  0.59255216  1
  Ti4+  Ti6  1  0.82926282  0.16432328  0.58860085  1
  Ti4+  Ti7  1  0.83539817  0.67078957  0.59308933  1
  Ti4+  Ti8  1  0.16512827  0.33124198  0.92075204  1
  Ti4+  Ti9  1  0.16965652  0.83206538  0.92629163  1
  Ti4+  Ti10  1  0.66761721  0.33886103  0.92286316  1
  Ti4+  Ti11  1  0.66854585  0.83744996  0.92416795  1
  Ti4+  Ti12  1  -0.00113588  0.00206274  0.75661046  1
  Ti4+  Ti13  1  0.00079555  0.50192455  0.75251204  1
  Ti4+  Ti14  1  0.49989312  -0.00051237  0.75644859  1
  Ti4+  Ti15  1  0.50061184  0.49903695  0.75290608  1
  Ti4+  Ti16  1  0.33239504  0.16478942  0.08953319  1
  Ti4+  Ti17  1  0.33524535  0.66767479  0.08932377  1
  Ti4+  Ti18  1  0.83433245  0.16871662  0.09066196  1
  Ti4+  Ti19  1  0.83270741  0.66558291  0.08915417  1
  Ti4+  Ti20  1  0.16659571  0.33230808  0.42192281  1
  Ti4+  Ti21  1  0.16652569  0.83277387  0.42321400  1
  Ti4+  Ti22  1  0.66626918  0.33265014  0.42349769  1
  Ti4+  Ti23  1  0.66699211  0.83347802  0.42100629  1
  Cu+  Cu24  1  0.68309057  0.59638643  0.80972050  1
  Cu+  Cu25  1  0.41132281  0.81506332  0.80968394  1
  Cu+  Cu26  1  0.91626069  0.59900792  0.80926819  1
  Cu+  Cu27  1  0.07859058  0.92832353  0.47810006  1
  Cu+  Cu28  1  0.57071960  0.92013592  0.47628021  1
  Cu+  Cu29  1  0.23750013  0.97229992  0.14270961  1
  Cu+  Cu30  1  0.90153282  0.09842121  0.80406733  1
  Cu+  Cu31  1  0.56619888  0.14659214  0.47332377  1
  Cu+  Cu32  1  0.73739737  0.47418434  0.14153278  1
  Cu+  Cu33  1  0.84778386  0.92734988  0.47612284  1
  Cu+  Cu34  1  0.18266486  0.58847901  0.80930227  1
  Cu+  Cu35  1  0.40652429  0.31032823  0.80601359  1
  Cu+  Cu36  1  0.16511083  0.07419722  0.17215412  1
  Cu+  Cu37  1  0.16460797  0.58068822  0.17193085  1
  Cu+  Cu38  1  0.66481489  0.08338718  0.17539132  1
  Cu+  Cu39  1  0.66297262  0.57596602  0.17029182  1
  Cu+  Cu40  1  0.41822103  0.33777613  0.17036629  1
  Cu+  Cu41  1  0.42109830  0.83623576  0.17344162  1
  Cu+  Cu42  1  0.91893832  0.33744159  0.17097855  1
  Cu+  Cu43  1  0.91983064  0.83600492  0.17347687  1
  Cu+  Cu44  1  0.41249882  0.07689628  0.17331276  1
  Cu+  Cu45  1  0.41783323  0.58081217  0.17104449  1
  Cu+  Cu46  1  0.91630104  0.07992579  0.17515076  1
  Cu+  Cu47  1  0.91335656  0.57542055  0.17070757  1
  Cu+  Cu48  1  0.49787380  0.24755112  0.50677891  1
  Cu+  Cu49  1  0.49413830  0.74983477  0.50379925  1
  Cu+  Cu50  1  0.99694341  0.24683035  0.50249752  1
  Cu+  Cu51  1  0.99854538  0.75219318  0.50516431  1
  Cu+  Cu52  1  0.25076043  0.00482622  0.50386825  1
  Cu+  Cu53  1  0.24738503  0.50139221  0.50591769  1
  Cu+  Cu54  1  0.74965209  0.00446258  0.50084913  1
  Cu+  Cu55  1  0.75241924  0.50560311  0.50794253  1
  Cu+  Cu56  1  0.25407899  0.25157082  0.50457337  1
  Cu+  Cu57  1  0.25105205  0.74740263  0.50573513  1
  Cu+  Cu58  1  0.74368511  0.24376815  0.50235094  1
  Cu+  Cu59  1  0.75570186  0.75218081  0.50381351  1
  Cu+  Cu60  1  0.32972537  0.40841348  0.83266765  1
  Cu+  Cu61  1  0.33305142  0.91267960  0.83913480  1
  Cu+  Cu62  1  0.83112060  0.42211963  0.83365062  1
  Cu+  Cu63  1  0.83179693  0.92425663  0.83721377  1
  Cu+  Cu64  1  0.07824789  0.16959287  0.83473707  1
  Cu+  Cu65  1  0.08960200  0.67238202  0.83587434  1
  Cu+  Cu66  1  0.58604323  0.17244355  0.83769976  1
  Cu+  Cu67  1  0.58820811  0.67245702  0.83532119  1
  Cu+  Cu68  1  0.08677243  0.41470858  0.83235258  1
  Cu+  Cu69  1  0.08894525  0.91969980  0.84061061  1
  Cu+  Cu70  1  0.58576039  0.41682887  0.83363059  1
  Cu+  Cu71  1  0.58414622  0.91442919  0.83714204  1
  Cu+  Cu72  1  0.16785978  0.08456349  0.67538377  1
  Cu+  Cu73  1  0.16937869  0.58539374  0.67956708  1
  Cu+  Cu74  1  0.66488594  0.08240908  0.67523844  1
  Cu+  Cu75  1  0.67116239  0.58625747  0.67922743  1
  Cu+  Cu76  1  0.41604614  0.32893706  0.67753050  1
  Cu+  Cu77  1  0.41435422  0.83032021  0.68109829  1
  Cu+  Cu78  1  0.91366435  0.33132363  0.66931145  1
  Cu+  Cu79  1  0.91853786  0.83552894  0.67801155  1
  Cu+  Cu80  1  0.41569139  0.08416858  0.67631875  1
  Cu+  Cu81  1  0.41567348  0.58444373  0.67223199  1
  Cu+  Cu82  1  0.91197364  0.08430220  0.67765283  1
  Cu+  Cu83  1  0.91577673  0.58691894  0.67949409  1
  Cu+  Cu84  1  0.00080764  0.25054844  0.00752156  1
  Cu+  Cu85  1  0.00198638  0.75149877  0.01068508  1
  Cu+  Cu86  1  0.49985041  0.25274519  0.00856255  1
  Cu+  Cu87  1  0.50413687  0.75356682  0.00912625  1
  Cu+  Cu88  1  0.24999497  0.49737361  0.00481367  1
  Cu+  Cu89  1  0.25038213  0.99521366  0.01410777  1
  Cu+  Cu90  1  0.74852660  0.50088180  0.01238394  1
  Cu+  Cu91  1  0.74965267  1.00214006  0.00940696  1
  Cu+  Cu92  1  0.24733224  0.24799713  0.00548445  1
  Cu+  Cu93  1  0.25313085  0.75100396  0.01214577  1
  Cu+  Cu94  1  0.75041577  0.25446523  0.00759877  1
  Cu+  Cu95  1  0.75186049  0.75554019  0.00835972  1
  Cu+  Cu96  1  0.33673525  0.41912554  0.34051953  1
  Cu+  Cu97  1  0.33192330  0.91332788  0.34371838  1
  Cu+  Cu98  1  0.83534449  0.41849046  0.34213929  1
  Cu+  Cu99  1  0.83761459  0.91518497  0.34760855  1
  Cu+  Cu100  1  0.08525904  0.16354513  0.34088069  1
  Cu+  Cu101  1  0.08081258  0.66009952  0.34022144  1
  Cu+  Cu102  1  0.57932719  0.16115777  0.34602964  1
  Cu+  Cu103  1  0.58116047  0.66136347  0.33921792  1
  Cu+  Cu104  1  0.08130893  0.41623207  0.34020555  1
  Cu+  Cu105  1  0.08255676  0.91520718  0.34879997  1
  Cu+  Cu106  1  0.58388769  0.41915127  0.34157998  1
  Cu+  Cu107  1  0.58249556  0.91750850  0.34722249  1
  Cu+  Cu108  1  0.00100371  0.00458616  0.11800261  1
  Cu+  Cu109  1  0.00452725  0.50222485  0.11362210  1
  Cu+  Cu110  1  0.50411150  0.00376253  0.11837507  1
  Cu+  Cu111  1  0.49909178  0.50227670  0.11296638  1
  Cu+  Cu112  1  0.33467563  0.17019832  0.44792286  1
  Cu+  Cu113  1  0.33028894  0.66151899  0.44878590  1
  Cu+  Cu114  1  0.83751915  0.17423555  0.44487198  1
  Cu+  Cu115  1  0.83350462  0.66339978  0.44943231  1
  Cu+  Cu116  1  0.16718077  0.33340661  0.77428090  1
  Cu+  Cu117  1  0.16808590  0.83942015  0.78288526  1
  Cu+  Cu118  1  0.66823422  0.33150810  0.77790040  1
  Cu+  Cu119  1  0.66707191  0.83348147  0.77899975  1
  Te2-  Te120  1  0.00303961  0.00192170  0.39253197  1
  Te2-  Te121  1  -0.00092719  0.49718720  0.38666036  1
  Te2-  Te122  1  0.49486825  -0.00446549  0.39252513  1
  Te2-  Te123  1  0.50011790  0.49904656  0.38646595  1
  Te2-  Te124  1  0.33141142  0.16339295  0.72193237  1
  Te2-  Te125  1  0.33468255  0.66434402  0.72455496  1
  Te2-  Te126  1  0.82947718  0.16936462  0.71893175  1
  Te2-  Te127  1  0.83608338  0.67205892  0.72540441  1
  Te2-  Te128  1  0.16678228  0.33255759  0.04897669  1
  Te2-  Te129  1  0.16613033  0.82857447  0.05655902  1
  Te2-  Te130  1  0.66481027  0.33338330  0.05289893  1
  Te2-  Te131  1  0.66887042  0.83707600  0.05258151  1
  Te2-  Te132  1  0.49424215  0.24790979  0.88242923  1
  Te2-  Te133  1  0.49497024  0.74469606  0.88314414  1
  Te2-  Te134  1  0.99064504  0.24984174  0.88126761  1
  Te2-  Te135  1  0.99740593  0.75104003  0.88425943  1
  Te2-  Te136  1  0.25629884  0.00318544  0.88614862  1
  Te2-  Te137  1  0.25719815  0.50409481  0.87873273  1
  Te2-  Te138  1  0.75058590  0.01113999  0.88322302  1
  Te2-  Te139  1  0.75585313  0.51441171  0.88369746  1
  Te2-  Te140  1  0.24737279  0.24017300  0.87931631  1
  Te2-  Te141  1  0.25698584  0.74360904  0.88554616  1
  Te2-  Te142  1  0.75431401  0.25492628  0.88109351  1
  Te2-  Te143  1  0.75878368  0.75507444  0.88192670  1
  Te2-  Te144  1  0.32765368  0.41346342  0.21488643  1
  Te2-  Te145  1  0.32453397  0.90680479  0.21806810  1
  Te2-  Te146  1  0.82287521  0.40711545  0.21657120  1
  Te2-  Te147  1  0.83023006  0.91218626  0.22018401  1
  Te2-  Te148  1  0.08711817  0.16585684  0.21490120  1
  Te2-  Te149  1  0.08244931  0.66750467  0.21418770  1
  Te2-  Te150  1  0.58066746  0.16791090  0.21877246  1
  Te2-  Te151  1  0.58659252  0.66870989  0.21346237  1
  Te2-  Te152  1  0.08570554  0.41278656  0.21464365  1
  Te2-  Te153  1  0.08529003  0.90621102  0.22084439  1
  Te2-  Te154  1  0.58400468  0.40725282  0.21600538  1
  Te2-  Te155  1  0.58702975  0.91543413  0.21981869  1
  Te2-  Te156  1  0.16029246  0.08447284  0.54973717  1
  Te2-  Te157  1  0.16076411  0.58164370  0.55212884  1
  Te2-  Te158  1  0.65305414  0.07590489  0.54934402  1
  Te2-  Te159  1  0.66510105  0.58632237  0.55163171  1
  Te2-  Te160  1  0.42070904  0.33805003  0.55014178  1
  Te2-  Te161  1  0.41668240  0.84096188  0.55319230  1
  Te2-  Te162  1  0.91397347  0.33369155  0.54348942  1
  Te2-  Te163  1  0.92358583  0.84688333  0.55189445  1
  Te2-  Te164  1  0.41626224  0.07652037  0.55079442  1
  Te2-  Te165  1  0.41727811  0.58228987  0.54689404  1
  Te2-  Te166  1  0.91898966  0.08085343  0.55024273  1
  Te2-  Te167  1  0.92050402  0.58560589  0.55193633  1
  Te2-  Te168  1  0.00122609  0.00196765  0.88341313  1
  Te2-  Te169  1  0.00136574  0.49979438  0.88037041  1
  Te2-  Te170  1  0.50327774  0.00319200  0.88333158  1
  Te2-  Te171  1  0.49981143  0.50119953  0.88055610  1
  Te2-  Te172  1  0.33399707  0.16809368  0.21636809  1
  Te2-  Te173  1  0.33389712  0.66523484  0.21536989  1
  Te2-  Te174  1  0.83477222  0.16813968  0.21696018  1
  Te2-  Te175  1  0.83247962  0.66426054  0.21576469  1
  Te2-  Te176  1  0.16515248  0.33236943  0.54849050  1
  Te2-  Te177  1  0.16818242  0.83496905  0.55028259  1
  Te2-  Te178  1  0.66808243  0.33584238  0.55063629  1
  Te2-  Te179  1  0.66538332  0.83337276  0.54888011  1
  Te2-  Te180  1  0.32788018  0.41422109  0.70605298  1
  Te2-  Te181  1  0.32624792  0.91454475  0.71226722  1
  Te2-  Te182  1  0.82733908  0.41380149  0.70685410  1
  Te2-  Te183  1  0.82569150  0.91299522  0.71048008  1
  Te2-  Te184  1  0.08530166  0.17305321  0.70809032  1
  Te2-  Te185  1  0.08860217  0.67754491  0.70886427  1
  Te2-  Te186  1  0.58509685  0.17179211  0.71122751  1
  Te2-  Te187  1  0.58509995  0.67315848  0.70827164  1
  Te2-  Te188  1  0.08310942  0.41139799  0.70571345  1
  Te2-  Te189  1  0.08735142  0.91657782  0.71379395  1
  Te2-  Te190  1  0.58883892  0.41313910  0.70679849  1
  Te2-  Te191  1  0.58720816  0.91340949  0.71027891  1
  Te2-  Te192  1  0.16011451  0.07849212  0.04418549  1
  Te2-  Te193  1  0.16340295  0.57965987  0.04430253  1
  Te2-  Te194  1  0.66252299  0.08480339  0.04702997  1
  Te2-  Te195  1  0.66041160  0.58476036  0.04291090  1
  Te2-  Te196  1  0.41609632  0.33767422  0.04451440  1
  Te2-  Te197  1  0.42303710  0.84172372  0.04716447  1
  Te2-  Te198  1  0.92008371  0.34004514  0.04459445  1
  Te2-  Te199  1  0.92083609  0.83980416  0.04744820  1
  Te2-  Te200  1  0.42305420  0.08252016  0.04537971  1
  Te2-  Te201  1  0.41983549  0.58177240  0.04337952  1
  Te2-  Te202  1  0.91909355  0.08160258  0.04705801  1
  Te2-  Te203  1  0.92091233  0.58079019  0.04333730  1
  Te2-  Te204  1  0.49391649  0.24844974  0.37861172  1
  Te2-  Te205  1  0.49373306  0.74410338  0.37642426  1
  Te2-  Te206  1  0.99576093  0.24534191  0.37545791  1
  Te2-  Te207  1  0.99360268  0.74244786  0.37845312  1
  Te2-  Te208  1  0.25557405  0.00676475  0.37740967  1
  Te2-  Te209  1  0.25114256  0.50363494  0.37819841  1
  Te2-  Te210  1  0.75597734  0.00791160  0.37437934  1
  Te2-  Te211  1  0.75263989  0.50470714  0.38018279  1
  Te2-  Te212  1  0.25486273  0.24863786  0.37767951  1
  Te2-  Te213  1  0.25016821  0.74364009  0.37953321  1
  Te2-  Te214  1  0.75256689  0.24717889  0.37564270  1
  Te2-  Te215  1  0.75063410  0.74289304  0.37756905  1
