# generated using pymatgen
data_Ti(CuTe)4
_symmetry_space_group_name_H-M   'P 1'
_cell_length_a   16.88651315
_cell_length_b   16.88546813
_cell_length_c   20.70763107
_cell_angle_alpha   89.98162302
_cell_angle_beta   90.03166066
_cell_angle_gamma   120.00631985
_symmetry_Int_Tables_number   1
_chemical_formula_structural   Ti(CuTe)4
_chemical_formula_sum   'Ti24 Cu96 Te96'
_cell_volume   5113.12501320
_cell_formula_units_Z   24
loop_
 _symmetry_equiv_pos_site_id
 _symmetry_equiv_pos_as_xyz
  1  'x, y, z'
loop_
 _atom_type_symbol
 _atom_type_oxidation_number
  Ti4+  4.0
  Cu+  1.0
  Te2-  -2.0
loop_
 _atom_site_type_symbol
 _atom_site_label
 _atom_site_symmetry_multiplicity
 _atom_site_fract_x
 _atom_site_fract_y
 _atom_site_fract_z
 _atom_site_occupancy
  Ti4+  Ti0  1  -0.00188082  -0.00164442  0.25599775  1
  Ti4+  Ti1  1  0.00314479  0.50102775  0.25785617  1
  Ti4+  Ti2  1  0.50005558  0.00030933  0.25426712  1
  Ti4+  Ti3  1  0.50020695  0.49821779  0.25872824  1
  Ti4+  Ti4  1  0.33266725  0.16673899  0.59347935  1
  Ti4+  Ti5  1  0.33625358  0.66870749  0.58904374  1
  Ti4+  Ti6  1  0.83290859  0.17002443  0.58907277  1
  Ti4+  Ti7  1  0.83190148  0.66462228  0.59088604  1
  Ti4+  Ti8  1  0.16580673  0.33465951  0.92765057  1
  Ti4+  Ti9  1  0.16449386  0.83334381  0.92323479  1
  Ti4+  Ti10  1  0.66371497  0.33165014  0.92816975  1
  Ti4+  Ti11  1  0.66724667  0.83123187  0.92332216  1
  Ti4+  Ti12  1  -0.00248781  -0.00241041  0.75428862  1
  Ti4+  Ti13  1  0.00176589  0.50014828  0.75826351  1
  Ti4+  Ti14  1  0.50002536  0.00238585  0.75683100  1
  Ti4+  Ti15  1  0.49999065  0.50067235  0.75693072  1
  Ti4+  Ti16  1  0.33400724  0.16731800  0.08743968  1
  Ti4+  Ti17  1  0.33263227  0.66762388  0.08860192  1
  Ti4+  Ti18  1  0.83292498  0.16396063  0.08618508  1
  Ti4+  Ti19  1  0.83314864  0.66576255  0.08961938  1
  Ti4+  Ti20  1  0.16694624  0.33339203  0.42139114  1
  Ti4+  Ti21  1  0.16758631  0.83429007  0.42214135  1
  Ti4+  Ti22  1  0.66861058  0.33269542  0.42210231  1
  Ti4+  Ti23  1  0.66515069  0.83236552  0.42119954  1
  Cu+  Cu24  1  0.73884881  0.97642682  0.13833082  1
  Cu+  Cu25  1  0.24656612  0.48490260  0.14380661  1
  Cu+  Cu26  1  0.07890240  0.42956772  0.47661130  1
  Cu+  Cu27  1  0.57211893  0.92991008  0.47110304  1
  Cu+  Cu28  1  0.85180747  0.42951847  0.47746705  1
  Cu+  Cu29  1  0.01200726  0.25177615  0.14506589  1
  Cu+  Cu30  1  0.57247312  0.64333599  0.47392866  1
  Cu+  Cu31  1  0.51655654  0.26102285  0.14446862  1
  Cu+  Cu32  1  0.90304940  0.80707131  0.80572962  1
  Cu+  Cu33  1  0.40450875  0.09657731  0.81006810  1
  Cu+  Cu34  1  0.74871448  0.25886145  0.14464859  1
  Cu+  Cu35  1  0.23762162  0.76241538  0.13788430  1
  Cu+  Cu36  1  0.16429925  0.08158415  0.16902853  1
  Cu+  Cu37  1  0.16642490  0.58379217  0.16948758  1
  Cu+  Cu38  1  0.66315933  0.07905282  0.16611666  1
  Cu+  Cu39  1  0.66480134  0.58251937  0.17266895  1
  Cu+  Cu40  1  0.42128076  0.33782282  0.17045734  1
  Cu+  Cu41  1  0.41408629  0.83716172  0.16792630  1
  Cu+  Cu42  1  0.92318381  0.33979402  0.16906604  1
  Cu+  Cu43  1  0.91813410  0.83523601  0.17054978  1
  Cu+  Cu44  1  0.42158350  0.08466203  0.16663211  1
  Cu+  Cu45  1  0.41755856  0.57989800  0.17273947  1
  Cu+  Cu46  1  0.91687938  0.07591554  0.16739108  1
  Cu+  Cu47  1  0.91793367  0.58122672  0.17092052  1
  Cu+  Cu48  1  0.49676392  0.24739991  0.50707495  1
  Cu+  Cu49  1  0.49876924  0.74944562  0.50129823  1
  Cu+  Cu50  1  0.99787117  0.25394876  0.50193420  1
  Cu+  Cu51  1  0.99833229  0.75011473  0.50469620  1
  Cu+  Cu52  1  0.25292163  0.00356005  0.50680782  1
  Cu+  Cu53  1  0.25194282  0.50486349  0.50246494  1
  Cu+  Cu54  1  0.74578465  0.00370199  0.50249907  1
  Cu+  Cu55  1  0.75432626  0.50444164  0.50398541  1
  Cu+  Cu56  1  0.25201066  0.24809122  0.50599009  1
  Cu+  Cu57  1  0.25354928  0.75020420  0.50269033  1
  Cu+  Cu58  1  0.75713211  0.25304833  0.50182596  1
  Cu+  Cu59  1  0.74614011  0.74366876  0.50452093  1
  Cu+  Cu60  1  0.33047186  0.41871138  0.84054893  1
  Cu+  Cu61  1  0.33100654  0.92013507  0.83830886  1
  Cu+  Cu62  1  0.83195866  0.41450489  0.84300763  1
  Cu+  Cu63  1  0.82977918  0.90919874  0.83591776  1
  Cu+  Cu64  1  0.08116212  0.16907730  0.83970961  1
  Cu+  Cu65  1  0.08622132  0.66949232  0.83843104  1
  Cu+  Cu66  1  0.57925520  0.16988362  0.84106159  1
  Cu+  Cu67  1  0.58560489  0.67026551  0.83722117  1
  Cu+  Cu68  1  0.08616476  0.41587682  0.84205615  1
  Cu+  Cu69  1  0.07813641  0.90857333  0.83459603  1
  Cu+  Cu70  1  0.58188688  0.41401196  0.84027968  1
  Cu+  Cu71  1  0.58661102  0.91657872  0.83911812  1
  Cu+  Cu72  1  0.16718522  0.08405144  0.67599583  1
  Cu+  Cu73  1  0.17112857  0.58345754  0.67626141  1
  Cu+  Cu74  1  0.66872450  0.08757269  0.67416963  1
  Cu+  Cu75  1  0.66701845  0.58236706  0.67612898  1
  Cu+  Cu76  1  0.41440162  0.33118207  0.67695938  1
  Cu+  Cu77  1  0.41877522  0.83334420  0.67364461  1
  Cu+  Cu78  1  0.91867426  0.33377117  0.67725753  1
  Cu+  Cu79  1  0.91169019  0.82814166  0.67699414  1
  Cu+  Cu80  1  0.41467824  0.08709591  0.68117183  1
  Cu+  Cu81  1  0.41744008  0.58554437  0.67420100  1
  Cu+  Cu82  1  0.91407697  0.08588281  0.67194038  1
  Cu+  Cu83  1  0.91717688  0.58313215  0.67707109  1
  Cu+  Cu84  1  0.00280809  0.25191038  0.01413968  1
  Cu+  Cu85  1  -0.00010655  0.74873923  0.00822642  1
  Cu+  Cu86  1  0.50156978  0.25048976  0.01519591  1
  Cu+  Cu87  1  0.50291327  0.75104062  0.00651990  1
  Cu+  Cu88  1  0.24767528  0.49755679  0.01484903  1
  Cu+  Cu89  1  0.24678539  0.99791547  0.00627001  1
  Cu+  Cu90  1  0.74698415  0.49606116  0.01086722  1
  Cu+  Cu91  1  0.74975431  0.99303346  0.00927184  1
  Cu+  Cu92  1  0.24878108  0.25321943  0.00883266  1
  Cu+  Cu93  1  0.24849226  0.75451596  0.01013310  1
  Cu+  Cu94  1  0.74488417  0.24809846  0.01378692  1
  Cu+  Cu95  1  0.75000155  0.74965739  0.00859146  1
  Cu+  Cu96  1  0.33590419  0.41504461  0.34270262  1
  Cu+  Cu97  1  0.33370587  0.91849414  0.34013341  1
  Cu+  Cu98  1  0.83733032  0.41610252  0.34786803  1
  Cu+  Cu99  1  0.83497287  0.91672234  0.33968049  1
  Cu+  Cu100  1  0.08195597  0.16230103  0.34097704  1
  Cu+  Cu101  1  0.08466083  0.66761433  0.34198611  1
  Cu+  Cu102  1  0.58378954  0.16596210  0.34118045  1
  Cu+  Cu103  1  0.58107463  0.66077417  0.34527771  1
  Cu+  Cu104  1  0.08387368  0.41769033  0.34647170  1
  Cu+  Cu105  1  0.08276209  0.91913998  0.34118119  1
  Cu+  Cu106  1  0.58319049  0.41559005  0.34407221  1
  Cu+  Cu107  1  0.58204891  0.91827909  0.34200161  1
  Cu+  Cu108  1  0.00390798  -0.00341914  0.11161102  1
  Cu+  Cu109  1  0.00143301  0.50378674  0.11306688  1
  Cu+  Cu110  1  0.49850472  -0.00146122  0.10869358  1
  Cu+  Cu111  1  0.50209155  0.50376528  0.11550733  1
  Cu+  Cu112  1  0.33419744  0.16686283  0.45107353  1
  Cu+  Cu113  1  0.33378205  0.66852752  0.44463323  1
  Cu+  Cu114  1  0.83532964  0.16371216  0.44506789  1
  Cu+  Cu115  1  0.83636918  0.67093054  0.44781381  1
  Cu+  Cu116  1  0.16746209  0.33104361  0.78495948  1
  Cu+  Cu117  1  0.16844814  0.83243522  0.77969119  1
  Cu+  Cu118  1  0.67070794  0.33729861  0.78655201  1
  Cu+  Cu119  1  0.66507617  0.83525563  0.77970678  1
  Te2-  Te120  1  -0.00187339  -0.00146739  0.38505619  1
  Te2-  Te121  1  0.00416553  0.50419225  0.38943140  1
  Te2-  Te122  1  0.49836409  0.00128194  0.38428708  1
  Te2-  Te123  1  0.49891159  0.49516636  0.38917858  1
  Te2-  Te124  1  0.32974223  0.16819416  0.72451933  1
  Te2-  Te125  1  0.33655792  0.66905071  0.71767704  1
  Te2-  Te126  1  0.83314046  0.16812095  0.71761450  1
  Te2-  Te127  1  0.83119294  0.66199075  0.72092467  1
  Te2-  Te128  1  0.16717344  0.33259390  0.06064329  1
  Te2-  Te129  1  0.16350459  0.83539702  0.05396175  1
  Te2-  Te130  1  0.66700622  0.33416932  0.06055735  1
  Te2-  Te131  1  0.66502385  0.82806892  0.05444752  1
  Te2-  Te132  1  0.48951750  0.24818196  0.88804342  1
  Te2-  Te133  1  0.49580556  0.74785626  0.88118492  1
  Te2-  Te134  1  0.99422353  0.24854914  0.88692479  1
  Te2-  Te135  1  0.99076217  0.74127053  0.88254291  1
  Te2-  Te136  1  0.24606607  0.00590076  0.88077169  1
  Te2-  Te137  1  0.25255708  0.50668538  0.88808359  1
  Te2-  Te138  1  0.75513450  0.00233796  0.88225065  1
  Te2-  Te139  1  0.74961494  0.50176361  0.88496837  1
  Te2-  Te140  1  0.25030573  0.24941390  0.88300085  1
  Te2-  Te141  1  0.25371208  0.75141805  0.88314146  1
  Te2-  Te142  1  0.74771060  0.24543247  0.88618362  1
  Te2-  Te143  1  0.75169400  0.74126362  0.88302388  1
  Te2-  Te144  1  0.32685557  0.40895717  0.21718817  1
  Te2-  Te145  1  0.32681129  0.91822740  0.21410801  1
  Te2-  Te146  1  0.83015594  0.41507277  0.21956401  1
  Te2-  Te147  1  0.82354448  0.90838802  0.21436725  1
  Te2-  Te148  1  0.08799458  0.17216870  0.21529846  1
  Te2-  Te149  1  0.08585926  0.67292476  0.21572457  1
  Te2-  Te150  1  0.59048202  0.17627047  0.21524294  1
  Te2-  Te151  1  0.58453096  0.66948481  0.21794858  1
  Te2-  Te152  1  0.09065548  0.41332333  0.21853823  1
  Te2-  Te153  1  0.08602300  0.91480695  0.21502305  1
  Te2-  Te154  1  0.59056667  0.41525078  0.21823924  1
  Te2-  Te155  1  0.58277142  0.91060648  0.21442678  1
  Te2-  Te156  1  0.16148805  0.08061769  0.55033244  1
  Te2-  Te157  1  0.16194186  0.58389303  0.55001176  1
  Te2-  Te158  1  0.65902920  0.08608278  0.54809541  1
  Te2-  Te159  1  0.65810031  0.57442956  0.55022967  1
  Te2-  Te160  1  0.41938530  0.33820769  0.55109530  1
  Te2-  Te161  1  0.42101431  0.84195931  0.54750512  1
  Te2-  Te162  1  0.92440916  0.34790906  0.55111849  1
  Te2-  Te163  1  0.91480377  0.83501271  0.54926462  1
  Te2-  Te164  1  0.41942934  0.08123231  0.55396145  1
  Te2-  Te165  1  0.41919039  0.57870729  0.54809757  1
  Te2-  Te166  1  0.91636930  0.08415107  0.54521055  1
  Te2-  Te167  1  0.92405135  0.58315412  0.55093191  1
  Te2-  Te168  1  -0.00111248  -0.00136828  0.88107964  1
  Te2-  Te169  1  0.00166651  0.50122077  0.88446480  1
  Te2-  Te170  1  0.50014938  -0.00072872  0.88355430  1
  Te2-  Te171  1  0.49981010  0.50163978  0.88315749  1
  Te2-  Te172  1  0.33396582  0.16629262  0.21432918  1
  Te2-  Te173  1  0.33609454  0.66893692  0.21620491  1
  Te2-  Te174  1  0.83482796  0.16650270  0.21458773  1
  Te2-  Te175  1  0.83442334  0.66652483  0.21580423  1
  Te2-  Te176  1  0.16750108  0.33442252  0.54812728  1
  Te2-  Te177  1  0.16775025  0.83345876  0.54831166  1
  Te2-  Te178  1  0.66786027  0.33364458  0.54885324  1
  Te2-  Te179  1  0.66762278  0.83505867  0.54850840  1
  Te2-  Te180  1  0.32821976  0.41569469  0.71333347  1
  Te2-  Te181  1  0.32854867  0.91339078  0.71069399  1
  Te2-  Te182  1  0.82953033  0.41401655  0.71540609  1
  Te2-  Te183  1  0.82572304  0.91514643  0.70839630  1
  Te2-  Te184  1  0.08319138  0.17055730  0.71239163  1
  Te2-  Te185  1  0.08775257  0.67099296  0.71209591  1
  Te2-  Te186  1  0.58749398  0.17545488  0.71365305  1
  Te2-  Te187  1  0.58682929  0.67224359  0.71118784  1
  Te2-  Te188  1  0.08804794  0.41428705  0.71514241  1
  Te2-  Te189  1  0.08505698  0.91255486  0.70830911  1
  Te2-  Te190  1  0.58461488  0.41264537  0.71399570  1
  Te2-  Te191  1  0.58727305  0.91821484  0.71195175  1
  Te2-  Te192  1  0.16182665  0.08242799  0.04273122  1
  Te2-  Te193  1  0.15906280  0.58201232  0.04231237  1
  Te2-  Te194  1  0.65893458  0.07510022  0.03955569  1
  Te2-  Te195  1  0.66100399  0.58007016  0.04611798  1
  Te2-  Te196  1  0.41885260  0.34147844  0.04397603  1
  Te2-  Te197  1  0.42089736  0.83912897  0.04120400  1
  Te2-  Te198  1  0.91817702  0.34011353  0.04240158  1
  Te2-  Te199  1  0.91912215  0.83717674  0.04419784  1
  Te2-  Te200  1  0.41650100  0.07699843  0.04062791  1
  Te2-  Te201  1  0.42059558  0.58196918  0.04503269  1
  Te2-  Te202  1  0.92167499  0.07834498  0.04066811  1
  Te2-  Te203  1  0.91784469  0.57891893  0.04458055  1
  Te2-  Te204  1  0.49510847  0.24595351  0.38013540  1
  Te2-  Te205  1  0.49272855  0.74588264  0.37372368  1
  Te2-  Te206  1  0.99433188  0.24497149  0.37508809  1
  Te2-  Te207  1  0.99579385  0.74880858  0.37788615  1
  Te2-  Te208  1  0.25258882  0.00623709  0.37947738  1
  Te2-  Te209  1  0.25677037  0.50664541  0.37578052  1
  Te2-  Te210  1  0.75331880  0.00479224  0.37497995  1
  Te2-  Te211  1  0.75410848  0.50638979  0.37746555  1
  Te2-  Te212  1  0.25174042  0.24531063  0.37930488  1
  Te2-  Te213  1  0.25432093  0.74906834  0.37638275  1
  Te2-  Te214  1  0.75322766  0.24364820  0.37579771  1
  Te2-  Te215  1  0.75330163  0.74723367  0.37720245  1
