# generated using pymatgen
data_Ti(CuTe)4
_symmetry_space_group_name_H-M   'P 1'
_cell_length_a   16.86779266
_cell_length_b   16.86577491
_cell_length_c   20.67859594
_cell_angle_alpha   89.96040928
_cell_angle_beta   90.00188361
_cell_angle_gamma   120.01170250
_symmetry_Int_Tables_number   1
_chemical_formula_structural   Ti(CuTe)4
_chemical_formula_sum   'Ti24 Cu96 Te96'
_cell_volume   5094.06961695
_cell_formula_units_Z   24
loop_
 _symmetry_equiv_pos_site_id
 _symmetry_equiv_pos_as_xyz
  1  'x, y, z'
loop_
 _atom_type_symbol
 _atom_type_oxidation_number
  Ti4+  4.0
  Cu+  1.0
  Te2-  -2.0
loop_
 _atom_site_type_symbol
 _atom_site_label
 _atom_site_symmetry_multiplicity
 _atom_site_fract_x
 _atom_site_fract_y
 _atom_site_fract_z
 _atom_site_occupancy
  Ti4+  Ti0  1  -0.00034338  -0.00041436  0.25608064  1
  Ti4+  Ti1  1  0.00374108  0.50159483  0.25888520  1
  Ti4+  Ti2  1  0.50297837  0.00131979  0.26063342  1
  Ti4+  Ti3  1  0.50238043  0.50380362  0.25783356  1
  Ti4+  Ti4  1  0.33018973  0.16787228  0.58776337  1
  Ti4+  Ti5  1  0.33264213  0.66563796  0.59262833  1
  Ti4+  Ti6  1  0.82942609  0.16404929  0.59364521  1
  Ti4+  Ti7  1  0.83697244  0.66691112  0.59051741  1
  Ti4+  Ti8  1  0.16483208  0.33271282  0.92498587  1
  Ti4+  Ti9  1  0.16818075  0.83324296  0.92620288  1
  Ti4+  Ti10  1  0.66667491  0.33522910  0.92244910  1
  Ti4+  Ti11  1  0.66466372  0.83240245  0.92215147  1
  Ti4+  Ti12  1  -0.00177133  -0.00047410  0.75659306  1
  Ti4+  Ti13  1  -0.00064026  0.49837525  0.75545045  1
  Ti4+  Ti14  1  0.49762269  -0.00210416  0.75306578  1
  Ti4+  Ti15  1  0.50174327  0.50076121  0.75493320  1
  Ti4+  Ti16  1  0.33302964  0.16581268  0.08808547  1
  Ti4+  Ti17  1  0.33302028  0.66577351  0.09075636  1
  Ti4+  Ti18  1  0.83402860  0.16586277  0.09014419  1
  Ti4+  Ti19  1  0.83356687  0.66797848  0.08951979  1
  Ti4+  Ti20  1  0.17064063  0.33335684  0.42385088  1
  Ti4+  Ti21  1  0.16392539  0.83148732  0.42199052  1
  Ti4+  Ti22  1  0.66795185  0.33344951  0.42041181  1
  Ti4+  Ti23  1  0.66612912  0.83549203  0.42542143  1
  Cu+  Cu24  1  0.69403574  0.59863896  0.80545539  1
  Cu+  Cu25  1  0.90876866  0.09523648  0.80971816  1
  Cu+  Cu26  1  0.40348822  0.81614089  0.80899012  1
  Cu+  Cu27  1  0.67822105  0.09283063  0.81021738  1
  Cu+  Cu28  1  0.56756421  0.92868704  0.47804415  1
  Cu+  Cu29  1  0.73888757  0.76367180  0.13894735  1
  Cu+  Cu30  1  0.36326526  0.43405352  0.47361027  1
  Cu+  Cu31  1  0.06824222  0.92699796  0.47099785  1
  Cu+  Cu32  1  0.40554411  0.58666309  0.81059915  1
  Cu+  Cu33  1  0.02469098  0.76220020  0.14165126  1
  Cu+  Cu34  1  0.07256284  0.64282542  0.47467907  1
  Cu+  Cu35  1  0.02639198  0.26386354  0.14193195  1
  Cu+  Cu36  1  0.16373605  0.08066678  0.16901477  1
  Cu+  Cu37  1  0.16415771  0.58240563  0.17269846  1
  Cu+  Cu38  1  0.66318545  0.07906125  0.17380660  1
  Cu+  Cu39  1  0.66249112  0.58793267  0.16985017  1
  Cu+  Cu40  1  0.41704412  0.33515006  0.17178404  1
  Cu+  Cu41  1  0.42284534  0.83630622  0.17496966  1
  Cu+  Cu42  1  0.92326233  0.33482972  0.17270337  1
  Cu+  Cu43  1  0.91725200  0.83502140  0.16993897  1
  Cu+  Cu44  1  0.42105614  0.08406711  0.17233698  1
  Cu+  Cu45  1  0.41868282  0.58180334  0.17224518  1
  Cu+  Cu46  1  0.92250600  0.08594548  0.16951277  1
  Cu+  Cu47  1  0.92416887  0.58780450  0.17231451  1
  Cu+  Cu48  1  0.49633678  0.24857737  0.50107838  1
  Cu+  Cu49  1  0.49772025  0.75365724  0.50719301  1
  Cu+  Cu50  1  0.99733542  0.24485758  0.50803596  1
  Cu+  Cu51  1  0.99707383  0.74731388  0.50204238  1
  Cu+  Cu52  1  0.24292459  0.00250489  0.50170195  1
  Cu+  Cu53  1  0.25611468  0.50014823  0.50591197  1
  Cu+  Cu54  1  0.74514339  0.00190627  0.50796367  1
  Cu+  Cu55  1  0.75192119  0.50165833  0.50296709  1
  Cu+  Cu56  1  0.25678091  0.25322612  0.50183859  1
  Cu+  Cu57  1  0.24637488  0.74351918  0.50443889  1
  Cu+  Cu58  1  0.75004445  0.24710681  0.50442005  1
  Cu+  Cu59  1  0.75217565  0.74830377  0.50587621  1
  Cu+  Cu60  1  0.32742366  0.41474607  0.83764339  1
  Cu+  Cu61  1  0.32709189  0.91141683  0.83635905  1
  Cu+  Cu62  1  0.82851283  0.41465715  0.83557978  1
  Cu+  Cu63  1  0.82999886  0.91762386  0.83585046  1
  Cu+  Cu64  1  0.08078907  0.16833735  0.83914726  1
  Cu+  Cu65  1  0.08404463  0.66788902  0.83910639  1
  Cu+  Cu66  1  0.58464454  0.17208270  0.83481812  1
  Cu+  Cu67  1  0.58571475  0.66812943  0.83496332  1
  Cu+  Cu68  1  0.08309826  0.41366914  0.83736033  1
  Cu+  Cu69  1  0.08558957  0.91472065  0.84028893  1
  Cu+  Cu70  1  0.59068533  0.42114925  0.83519585  1
  Cu+  Cu71  1  0.58251554  0.91345801  0.83195606  1
  Cu+  Cu72  1  0.16671093  0.08442460  0.67245763  1
  Cu+  Cu73  1  0.16603741  0.58071015  0.67622007  1
  Cu+  Cu74  1  0.66559379  0.08244912  0.68079069  1
  Cu+  Cu75  1  0.67449384  0.58475069  0.67746812  1
  Cu+  Cu76  1  0.41494429  0.33108160  0.67294831  1
  Cu+  Cu77  1  0.41138176  0.82952026  0.68046110  1
  Cu+  Cu78  1  0.91507089  0.33055742  0.67493311  1
  Cu+  Cu79  1  0.91949531  0.83231185  0.67457258  1
  Cu+  Cu80  1  0.41029674  0.08361819  0.66998495  1
  Cu+  Cu81  1  0.41701024  0.58458512  0.68102307  1
  Cu+  Cu82  1  0.91064892  0.08191001  0.68059954  1
  Cu+  Cu83  1  0.91894245  0.58379162  0.67421783  1
  Cu+  Cu84  1  0.00172764  0.24918031  0.01375362  1
  Cu+  Cu85  1  0.00532545  0.75183077  0.01300346  1
  Cu+  Cu86  1  0.50273637  0.25232683  0.00440100  1
  Cu+  Cu87  1  0.49810131  0.74723594  0.00953998  1
  Cu+  Cu88  1  0.24791433  0.49861772  0.01010436  1
  Cu+  Cu89  1  0.25073021  0.99814202  0.00808433  1
  Cu+  Cu90  1  0.74887029  0.49848655  0.00782401  1
  Cu+  Cu91  1  0.74688104  0.99898393  0.00939794  1
  Cu+  Cu92  1  0.24717557  0.24896051  0.00708381  1
  Cu+  Cu93  1  0.25054191  0.75047631  0.01117025  1
  Cu+  Cu94  1  0.74592456  0.24873215  0.00869580  1
  Cu+  Cu95  1  0.74709310  0.75024283  0.01107012  1
  Cu+  Cu96  1  0.34079663  0.41946925  0.34565155  1
  Cu+  Cu97  1  0.33719230  0.91788737  0.34150122  1
  Cu+  Cu98  1  0.83791987  0.41818636  0.34013849  1
  Cu+  Cu99  1  0.83332334  0.91751645  0.34121427  1
  Cu+  Cu100  1  0.08429254  0.16584940  0.34143822  1
  Cu+  Cu101  1  0.08275876  0.66335891  0.34721736  1
  Cu+  Cu102  1  0.58528866  0.16516932  0.34147453  1
  Cu+  Cu103  1  0.58415583  0.66870472  0.34228325  1
  Cu+  Cu104  1  0.08447740  0.41601194  0.34450502  1
  Cu+  Cu105  1  0.07933754  0.91616511  0.34401393  1
  Cu+  Cu106  1  0.58460629  0.41975619  0.33836975  1
  Cu+  Cu107  1  0.58195568  0.92088489  0.34929617  1
  Cu+  Cu108  1  -0.00079400  -0.00042912  0.11127070  1
  Cu+  Cu109  1  -0.00495414  0.49632170  0.11598932  1
  Cu+  Cu110  1  0.49646997  -0.00179749  0.11773264  1
  Cu+  Cu111  1  0.49673302  0.49542005  0.11473332  1
  Cu+  Cu112  1  0.33604926  0.16451610  0.44294456  1
  Cu+  Cu113  1  0.33306918  0.66502550  0.44965374  1
  Cu+  Cu114  1  0.83769580  0.16919271  0.45087123  1
  Cu+  Cu115  1  0.82888617  0.66400697  0.44647518  1
  Cu+  Cu116  1  0.16642610  0.33075137  0.78044270  1
  Cu+  Cu117  1  0.16107837  0.83078910  0.78228892  1
  Cu+  Cu118  1  0.66508308  0.33263382  0.77666431  1
  Cu+  Cu119  1  0.66656230  0.83184363  0.77662761  1
  Te2-  Te120  1  -0.00230617  0.00142276  0.38618919  1
  Te2-  Te121  1  0.00038711  0.49642919  0.38925789  1
  Te2-  Te122  1  0.49831401  0.00359840  0.39160341  1
  Te2-  Te123  1  0.50749519  0.50478316  0.38836071  1
  Te2-  Te124  1  0.33090970  0.16691932  0.71705186  1
  Te2-  Te125  1  0.32971268  0.66339986  0.72439616  1
  Te2-  Te126  1  0.83119170  0.16810699  0.72565040  1
  Te2-  Te127  1  0.84032576  0.66886868  0.72104000  1
  Te2-  Te128  1  0.16902186  0.33381493  0.05526008  1
  Te2-  Te129  1  0.17126679  0.83545112  0.05682881  1
  Te2-  Te130  1  0.66598369  0.33384805  0.05160957  1
  Te2-  Te131  1  0.66372536  0.83374168  0.05227818  1
  Te2-  Te132  1  0.49620134  0.25150027  0.87836723  1
  Te2-  Te133  1  0.49009786  0.74435324  0.88236810  1
  Te2-  Te134  1  0.99088907  0.24805626  0.88602371  1
  Te2-  Te135  1  0.99645895  0.74727102  0.88545895  1
  Te2-  Te136  1  0.25432000  0.00442017  0.88243871  1
  Te2-  Te137  1  0.24947678  0.50648688  0.88402751  1
  Te2-  Te138  1  0.75090306  0.00784692  0.88286238  1
  Te2-  Te139  1  0.75804234  0.51018415  0.88204625  1
  Te2-  Te140  1  0.24958456  0.24706408  0.88114844  1
  Te2-  Te141  1  0.25148699  0.74297218  0.88490958  1
  Te2-  Te142  1  0.75382700  0.24821913  0.88258776  1
  Te2-  Te143  1  0.75514592  0.74983810  0.88326087  1
  Te2-  Te144  1  0.33021844  0.41518938  0.21840371  1
  Te2-  Te145  1  0.33242094  0.91550298  0.21581428  1
  Te2-  Te146  1  0.83448062  0.41695034  0.21375400  1
  Te2-  Te147  1  0.82719132  0.91674801  0.21468130  1
  Te2-  Te148  1  0.09067570  0.17354409  0.21574270  1
  Te2-  Te149  1  0.09220028  0.67629153  0.21987250  1
  Te2-  Te150  1  0.58887191  0.17241950  0.21609447  1
  Te2-  Te151  1  0.58577010  0.67846487  0.21659946  1
  Te2-  Te152  1  0.09229971  0.41592775  0.21860673  1
  Te2-  Te153  1  0.08768399  0.91432128  0.21664694  1
  Te2-  Te154  1  0.58727805  0.41880919  0.21254397  1
  Te2-  Te155  1  0.58900722  0.91431821  0.22205776  1
  Te2-  Te156  1  0.15629289  0.08444975  0.54666943  1
  Te2-  Te157  1  0.16064176  0.57404220  0.55015508  1
  Te2-  Te158  1  0.65579042  0.08174255  0.55316563  1
  Te2-  Te159  1  0.66529580  0.58107388  0.55033847  1
  Te2-  Te160  1  0.42444988  0.34275181  0.54760224  1
  Te2-  Te161  1  0.41262588  0.83874087  0.55285918  1
  Te2-  Te162  1  0.91743249  0.33431766  0.54937266  1
  Te2-  Te163  1  0.92034366  0.84026996  0.54886210  1
  Te2-  Te164  1  0.41243941  0.07962202  0.54418766  1
  Te2-  Te165  1  0.42501665  0.58521920  0.55296733  1
  Te2-  Te166  1  0.91365074  0.07717364  0.55311159  1
  Te2-  Te167  1  0.91980353  0.57694485  0.54832973  1
  Te2-  Te168  1  -0.00074370  -0.00174230  0.88377752  1
  Te2-  Te169  1  -0.00230797  0.49803692  0.88198706  1
  Te2-  Te170  1  0.49938248  0.00065092  0.88077821  1
  Te2-  Te171  1  0.49825448  0.49836165  0.88247198  1
  Te2-  Te172  1  0.33350046  0.16591557  0.21479488  1
  Te2-  Te173  1  0.33448513  0.66653050  0.21729062  1
  Te2-  Te174  1  0.83386759  0.16549996  0.21709941  1
  Te2-  Te175  1  0.83179921  0.66561109  0.21688666  1
  Te2-  Te176  1  0.16647099  0.33070304  0.55099759  1
  Te2-  Te177  1  0.16594579  0.83349411  0.54942517  1
  Te2-  Te178  1  0.66503797  0.33224392  0.54704731  1
  Te2-  Te179  1  0.66731814  0.83206363  0.55237432  1
  Te2-  Te180  1  0.32735668  0.41213185  0.71031595  1
  Te2-  Te181  1  0.32356396  0.91475691  0.70945148  1
  Te2-  Te182  1  0.82735420  0.41335045  0.70957203  1
  Te2-  Te183  1  0.82600817  0.90907058  0.70938926  1
  Te2-  Te184  1  0.08436511  0.17163535  0.71093579  1
  Te2-  Te185  1  0.08758225  0.67177127  0.71214742  1
  Te2-  Te186  1  0.58014821  0.17093530  0.70756869  1
  Te2-  Te187  1  0.59058380  0.67392751  0.70754305  1
  Te2-  Te188  1  0.08485869  0.41061283  0.71137063  1
  Te2-  Te189  1  0.08738995  0.91619085  0.71291628  1
  Te2-  Te190  1  0.58528772  0.41241310  0.70824923  1
  Te2-  Te191  1  0.58472824  0.90932174  0.70592949  1
  Te2-  Te192  1  0.16062520  0.07886882  0.04295666  1
  Te2-  Te193  1  0.15980122  0.58010818  0.04703145  1
  Te2-  Te194  1  0.66005385  0.08017471  0.04741521  1
  Te2-  Te195  1  0.66007605  0.57906611  0.04342986  1
  Te2-  Te196  1  0.41778186  0.33713468  0.04368572  1
  Te2-  Te197  1  0.42052707  0.83855685  0.04728758  1
  Te2-  Te198  1  0.91700708  0.33777802  0.04474815  1
  Te2-  Te199  1  0.92011928  0.84032523  0.04180380  1
  Te2-  Te200  1  0.42138718  0.08241234  0.04444102  1
  Te2-  Te201  1  0.41800795  0.57819520  0.04569572  1
  Te2-  Te202  1  0.91695437  0.07637990  0.04267710  1
  Te2-  Te203  1  0.91851433  0.57969026  0.04496209  1
  Te2-  Te204  1  0.49681712  0.24890811  0.37429038  1
  Te2-  Te205  1  0.49362382  0.74737540  0.38005943  1
  Te2-  Te206  1  0.99724428  0.24674615  0.38074148  1
  Te2-  Te207  1  0.99001687  0.74417196  0.37501684  1
  Te2-  Te208  1  0.25217649  0.00377707  0.37466238  1
  Te2-  Te209  1  0.25512576  0.50635865  0.37886474  1
  Te2-  Te210  1  0.75509267  0.00807033  0.38047636  1
  Te2-  Te211  1  0.75450740  0.50553636  0.37592023  1
  Te2-  Te212  1  0.25468340  0.24582306  0.37547723  1
  Te2-  Te213  1  0.25533765  0.74850214  0.37808277  1
  Te2-  Te214  1  0.75547181  0.24782053  0.37782614  1
  Te2-  Te215  1  0.75268433  0.74947763  0.37965192  1
