# generated using pymatgen
data_Ti(CuTe)4
_symmetry_space_group_name_H-M   'P 1'
_cell_length_a   16.85850282
_cell_length_b   16.85651522
_cell_length_c   20.66165381
_cell_angle_alpha   89.98848585
_cell_angle_beta   89.98657837
_cell_angle_gamma   119.99571662
_symmetry_Int_Tables_number   1
_chemical_formula_structural   Ti(CuTe)4
_chemical_formula_sum   'Ti24 Cu96 Te96'
_cell_volume   5085.12010154
_cell_formula_units_Z   24
loop_
 _symmetry_equiv_pos_site_id
 _symmetry_equiv_pos_as_xyz
  1  'x, y, z'
loop_
 _atom_type_symbol
 _atom_type_oxidation_number
  Ti4+  4.0
  Cu+  1.0
  Te2-  -2.0
loop_
 _atom_site_type_symbol
 _atom_site_label
 _atom_site_symmetry_multiplicity
 _atom_site_fract_x
 _atom_site_fract_y
 _atom_site_fract_z
 _atom_site_occupancy
  Ti4+  Ti0  1  -0.00177379  -0.00118524  0.25965485  1
  Ti4+  Ti1  1  -0.00015430  0.50304651  0.25428587  1
  Ti4+  Ti2  1  0.49963183  -0.00294581  0.25483442  1
  Ti4+  Ti3  1  0.49886722  0.49825591  0.25828092  1
  Ti4+  Ti4  1  0.33668566  0.16980602  0.59223131  1
  Ti4+  Ti5  1  0.33503794  0.66774356  0.58841027  1
  Ti4+  Ti6  1  0.83219893  0.16602352  0.58993475  1
  Ti4+  Ti7  1  0.83468104  0.67000772  0.59583766  1
  Ti4+  Ti8  1  0.16589186  0.33317711  0.92221573  1
  Ti4+  Ti9  1  0.16826532  0.83638150  0.92300882  1
  Ti4+  Ti10  1  0.66322185  0.33256465  0.92798044  1
  Ti4+  Ti11  1  0.66879887  0.83114767  0.92684900  1
  Ti4+  Ti12  1  -0.00007625  -0.00047844  0.75371951  1
  Ti4+  Ti13  1  0.00049388  0.49952857  0.75549987  1
  Ti4+  Ti14  1  0.49903753  0.00117794  0.75975630  1
  Ti4+  Ti15  1  0.50137405  0.50158377  0.75625030  1
  Ti4+  Ti16  1  0.33312534  0.16662857  0.08867479  1
  Ti4+  Ti17  1  0.33278789  0.66780428  0.08786969  1
  Ti4+  Ti18  1  0.83216453  0.16383150  0.08624823  1
  Ti4+  Ti19  1  0.83258089  0.66555899  0.08811044  1
  Ti4+  Ti20  1  0.16904732  0.33418265  0.41975404  1
  Ti4+  Ti21  1  0.16560448  0.83263772  0.42328260  1
  Ti4+  Ti22  1  0.66497686  0.33155279  0.42459262  1
  Ti4+  Ti23  1  0.66663347  0.83441218  0.42260080  1
  Cu+  Cu24  1  0.68440691  0.58628445  0.81169519  1
  Cu+  Cu25  1  0.74388474  0.25135525  0.14624792  1
  Cu+  Cu26  1  0.85563648  0.92720599  0.47739494  1
  Cu+  Cu27  1  0.36177304  0.43051576  0.47340565  1
  Cu+  Cu28  1  0.74403004  0.48879399  0.14791310  1
  Cu+  Cu29  1  0.51534567  0.75258418  0.14355395  1
  Cu+  Cu30  1  0.74400749  0.97897340  0.14313154  1
  Cu+  Cu31  1  0.57386000  0.92977060  0.47376507  1
  Cu+  Cu32  1  0.91194283  0.81782010  0.81189377  1
  Cu+  Cu33  1  0.23815136  0.76499572  0.13599983  1
  Cu+  Cu34  1  0.40397555  0.09999088  0.80795054  1
  Cu+  Cu35  1  0.51042191  0.25527778  0.14753208  1
  Cu+  Cu36  1  0.16363062  0.08115275  0.17209935  1
  Cu+  Cu37  1  0.16296702  0.58963263  0.16688246  1
  Cu+  Cu38  1  0.66219049  0.07547569  0.16558939  1
  Cu+  Cu39  1  0.66115960  0.57907191  0.16957634  1
  Cu+  Cu40  1  0.41685115  0.33546947  0.17146799  1
  Cu+  Cu41  1  0.41648965  0.83435931  0.16703845  1
  Cu+  Cu42  1  0.91812805  0.33809267  0.16558853  1
  Cu+  Cu43  1  0.91781288  0.83613592  0.17176221  1
  Cu+  Cu44  1  0.41798270  0.08046235  0.16689938  1
  Cu+  Cu45  1  0.41792862  0.58043789  0.17178030  1
  Cu+  Cu46  1  0.91607493  0.07668637  0.17013007  1
  Cu+  Cu47  1  0.91886384  0.58109690  0.16684401  1
  Cu+  Cu48  1  0.49614280  0.24587162  0.50645878  1
  Cu+  Cu49  1  0.49433852  0.75217600  0.50093850  1
  Cu+  Cu50  1  0.99721830  0.25046090  0.50144879  1
  Cu+  Cu51  1  0.99809118  0.75133140  0.50820716  1
  Cu+  Cu52  1  0.25395608  0.00163714  0.50695387  1
  Cu+  Cu53  1  0.25661047  0.50190232  0.50090791  1
  Cu+  Cu54  1  0.75173499  0.00433478  0.50221273  1
  Cu+  Cu55  1  0.74828935  0.50107386  0.51063549  1
  Cu+  Cu56  1  0.25864122  0.25549009  0.50352144  1
  Cu+  Cu57  1  0.25216161  0.74910889  0.50291785  1
  Cu+  Cu58  1  0.75124854  0.24850574  0.50467044  1
  Cu+  Cu59  1  0.75600098  0.75256445  0.50836706  1
  Cu+  Cu60  1  0.32818049  0.41410969  0.83637155  1
  Cu+  Cu61  1  0.33253494  0.92251731  0.83934774  1
  Cu+  Cu62  1  0.83189809  0.41560816  0.84069049  1
  Cu+  Cu63  1  0.83092151  0.91259343  0.83761601  1
  Cu+  Cu64  1  0.08549686  0.17076810  0.83522512  1
  Cu+  Cu65  1  0.08766796  0.66875416  0.83707110  1
  Cu+  Cu66  1  0.57739118  0.16768492  0.84267978  1
  Cu+  Cu67  1  0.58787157  0.66785193  0.83867893  1
  Cu+  Cu68  1  0.08446232  0.41433538  0.83652200  1
  Cu+  Cu69  1  0.08539518  0.91389874  0.83456937  1
  Cu+  Cu70  1  0.58496734  0.41462339  0.84005923  1
  Cu+  Cu71  1  0.58508484  0.91393924  0.84290026  1
  Cu+  Cu72  1  0.17039523  0.08654092  0.67304715  1
  Cu+  Cu73  1  0.17029206  0.58376193  0.67047000  1
  Cu+  Cu74  1  0.66736188  0.08265370  0.67626365  1
  Cu+  Cu75  1  0.67115089  0.58814083  0.68291764  1
  Cu+  Cu76  1  0.41891426  0.33528903  0.67596388  1
  Cu+  Cu77  1  0.41750453  0.83242052  0.67472062  1
  Cu+  Cu78  1  0.91372137  0.33023888  0.67355322  1
  Cu+  Cu79  1  0.91480655  0.83213165  0.68307661  1
  Cu+  Cu80  1  0.41495764  0.08710340  0.68078564  1
  Cu+  Cu81  1  0.41604920  0.58535507  0.67280554  1
  Cu+  Cu82  1  0.91435359  0.08453021  0.67324942  1
  Cu+  Cu83  1  0.91656829  0.58370765  0.67745659  1
  Cu+  Cu84  1  0.00319981  0.24973648  0.00445381  1
  Cu+  Cu85  1  0.00105600  0.75244554  0.00724675  1
  Cu+  Cu86  1  0.49968613  0.25154044  0.01609274  1
  Cu+  Cu87  1  0.50361159  0.74947786  0.01344734  1
  Cu+  Cu88  1  0.24711361  0.49626579  0.00469782  1
  Cu+  Cu89  1  0.24882011  1.00084375  0.00717085  1
  Cu+  Cu90  1  0.74807803  0.49832882  0.01617593  1
  Cu+  Cu91  1  0.75010363  0.99444215  0.01280845  1
  Cu+  Cu92  1  0.24606955  0.25140091  0.00541880  1
  Cu+  Cu93  1  0.24760017  0.75445752  0.00856212  1
  Cu+  Cu94  1  0.74641119  0.24953893  0.01405508  1
  Cu+  Cu95  1  0.75108544  0.74949978  0.01115278  1
  Cu+  Cu96  1  0.33823071  0.41790489  0.34428750  1
  Cu+  Cu97  1  0.33343685  0.91560655  0.34015862  1
  Cu+  Cu98  1  0.83295629  0.41794307  0.34257013  1
  Cu+  Cu99  1  0.83580701  0.91695141  0.34827643  1
  Cu+  Cu100  1  0.08070110  0.16387059  0.34144266  1
  Cu+  Cu101  1  0.07991468  0.66619873  0.34074886  1
  Cu+  Cu102  1  0.58279661  0.16472978  0.34227972  1
  Cu+  Cu103  1  0.58434261  0.66559870  0.34394645  1
  Cu+  Cu104  1  0.08102456  0.41877739  0.33547570  1
  Cu+  Cu105  1  0.08127932  0.91671673  0.34300146  1
  Cu+  Cu106  1  0.58136435  0.41270157  0.34576090  1
  Cu+  Cu107  1  0.58061949  0.91495778  0.34535819  1
  Cu+  Cu108  1  0.00396389  0.00052035  0.11576189  1
  Cu+  Cu109  1  0.00303679  0.49874175  0.10761670  1
  Cu+  Cu110  1  0.49749074  -0.00220914  0.10774843  1
  Cu+  Cu111  1  0.49551521  0.49835128  0.11347930  1
  Cu+  Cu112  1  0.32781327  0.16152019  0.44916827  1
  Cu+  Cu113  1  0.32383542  0.66169369  0.44356531  1
  Cu+  Cu114  1  0.83573443  0.17140933  0.44485210  1
  Cu+  Cu115  1  0.83377007  0.66103777  0.45464594  1
  Cu+  Cu116  1  0.16550975  0.33418460  0.77826103  1
  Cu+  Cu117  1  0.16908589  0.83013469  0.77964212  1
  Cu+  Cu118  1  0.66984933  0.33039885  0.78576770  1
  Cu+  Cu119  1  0.66461816  0.83467822  0.78409308  1
  Te2-  Te120  1  0.00277984  0.00147363  0.39045165  1
  Te2-  Te121  1  -0.00057663  0.50037134  0.38312170  1
  Te2-  Te122  1  0.49762960  -0.00045880  0.38482797  1
  Te2-  Te123  1  0.50456332  0.50104148  0.38859383  1
  Te2-  Te124  1  0.33233037  0.17190580  0.72292505  1
  Te2-  Te125  1  0.33350016  0.66715122  0.71754434  1
  Te2-  Te126  1  0.83246308  0.16636677  0.71913709  1
  Te2-  Te127  1  0.83684922  0.66602888  0.72819196  1
  Te2-  Te128  1  0.16549810  0.33374694  0.05212488  1
  Te2-  Te129  1  0.16463181  0.83746968  0.05365959  1
  Te2-  Te130  1  0.66511208  0.33261027  0.06170129  1
  Te2-  Te131  1  0.66841866  0.82958892  0.05936285  1
  Te2-  Te132  1  0.49001244  0.25010302  0.88799481  1
  Te2-  Te133  1  0.49777828  0.74469829  0.88610933  1
  Te2-  Te134  1  0.99369002  0.24585376  0.87911252  1
  Te2-  Te135  1  0.99517135  0.74447153  0.88182752  1
  Te2-  Te136  1  0.25002708  0.01056643  0.88182543  1
  Te2-  Te137  1  0.25244464  0.50568680  0.87947088  1
  Te2-  Te138  1  0.75465534  0.00221567  0.88557564  1
  Te2-  Te139  1  0.75464756  0.50518161  0.88833206  1
  Te2-  Te140  1  0.25211257  0.24679545  0.88008970  1
  Te2-  Te141  1  0.25541341  0.75286154  0.88197248  1
  Te2-  Te142  1  0.74681289  0.24706743  0.88604299  1
  Te2-  Te143  1  0.75656774  0.74361342  0.88539922  1
  Te2-  Te144  1  0.32842220  0.41334485  0.21707242  1
  Te2-  Te145  1  0.32694304  0.91473534  0.21392538  1
  Te2-  Te146  1  0.82298146  0.41111945  0.21611320  1
  Te2-  Te147  1  0.82391054  0.90798966  0.22039273  1
  Te2-  Te148  1  0.08294244  0.16936740  0.21526846  1
  Te2-  Te149  1  0.08338583  0.67756706  0.21447105  1
  Te2-  Te150  1  0.58744014  0.17200744  0.21591826  1
  Te2-  Te151  1  0.58948141  0.67208835  0.21775377  1
  Te2-  Te152  1  0.08568208  0.41919411  0.20921242  1
  Te2-  Te153  1  0.08467510  0.91377563  0.21714202  1
  Te2-  Te154  1  0.58696993  0.41010304  0.21940944  1
  Te2-  Te155  1  0.58672818  0.90882857  0.21685380  1
  Te2-  Te156  1  0.16724908  0.08610858  0.54685042  1
  Te2-  Te157  1  0.16489438  0.57951467  0.54429275  1
  Te2-  Te158  1  0.65823349  0.08070209  0.54972396  1
  Te2-  Te159  1  0.66363201  0.58546693  0.55532691  1
  Te2-  Te160  1  0.42704325  0.34396088  0.55035795  1
  Te2-  Te161  1  0.41892781  0.84306880  0.54891723  1
  Te2-  Te162  1  0.91871096  0.33782827  0.54791196  1
  Te2-  Te163  1  0.92425253  0.84387685  0.55562178  1
  Te2-  Te164  1  0.42043188  0.08063357  0.55414253  1
  Te2-  Te165  1  0.42637738  0.58527388  0.54692309  1
  Te2-  Te166  1  0.92224208  0.08291655  0.54730008  1
  Te2-  Te167  1  0.91792120  0.58304807  0.55167347  1
  Te2-  Te168  1  0.00181027  0.00096710  0.88087709  1
  Te2-  Te169  1  0.00201873  0.50001899  0.88226623  1
  Te2-  Te170  1  0.50036085  -0.00163253  0.88690061  1
  Te2-  Te171  1  0.49665028  0.49817561  0.88338226  1
  Te2-  Te172  1  0.33270526  0.16427143  0.21633165  1
  Te2-  Te173  1  0.33159030  0.66537902  0.21558931  1
  Te2-  Te174  1  0.83405704  0.16732130  0.21419901  1
  Te2-  Te175  1  0.83263092  0.66521356  0.21552560  1
  Te2-  Te176  1  0.16651591  0.33356843  0.54685395  1
  Te2-  Te177  1  0.16816654  0.83262781  0.55004558  1
  Te2-  Te178  1  0.66593188  0.33131790  0.55135228  1
  Te2-  Te179  1  0.66479240  0.83444103  0.54987726  1
  Te2-  Te180  1  0.32956810  0.41621482  0.70999331  1
  Te2-  Te181  1  0.32854161  0.91354741  0.71163702  1
  Te2-  Te182  1  0.82750915  0.41324748  0.71318286  1
  Te2-  Te183  1  0.82495247  0.91563052  0.71095746  1
  Te2-  Te184  1  0.08498805  0.17149845  0.70862806  1
  Te2-  Te185  1  0.08804487  0.67106155  0.70989404  1
  Te2-  Te186  1  0.58753632  0.17294918  0.71440749  1
  Te2-  Te187  1  0.58489534  0.67517709  0.71186506  1
  Te2-  Te188  1  0.08502931  0.41383148  0.70891859  1
  Te2-  Te189  1  0.09026493  0.91609638  0.70816985  1
  Te2-  Te190  1  0.58837760  0.41401437  0.71302434  1
  Te2-  Te191  1  0.58472917  0.91463959  0.71555549  1
  Te2-  Te192  1  0.16153219  0.08244717  0.04478618  1
  Te2-  Te193  1  0.16195134  0.58156538  0.03954330  1
  Te2-  Te194  1  0.65770595  0.07604341  0.03884553  1
  Te2-  Te195  1  0.65679527  0.57955174  0.04341457  1
  Te2-  Te196  1  0.41516034  0.33987934  0.04401397  1
  Te2-  Te197  1  0.42023579  0.84011333  0.03943001  1
  Te2-  Te198  1  0.91995043  0.33698374  0.03912376  1
  Te2-  Te199  1  0.92024482  0.83974275  0.04545575  1
  Te2-  Te200  1  0.41809857  0.07813675  0.04057906  1
  Te2-  Te201  1  0.41572399  0.57716399  0.04385948  1
  Te2-  Te202  1  0.92264526  0.08051878  0.04304616  1
  Te2-  Te203  1  0.92223751  0.58188961  0.04074111  1
  Te2-  Te204  1  0.49195806  0.24289058  0.37995658  1
  Te2-  Te205  1  0.49229707  0.74339848  0.37546916  1
  Te2-  Te206  1  0.99633880  0.25012139  0.37494564  1
  Te2-  Te207  1  0.99260613  0.74735288  0.38101918  1
  Te2-  Te208  1  0.25242691  0.00395319  0.37856917  1
  Te2-  Te209  1  0.25114565  0.50519776  0.37255510  1
  Te2-  Te210  1  0.75317290  0.00827592  0.37488408  1
  Te2-  Te211  1  0.75111272  0.50434789  0.38217026  1
  Te2-  Te212  1  0.25234734  0.24456605  0.37561346  1
  Te2-  Te213  1  0.25033362  0.74656224  0.37577208  1
  Te2-  Te214  1  0.75221341  0.24764431  0.37765812  1
  Te2-  Te215  1  0.75285568  0.74494653  0.38132617  1
