# generated using pymatgen
data_Ti(CuTe)4
_symmetry_space_group_name_H-M   'P 1'
_cell_length_a   16.86245162
_cell_length_b   16.86153608
_cell_length_c   20.67119541
_cell_angle_alpha   90.00640056
_cell_angle_beta   90.01507485
_cell_angle_gamma   120.00175565
_symmetry_Int_Tables_number   1
_chemical_formula_structural   Ti(CuTe)4
_chemical_formula_sum   'Ti24 Cu96 Te96'
_cell_volume   5089.86614789
_cell_formula_units_Z   24
loop_
 _symmetry_equiv_pos_site_id
 _symmetry_equiv_pos_as_xyz
  1  'x, y, z'
loop_
 _atom_type_symbol
 _atom_type_oxidation_number
  Ti4+  4.0
  Cu+  1.0
  Te2-  -2.0
loop_
 _atom_site_type_symbol
 _atom_site_label
 _atom_site_symmetry_multiplicity
 _atom_site_fract_x
 _atom_site_fract_y
 _atom_site_fract_z
 _atom_site_occupancy
  Ti4+  Ti0  1  0.00317982  0.00225017  0.25389399  1
  Ti4+  Ti1  1  -0.00405134  0.49758597  0.25844780  1
  Ti4+  Ti2  1  0.49735510  -0.00031512  0.25688896  1
  Ti4+  Ti3  1  0.50341227  0.50410107  0.25763442  1
  Ti4+  Ti4  1  0.33475918  0.16605207  0.58985099  1
  Ti4+  Ti5  1  0.33362687  0.66326630  0.58967377  1
  Ti4+  Ti6  1  0.83311734  0.16769418  0.59189869  1
  Ti4+  Ti7  1  0.83419569  0.66813423  0.59347886  1
  Ti4+  Ti8  1  0.16281202  0.33101578  0.92653096  1
  Ti4+  Ti9  1  0.16541808  0.83256285  0.92270495  1
  Ti4+  Ti10  1  0.66906065  0.33457715  0.92447319  1
  Ti4+  Ti11  1  0.66356863  0.83138199  0.92756152  1
  Ti4+  Ti12  1  0.00164568  0.00143358  0.75652056  1
  Ti4+  Ti13  1  -0.00188494  0.49909036  0.75582369  1
  Ti4+  Ti14  1  0.50011295  -0.00136809  0.75636920  1
  Ti4+  Ti15  1  0.50094321  0.50072480  0.75919843  1
  Ti4+  Ti16  1  0.33198509  0.16529709  0.08830213  1
  Ti4+  Ti17  1  0.33486838  0.66765942  0.08864008  1
  Ti4+  Ti18  1  0.83551891  0.16889109  0.08844670  1
  Ti4+  Ti19  1  0.83208671  0.66546766  0.08864806  1
  Ti4+  Ti20  1  0.16736548  0.33687422  0.42192061  1
  Ti4+  Ti21  1  0.16614232  0.83360223  0.42162718  1
  Ti4+  Ti22  1  0.66511913  0.33116900  0.42250114  1
  Ti4+  Ti23  1  0.66767695  0.83234632  0.42212408  1
  Cu+  Cu24  1  0.57183701  0.13849414  0.47306459  1
  Cu+  Cu25  1  0.51887261  0.76327464  0.14497732  1
  Cu+  Cu26  1  0.06846235  0.42985210  0.47528158  1
  Cu+  Cu27  1  0.57977415  0.64795482  0.47791370  1
  Cu+  Cu28  1  0.34987804  0.42159854  0.47669666  1
  Cu+  Cu29  1  0.90284609  0.30847052  0.80708929  1
  Cu+  Cu30  1  0.90254608  0.59398658  0.80753176  1
  Cu+  Cu31  1  0.74554379  0.76280435  0.14284010  1
  Cu+  Cu32  1  0.23739739  0.97363271  0.13658173  1
  Cu+  Cu33  1  0.24740335  0.26417211  0.14340953  1
  Cu+  Cu34  1  0.73563440  0.47502131  0.13851570  1
  Cu+  Cu35  1  0.01932506  0.26534834  0.14442304  1
  Cu+  Cu36  1  0.16558963  0.08135605  0.16626744  1
  Cu+  Cu37  1  0.16459697  0.58234189  0.17105619  1
  Cu+  Cu38  1  0.66381820  0.08654491  0.17055095  1
  Cu+  Cu39  1  0.66602533  0.58415298  0.16912927  1
  Cu+  Cu40  1  0.41902586  0.33906750  0.17005143  1
  Cu+  Cu41  1  0.41948177  0.83734449  0.16876708  1
  Cu+  Cu42  1  0.91974754  0.33847673  0.17083454  1
  Cu+  Cu43  1  0.91864725  0.83865271  0.16759563  1
  Cu+  Cu44  1  0.41288728  0.07733795  0.16982356  1
  Cu+  Cu45  1  0.42276602  0.58709997  0.16980692  1
  Cu+  Cu46  1  0.92274861  0.08769742  0.16696656  1
  Cu+  Cu47  1  0.91080691  0.57547712  0.17016040  1
  Cu+  Cu48  1  0.49743698  0.24282446  0.50156821  1
  Cu+  Cu49  1  0.49837890  0.74372151  0.50237832  1
  Cu+  Cu50  1  0.99668693  0.25393443  0.50481079  1
  Cu+  Cu51  1  0.99854266  0.74942947  0.50645503  1
  Cu+  Cu52  1  0.25151819  0.00355569  0.50292437  1
  Cu+  Cu53  1  0.25161226  0.50388263  0.50121966  1
  Cu+  Cu54  1  0.75319118  0.00303670  0.50477965  1
  Cu+  Cu55  1  0.75336260  0.50386295  0.50622558  1
  Cu+  Cu56  1  0.25417819  0.24905480  0.50321274  1
  Cu+  Cu57  1  0.25110450  0.74817553  0.50324344  1
  Cu+  Cu58  1  0.74637346  0.24373582  0.50459374  1
  Cu+  Cu59  1  0.75255530  0.74738168  0.50540981  1
  Cu+  Cu60  1  0.33169382  0.41398149  0.84199307  1
  Cu+  Cu61  1  0.33070869  0.91439375  0.83789655  1
  Cu+  Cu62  1  0.83068763  0.41538293  0.83736692  1
  Cu+  Cu63  1  0.83173195  0.91472305  0.84100139  1
  Cu+  Cu64  1  0.08347314  0.16921536  0.83992558  1
  Cu+  Cu65  1  0.07940116  0.67007376  0.83578679  1
  Cu+  Cu66  1  0.58370946  0.16811855  0.83850517  1
  Cu+  Cu67  1  0.58285043  0.67001069  0.84304661  1
  Cu+  Cu68  1  0.07789978  0.40732139  0.83768537  1
  Cu+  Cu69  1  0.08798246  0.91780280  0.83736676  1
  Cu+  Cu70  1  0.58676746  0.41846294  0.84051414  1
  Cu+  Cu71  1  0.57976203  0.91050490  0.84100766  1
  Cu+  Cu72  1  0.17087331  0.08727065  0.67382182  1
  Cu+  Cu73  1  0.16859369  0.58175415  0.67506621  1
  Cu+  Cu74  1  0.66718462  0.08208457  0.67738453  1
  Cu+  Cu75  1  0.66793772  0.58649947  0.67852458  1
  Cu+  Cu76  1  0.41830013  0.33165712  0.67488359  1
  Cu+  Cu77  1  0.41607838  0.82852366  0.67266247  1
  Cu+  Cu78  1  0.91434345  0.33081737  0.67911450  1
  Cu+  Cu79  1  0.91791038  0.83380898  0.67633140  1
  Cu+  Cu80  1  0.41685941  0.08345397  0.67412424  1
  Cu+  Cu81  1  0.41654071  0.58171311  0.67784233  1
  Cu+  Cu82  1  0.91851085  0.08675188  0.67572397  1
  Cu+  Cu83  1  0.91559781  0.58775614  0.67946982  1
  Cu+  Cu84  1  0.00244480  0.25161234  0.01460195  1
  Cu+  Cu85  1  0.00058408  0.74972242  0.00617091  1
  Cu+  Cu86  1  0.50217111  0.25152661  0.00701164  1
  Cu+  Cu87  1  0.50226968  0.75014569  0.01506499  1
  Cu+  Cu88  1  0.24832539  0.49851880  0.00676614  1
  Cu+  Cu89  1  0.24922408  0.99368840  0.00948137  1
  Cu+  Cu90  1  0.74978611  0.49544463  0.01252445  1
  Cu+  Cu91  1  0.74689320  0.99853561  0.00808692  1
  Cu+  Cu92  1  0.24765975  0.25138832  0.01387566  1
  Cu+  Cu93  1  0.24784131  0.74934605  0.00471366  1
  Cu+  Cu94  1  0.75231161  0.25344414  0.00844039  1
  Cu+  Cu95  1  0.74669621  0.75060941  0.01359497  1
  Cu+  Cu96  1  0.33750180  0.42152618  0.34691478  1
  Cu+  Cu97  1  0.33207569  0.91666044  0.34066193  1
  Cu+  Cu98  1  0.83129732  0.41513867  0.34291786  1
  Cu+  Cu99  1  0.83702242  0.91978172  0.33956234  1
  Cu+  Cu100  1  0.08433376  0.16780293  0.34104639  1
  Cu+  Cu101  1  0.07955622  0.66374220  0.33996351  1
  Cu+  Cu102  1  0.57899903  0.16140052  0.34404660  1
  Cu+  Cu103  1  0.58661206  0.66754824  0.34834402  1
  Cu+  Cu104  1  0.07910445  0.41765010  0.34763148  1
  Cu+  Cu105  1  0.08228030  0.91724158  0.33872355  1
  Cu+  Cu106  1  0.58609689  0.41947542  0.34234731  1
  Cu+  Cu107  1  0.58416018  0.91835571  0.34115375  1
  Cu+  Cu108  1  0.00040540  0.00040993  0.10787440  1
  Cu+  Cu109  1  0.00323298  0.50519676  0.11434912  1
  Cu+  Cu110  1  0.50142159  0.00161678  0.11232105  1
  Cu+  Cu111  1  0.50013263  0.49969737  0.11231812  1
  Cu+  Cu112  1  0.33246462  0.16535970  0.44388750  1
  Cu+  Cu113  1  0.33573940  0.67369519  0.44448531  1
  Cu+  Cu114  1  0.83329257  0.16487732  0.44807835  1
  Cu+  Cu115  1  0.83762354  0.66878174  0.44968538  1
  Cu+  Cu116  1  0.17179250  0.33446445  0.78465346  1
  Cu+  Cu117  1  0.17050633  0.83633126  0.77962710  1
  Cu+  Cu118  1  0.66114593  0.32976081  0.78186343  1
  Cu+  Cu119  1  0.67018239  0.83697520  0.78595412  1
  Te2-  Te120  1  0.00218143  0.00207100  0.38239430  1
  Te2-  Te121  1  -0.00467427  0.50131999  0.38908265  1
  Te2-  Te122  1  0.49623017  -0.00566885  0.38727700  1
  Te2-  Te123  1  0.50393738  0.50050117  0.38954817  1
  Te2-  Te124  1  0.33541022  0.16654782  0.71880955  1
  Te2-  Te125  1  0.33326434  0.66469668  0.71850898  1
  Te2-  Te126  1  0.83164970  0.16349508  0.72237652  1
  Te2-  Te127  1  0.83216186  0.67066467  0.72414827  1
  Te2-  Te128  1  0.16865591  0.33781040  0.05941777  1
  Te2-  Te129  1  0.16348051  0.82727856  0.05351467  1
  Te2-  Te130  1  0.66437548  0.32860565  0.05523676  1
  Te2-  Te131  1  0.66801318  0.83728363  0.06033806  1
  Te2-  Te132  1  0.49810814  0.24992524  0.88200869  1
  Te2-  Te133  1  0.49118958  0.74493740  0.88835313  1
  Te2-  Te134  1  0.98881963  0.24136323  0.88695392  1
  Te2-  Te135  1  0.99121220  0.74989593  0.88120170  1
  Te2-  Te136  1  0.25446165  0.00517300  0.88331295  1
  Te2-  Te137  1  0.24669257  0.50022934  0.88095735  1
  Te2-  Te138  1  0.74870752  0.00116869  0.88250206  1
  Te2-  Te139  1  0.75428542  0.50860634  0.88583881  1
  Te2-  Te140  1  0.25014561  0.24666511  0.88696082  1
  Te2-  Te141  1  0.24767643  0.74433903  0.87904677  1
  Te2-  Te142  1  0.75220253  0.24481454  0.88262840  1
  Te2-  Te143  1  0.75078869  0.74711314  0.88677594  1
  Te2-  Te144  1  0.33066644  0.42037876  0.21886549  1
  Te2-  Te145  1  0.32385507  0.90793091  0.21458675  1
  Te2-  Te146  1  0.82213625  0.40715402  0.21671830  1
  Te2-  Te147  1  0.83004537  0.92039999  0.21397468  1
  Te2-  Te148  1  0.09181015  0.17846293  0.21482408  1
  Te2-  Te149  1  0.07969728  0.66687260  0.21392796  1
  Te2-  Te150  1  0.58067907  0.17053248  0.21671605  1
  Te2-  Te151  1  0.59198449  0.67910029  0.21941436  1
  Te2-  Te152  1  0.08902798  0.41644541  0.22026824  1
  Te2-  Te153  1  0.08520949  0.91118431  0.21274066  1
  Te2-  Te154  1  0.58572102  0.41421047  0.21609592  1
  Te2-  Te155  1  0.58978759  0.91895621  0.21559789  1
  Te2-  Te156  1  0.16315172  0.08287798  0.54777468  1
  Te2-  Te157  1  0.15994831  0.58048851  0.54929301  1
  Te2-  Te158  1  0.65899829  0.07495094  0.55119924  1
  Te2-  Te159  1  0.66040063  0.57746628  0.55244359  1
  Te2-  Te160  1  0.42525160  0.33903093  0.54818278  1
  Te2-  Te161  1  0.41991694  0.83336822  0.54661276  1
  Te2-  Te162  1  0.91464369  0.34119882  0.55143539  1
  Te2-  Te163  1  0.91911956  0.83870947  0.55015740  1
  Te2-  Te164  1  0.41828371  0.07523993  0.54830783  1
  Te2-  Te165  1  0.42180434  0.57490948  0.55055445  1
  Te2-  Te166  1  0.92113811  0.08548346  0.54944113  1
  Te2-  Te167  1  0.91977787  0.58187441  0.55269058  1
  Te2-  Te168  1  0.00094211  -0.00049631  0.88309525  1
  Te2-  Te169  1  0.00103024  0.50071983  0.88310406  1
  Te2-  Te170  1  0.49878928  -0.00066396  0.88299446  1
  Te2-  Te171  1  0.49975570  0.49990982  0.88599340  1
  Te2-  Te172  1  0.33375870  0.16836149  0.21601165  1
  Te2-  Te173  1  0.33379970  0.66815289  0.21609662  1
  Te2-  Te174  1  0.83349390  0.16738476  0.21568438  1
  Te2-  Te175  1  0.83529973  0.66913571  0.21635772  1
  Te2-  Te176  1  0.16775072  0.33360460  0.54930658  1
  Te2-  Te177  1  0.16849770  0.83442882  0.54804926  1
  Te2-  Te178  1  0.66594794  0.33339156  0.54940000  1
  Te2-  Te179  1  0.66771796  0.83323800  0.54924164  1
  Te2-  Te180  1  0.32973936  0.41197044  0.71408241  1
  Te2-  Te181  1  0.32980517  0.91278875  0.71009548  1
  Te2-  Te182  1  0.82431340  0.41418004  0.71012965  1
  Te2-  Te183  1  0.82954287  0.91595282  0.71311287  1
  Te2-  Te184  1  0.08815250  0.17387327  0.71290446  1
  Te2-  Te185  1  0.08832727  0.67188027  0.70944331  1
  Te2-  Te186  1  0.58588132  0.17093704  0.71173350  1
  Te2-  Te187  1  0.58583977  0.67341560  0.71593027  1
  Te2-  Te188  1  0.08632743  0.41310223  0.71127629  1
  Te2-  Te189  1  0.08874008  0.91698544  0.71072806  1
  Te2-  Te190  1  0.58742928  0.41599458  0.71341037  1
  Te2-  Te191  1  0.58483064  0.91115828  0.71324049  1
  Te2-  Te192  1  0.15969991  0.07768603  0.03941859  1
  Te2-  Te193  1  0.16252654  0.58108123  0.04427337  1
  Te2-  Te194  1  0.66277592  0.08343667  0.04409881  1
  Te2-  Te195  1  0.65836158  0.57773708  0.04193370  1
  Te2-  Te196  1  0.42076509  0.33902822  0.04295356  1
  Te2-  Te197  1  0.41746930  0.83987617  0.04183386  1
  Te2-  Te198  1  0.92117737  0.34326683  0.04404398  1
  Te2-  Te199  1  0.91998966  0.83826767  0.04106607  1
  Te2-  Te200  1  0.42111461  0.08188004  0.04276290  1
  Te2-  Te201  1  0.41757116  0.57693097  0.04315728  1
  Te2-  Te202  1  0.91746649  0.07803901  0.04075998  1
  Te2-  Te203  1  0.92154541  0.58156044  0.04325645  1
  Te2-  Te204  1  0.49316261  0.24856616  0.37466901  1
  Te2-  Te205  1  0.49459242  0.74863885  0.37516455  1
  Te2-  Te206  1  0.99345586  0.24550045  0.37773697  1
  Te2-  Te207  1  0.99436663  0.74790363  0.37802440  1
  Te2-  Te208  1  0.25148845  0.00546894  0.37597989  1
  Te2-  Te209  1  0.25372366  0.51070733  0.37446003  1
  Te2-  Te210  1  0.75319028  0.00471206  0.37793744  1
  Te2-  Te211  1  0.75357720  0.50586134  0.37990145  1
  Te2-  Te212  1  0.25336521  0.24892259  0.37603570  1
  Te2-  Te213  1  0.24983717  0.74609318  0.37571508  1
  Te2-  Te214  1  0.75178109  0.24483598  0.37722366  1
  Te2-  Te215  1  0.75939651  0.75075778  0.37739554  1
