# generated using pymatgen
data_Ti(CuTe)4
_symmetry_space_group_name_H-M   'P 1'
_cell_length_a   16.88219670
_cell_length_b   16.87899652
_cell_length_c   20.69775064
_cell_angle_alpha   89.97236099
_cell_angle_beta   89.97469086
_cell_angle_gamma   120.00034197
_symmetry_Int_Tables_number   1
_chemical_formula_structural   Ti(CuTe)4
_chemical_formula_sum   'Ti24 Cu96 Te96'
_cell_volume   5107.72703210
_cell_formula_units_Z   24
loop_
 _symmetry_equiv_pos_site_id
 _symmetry_equiv_pos_as_xyz
  1  'x, y, z'
loop_
 _atom_type_symbol
 _atom_type_oxidation_number
  Ti4+  4.0
  Cu+  1.0
  Te2-  -2.0
loop_
 _atom_site_type_symbol
 _atom_site_label
 _atom_site_symmetry_multiplicity
 _atom_site_fract_x
 _atom_site_fract_y
 _atom_site_fract_z
 _atom_site_occupancy
  Ti4+  Ti0  1  0.00099194  -0.00053664  0.25808890  1
  Ti4+  Ti1  1  0.00091200  0.49805745  0.26025674  1
  Ti4+  Ti2  1  0.50152007  -0.00113556  0.25549730  1
  Ti4+  Ti3  1  0.50089342  0.50143783  0.25872920  1
  Ti4+  Ti4  1  0.33511388  0.16831022  0.58938646  1
  Ti4+  Ti5  1  0.32950375  0.66144206  0.59394876  1
  Ti4+  Ti6  1  0.83358383  0.16356981  0.59158167  1
  Ti4+  Ti7  1  0.83554306  0.66758721  0.58988536  1
  Ti4+  Ti8  1  0.16380296  0.33648627  0.92798349  1
  Ti4+  Ti9  1  0.16767713  0.83679581  0.92273713  1
  Ti4+  Ti10  1  0.66502419  0.33648198  0.92157343  1
  Ti4+  Ti11  1  0.66775579  0.83465116  0.92322315  1
  Ti4+  Ti12  1  -0.00184027  0.00053598  0.75582701  1
  Ti4+  Ti13  1  0.00057487  0.49860590  0.75611351  1
  Ti4+  Ti14  1  0.49648656  -0.00112527  0.75312792  1
  Ti4+  Ti15  1  0.50226813  0.50056418  0.75534566  1
  Ti4+  Ti16  1  0.33183552  0.16736960  0.08765936  1
  Ti4+  Ti17  1  0.33459875  0.66827692  0.08936708  1
  Ti4+  Ti18  1  0.83232738  0.16725641  0.08836098  1
  Ti4+  Ti19  1  0.83303103  0.66707355  0.08985588  1
  Ti4+  Ti20  1  0.16837909  0.33349015  0.42279814  1
  Ti4+  Ti21  1  0.16550899  0.83025682  0.42126162  1
  Ti4+  Ti22  1  0.66513471  0.33146027  0.42093219  1
  Ti4+  Ti23  1  0.66857265  0.83343985  0.42439508  1
  Cu+  Cu24  1  0.86105528  0.92926650  0.47304798  1
  Cu+  Cu25  1  0.06949533  0.64466117  0.47511220  1
  Cu+  Cu26  1  0.07534939  0.41755287  0.48388397  1
  Cu+  Cu27  1  0.18205886  0.59430073  0.81489515  1
  Cu+  Cu28  1  0.52480877  0.76131844  0.14070568  1
  Cu+  Cu29  1  0.40384795  0.09719463  0.80528955  1
  Cu+  Cu30  1  0.01497464  0.25372725  0.14582796  1
  Cu+  Cu31  1  0.90420980  0.09783454  0.80911642  1
  Cu+  Cu32  1  0.35656461  0.42873859  0.47532510  1
  Cu+  Cu33  1  0.24764849  0.49021089  0.15141195  1
  Cu+  Cu34  1  0.69341510  0.59812474  0.80458677  1
  Cu+  Cu35  1  0.41290545  0.59373512  0.81225930  1
  Cu+  Cu36  1  0.16329219  0.08035270  0.17004055  1
  Cu+  Cu37  1  0.16126329  0.57799546  0.17253565  1
  Cu+  Cu38  1  0.66161572  0.07930547  0.16884547  1
  Cu+  Cu39  1  0.66472143  0.58265033  0.17170680  1
  Cu+  Cu40  1  0.41559940  0.33436313  0.17088521  1
  Cu+  Cu41  1  0.42514048  0.83765012  0.16919603  1
  Cu+  Cu42  1  0.92168028  0.33486886  0.17110635  1
  Cu+  Cu43  1  0.91644608  0.83511097  0.17273051  1
  Cu+  Cu44  1  0.41767586  0.08159614  0.16944921  1
  Cu+  Cu45  1  0.42252967  0.58396308  0.17139362  1
  Cu+  Cu46  1  0.91904689  0.08120956  0.17188312  1
  Cu+  Cu47  1  0.91953265  0.58391224  0.17349510  1
  Cu+  Cu48  1  0.49617271  0.24646738  0.50250987  1
  Cu+  Cu49  1  0.49668955  0.74514556  0.50736103  1
  Cu+  Cu50  1  0.99276122  0.24375080  0.50456622  1
  Cu+  Cu51  1  0.99508327  0.74383059  0.50203975  1
  Cu+  Cu52  1  0.25175171  0.00217444  0.50387637  1
  Cu+  Cu53  1  0.25268656  0.50257911  0.50517562  1
  Cu+  Cu54  1  0.75742412  -0.00032922  0.50579002  1
  Cu+  Cu55  1  0.74830172  0.50088129  0.50300854  1
  Cu+  Cu56  1  0.25819846  0.25345606  0.50330067  1
  Cu+  Cu57  1  0.24277487  0.74080137  0.50425314  1
  Cu+  Cu58  1  0.74924454  0.24696928  0.50374541  1
  Cu+  Cu59  1  0.75707973  0.75423257  0.50530251  1
  Cu+  Cu60  1  0.33056936  0.42055363  0.83943737  1
  Cu+  Cu61  1  0.32832172  0.92075409  0.83402081  1
  Cu+  Cu62  1  0.82946274  0.41688214  0.83647751  1
  Cu+  Cu63  1  0.82982251  0.92012069  0.83594558  1
  Cu+  Cu64  1  0.07660516  0.16873424  0.83998967  1
  Cu+  Cu65  1  0.08665938  0.67135220  0.83765926  1
  Cu+  Cu66  1  0.57794022  0.16914876  0.83486291  1
  Cu+  Cu67  1  0.58834654  0.67037500  0.83649353  1
  Cu+  Cu68  1  0.08768358  0.41819694  0.83964103  1
  Cu+  Cu69  1  0.08425889  0.91596847  0.83645283  1
  Cu+  Cu70  1  0.59226317  0.42164016  0.83401719  1
  Cu+  Cu71  1  0.58284521  0.91444487  0.83538927  1
  Cu+  Cu72  1  0.16924771  0.08611476  0.67243835  1
  Cu+  Cu73  1  0.16715830  0.57882589  0.68343044  1
  Cu+  Cu74  1  0.66669468  0.07979609  0.67264450  1
  Cu+  Cu75  1  0.67263496  0.58611332  0.67626164  1
  Cu+  Cu76  1  0.41851653  0.33243048  0.67402891  1
  Cu+  Cu77  1  0.41121750  0.82778682  0.67498013  1
  Cu+  Cu78  1  0.91584275  0.32871822  0.67665466  1
  Cu+  Cu79  1  0.91677426  0.83241749  0.67430838  1
  Cu+  Cu80  1  0.41319917  0.08401123  0.67640266  1
  Cu+  Cu81  1  0.41383418  0.58117176  0.68238431  1
  Cu+  Cu82  1  0.91399431  0.08371877  0.68013216  1
  Cu+  Cu83  1  0.91608468  0.58257257  0.67428463  1
  Cu+  Cu84  1  -0.00035615  0.25258058  0.01539683  1
  Cu+  Cu85  1  0.00353774  0.75254170  0.00698996  1
  Cu+  Cu86  1  0.49999947  0.25356878  0.00471194  1
  Cu+  Cu87  1  0.50319129  0.75116839  0.01206969  1
  Cu+  Cu88  1  0.24699576  0.50068505  0.01891960  1
  Cu+  Cu89  1  0.24882627  1.00096027  0.00709901  1
  Cu+  Cu90  1  0.74918599  0.50011484  0.00819257  1
  Cu+  Cu91  1  0.74848426  0.99989789  0.00828976  1
  Cu+  Cu92  1  0.24546732  0.25229753  0.00951035  1
  Cu+  Cu93  1  0.24880150  0.75437980  0.00739910  1
  Cu+  Cu94  1  0.74456011  0.25212522  0.00551806  1
  Cu+  Cu95  1  0.74921804  0.75045921  0.00755547  1
  Cu+  Cu96  1  0.33803799  0.42006235  0.34684137  1
  Cu+  Cu97  1  0.33770399  0.91635997  0.33809500  1
  Cu+  Cu98  1  0.83405917  0.41568884  0.34159775  1
  Cu+  Cu99  1  0.83960682  0.91969984  0.34517928  1
  Cu+  Cu100  1  0.08351049  0.16457176  0.34239507  1
  Cu+  Cu101  1  0.08213892  0.66083438  0.34683590  1
  Cu+  Cu102  1  0.58083458  0.16244701  0.33889963  1
  Cu+  Cu103  1  0.58251138  0.66630412  0.34297535  1
  Cu+  Cu104  1  0.08324789  0.41606598  0.35105998  1
  Cu+  Cu105  1  0.08289420  0.91550081  0.34054331  1
  Cu+  Cu106  1  0.57994039  0.41536079  0.34140485  1
  Cu+  Cu107  1  0.58237107  0.91653552  0.34147098  1
  Cu+  Cu108  1  -0.00141335  -0.00337541  0.11484072  1
  Cu+  Cu109  1  -0.00578549  0.49935277  0.11670293  1
  Cu+  Cu110  1  0.49808874  0.00286493  0.11117674  1
  Cu+  Cu111  1  0.50281967  0.49606768  0.11524472  1
  Cu+  Cu112  1  0.33109548  0.16141071  0.44571458  1
  Cu+  Cu113  1  0.33747457  0.67311727  0.45009509  1
  Cu+  Cu114  1  0.82490624  0.16179347  0.44866430  1
  Cu+  Cu115  1  0.82879414  0.66269622  0.44642219  1
  Cu+  Cu116  1  0.16936846  0.32939997  0.78488877  1
  Cu+  Cu117  1  0.16213243  0.83206880  0.77835124  1
  Cu+  Cu118  1  0.66930138  0.32944358  0.77747579  1
  Cu+  Cu119  1  0.66550301  0.83452863  0.77857655  1
  Te2-  Te120  1  0.00591606  0.00119975  0.38887223  1
  Te2-  Te121  1  -0.00380578  0.49521322  0.39222769  1
  Te2-  Te122  1  0.50036955  -0.00100935  0.38476492  1
  Te2-  Te123  1  0.50446144  0.50274310  0.38937345  1
  Te2-  Te124  1  0.33195124  0.16908148  0.72003273  1
  Te2-  Te125  1  0.33311773  0.66638043  0.72587805  1
  Te2-  Te126  1  0.82878161  0.16508251  0.72209028  1
  Te2-  Te127  1  0.83881969  0.66905604  0.72034518  1
  Te2-  Te128  1  0.16553488  0.33412804  0.05960269  1
  Te2-  Te129  1  0.16740002  0.83682160  0.05165031  1
  Te2-  Te130  1  0.66357099  0.33485483  0.05033682  1
  Te2-  Te131  1  0.67044492  0.83548986  0.05343057  1
  Te2-  Te132  1  0.49180754  0.25359863  0.87895351  1
  Te2-  Te133  1  0.49464155  0.74852969  0.88421205  1
  Te2-  Te134  1  0.99108664  0.25196341  0.88752726  1
  Te2-  Te135  1  0.99628174  0.74865685  0.88095478  1
  Te2-  Te136  1  0.25109127  0.01111839  0.88136826  1
  Te2-  Te137  1  0.25525724  0.51322492  0.88945862  1
  Te2-  Te138  1  0.74932889  0.00827508  0.88232566  1
  Te2-  Te139  1  0.75854576  0.51215556  0.88243260  1
  Te2-  Te140  1  0.24709545  0.25124858  0.88282891  1
  Te2-  Te141  1  0.25843642  0.75361810  0.88175754  1
  Te2-  Te142  1  0.74734217  0.24800718  0.87920898  1
  Te2-  Te143  1  0.75741138  0.75178279  0.88150068  1
  Te2-  Te144  1  0.32755367  0.41271694  0.21935766  1
  Te2-  Te145  1  0.33069254  0.91206630  0.21213746  1
  Te2-  Te146  1  0.83222189  0.41372602  0.21539476  1
  Te2-  Te147  1  0.82923582  0.91498947  0.21821826  1
  Te2-  Te148  1  0.09007634  0.17350925  0.21685258  1
  Te2-  Te149  1  0.08681442  0.66891478  0.21973200  1
  Te2-  Te150  1  0.58591167  0.17058038  0.21323126  1
  Te2-  Te151  1  0.59044786  0.67527698  0.21725333  1
  Te2-  Te152  1  0.08945659  0.40952601  0.22180845  1
  Te2-  Te153  1  0.08527185  0.91311090  0.21484486  1
  Te2-  Te154  1  0.58366561  0.41416110  0.21511739  1
  Te2-  Te155  1  0.59281376  0.91395631  0.21600204  1
  Te2-  Te156  1  0.16452500  0.08441418  0.54648812  1
  Te2-  Te157  1  0.15364766  0.57332422  0.55470564  1
  Te2-  Te158  1  0.66445154  0.07761070  0.54652788  1
  Te2-  Te159  1  0.66495532  0.58485490  0.54891716  1
  Te2-  Te160  1  0.42664765  0.34342107  0.54872787  1
  Te2-  Te161  1  0.41166368  0.83022576  0.54864289  1
  Te2-  Te162  1  0.91640986  0.33722380  0.55085668  1
  Te2-  Te163  1  0.92651939  0.84134700  0.54878554  1
  Te2-  Te164  1  0.41882159  0.08025794  0.54942184  1
  Te2-  Te165  1  0.41979042  0.57853553  0.55445559  1
  Te2-  Te166  1  0.92492519  0.08011592  0.55320329  1
  Te2-  Te167  1  0.91587645  0.57458990  0.54865811  1
  Te2-  Te168  1  -0.00161011  -0.00092776  0.88272916  1
  Te2-  Te169  1  -0.00148713  0.50097590  0.88297210  1
  Te2-  Te170  1  0.49793973  -0.00011909  0.87996635  1
  Te2-  Te171  1  0.50112651  0.50015637  0.88297616  1
  Te2-  Te172  1  0.33267095  0.16496369  0.21393351  1
  Te2-  Te173  1  0.33377411  0.66746305  0.21677026  1
  Te2-  Te174  1  0.83117893  0.16430509  0.21530628  1
  Te2-  Te175  1  0.83324753  0.66619470  0.21622001  1
  Te2-  Te176  1  0.16493897  0.33021750  0.55026278  1
  Te2-  Te177  1  0.16483336  0.83267726  0.54825449  1
  Te2-  Te178  1  0.66515721  0.33166273  0.54732787  1
  Te2-  Te179  1  0.66531088  0.83113514  0.55128277  1
  Te2-  Te180  1  0.32721848  0.40967333  0.71238663  1
  Te2-  Te181  1  0.32358897  0.91106211  0.70758924  1
  Te2-  Te182  1  0.82905332  0.41306453  0.71026638  1
  Te2-  Te183  1  0.82576529  0.91094851  0.70949951  1
  Te2-  Te184  1  0.08680801  0.17296735  0.71177132  1
  Te2-  Te185  1  0.08560279  0.67130145  0.70994470  1
  Te2-  Te186  1  0.58627088  0.17051765  0.70709378  1
  Te2-  Te187  1  0.58774873  0.67365038  0.70866079  1
  Te2-  Te188  1  0.08455353  0.40715743  0.71367475  1
  Te2-  Te189  1  0.08628358  0.91677568  0.71029246  1
  Te2-  Te190  1  0.58838558  0.41372346  0.70832589  1
  Te2-  Te191  1  0.58181544  0.91060631  0.70939514  1
  Te2-  Te192  1  0.15938723  0.08156609  0.04381822  1
  Te2-  Te193  1  0.15935301  0.58554941  0.04631381  1
  Te2-  Te194  1  0.66047723  0.08219348  0.04291478  1
  Te2-  Te195  1  0.66129972  0.58159090  0.04502317  1
  Te2-  Te196  1  0.41659944  0.33954964  0.04377213  1
  Te2-  Te197  1  0.41932389  0.84040082  0.04259385  1
  Te2-  Te198  1  0.91457488  0.34062784  0.04412590  1
  Te2-  Te199  1  0.91904261  0.83808803  0.04517514  1
  Te2-  Te200  1  0.41900204  0.08374534  0.04220880  1
  Te2-  Te201  1  0.42060259  0.57942217  0.04409919  1
  Te2-  Te202  1  0.91822981  0.07926868  0.04426054  1
  Te2-  Te203  1  0.91955842  0.58266743  0.04570019  1
  Te2-  Te204  1  0.49347060  0.24488769  0.37637270  1
  Te2-  Te205  1  0.49603288  0.74804753  0.38060024  1
  Te2-  Te206  1  0.99314157  0.24298856  0.37865645  1
  Te2-  Te207  1  0.99252248  0.74512352  0.37557482  1
  Te2-  Te208  1  0.25316441  0.00172805  0.37659160  1
  Te2-  Te209  1  0.25568357  0.50935557  0.37855647  1
  Te2-  Te210  1  0.75272202  0.00484739  0.37815774  1
  Te2-  Te211  1  0.75109672  0.50348774  0.37624687  1
  Te2-  Te212  1  0.25403359  0.24652971  0.37664116  1
  Te2-  Te213  1  0.25501302  0.74685976  0.37692546  1
  Te2-  Te214  1  0.75082817  0.24527902  0.37683601  1
  Te2-  Te215  1  0.75337026  0.74691750  0.37776771  1
