# generated using pymatgen
data_Ti(CuTe)4
_symmetry_space_group_name_H-M   'P 1'
_cell_length_a   16.85220329
_cell_length_b   16.85565501
_cell_length_c   20.65646163
_cell_angle_alpha   90.00056789
_cell_angle_beta   90.03417262
_cell_angle_gamma   120.00501215
_symmetry_Int_Tables_number   1
_chemical_formula_structural   Ti(CuTe)4
_chemical_formula_sum   'Ti24 Cu96 Te96'
_cell_volume   5081.20649368
_cell_formula_units_Z   24
loop_
 _symmetry_equiv_pos_site_id
 _symmetry_equiv_pos_as_xyz
  1  'x, y, z'
loop_
 _atom_type_symbol
 _atom_type_oxidation_number
  Ti4+  4.0
  Cu+  1.0
  Te2-  -2.0
loop_
 _atom_site_type_symbol
 _atom_site_label
 _atom_site_symmetry_multiplicity
 _atom_site_fract_x
 _atom_site_fract_y
 _atom_site_fract_z
 _atom_site_occupancy
  Ti4+  Ti0  1  -0.00137296  -0.00265074  0.25747959  1
  Ti4+  Ti1  1  0.00101416  0.49988552  0.25723366  1
  Ti4+  Ti2  1  0.50289844  0.00001416  0.25650799  1
  Ti4+  Ti3  1  0.49660235  0.49517841  0.25434443  1
  Ti4+  Ti4  1  0.33189575  0.16763272  0.59200648  1
  Ti4+  Ti5  1  0.33524017  0.67063427  0.59329696  1
  Ti4+  Ti6  1  0.83218854  0.16783875  0.59204991  1
  Ti4+  Ti7  1  0.83513684  0.66927888  0.59242950  1
  Ti4+  Ti8  1  0.16337449  0.33212208  0.92501700  1
  Ti4+  Ti9  1  0.16480632  0.82970577  0.92811594  1
  Ti4+  Ti10  1  0.66567506  0.33312966  0.92354086  1
  Ti4+  Ti11  1  0.66790764  0.83468570  0.92207924  1
  Ti4+  Ti12  1  -0.00047412  0.00105086  0.75826803  1
  Ti4+  Ti13  1  0.00164689  0.50214532  0.75619199  1
  Ti4+  Ti14  1  0.49974292  -0.00026332  0.75762971  1
  Ti4+  Ti15  1  0.50074516  0.50031398  0.75517652  1
  Ti4+  Ti16  1  0.33568054  0.16864835  0.08463760  1
  Ti4+  Ti17  1  0.33260332  0.66521448  0.08661054  1
  Ti4+  Ti18  1  0.83207873  0.16370027  0.08941585  1
  Ti4+  Ti19  1  0.83539190  0.66828068  0.08757237  1
  Ti4+  Ti20  1  0.16764472  0.33199082  0.42295709  1
  Ti4+  Ti21  1  0.16666447  0.83511574  0.42401537  1
  Ti4+  Ti22  1  0.66794449  0.33266016  0.42144508  1
  Ti4+  Ti23  1  0.66580357  0.83394179  0.42359736  1
  Cu+  Cu24  1  0.57075430  0.93162029  0.47641960  1
  Cu+  Cu25  1  0.52442051  0.26188083  0.13801532  1
  Cu+  Cu26  1  0.06942145  0.93080404  0.47693457  1
  Cu+  Cu27  1  0.90239205  0.09550057  0.80613582  1
  Cu+  Cu28  1  0.24789139  0.99242427  0.14648355  1
  Cu+  Cu29  1  0.23520528  0.48081425  0.14110995  1
  Cu+  Cu30  1  0.01424902  0.75671909  0.14763865  1
  Cu+  Cu31  1  0.40267652  0.80827211  0.81017025  1
  Cu+  Cu32  1  0.24832318  0.75421717  0.15066566  1
  Cu+  Cu33  1  0.73457500  0.96935021  0.13862063  1
  Cu+  Cu34  1  0.90654866  0.81043979  0.80883151  1
  Cu+  Cu35  1  0.23827827  0.25148894  0.14129700  1
  Cu+  Cu36  1  0.15898840  0.07877959  0.16674095  1
  Cu+  Cu37  1  0.15963554  0.57804348  0.16778762  1
  Cu+  Cu38  1  0.66575356  0.07556404  0.16972240  1
  Cu+  Cu39  1  0.66359750  0.58092145  0.16807375  1
  Cu+  Cu40  1  0.42000171  0.33870087  0.16265822  1
  Cu+  Cu41  1  0.42346302  0.83938053  0.16784847  1
  Cu+  Cu42  1  0.91736864  0.33493580  0.17062043  1
  Cu+  Cu43  1  0.92044617  0.83714387  0.16908001  1
  Cu+  Cu44  1  0.42419511  0.08568855  0.16508280  1
  Cu+  Cu45  1  0.41301354  0.57562346  0.16606539  1
  Cu+  Cu46  1  0.90989681  0.07468717  0.16970654  1
  Cu+  Cu47  1  0.91881854  0.58255035  0.16969935  1
  Cu+  Cu48  1  0.49865345  0.24951992  0.50473774  1
  Cu+  Cu49  1  0.49787212  0.75546625  0.50585658  1
  Cu+  Cu50  1  0.99874841  0.24861883  0.50678408  1
  Cu+  Cu51  1  0.99708935  0.75437889  0.50602177  1
  Cu+  Cu52  1  0.24623191  0.00443461  0.50527939  1
  Cu+  Cu53  1  0.25054840  0.50211406  0.50687640  1
  Cu+  Cu54  1  0.74742606  0.00447318  0.50612019  1
  Cu+  Cu55  1  0.75169261  0.50202248  0.50519364  1
  Cu+  Cu56  1  0.25314764  0.24861302  0.50457208  1
  Cu+  Cu57  1  0.25440505  0.75143377  0.50676527  1
  Cu+  Cu58  1  0.75424930  0.25036705  0.50397599  1
  Cu+  Cu59  1  0.75272144  0.74927638  0.50562632  1
  Cu+  Cu60  1  0.33135272  0.41484191  0.83963561  1
  Cu+  Cu61  1  0.33176463  0.91054903  0.84211828  1
  Cu+  Cu62  1  0.83180479  0.41579447  0.83763115  1
  Cu+  Cu63  1  0.83258357  0.91777448  0.83741231  1
  Cu+  Cu64  1  0.07868057  0.17024102  0.83893010  1
  Cu+  Cu65  1  0.08464984  0.66967825  0.83997407  1
  Cu+  Cu66  1  0.58344778  0.17115136  0.83906179  1
  Cu+  Cu67  1  0.58507879  0.66878235  0.83533991  1
  Cu+  Cu68  1  0.08544906  0.41711911  0.83835072  1
  Cu+  Cu69  1  0.08006616  0.90949553  0.84141365  1
  Cu+  Cu70  1  0.58262709  0.41312772  0.83792576  1
  Cu+  Cu71  1  0.58193931  0.91342402  0.83700997  1
  Cu+  Cu72  1  0.16887092  0.08551037  0.67781845  1
  Cu+  Cu73  1  0.16960968  0.58734843  0.67608887  1
  Cu+  Cu74  1  0.66720474  0.08637811  0.67636051  1
  Cu+  Cu75  1  0.67033308  0.58438162  0.67511983  1
  Cu+  Cu76  1  0.41481123  0.33105547  0.67411694  1
  Cu+  Cu77  1  0.41638876  0.83152546  0.68184430  1
  Cu+  Cu78  1  0.91830078  0.33349561  0.67493028  1
  Cu+  Cu79  1  0.91774157  0.83189099  0.68087101  1
  Cu+  Cu80  1  0.41372224  0.08527582  0.67480619  1
  Cu+  Cu81  1  0.41677429  0.58612052  0.67524289  1
  Cu+  Cu82  1  0.91534061  0.08849338  0.67828477  1
  Cu+  Cu83  1  0.91969246  0.58837704  0.67476542  1
  Cu+  Cu84  1  -0.00105276  0.24924991  0.00783094  1
  Cu+  Cu85  1  0.00278891  0.75202299  0.01592685  1
  Cu+  Cu86  1  0.50614153  0.25405434  0.00999466  1
  Cu+  Cu87  1  0.50164312  0.75146715  0.00605252  1
  Cu+  Cu88  1  0.24839945  0.49506796  0.01168209  1
  Cu+  Cu89  1  0.24939579  0.99694834  0.01342372  1
  Cu+  Cu90  1  0.74862982  0.49841655  0.00507786  1
  Cu+  Cu91  1  0.74835975  0.99579976  0.01008617  1
  Cu+  Cu92  1  0.24832514  0.25238267  0.01060595  1
  Cu+  Cu93  1  0.25064454  0.75113313  0.01703270  1
  Cu+  Cu94  1  0.74809036  0.25020358  0.00615998  1
  Cu+  Cu95  1  0.75232374  0.75343474  0.00634726  1
  Cu+  Cu96  1  0.33329194  0.41393044  0.34079910  1
  Cu+  Cu97  1  0.33464474  0.91663280  0.34282250  1
  Cu+  Cu98  1  0.83690916  0.41820454  0.34041488  1
  Cu+  Cu99  1  0.83287486  0.91388996  0.34330258  1
  Cu+  Cu100  1  0.08305986  0.16365793  0.34151607  1
  Cu+  Cu101  1  0.08528730  0.66601725  0.34507876  1
  Cu+  Cu102  1  0.58598212  0.16566071  0.34005432  1
  Cu+  Cu103  1  0.58101817  0.66209861  0.33935701  1
  Cu+  Cu104  1  0.08393752  0.41715395  0.34257669  1
  Cu+  Cu105  1  0.08265195  0.91744833  0.34826770  1
  Cu+  Cu106  1  0.58190625  0.41486477  0.33894793  1
  Cu+  Cu107  1  0.58339963  0.91790285  0.34745306  1
  Cu+  Cu108  1  -0.00306804  0.00108236  0.11081395  1
  Cu+  Cu109  1  -0.00722177  0.49498362  0.11094665  1
  Cu+  Cu110  1  0.50407958  0.00325604  0.11022884  1
  Cu+  Cu111  1  0.50477199  0.50536414  0.10838866  1
  Cu+  Cu112  1  0.33857129  0.16918502  0.44762052  1
  Cu+  Cu113  1  0.33367516  0.66178711  0.45053205  1
  Cu+  Cu114  1  0.83765753  0.16958013  0.44862623  1
  Cu+  Cu115  1  0.83115850  0.66185474  0.44917944  1
  Cu+  Cu116  1  0.17058652  0.33807570  0.78308596  1
  Cu+  Cu117  1  0.16999610  0.83682506  0.78562359  1
  Cu+  Cu118  1  0.67069364  0.33755298  0.78099303  1
  Cu+  Cu119  1  0.66677636  0.83248739  0.77861918  1
  Te2-  Te120  1  -0.00270010  0.00014498  0.38777977  1
  Te2-  Te121  1  0.00123033  0.49967756  0.38608127  1
  Te2-  Te122  1  0.49957862  0.00219976  0.38662937  1
  Te2-  Te123  1  0.49910120  0.49694036  0.38306064  1
  Te2-  Te124  1  0.33328860  0.16811749  0.72168295  1
  Te2-  Te125  1  0.33234587  0.66425423  0.72422209  1
  Te2-  Te126  1  0.83095969  0.17074977  0.72281267  1
  Te2-  Te127  1  0.83333261  0.66456802  0.72332080  1
  Te2-  Te128  1  0.16105428  0.32956720  0.05771755  1
  Te2-  Te129  1  0.16781395  0.83346835  0.06239646  1
  Te2-  Te130  1  0.67202954  0.33640874  0.05469838  1
  Te2-  Te131  1  0.66463263  0.82878068  0.05266853  1
  Te2-  Te132  1  0.49230337  0.24650450  0.88382099  1
  Te2-  Te133  1  0.49400765  0.74394354  0.88119674  1
  Te2-  Te134  1  0.98957590  0.24971124  0.88285193  1
  Te2-  Te135  1  0.99100403  0.74166318  0.88833421  1
  Te2-  Te136  1  0.24949386  -0.00156336  0.88530302  1
  Te2-  Te137  1  0.25204865  0.50366487  0.88477823  1
  Te2-  Te138  1  0.75086256  0.00758337  0.88269765  1
  Te2-  Te139  1  0.75152345  0.50421301  0.87962199  1
  Te2-  Te140  1  0.24711206  0.24507590  0.88334215  1
  Te2-  Te141  1  0.25042053  0.74165396  0.88887740  1
  Te2-  Te142  1  0.75168101  0.24739254  0.88070462  1
  Te2-  Te143  1  0.75255283  0.74631404  0.88081003  1
  Te2-  Te144  1  0.32007360  0.40679953  0.21399225  1
  Te2-  Te145  1  0.32790860  0.91508371  0.21629811  1
  Te2-  Te146  1  0.83022473  0.41585730  0.21436987  1
  Te2-  Te147  1  0.82489673  0.90656106  0.21691899  1
  Te2-  Te148  1  0.08022776  0.16888297  0.21474192  1
  Te2-  Te149  1  0.08999214  0.67627552  0.21836657  1
  Te2-  Te150  1  0.59169854  0.17188310  0.21338877  1
  Te2-  Te151  1  0.58048650  0.66615174  0.21285898  1
  Te2-  Te152  1  0.08431004  0.40971396  0.21657751  1
  Te2-  Te153  1  0.09032475  0.91315993  0.21954010  1
  Te2-  Te154  1  0.58757088  0.41291754  0.21285734  1
  Te2-  Te155  1  0.58572614  0.90815321  0.21928537  1
  Te2-  Te156  1  0.15650792  0.08323097  0.55188076  1
  Te2-  Te157  1  0.16379849  0.58395942  0.55026052  1
  Te2-  Te158  1  0.65777226  0.08476721  0.55051251  1
  Te2-  Te159  1  0.66376596  0.58187169  0.54928422  1
  Te2-  Te160  1  0.42023640  0.33911787  0.54831329  1
  Te2-  Te161  1  0.41973002  0.84562602  0.55420618  1
  Te2-  Te162  1  0.92087181  0.33913560  0.54918477  1
  Te2-  Te163  1  0.91844471  0.84424572  0.55360510  1
  Te2-  Te164  1  0.41523961  0.08028901  0.54846507  1
  Te2-  Te165  1  0.42050187  0.58599009  0.54869862  1
  Te2-  Te166  1  0.91593785  0.08014873  0.55138070  1
  Te2-  Te167  1  0.92131994  0.58525904  0.54842199  1
  Te2-  Te168  1  0.00100094  0.00077336  0.88585033  1
  Te2-  Te169  1  -0.00061906  0.49955965  0.88297156  1
  Te2-  Te170  1  0.50190236  0.00181481  0.88482075  1
  Te2-  Te171  1  0.50093815  0.50054302  0.88191778  1
  Te2-  Te172  1  0.33404305  0.16754600  0.21324311  1
  Te2-  Te173  1  0.33389058  0.66636571  0.21465549  1
  Te2-  Te174  1  0.83400453  0.16670219  0.21678976  1
  Te2-  Te175  1  0.83236147  0.66620405  0.21515410  1
  Te2-  Te176  1  0.16827259  0.33335992  0.54974062  1
  Te2-  Te177  1  0.16718484  0.83481435  0.55089571  1
  Te2-  Te178  1  0.66784632  0.33342033  0.54817110  1
  Te2-  Te179  1  0.66755501  0.83411544  0.55055321  1
  Te2-  Te180  1  0.32883511  0.41529610  0.71168431  1
  Te2-  Te181  1  0.32721302  0.91573952  0.71360332  1
  Te2-  Te182  1  0.83062661  0.41690755  0.71010535  1
  Te2-  Te183  1  0.82738308  0.91558955  0.70978755  1
  Te2-  Te184  1  0.08717113  0.17402820  0.71229192  1
  Te2-  Te185  1  0.08854465  0.67559638  0.71344893  1
  Te2-  Te186  1  0.58329551  0.17199068  0.71258371  1
  Te2-  Te187  1  0.58744360  0.67230596  0.70924050  1
  Te2-  Te188  1  0.08823748  0.41650561  0.71150625  1
  Te2-  Te189  1  0.08904353  0.91650277  0.71424264  1
  Te2-  Te190  1  0.58563243  0.41353693  0.71064379  1
  Te2-  Te191  1  0.58954011  0.91687857  0.71051533  1
  Te2-  Te192  1  0.15899583  0.07951832  0.03962355  1
  Te2-  Te193  1  0.15693735  0.57684160  0.04091755  1
  Te2-  Te194  1  0.66093392  0.08068024  0.04188544  1
  Te2-  Te195  1  0.66421520  0.58316904  0.04120620  1
  Te2-  Te196  1  0.42158403  0.34304130  0.03665742  1
  Te2-  Te197  1  0.42371931  0.84125147  0.04184043  1
  Te2-  Te198  1  0.91691082  0.33594870  0.04384826  1
  Te2-  Te199  1  0.92057097  0.84269350  0.04218409  1
  Te2-  Te200  1  0.42281227  0.08053012  0.03815828  1
  Te2-  Te201  1  0.42152289  0.58145028  0.03946757  1
  Te2-  Te202  1  0.92012454  0.07991002  0.04184891  1
  Te2-  Te203  1  0.91823909  0.57816053  0.04187232  1
  Te2-  Te204  1  0.49614440  0.24590144  0.37662243  1
  Te2-  Te205  1  0.49354966  0.74437531  0.37786822  1
  Te2-  Te206  1  0.99597958  0.24667937  0.37854787  1
  Te2-  Te207  1  0.99323411  0.74472356  0.37847617  1
  Te2-  Te208  1  0.25590449  0.00789498  0.37742341  1
  Te2-  Te209  1  0.25349932  0.50387416  0.37877909  1
  Te2-  Te210  1  0.75610638  0.00706924  0.37846800  1
  Te2-  Te211  1  0.75224853  0.50395401  0.37693907  1
  Te2-  Te212  1  0.25250527  0.24454369  0.37763450  1
  Te2-  Te213  1  0.25465425  0.74869524  0.38053252  1
  Te2-  Te214  1  0.75559737  0.24802950  0.37687730  1
  Te2-  Te215  1  0.74980588  0.74485314  0.37907284  1
