# generated using pymatgen
data_Ti(CuTe)4
_symmetry_space_group_name_H-M   'P 1'
_cell_length_a   16.86498968
_cell_length_b   16.86580661
_cell_length_c   20.67752483
_cell_angle_alpha   90.00471631
_cell_angle_beta   90.00074123
_cell_angle_gamma   119.99147984
_symmetry_Int_Tables_number   1
_chemical_formula_structural   Ti(CuTe)4
_chemical_formula_sum   'Ti24 Cu96 Te96'
_cell_volume   5094.00839058
_cell_formula_units_Z   24
loop_
 _symmetry_equiv_pos_site_id
 _symmetry_equiv_pos_as_xyz
  1  'x, y, z'
loop_
 _atom_type_symbol
 _atom_type_oxidation_number
  Ti4+  4.0
  Cu+  1.0
  Te2-  -2.0
loop_
 _atom_site_type_symbol
 _atom_site_label
 _atom_site_symmetry_multiplicity
 _atom_site_fract_x
 _atom_site_fract_y
 _atom_site_fract_z
 _atom_site_occupancy
  Ti4+  Ti0  1  -0.00462638  -0.00199285  0.25748808  1
  Ti4+  Ti1  1  -0.00056859  0.50192206  0.25501098  1
  Ti4+  Ti2  1  0.49826483  0.00164046  0.25797784  1
  Ti4+  Ti3  1  0.49779917  0.49951993  0.26107094  1
  Ti4+  Ti4  1  0.33439947  0.16830548  0.59185943  1
  Ti4+  Ti5  1  0.33154177  0.66841534  0.59395505  1
  Ti4+  Ti6  1  0.83060710  0.16447144  0.58830214  1
  Ti4+  Ti7  1  0.83037318  0.66734146  0.59162780  1
  Ti4+  Ti8  1  0.17038379  0.33113365  0.92124834  1
  Ti4+  Ti9  1  0.17128421  0.83216689  0.92333315  1
  Ti4+  Ti10  1  0.66992666  0.33505613  0.92451095  1
  Ti4+  Ti11  1  0.66935240  0.83148258  0.92759904  1
  Ti4+  Ti12  1  0.00099545  0.00119942  0.75650331  1
  Ti4+  Ti13  1  0.00037195  0.50011561  0.75378397  1
  Ti4+  Ti14  1  0.49811261  -0.00111278  0.75678310  1
  Ti4+  Ti15  1  0.50141540  0.50119811  0.75428686  1
  Ti4+  Ti16  1  0.33535370  0.16649117  0.09072310  1
  Ti4+  Ti17  1  0.33370630  0.66699689  0.08897558  1
  Ti4+  Ti18  1  0.83376093  0.16643818  0.08731416  1
  Ti4+  Ti19  1  0.83458523  0.66742104  0.08824842  1
  Ti4+  Ti20  1  0.16527572  0.33384288  0.42187550  1
  Ti4+  Ti21  1  0.16581273  0.83301178  0.42422673  1
  Ti4+  Ti22  1  0.66306964  0.33267879  0.42267070  1
  Ti4+  Ti23  1  0.66832463  0.83574722  0.42288090  1
  Cu+  Cu24  1  0.23732411  0.76325126  0.14012189  1
  Cu+  Cu25  1  0.41563550  0.81473047  0.81067155  1
  Cu+  Cu26  1  0.73615173  0.98490075  0.14424446  1
  Cu+  Cu27  1  0.73750380  0.26160407  0.14096662  1
  Cu+  Cu28  1  0.41764601  0.31983325  0.80861073  1
  Cu+  Cu29  1  0.56895557  0.14339081  0.47402808  1
  Cu+  Cu30  1  0.56883022  0.42824658  0.47581169  1
  Cu+  Cu31  1  0.73543501  0.75168505  0.14630365  1
  Cu+  Cu32  1  0.18918583  0.08751687  0.80714512  1
  Cu+  Cu33  1  0.69216570  0.59465194  0.80744537  1
  Cu+  Cu34  1  0.18553094  0.58634282  0.80873739  1
  Cu+  Cu35  1  0.85717235  0.92764286  0.47480569  1
  Cu+  Cu36  1  0.16381127  0.08163186  0.17235476  1
  Cu+  Cu37  1  0.16396292  0.58733391  0.16837120  1
  Cu+  Cu38  1  0.66311028  0.08528714  0.17085754  1
  Cu+  Cu39  1  0.66164431  0.58109368  0.17413344  1
  Cu+  Cu40  1  0.41705607  0.33548052  0.17523893  1
  Cu+  Cu41  1  0.41115457  0.83551828  0.17002596  1
  Cu+  Cu42  1  0.91425256  0.33772486  0.16745837  1
  Cu+  Cu43  1  0.91315062  0.83584962  0.16882246  1
  Cu+  Cu44  1  0.41844917  0.08240381  0.17156354  1
  Cu+  Cu45  1  0.41572653  0.57921759  0.17314108  1
  Cu+  Cu46  1  0.91400439  0.07628256  0.16817196  1
  Cu+  Cu47  1  0.92076295  0.58191608  0.16836242  1
  Cu+  Cu48  1  0.49619258  0.24961371  0.50448908  1
  Cu+  Cu49  1  0.49660373  0.75278006  0.50804320  1
  Cu+  Cu50  1  0.99518036  0.24840100  0.50172040  1
  Cu+  Cu51  1  0.99611068  0.74802956  0.50577841  1
  Cu+  Cu52  1  0.24918238  0.00207111  0.50596637  1
  Cu+  Cu53  1  0.24794775  0.50336998  0.50669109  1
  Cu+  Cu54  1  0.75552714  0.00451845  0.50126496  1
  Cu+  Cu55  1  0.74300326  0.50249070  0.50502706  1
  Cu+  Cu56  1  0.24983374  0.24935592  0.50525207  1
  Cu+  Cu57  1  0.25172165  0.74986299  0.50822235  1
  Cu+  Cu58  1  0.74468246  0.24218494  0.50220547  1
  Cu+  Cu59  1  0.75430674  0.75270362  0.50463897  1
  Cu+  Cu60  1  0.32953241  0.40836521  0.83189667  1
  Cu+  Cu61  1  0.33177414  0.90981272  0.83536423  1
  Cu+  Cu62  1  0.83034382  0.41321985  0.83709864  1
  Cu+  Cu63  1  0.83091760  0.91378054  0.84113557  1
  Cu+  Cu64  1  0.09160167  0.16794748  0.83494311  1
  Cu+  Cu65  1  0.09028991  0.66801391  0.83518791  1
  Cu+  Cu66  1  0.58827927  0.17012520  0.83829914  1
  Cu+  Cu67  1  0.59274332  0.66952882  0.83703819  1
  Cu+  Cu68  1  0.08750499  0.41493441  0.83512042  1
  Cu+  Cu69  1  0.08868496  0.91739758  0.83863398  1
  Cu+  Cu70  1  0.59039028  0.41891966  0.83617037  1
  Cu+  Cu71  1  0.58523477  0.91532167  0.84199896  1
  Cu+  Cu72  1  0.17095809  0.08703698  0.67906669  1
  Cu+  Cu73  1  0.16872283  0.58605066  0.67938575  1
  Cu+  Cu74  1  0.66671753  0.08323333  0.67259214  1
  Cu+  Cu75  1  0.66907081  0.58772936  0.67888702  1
  Cu+  Cu76  1  0.41702747  0.33383053  0.67958730  1
  Cu+  Cu77  1  0.41309935  0.83103503  0.68156172  1
  Cu+  Cu78  1  0.91119220  0.32866862  0.67033122  1
  Cu+  Cu79  1  0.91347302  0.83355519  0.67697581  1
  Cu+  Cu80  1  0.41786964  0.08524027  0.67584418  1
  Cu+  Cu81  1  0.41607190  0.58659951  0.67483197  1
  Cu+  Cu82  1  0.91222389  0.08274134  0.67389590  1
  Cu+  Cu83  1  0.91101523  0.58248720  0.67394113  1
  Cu+  Cu84  1  0.00595575  0.25049845  0.00320440  1
  Cu+  Cu85  1  0.00535220  0.75085169  0.00635363  1
  Cu+  Cu86  1  0.50342526  0.25213996  0.00918971  1
  Cu+  Cu87  1  0.50264853  0.74783009  0.01093098  1
  Cu+  Cu88  1  0.25213429  0.49631996  0.00601370  1
  Cu+  Cu89  1  0.25433309  0.99974024  0.00865592  1
  Cu+  Cu90  1  0.75145903  0.50028875  0.00870045  1
  Cu+  Cu91  1  0.75036684  0.99627645  0.01448898  1
  Cu+  Cu92  1  0.25245886  0.24962482  0.00895042  1
  Cu+  Cu93  1  0.25232449  0.75073665  0.01298891  1
  Cu+  Cu94  1  0.75027975  0.25318648  0.01159411  1
  Cu+  Cu95  1  0.75113399  0.75041561  0.01584493  1
  Cu+  Cu96  1  0.33291504  0.41699218  0.34386068  1
  Cu+  Cu97  1  0.33206398  0.91651463  0.34382348  1
  Cu+  Cu98  1  0.83529584  0.41950901  0.33960851  1
  Cu+  Cu99  1  0.83370780  0.91711991  0.34692103  1
  Cu+  Cu100  1  0.08077495  0.16437514  0.33990546  1
  Cu+  Cu101  1  0.08422920  0.66563614  0.34160576  1
  Cu+  Cu102  1  0.58115021  0.16477299  0.34606576  1
  Cu+  Cu103  1  0.58120068  0.66571688  0.34571398  1
  Cu+  Cu104  1  0.08205452  0.41997876  0.33652097  1
  Cu+  Cu105  1  0.07992593  0.91610886  0.34116461  1
  Cu+  Cu106  1  0.57961203  0.42007936  0.34725811  1
  Cu+  Cu107  1  0.58138521  0.91828029  0.34222972  1
  Cu+  Cu108  1  0.00600570  0.00141809  0.11323292  1
  Cu+  Cu109  1  0.00347586  0.49767546  0.10936419  1
  Cu+  Cu110  1  0.50037043  -0.00127964  0.11323172  1
  Cu+  Cu111  1  0.49768004  0.49652799  0.11790903  1
  Cu+  Cu112  1  0.32802460  0.16381026  0.44869147  1
  Cu+  Cu113  1  0.33362415  0.66575962  0.45197355  1
  Cu+  Cu114  1  0.83534508  0.17119203  0.44292520  1
  Cu+  Cu115  1  0.83556158  0.66480376  0.44851380  1
  Cu+  Cu116  1  0.16037468  0.33009582  0.77596336  1
  Cu+  Cu117  1  0.16101130  0.83070699  0.77916229  1
  Cu+  Cu118  1  0.66763418  0.33089446  0.77959439  1
  Cu+  Cu119  1  0.66797225  0.83714384  0.78465189  1
  Te2-  Te120  1  0.00105044  0.00105550  0.38760142  1
  Te2-  Te121  1  -0.00060637  0.50033022  0.38415736  1
  Te2-  Te122  1  0.49700540  -0.00200622  0.38813807  1
  Te2-  Te123  1  0.49594269  0.50196702  0.39186772  1
  Te2-  Te124  1  0.33715333  0.16773819  0.72382207  1
  Te2-  Te125  1  0.33388714  0.66547405  0.72629652  1
  Te2-  Te126  1  0.83076174  0.16578655  0.71753312  1
  Te2-  Te127  1  0.83547978  0.66946532  0.72221116  1
  Te2-  Te128  1  0.16894154  0.33191834  0.05020206  1
  Te2-  Te129  1  0.16889760  0.83513158  0.05324002  1
  Te2-  Te130  1  0.66740060  0.33630117  0.05503514  1
  Te2-  Te131  1  0.66548628  0.83097526  0.05985614  1
  Te2-  Te132  1  0.49731516  0.24703183  0.88288231  1
  Te2-  Te133  1  0.49757888  0.74165070  0.88480231  1
  Te2-  Te134  1  1.00034488  0.24623344  0.87737149  1
  Te2-  Te135  1  1.00164482  0.74802737  0.88021113  1
  Te2-  Te136  1  0.26038693  0.00521962  0.88270154  1
  Te2-  Te137  1  0.25966592  0.50414464  0.88024912  1
  Te2-  Te138  1  0.75229328  0.00216232  0.88699606  1
  Te2-  Te139  1  0.75892712  0.50871926  0.88279643  1
  Te2-  Te140  1  0.25953069  0.24275720  0.88247845  1
  Te2-  Te141  1  0.25834838  0.74288587  0.88484965  1
  Te2-  Te142  1  0.75438034  0.24773484  0.88435545  1
  Te2-  Te143  1  0.75869528  0.74725610  0.88769465  1
  Te2-  Te144  1  0.32636233  0.41298387  0.21817103  1
  Te2-  Te145  1  0.32438133  0.91621224  0.21766891  1
  Te2-  Te146  1  0.82463079  0.41653863  0.21420265  1
  Te2-  Te147  1  0.81867518  0.90958862  0.21853480  1
  Te2-  Te148  1  0.08122140  0.16840415  0.21395966  1
  Te2-  Te149  1  0.08550866  0.67705240  0.21578152  1
  Te2-  Te150  1  0.58457182  0.17528992  0.21827929  1
  Te2-  Te151  1  0.58180528  0.67295888  0.21968827  1
  Te2-  Te152  1  0.08414044  0.41705063  0.21024465  1
  Te2-  Te153  1  0.08058330  0.91265408  0.21508312  1
  Te2-  Te154  1  0.58470827  0.41483468  0.22002383  1
  Te2-  Te155  1  0.58010156  0.91174737  0.21580013  1
  Te2-  Te156  1  0.16361707  0.08301227  0.55199838  1
  Te2-  Te157  1  0.16043670  0.58257717  0.55239718  1
  Te2-  Te158  1  0.65666500  0.07327546  0.54708634  1
  Te2-  Te159  1  0.65681612  0.58536282  0.55146108  1
  Te2-  Te160  1  0.41749973  0.34110401  0.55175926  1
  Te2-  Te161  1  0.41826906  0.84050174  0.55449664  1
  Te2-  Te162  1  0.91357163  0.33508527  0.54464665  1
  Te2-  Te163  1  0.92253654  0.84142271  0.55124790  1
  Te2-  Te164  1  0.41759226  0.07894609  0.54996074  1
  Te2-  Te165  1  0.41710279  0.58377114  0.54939797  1
  Te2-  Te166  1  0.92289593  0.08209775  0.54813172  1
  Te2-  Te167  1  0.91208603  0.57904312  0.54793170  1
  Te2-  Te168  1  0.00192902  -0.00006608  0.88375313  1
  Te2-  Te169  1  0.00139281  0.49811173  0.88102300  1
  Te2-  Te170  1  0.50087650  0.00123267  0.88415407  1
  Te2-  Te171  1  0.49934874  0.49845271  0.88185901  1
  Te2-  Te172  1  0.33182764  0.16555811  0.21692074  1
  Te2-  Te173  1  0.33170776  0.66598724  0.21588621  1
  Te2-  Te174  1  0.83492014  0.16813070  0.21480416  1
  Te2-  Te175  1  0.83406421  0.66624473  0.21512742  1
  Te2-  Te176  1  0.16345969  0.33329649  0.54816239  1
  Te2-  Te177  1  0.16479079  0.83318990  0.55049560  1
  Te2-  Te178  1  0.66635035  0.33264036  0.55008814  1
  Te2-  Te179  1  0.66712829  0.83608802  0.54974875  1
  Te2-  Te180  1  0.32690739  0.41615670  0.70726515  1
  Te2-  Te181  1  0.32441556  0.91520182  0.71004516  1
  Te2-  Te182  1  0.82734622  0.41306039  0.71066449  1
  Te2-  Te183  1  0.82702198  0.91517680  0.71460325  1
  Te2-  Te184  1  0.08357456  0.17236219  0.70810868  1
  Te2-  Te185  1  0.08241534  0.67291591  0.70820240  1
  Te2-  Te186  1  0.58671805  0.17132612  0.71178822  1
  Te2-  Te187  1  0.58541222  0.67575070  0.71100981  1
  Te2-  Te188  1  0.08250665  0.41119356  0.70664468  1
  Te2-  Te189  1  0.08546468  0.91373912  0.71013055  1
  Te2-  Te190  1  0.58963316  0.41462692  0.70829233  1
  Te2-  Te191  1  0.58660055  0.91448601  0.71325446  1
  Te2-  Te192  1  0.16412759  0.07967477  0.04455853  1
  Te2-  Te193  1  0.16261935  0.57744870  0.04079809  1
  Te2-  Te194  1  0.65983948  0.07995008  0.04224288  1
  Te2-  Te195  1  0.65970200  0.57775820  0.04606509  1
  Te2-  Te196  1  0.42120116  0.33903894  0.04739877  1
  Te2-  Te197  1  0.42457946  0.84049406  0.04311670  1
  Te2-  Te198  1  0.92327955  0.33786502  0.04005542  1
  Te2-  Te199  1  0.92482561  0.84055597  0.04218770  1
  Te2-  Te200  1  0.42352245  0.08207674  0.04553136  1
  Te2-  Te201  1  0.41968812  0.57869053  0.04712685  1
  Te2-  Te202  1  0.92323303  0.08189743  0.04217607  1
  Te2-  Te203  1  0.92169213  0.58160276  0.04330699  1
  Te2-  Te204  1  0.48950623  0.24636837  0.37684942  1
  Te2-  Te205  1  0.49459848  0.74953702  0.38098688  1
  Te2-  Te206  1  0.99495729  0.24946153  0.37453057  1
  Te2-  Te207  1  0.99447726  0.74660240  0.37873179  1
  Te2-  Te208  1  0.24993238  0.00491767  0.37885965  1
  Te2-  Te209  1  0.25069981  0.50617598  0.37878493  1
  Te2-  Te210  1  0.75158381  0.00845516  0.37500806  1
  Te2-  Te211  1  0.75229227  0.50569146  0.37769076  1
  Te2-  Te212  1  0.25049067  0.24610572  0.37830368  1
  Te2-  Te213  1  0.25297754  0.74715864  0.38106261  1
  Te2-  Te214  1  0.75325643  0.25024686  0.37541410  1
  Te2-  Te215  1  0.75170467  0.74482805  0.37834640  1
