# generated using pymatgen
data_Ti(CuTe)4
_symmetry_space_group_name_H-M   'P 1'
_cell_length_a   16.88337347
_cell_length_b   16.88969851
_cell_length_c   20.70931700
_cell_angle_alpha   90.03439494
_cell_angle_beta   90.03603703
_cell_angle_gamma   120.00606556
_symmetry_Int_Tables_number   1
_chemical_formula_structural   Ti(CuTe)4
_chemical_formula_sum   'Ti24 Cu96 Te96'
_cell_volume   5113.88145828
_cell_formula_units_Z   24
loop_
 _symmetry_equiv_pos_site_id
 _symmetry_equiv_pos_as_xyz
  1  'x, y, z'
loop_
 _atom_type_symbol
 _atom_type_oxidation_number
  Ti4+  4.0
  Cu+  1.0
  Te2-  -2.0
loop_
 _atom_site_type_symbol
 _atom_site_label
 _atom_site_symmetry_multiplicity
 _atom_site_fract_x
 _atom_site_fract_y
 _atom_site_fract_z
 _atom_site_occupancy
  Ti4+  Ti0  1  -0.00287894  -0.00091168  0.25839791  1
  Ti4+  Ti1  1  0.00393204  0.50195794  0.25759429  1
  Ti4+  Ti2  1  0.49971812  -0.00243287  0.25540256  1
  Ti4+  Ti3  1  0.49932975  0.49906354  0.26147510  1
  Ti4+  Ti4  1  0.32963688  0.16550123  0.59003088  1
  Ti4+  Ti5  1  0.33056982  0.66522640  0.59479836  1
  Ti4+  Ti6  1  0.83234183  0.16777987  0.59116107  1
  Ti4+  Ti7  1  0.83097642  0.66542366  0.58860190  1
  Ti4+  Ti8  1  0.17114791  0.33412508  0.92646088  1
  Ti4+  Ti9  1  0.16559860  0.83453911  0.92329438  1
  Ti4+  Ti10  1  0.66987425  0.33373821  0.92287578  1
  Ti4+  Ti11  1  0.66652936  0.83226332  0.92215558  1
  Ti4+  Ti12  1  0.00032983  -0.00071136  0.75565738  1
  Ti4+  Ti13  1  -0.00074064  0.50084023  0.75560368  1
  Ti4+  Ti14  1  0.50137786  0.00167026  0.75325567  1
  Ti4+  Ti15  1  0.49863887  0.50047151  0.75565822  1
  Ti4+  Ti16  1  0.33611931  0.16813481  0.08930831  1
  Ti4+  Ti17  1  0.33352045  0.66783586  0.08944144  1
  Ti4+  Ti18  1  0.83444148  0.16454585  0.08751145  1
  Ti4+  Ti19  1  0.83518679  0.66818609  0.09041004  1
  Ti4+  Ti20  1  0.16765237  0.33366243  0.42296354  1
  Ti4+  Ti21  1  0.16560628  0.83371557  0.42363344  1
  Ti4+  Ti22  1  0.66744821  0.33351328  0.41968767  1
  Ti4+  Ti23  1  0.66612454  0.83336933  0.42353890  1
  Cu+  Cu24  1  0.19115996  0.09535605  0.80651366  1
  Cu+  Cu25  1  0.06743547  0.92686604  0.47348388  1
  Cu+  Cu26  1  0.40800509  0.82085925  0.81154082  1
  Cu+  Cu27  1  0.23806328  0.76158954  0.14039358  1
  Cu+  Cu28  1  0.73667248  0.97196458  0.13828986  1
  Cu+  Cu29  1  0.90434325  0.80863726  0.80443027  1
  Cu+  Cu30  1  0.57056155  0.41969521  0.47657203  1
  Cu+  Cu31  1  0.24212376  0.48089694  0.14426744  1
  Cu+  Cu32  1  0.56798310  0.64856703  0.47826805  1
  Cu+  Cu33  1  0.40533950  0.58867264  0.81344918  1
  Cu+  Cu34  1  0.69078472  0.09548661  0.80684321  1
  Cu+  Cu35  1  0.07206347  0.64467288  0.47480371  1
  Cu+  Cu36  1  0.16574170  0.08272386  0.17360082  1
  Cu+  Cu37  1  0.16479911  0.58340748  0.17033225  1
  Cu+  Cu38  1  0.66573792  0.07492584  0.16843704  1
  Cu+  Cu39  1  0.66605184  0.58417371  0.17564393  1
  Cu+  Cu40  1  0.42031249  0.33615576  0.17286987  1
  Cu+  Cu41  1  0.41491723  0.83802011  0.16910102  1
  Cu+  Cu42  1  0.92188911  0.33541759  0.17007078  1
  Cu+  Cu43  1  0.91878911  0.83790831  0.17257395  1
  Cu+  Cu44  1  0.41881307  0.08149627  0.16952373  1
  Cu+  Cu45  1  0.41641496  0.57889324  0.17380609  1
  Cu+  Cu46  1  0.91234086  0.07587096  0.16963011  1
  Cu+  Cu47  1  0.92148656  0.58493814  0.17221245  1
  Cu+  Cu48  1  0.49545441  0.24834393  0.50299408  1
  Cu+  Cu49  1  0.49580798  0.74693660  0.50896137  1
  Cu+  Cu50  1  0.99753168  0.25030863  0.50543501  1
  Cu+  Cu51  1  0.99669873  0.74930204  0.50320299  1
  Cu+  Cu52  1  0.24276221  0.00184331  0.50439800  1
  Cu+  Cu53  1  0.25209062  0.50262566  0.50624084  1
  Cu+  Cu54  1  0.74956646  0.00544989  0.50612900  1
  Cu+  Cu55  1  0.74823536  0.50273463  0.49980566  1
  Cu+  Cu56  1  0.24810069  0.24493568  0.50329359  1
  Cu+  Cu57  1  0.24645365  0.74494936  0.50744987  1
  Cu+  Cu58  1  0.75088368  0.24743243  0.50356080  1
  Cu+  Cu59  1  0.74654987  0.74520427  0.50280449  1
  Cu+  Cu60  1  0.32936007  0.41615999  0.83922224  1
  Cu+  Cu61  1  0.32848584  0.91431768  0.83593484  1
  Cu+  Cu62  1  0.83054621  0.41667330  0.83671863  1
  Cu+  Cu63  1  0.83084226  0.91029494  0.83577036  1
  Cu+  Cu64  1  0.09245338  0.16875961  0.83873905  1
  Cu+  Cu65  1  0.08448723  0.67103824  0.83677707  1
  Cu+  Cu66  1  0.59241375  0.17270825  0.83459509  1
  Cu+  Cu67  1  0.58253566  0.67010197  0.83583773  1
  Cu+  Cu68  1  0.08560350  0.41733630  0.83973057  1
  Cu+  Cu69  1  0.08364834  0.91588974  0.83560779  1
  Cu+  Cu70  1  0.58588514  0.41554147  0.83775100  1
  Cu+  Cu71  1  0.58710249  0.91766583  0.83427900  1
  Cu+  Cu72  1  0.16836988  0.08402162  0.67858515  1
  Cu+  Cu73  1  0.16614284  0.58371086  0.67713764  1
  Cu+  Cu74  1  0.67094505  0.08766258  0.67792154  1
  Cu+  Cu75  1  0.66560553  0.58292923  0.67519435  1
  Cu+  Cu76  1  0.41328199  0.33181368  0.67521566  1
  Cu+  Cu77  1  0.41422146  0.82971803  0.68051442  1
  Cu+  Cu78  1  0.91464313  0.33217936  0.67486789  1
  Cu+  Cu79  1  0.91365276  0.82988560  0.67634465  1
  Cu+  Cu80  1  0.41452885  0.08541326  0.67160683  1
  Cu+  Cu81  1  0.41414360  0.58529144  0.68357359  1
  Cu+  Cu82  1  0.91543144  0.08599012  0.67411010  1
  Cu+  Cu83  1  0.91604152  0.58463580  0.67314846  1
  Cu+  Cu84  1  0.00613099  0.25123035  0.00840946  1
  Cu+  Cu85  1  0.00063815  0.75216249  0.00828284  1
  Cu+  Cu86  1  0.50650224  0.25309428  0.00628784  1
  Cu+  Cu87  1  0.50063463  0.75139362  0.00896247  1
  Cu+  Cu88  1  0.25098508  0.49846164  0.01547049  1
  Cu+  Cu89  1  0.25014880  1.00002990  0.00791577  1
  Cu+  Cu90  1  0.75015013  0.49749816  0.00858210  1
  Cu+  Cu91  1  0.75017816  0.99626423  0.00950935  1
  Cu+  Cu92  1  0.25434063  0.25367700  0.01079766  1
  Cu+  Cu93  1  0.24971897  0.75365207  0.01222746  1
  Cu+  Cu94  1  0.75214961  0.25169179  0.00662939  1
  Cu+  Cu95  1  0.75111969  0.74959709  0.00852458  1
  Cu+  Cu96  1  0.33423453  0.41611891  0.34434548  1
  Cu+  Cu97  1  0.33646300  0.91871986  0.34133762  1
  Cu+  Cu98  1  0.83859919  0.41744832  0.34040959  1
  Cu+  Cu99  1  0.83298088  0.91903600  0.34292514  1
  Cu+  Cu100  1  0.08140483  0.16504492  0.34066002  1
  Cu+  Cu101  1  0.08569825  0.66554838  0.34594376  1
  Cu+  Cu102  1  0.58436973  0.16311347  0.33761859  1
  Cu+  Cu103  1  0.58064952  0.66274995  0.34850557  1
  Cu+  Cu104  1  0.08746649  0.42064516  0.34291591  1
  Cu+  Cu105  1  0.08106820  0.92064800  0.34558719  1
  Cu+  Cu106  1  0.58290915  0.41846284  0.34712866  1
  Cu+  Cu107  1  0.58183212  0.91685968  0.34033410  1
  Cu+  Cu108  1  0.00517217  0.00336714  0.11583301  1
  Cu+  Cu109  1  -0.00505392  0.49678793  0.11402383  1
  Cu+  Cu110  1  0.50458886  0.00678200  0.11136640  1
  Cu+  Cu111  1  0.50518637  0.50150453  0.11888166  1
  Cu+  Cu112  1  0.33468686  0.16485055  0.44603770  1
  Cu+  Cu113  1  0.33361907  0.66876893  0.45150663  1
  Cu+  Cu114  1  0.83601333  0.16838504  0.44808972  1
  Cu+  Cu115  1  0.83368128  0.66637966  0.44373478  1
  Cu+  Cu116  1  0.16022141  0.33075104  0.78398630  1
  Cu+  Cu117  1  0.16608130  0.83346834  0.77862716  1
  Cu+  Cu118  1  0.66589706  0.33660754  0.77858172  1
  Cu+  Cu119  1  0.66831512  0.83478457  0.77762382  1
  Te2-  Te120  1  -0.00340569  0.00257067  0.38918994  1
  Te2-  Te121  1  0.00135417  0.49858395  0.38811229  1
  Te2-  Te122  1  0.50100641  0.00030793  0.38443726  1
  Te2-  Te123  1  0.49638873  0.49720137  0.39349527  1
  Te2-  Te124  1  0.33560355  0.16806526  0.72061128  1
  Te2-  Te125  1  0.32828482  0.66539623  0.72663033  1
  Te2-  Te126  1  0.83673332  0.16930621  0.72242330  1
  Te2-  Te127  1  0.83048311  0.66280728  0.71888015  1
  Te2-  Te128  1  0.16857558  0.33150310  0.05673569  1
  Te2-  Te129  1  0.16492382  0.83626919  0.05345604  1
  Te2-  Te130  1  0.66994882  0.33301484  0.05198180  1
  Te2-  Te131  1  0.66555254  0.82906741  0.05208972  1
  Te2-  Te132  1  0.49853179  0.24668833  0.88020737  1
  Te2-  Te133  1  0.49040533  0.74715581  0.88318146  1
  Te2-  Te134  1  1.00176051  0.24757628  0.88190483  1
  Te2-  Te135  1  0.99254624  0.74607761  0.88205369  1
  Te2-  Te136  1  0.25480334  0.00706098  0.88167728  1
  Te2-  Te137  1  0.25229932  0.50809454  0.88784541  1
  Te2-  Te138  1  0.75624151  0.00426103  0.88182946  1
  Te2-  Te139  1  0.75335648  0.50605880  0.88253994  1
  Te2-  Te140  1  0.26120672  0.25041557  0.88481281  1
  Te2-  Te141  1  0.25070568  0.74565576  0.88481489  1
  Te2-  Te142  1  0.76075515  0.24936206  0.88121065  1
  Te2-  Te143  1  0.74961465  0.74202234  0.88227460  1
  Te2-  Te144  1  0.32577163  0.40911120  0.21834353  1
  Te2-  Te145  1  0.32438706  0.91503450  0.21577163  1
  Te2-  Te146  1  0.83375808  0.41549891  0.21417273  1
  Te2-  Te147  1  0.82242318  0.90838267  0.21720470  1
  Te2-  Te148  1  0.08156296  0.16884039  0.21451238  1
  Te2-  Te149  1  0.08827885  0.67571269  0.21856479  1
  Te2-  Te150  1  0.58825642  0.16736155  0.21134956  1
  Te2-  Te151  1  0.58344733  0.66999757  0.22067834  1
  Te2-  Te152  1  0.08856888  0.41329730  0.21694058  1
  Te2-  Te153  1  0.08537071  0.91521599  0.21877406  1
  Te2-  Te154  1  0.58673164  0.41570050  0.21983616  1
  Te2-  Te155  1  0.58217972  0.90586165  0.21463221  1
  Te2-  Te156  1  0.15435074  0.08040073  0.55194565  1
  Te2-  Te157  1  0.15724390  0.57527382  0.55119779  1
  Te2-  Te158  1  0.65940175  0.08196373  0.55144151  1
  Te2-  Te159  1  0.65464469  0.57685365  0.54957864  1
  Te2-  Te160  1  0.41468605  0.33877173  0.54933312  1
  Te2-  Te161  1  0.41535207  0.83503684  0.55263738  1
  Te2-  Te162  1  0.91807753  0.33924127  0.54905463  1
  Te2-  Te163  1  0.91436681  0.83793218  0.54919369  1
  Te2-  Te164  1  0.41351444  0.07972864  0.54561855  1
  Te2-  Te165  1  0.41660044  0.57709268  0.55583515  1
  Te2-  Te166  1  0.91804942  0.08178917  0.54858635  1
  Te2-  Te167  1  0.91549952  0.57786041  0.54711827  1
  Te2-  Te168  1  -0.00081742  -0.00028738  0.88310256  1
  Te2-  Te169  1  0.00011793  0.50168936  0.88190045  1
  Te2-  Te170  1  0.50050672  0.00182046  0.88061661  1
  Te2-  Te171  1  0.50139453  0.50047650  0.88252202  1
  Te2-  Te172  1  0.33562880  0.16638388  0.21591251  1
  Te2-  Te173  1  0.33512376  0.66854779  0.21669969  1
  Te2-  Te174  1  0.83430775  0.16669001  0.21439745  1
  Te2-  Te175  1  0.83584605  0.66832757  0.21707527  1
  Te2-  Te176  1  0.16640579  0.33248787  0.54934128  1
  Te2-  Te177  1  0.16529632  0.83350983  0.55109769  1
  Te2-  Te178  1  0.66625742  0.33347733  0.54674456  1
  Te2-  Te179  1  0.66721661  0.83521706  0.55036866  1
  Te2-  Te180  1  0.32426211  0.41181713  0.71258414  1
  Te2-  Te181  1  0.32713401  0.91617591  0.70893711  1
  Te2-  Te182  1  0.82784439  0.41522428  0.71046704  1
  Te2-  Te183  1  0.82781953  0.91596409  0.70895572  1
  Te2-  Te184  1  0.08492010  0.17248892  0.71139679  1
  Te2-  Te185  1  0.08503747  0.67274911  0.71046407  1
  Te2-  Te186  1  0.58459867  0.17440994  0.70781857  1
  Te2-  Te187  1  0.58761883  0.67400382  0.70949014  1
  Te2-  Te188  1  0.08446053  0.41377060  0.71274740  1
  Te2-  Te189  1  0.08560278  0.91178448  0.70804816  1
  Te2-  Te190  1  0.58350315  0.41348972  0.71065744  1
  Te2-  Te191  1  0.58785685  0.91445694  0.70715880  1
  Te2-  Te192  1  0.16418821  0.08309469  0.04604719  1
  Te2-  Te193  1  0.15978793  0.58092675  0.04323030  1
  Te2-  Te194  1  0.66272628  0.08111055  0.04078855  1
  Te2-  Te195  1  0.66361757  0.58060061  0.04771542  1
  Te2-  Te196  1  0.42438373  0.34023778  0.04645606  1
  Te2-  Te197  1  0.42195431  0.84185640  0.04302388  1
  Te2-  Te198  1  0.92191486  0.33715939  0.04363727  1
  Te2-  Te199  1  0.91998382  0.84012120  0.04619206  1
  Te2-  Te200  1  0.42076224  0.08267551  0.04271384  1
  Te2-  Te201  1  0.42340630  0.58268288  0.04666330  1
  Te2-  Te202  1  0.92270180  0.08033337  0.04238761  1
  Te2-  Te203  1  0.92027699  0.58240738  0.04539530  1
  Te2-  Te204  1  0.49508057  0.24435532  0.37495403  1
  Te2-  Te205  1  0.49314577  0.74796049  0.38050012  1
  Te2-  Te206  1  0.99647431  0.24977033  0.37831702  1
  Te2-  Te207  1  0.99400532  0.74749461  0.37537955  1
  Te2-  Te208  1  0.25343737  0.00563805  0.37721649  1
  Te2-  Te209  1  0.25595637  0.50726667  0.38041884  1
  Te2-  Te210  1  0.75038949  0.00552822  0.37958667  1
  Te2-  Te211  1  0.75676833  0.50646656  0.37360864  1
  Te2-  Te212  1  0.25120276  0.24519680  0.37760790  1
  Te2-  Te213  1  0.25646745  0.75057496  0.38015234  1
  Te2-  Te214  1  0.75362868  0.24723577  0.37685813  1
  Te2-  Te215  1  0.75406369  0.74878795  0.37663584  1
