# generated using pymatgen
data_Ti(CuTe)4
_symmetry_space_group_name_H-M   'P 1'
_cell_length_a   16.89342276
_cell_length_b   16.88691813
_cell_length_c   20.70798667
_cell_angle_alpha   90.00146350
_cell_angle_beta   89.94364266
_cell_angle_gamma   119.98189030
_symmetry_Int_Tables_number   1
_chemical_formula_structural   Ti(CuTe)4
_chemical_formula_sum   'Ti24 Cu96 Te96'
_cell_volume   5117.00106452
_cell_formula_units_Z   24
loop_
 _symmetry_equiv_pos_site_id
 _symmetry_equiv_pos_as_xyz
  1  'x, y, z'
loop_
 _atom_type_symbol
 _atom_type_oxidation_number
  Ti4+  4.0
  Cu+  1.0
  Te2-  -2.0
loop_
 _atom_site_type_symbol
 _atom_site_label
 _atom_site_symmetry_multiplicity
 _atom_site_fract_x
 _atom_site_fract_y
 _atom_site_fract_z
 _atom_site_occupancy
  Ti4+  Ti0  1  0.00210315  0.00057917  0.25995972  1
  Ti4+  Ti1  1  0.00212414  0.50001461  0.26328019  1
  Ti4+  Ti2  1  0.50201877  0.00040446  0.25651052  1
  Ti4+  Ti3  1  0.50102885  0.49890987  0.25448600  1
  Ti4+  Ti4  1  0.33212765  0.16834136  0.58893532  1
  Ti4+  Ti5  1  0.33291536  0.66993900  0.58803318  1
  Ti4+  Ti6  1  0.83167209  0.16777117  0.59168904  1
  Ti4+  Ti7  1  0.83501284  0.67043370  0.59125769  1
  Ti4+  Ti8  1  0.16459484  0.33216322  0.92593655  1
  Ti4+  Ti9  1  0.16538229  0.83153786  0.92756951  1
  Ti4+  Ti10  1  0.66781783  0.33153471  0.92176585  1
  Ti4+  Ti11  1  0.66743546  0.83079387  0.92156827  1
  Ti4+  Ti12  1  -0.00189771  0.00001700  0.75631365  1
  Ti4+  Ti13  1  -0.00156370  0.49996606  0.75662961  1
  Ti4+  Ti14  1  0.49900210  0.00019317  0.75415119  1
  Ti4+  Ti15  1  0.49974603  0.50106165  0.75234590  1
  Ti4+  Ti16  1  0.33293782  0.16560338  0.08663175  1
  Ti4+  Ti17  1  0.33296800  0.66523533  0.08845004  1
  Ti4+  Ti18  1  0.83321513  0.16544554  0.09177993  1
  Ti4+  Ti19  1  0.83356424  0.66572363  0.09128722  1
  Ti4+  Ti20  1  0.16664559  0.33301610  0.42095440  1
  Ti4+  Ti21  1  0.16708835  0.83462957  0.41966377  1
  Ti4+  Ti22  1  0.66705159  0.33326926  0.42095254  1
  Ti4+  Ti23  1  0.66613491  0.83399536  0.42153176  1
  Cu+  Cu24  1  0.57156309  0.93014479  0.47204976  1
  Cu+  Cu25  1  0.02345572  0.26173578  0.14527543  1
  Cu+  Cu26  1  0.91139556  0.31686327  0.81312495  1
  Cu+  Cu27  1  0.07756566  0.42322160  0.48096595  1
  Cu+  Cu28  1  0.84957427  0.93054677  0.47547695  1
  Cu+  Cu29  1  0.02339599  0.75960509  0.14668577  1
  Cu+  Cu30  1  0.91252551  0.81703278  0.81315472  1
  Cu+  Cu31  1  0.07913973  0.92892010  0.47681019  1
  Cu+  Cu32  1  0.68371593  0.08698655  0.80881239  1
  Cu+  Cu33  1  0.07992753  0.66293618  0.48455851  1
  Cu+  Cu34  1  0.68470937  0.58723441  0.80685021  1
  Cu+  Cu35  1  0.84469236  0.42430763  0.48225702  1
  Cu+  Cu36  1  0.16450143  0.08047129  0.17030565  1
  Cu+  Cu37  1  0.16442494  0.58114916  0.17365474  1
  Cu+  Cu38  1  0.66263596  0.07891420  0.17228419  1
  Cu+  Cu39  1  0.66196505  0.57918068  0.17060724  1
  Cu+  Cu40  1  0.41999902  0.33571489  0.16784071  1
  Cu+  Cu41  1  0.42149261  0.83533902  0.17097899  1
  Cu+  Cu42  1  0.92094121  0.33410984  0.17647327  1
  Cu+  Cu43  1  0.92167206  0.83450744  0.17475069  1
  Cu+  Cu44  1  0.42066688  0.08355929  0.16961882  1
  Cu+  Cu45  1  0.42003293  0.58161895  0.16929239  1
  Cu+  Cu46  1  0.92103747  0.08502212  0.17417133  1
  Cu+  Cu47  1  0.92112638  0.58512044  0.17635353  1
  Cu+  Cu48  1  0.49534297  0.24857316  0.50286219  1
  Cu+  Cu49  1  0.49670354  0.75534185  0.50176280  1
  Cu+  Cu50  1  0.99557373  0.25020631  0.50320838  1
  Cu+  Cu51  1  0.99374137  0.75264096  0.50128767  1
  Cu+  Cu52  1  0.25092199  0.00797791  0.50159586  1
  Cu+  Cu53  1  0.25053102  0.50426835  0.50151328  1
  Cu+  Cu54  1  0.74804520  0.00301559  0.50429544  1
  Cu+  Cu55  1  0.75134869  0.50391497  0.50366901  1
  Cu+  Cu56  1  0.25158289  0.24843837  0.50236891  1
  Cu+  Cu57  1  0.25354052  0.74776154  0.49995743  1
  Cu+  Cu58  1  0.75285188  0.25002976  0.50348313  1
  Cu+  Cu59  1  0.75541269  0.75482424  0.50346161  1
  Cu+  Cu60  1  0.32900143  0.41550553  0.83742737  1
  Cu+  Cu61  1  0.32925462  0.91355062  0.83962883  1
  Cu+  Cu62  1  0.82787826  0.40924752  0.83545127  1
  Cu+  Cu63  1  0.82784586  0.90917151  0.83497890  1
  Cu+  Cu64  1  0.08186812  0.16978235  0.83919665  1
  Cu+  Cu65  1  0.08341776  0.66988769  0.84079291  1
  Cu+  Cu66  1  0.58836495  0.16743592  0.83443389  1
  Cu+  Cu67  1  0.58814256  0.66753340  0.83315012  1
  Cu+  Cu68  1  0.08218949  0.41177230  0.83962933  1
  Cu+  Cu69  1  0.08236329  0.91190335  0.84075828  1
  Cu+  Cu70  1  0.58709790  0.41672074  0.83474563  1
  Cu+  Cu71  1  0.58660827  0.91571517  0.83565362  1
  Cu+  Cu72  1  0.16829015  0.08614307  0.67531025  1
  Cu+  Cu73  1  0.16760712  0.58580610  0.67635897  1
  Cu+  Cu74  1  0.66720449  0.08538440  0.67850233  1
  Cu+  Cu75  1  0.67018637  0.58738401  0.67694503  1
  Cu+  Cu76  1  0.41325515  0.33223913  0.67187834  1
  Cu+  Cu77  1  0.41245324  0.83248493  0.67300092  1
  Cu+  Cu78  1  0.91498456  0.33366342  0.68284234  1
  Cu+  Cu79  1  0.91673998  0.83458064  0.68154511  1
  Cu+  Cu80  1  0.41030551  0.08409866  0.67282663  1
  Cu+  Cu81  1  0.41239344  0.58512809  0.67067542  1
  Cu+  Cu82  1  0.91554061  0.08566618  0.67643748  1
  Cu+  Cu83  1  0.91830972  0.58680514  0.67762930  1
  Cu+  Cu84  1  0.00164356  0.25110434  0.01591206  1
  Cu+  Cu85  1  0.00290958  0.75084979  0.01688142  1
  Cu+  Cu86  1  0.50240576  0.24979087  0.00366362  1
  Cu+  Cu87  1  0.50218614  0.74958201  0.00414111  1
  Cu+  Cu88  1  0.24579167  0.49655871  0.00902829  1
  Cu+  Cu89  1  0.24699796  0.99614112  0.00944003  1
  Cu+  Cu90  1  0.74923605  0.49617852  0.00793203  1
  Cu+  Cu91  1  0.74788115  0.99550650  0.00793494  1
  Cu+  Cu92  1  0.24658614  0.24919497  0.00826883  1
  Cu+  Cu93  1  0.24752627  0.74923047  0.01102408  1
  Cu+  Cu94  1  0.74830492  0.24803389  0.01034409  1
  Cu+  Cu95  1  0.74886896  0.74841440  0.00892992  1
  Cu+  Cu96  1  0.33763522  0.41683131  0.33723163  1
  Cu+  Cu97  1  0.33774926  0.91899539  0.33828758  1
  Cu+  Cu98  1  0.83733250  0.41806732  0.34934113  1
  Cu+  Cu99  1  0.83711626  0.91697725  0.34602374  1
  Cu+  Cu100  1  0.08399235  0.16514389  0.34336307  1
  Cu+  Cu101  1  0.08336093  0.66464238  0.35122971  1
  Cu+  Cu102  1  0.58319062  0.16512165  0.33955505  1
  Cu+  Cu103  1  0.58075195  0.66125534  0.33811687  1
  Cu+  Cu104  1  0.08214436  0.41644500  0.34950055  1
  Cu+  Cu105  1  0.08232768  0.91739074  0.34737148  1
  Cu+  Cu106  1  0.58181084  0.41717940  0.33810273  1
  Cu+  Cu107  1  0.58106164  0.91819308  0.34416935  1
  Cu+  Cu108  1  -0.00313377  -0.00208645  0.11761852  1
  Cu+  Cu109  1  -0.00346099  0.49746687  0.12089458  1
  Cu+  Cu110  1  0.49757961  -0.00243118  0.11347102  1
  Cu+  Cu111  1  0.49807040  0.49775166  0.11034682  1
  Cu+  Cu112  1  0.33716959  0.17052932  0.44359730  1
  Cu+  Cu113  1  0.33737346  0.66487269  0.44313554  1
  Cu+  Cu114  1  0.83243424  0.16557434  0.44724130  1
  Cu+  Cu115  1  0.82620476  0.66425788  0.44660401  1
  Cu+  Cu116  1  0.16838494  0.33330333  0.78223033  1
  Cu+  Cu117  1  0.16819058  0.83387560  0.78464406  1
  Cu+  Cu118  1  0.66067988  0.33069079  0.77742180  1
  Cu+  Cu119  1  0.66115347  0.83051623  0.77725319  1
  Te2-  Te120  1  0.00183708  0.00264354  0.39234346  1
  Te2-  Te121  1  0.00095225  0.49993331  0.39662718  1
  Te2-  Te122  1  0.49937500  0.00288279  0.38783318  1
  Te2-  Te123  1  0.50006202  0.49850815  0.38425647  1
  Te2-  Te124  1  0.33246890  0.16931580  0.71823280  1
  Te2-  Te125  1  0.33288298  0.66840634  0.71680428  1
  Te2-  Te126  1  0.83305198  0.16628799  0.72329116  1
  Te2-  Te127  1  0.83548975  0.66780069  0.72292747  1
  Te2-  Te128  1  0.16846389  0.33381045  0.05664549  1
  Te2-  Te129  1  0.16921506  0.83396271  0.05840549  1
  Te2-  Te130  1  0.66538968  0.33110185  0.05039003  1
  Te2-  Te131  1  0.66542991  0.83042875  0.05021944  1
  Te2-  Te132  1  0.49898191  0.24762931  0.87725694  1
  Te2-  Te133  1  0.49828547  0.74668991  0.87770288  1
  Te2-  Te134  1  0.98991173  0.24248084  0.88814122  1
  Te2-  Te135  1  0.99091893  0.74236130  0.88902371  1
  Te2-  Te136  1  0.24967732  0.00209547  0.88358538  1
  Te2-  Te137  1  0.24913975  0.50309630  0.88302673  1
  Te2-  Te138  1  0.75689949  0.00446543  0.88198135  1
  Te2-  Te139  1  0.75735141  0.50501562  0.88182223  1
  Te2-  Te140  1  0.25001181  0.24711954  0.88210511  1
  Te2-  Te141  1  0.25082595  0.74586925  0.88489751  1
  Te2-  Te142  1  0.75552180  0.24134529  0.88402891  1
  Te2-  Te143  1  0.75538460  0.74111438  0.88279465  1
  Te2-  Te144  1  0.32933444  0.41308039  0.21183228  1
  Te2-  Te145  1  0.33151191  0.91484186  0.21281404  1
  Te2-  Te146  1  0.83330010  0.41589824  0.22105182  1
  Te2-  Te147  1  0.83284371  0.91550435  0.21833754  1
  Te2-  Te148  1  0.09120585  0.17357503  0.21759919  1
  Te2-  Te149  1  0.09057842  0.67322879  0.22250259  1
  Te2-  Te150  1  0.58793329  0.17219217  0.21434931  1
  Te2-  Te151  1  0.58733174  0.67206853  0.21313694  1
  Te2-  Te152  1  0.09031206  0.41510051  0.22171493  1
  Te2-  Te153  1  0.09072480  0.91548032  0.22015418  1
  Te2-  Te154  1  0.58687171  0.41176037  0.21307570  1
  Te2-  Te155  1  0.58755005  0.91280499  0.21797058  1
  Te2-  Te156  1  0.15668545  0.08293309  0.54977650  1
  Te2-  Te157  1  0.15555327  0.57966961  0.55066603  1
  Te2-  Te158  1  0.65991760  0.08378389  0.55075580  1
  Te2-  Te159  1  0.66643365  0.58626606  0.54889376  1
  Te2-  Te160  1  0.41861041  0.34007363  0.54635727  1
  Te2-  Te161  1  0.41680297  0.84423811  0.54761574  1
  Te2-  Te162  1  0.92092509  0.34391052  0.55425978  1
  Te2-  Te163  1  0.92263167  0.84648246  0.55324506  1
  Te2-  Te164  1  0.41641789  0.08064279  0.54704818  1
  Te2-  Te165  1  0.41816485  0.58540797  0.54442436  1
  Te2-  Te166  1  0.91988830  0.08416424  0.55024947  1
  Te2-  Te167  1  0.92229895  0.58252721  0.55148289  1
  Te2-  Te168  1  -0.00262966  -0.00100186  0.88309085  1
  Te2-  Te169  1  -0.00238829  0.49862167  0.88334802  1
  Te2-  Te170  1  0.49957509  -0.00169036  0.88111087  1
  Te2-  Te171  1  0.49918657  0.49869376  0.87936799  1
  Te2-  Te172  1  0.33503408  0.16720360  0.21298475  1
  Te2-  Te173  1  0.33586629  0.66613617  0.21478330  1
  Te2-  Te174  1  0.83111630  0.16398861  0.21865207  1
  Te2-  Te175  1  0.83038499  0.66472811  0.21808635  1
  Te2-  Te176  1  0.16674521  0.33419858  0.54805957  1
  Te2-  Te177  1  0.16765315  0.83572751  0.54731497  1
  Te2-  Te178  1  0.66473865  0.33327752  0.54808786  1
  Te2-  Te179  1  0.66450363  0.83283306  0.54911459  1
  Te2-  Te180  1  0.32756525  0.41605931  0.71009468  1
  Te2-  Te181  1  0.32655591  0.91519714  0.71238676  1
  Te2-  Te182  1  0.82481374  0.41627157  0.70967197  1
  Te2-  Te183  1  0.82486449  0.91550524  0.70913464  1
  Te2-  Te184  1  0.08495696  0.17282487  0.71280710  1
  Te2-  Te185  1  0.08674542  0.67387838  0.71437980  1
  Te2-  Te186  1  0.58124600  0.17205308  0.70769449  1
  Te2-  Te187  1  0.58295259  0.67302029  0.70607784  1
  Te2-  Te188  1  0.08765320  0.41571162  0.71223838  1
  Te2-  Te189  1  0.08837018  0.91663452  0.71307974  1
  Te2-  Te190  1  0.58449865  0.41395408  0.70663120  1
  Te2-  Te191  1  0.58309428  0.91242304  0.70782293  1
  Te2-  Te192  1  0.15943597  0.07895658  0.04472300  1
  Te2-  Te193  1  0.15919690  0.57905956  0.04780500  1
  Te2-  Te194  1  0.66174307  0.07829626  0.04613917  1
  Te2-  Te195  1  0.66251484  0.57887453  0.04457332  1
  Te2-  Te196  1  0.41875219  0.33647331  0.04095010  1
  Te2-  Te197  1  0.41963701  0.83640441  0.04380346  1
  Te2-  Te198  1  0.91731129  0.33872691  0.04861495  1
  Te2-  Te199  1  0.91775119  0.83850452  0.04703300  1
  Te2-  Te200  1  0.41900376  0.08011840  0.04261749  1
  Te2-  Te201  1  0.41783352  0.57971122  0.04232062  1
  Te2-  Te202  1  0.91729999  0.07765606  0.04650871  1
  Te2-  Te203  1  0.91823963  0.57755438  0.04818943  1
  Te2-  Te204  1  0.49633056  0.24805736  0.37596476  1
  Te2-  Te205  1  0.49506606  0.74550213  0.37455304  1
  Te2-  Te206  1  0.99214326  0.24355483  0.37681586  1
  Te2-  Te207  1  0.99022783  0.74491940  0.37537794  1
  Te2-  Te208  1  0.25621979  0.00778382  0.37468387  1
  Te2-  Te209  1  0.25597453  0.50503361  0.37465187  1
  Te2-  Te210  1  0.75390484  0.00714115  0.37609434  1
  Te2-  Te211  1  0.75122559  0.50579974  0.37625909  1
  Te2-  Te212  1  0.25407801  0.24823326  0.37651597  1
  Te2-  Te213  1  0.25711792  0.74978829  0.37458913  1
  Te2-  Te214  1  0.75227373  0.24485247  0.37691252  1
  Te2-  Te215  1  0.74988617  0.74480787  0.37641881  1
