# generated using pymatgen
data_Ti(CuTe)4
_symmetry_space_group_name_H-M   'P 1'
_cell_length_a   16.88369709
_cell_length_b   16.88017852
_cell_length_c   20.70274515
_cell_angle_alpha   90.04670074
_cell_angle_beta   89.90801694
_cell_angle_gamma   119.97808819
_symmetry_Int_Tables_number   1
_chemical_formula_structural   Ti(CuTe)4
_chemical_formula_sum   'Ti24 Cu96 Te96'
_cell_volume   5110.91248325
_cell_formula_units_Z   24
loop_
 _symmetry_equiv_pos_site_id
 _symmetry_equiv_pos_as_xyz
  1  'x, y, z'
loop_
 _atom_type_symbol
 _atom_type_oxidation_number
  Ti4+  4.0
  Cu+  1.0
  Te2-  -2.0
loop_
 _atom_site_type_symbol
 _atom_site_label
 _atom_site_symmetry_multiplicity
 _atom_site_fract_x
 _atom_site_fract_y
 _atom_site_fract_z
 _atom_site_occupancy
  Ti4+  Ti0  1  0.00290121  0.00149181  0.25335855  1
  Ti4+  Ti1  1  0.00062644  0.49781984  0.26023425  1
  Ti4+  Ti2  1  0.49809185  -0.00132547  0.25978892  1
  Ti4+  Ti3  1  0.50274054  0.50205344  0.25766274  1
  Ti4+  Ti4  1  0.33538264  0.17109192  0.59078592  1
  Ti4+  Ti5  1  0.33628259  0.67024977  0.59291472  1
  Ti4+  Ti6  1  0.83207363  0.16635803  0.58999745  1
  Ti4+  Ti7  1  0.83667818  0.66692507  0.58847254  1
  Ti4+  Ti8  1  0.16576009  0.33272035  0.92379850  1
  Ti4+  Ti9  1  0.16625245  0.82969410  0.92468689  1
  Ti4+  Ti10  1  0.66251932  0.33074472  0.92606600  1
  Ti4+  Ti11  1  0.66558501  0.83255719  0.92470128  1
  Ti4+  Ti12  1  -0.00053136  0.00062826  0.75430281  1
  Ti4+  Ti13  1  0.00021225  0.50137194  0.75590143  1
  Ti4+  Ti14  1  0.49938764  0.00038860  0.75708171  1
  Ti4+  Ti15  1  0.49864079  0.49915020  0.75567191  1
  Ti4+  Ti16  1  0.33051299  0.16404859  0.08853380  1
  Ti4+  Ti17  1  0.33311214  0.66700723  0.09197105  1
  Ti4+  Ti18  1  0.83384563  0.16722379  0.08908074  1
  Ti4+  Ti19  1  0.83047877  0.66482271  0.08754671  1
  Ti4+  Ti20  1  0.16914051  0.33430591  0.42270664  1
  Ti4+  Ti21  1  0.16548021  0.83280109  0.42143440  1
  Ti4+  Ti22  1  0.66714697  0.33316929  0.42050542  1
  Ti4+  Ti23  1  0.66622738  0.83470453  0.42162939  1
  Cu+  Cu24  1  0.57698841  0.93097316  0.47631068  1
  Cu+  Cu25  1  0.51706251  0.25770145  0.14360889  1
  Cu+  Cu26  1  0.41121321  0.81739966  0.81444037  1
  Cu+  Cu27  1  0.08066477  0.65109146  0.47704833  1
  Cu+  Cu28  1  0.36165261  0.43362599  0.47299915  1
  Cu+  Cu29  1  0.18535430  0.58863821  0.80939861  1
  Cu+  Cu30  1  0.85051194  0.42199854  0.47556766  1
  Cu+  Cu31  1  0.34856069  0.92945578  0.47816279  1
  Cu+  Cu32  1  0.40382846  0.30941802  0.80936208  1
  Cu+  Cu33  1  0.23941125  0.97467323  0.13949943  1
  Cu+  Cu34  1  0.52483986  0.76286092  0.14225274  1
  Cu+  Cu35  1  0.02548427  0.26393700  0.13953442  1
  Cu+  Cu36  1  0.16170810  0.07523469  0.16672195  1
  Cu+  Cu37  1  0.16159383  0.58091550  0.17416216  1
  Cu+  Cu38  1  0.66322774  0.08011443  0.17174970  1
  Cu+  Cu39  1  0.66209779  0.58118297  0.16909475  1
  Cu+  Cu40  1  0.41976645  0.33641490  0.17141244  1
  Cu+  Cu41  1  0.42095059  0.83544619  0.17374477  1
  Cu+  Cu42  1  0.92194023  0.33472613  0.17235558  1
  Cu+  Cu43  1  0.91808058  0.83507036  0.16722465  1
  Cu+  Cu44  1  0.41396547  0.07931111  0.17184174  1
  Cu+  Cu45  1  0.42140068  0.58696552  0.17326338  1
  Cu+  Cu46  1  0.92499179  0.08909065  0.16813082  1
  Cu+  Cu47  1  0.91625257  0.58134277  0.17331084  1
  Cu+  Cu48  1  0.49567388  0.25134325  0.50317082  1
  Cu+  Cu49  1  0.49857314  0.75627560  0.50402022  1
  Cu+  Cu50  1  0.99643662  0.24630316  0.50353267  1
  Cu+  Cu51  1  0.99601416  0.74314490  0.50087846  1
  Cu+  Cu52  1  0.25332479  0.00618197  0.50438160  1
  Cu+  Cu53  1  0.25624407  0.50257647  0.50541343  1
  Cu+  Cu54  1  0.74832261  0.00401216  0.50343561  1
  Cu+  Cu55  1  0.75663284  0.50346694  0.50100842  1
  Cu+  Cu56  1  0.25843282  0.25791979  0.50431909  1
  Cu+  Cu57  1  0.25450329  0.75169366  0.50479706  1
  Cu+  Cu58  1  0.75382446  0.24912647  0.50233745  1
  Cu+  Cu59  1  0.75441616  0.75074649  0.50352459  1
  Cu+  Cu60  1  0.32861521  0.41059640  0.83631611  1
  Cu+  Cu61  1  0.32902058  0.91036658  0.83858175  1
  Cu+  Cu62  1  0.82841011  0.41416704  0.83962587  1
  Cu+  Cu63  1  0.82969914  0.91432248  0.83721409  1
  Cu+  Cu64  1  0.08041127  0.16907604  0.83676695  1
  Cu+  Cu65  1  0.08893107  0.66825082  0.83666983  1
  Cu+  Cu66  1  0.58300600  0.17066447  0.83978023  1
  Cu+  Cu67  1  0.58264128  0.66938098  0.83769292  1
  Cu+  Cu68  1  0.08588184  0.41729092  0.83837496  1
  Cu+  Cu69  1  0.08417125  0.91569918  0.83825147  1
  Cu+  Cu70  1  0.57755441  0.40947123  0.83873626  1
  Cu+  Cu71  1  0.58273921  0.91163950  0.83920906  1
  Cu+  Cu72  1  0.16900852  0.08779662  0.67300049  1
  Cu+  Cu73  1  0.17010258  0.58669346  0.68058062  1
  Cu+  Cu74  1  0.66894903  0.08641929  0.67584453  1
  Cu+  Cu75  1  0.67172272  0.58533456  0.67237456  1
  Cu+  Cu76  1  0.41507465  0.33288743  0.67980933  1
  Cu+  Cu77  1  0.41529053  0.83412544  0.68350459  1
  Cu+  Cu78  1  0.91359351  0.33132200  0.67489440  1
  Cu+  Cu79  1  0.91718435  0.83132670  0.67168456  1
  Cu+  Cu80  1  0.41687922  0.08695112  0.67633085  1
  Cu+  Cu81  1  0.41851647  0.58593866  0.67610667  1
  Cu+  Cu82  1  0.91303598  0.08345474  0.67299395  1
  Cu+  Cu83  1  0.91604045  0.58371398  0.67521518  1
  Cu+  Cu84  1  0.00296953  0.25424756  0.01087973  1
  Cu+  Cu85  1  -0.00044633  0.74701770  0.00628614  1
  Cu+  Cu86  1  0.49943625  0.24985124  0.01421673  1
  Cu+  Cu87  1  0.50255503  0.75293020  0.01420118  1
  Cu+  Cu88  1  0.24760983  0.49885225  0.00921579  1
  Cu+  Cu89  1  0.24500677  0.99238134  0.01140348  1
  Cu+  Cu90  1  0.74450143  0.49528997  0.00847950  1
  Cu+  Cu91  1  0.74635905  0.99756854  0.00693307  1
  Cu+  Cu92  1  0.24607273  0.24827568  0.00741080  1
  Cu+  Cu93  1  0.24829267  0.74796026  0.01192485  1
  Cu+  Cu94  1  0.74612503  0.25015380  0.01018093  1
  Cu+  Cu95  1  0.74546771  0.74855492  0.00743933  1
  Cu+  Cu96  1  0.34061828  0.42081709  0.34459488  1
  Cu+  Cu97  1  0.33307099  0.91637186  0.34735653  1
  Cu+  Cu98  1  0.83672802  0.41607711  0.34563441  1
  Cu+  Cu99  1  0.83809743  0.92069197  0.33611258  1
  Cu+  Cu100  1  0.08507386  0.16554891  0.33779602  1
  Cu+  Cu101  1  0.07846040  0.66153334  0.34755380  1
  Cu+  Cu102  1  0.57963014  0.16494848  0.34260609  1
  Cu+  Cu103  1  0.58318155  0.66712619  0.34217138  1
  Cu+  Cu104  1  0.08334308  0.41525843  0.34380347  1
  Cu+  Cu105  1  0.08157011  0.91790705  0.33864916  1
  Cu+  Cu106  1  0.58213908  0.41623251  0.34126873  1
  Cu+  Cu107  1  0.58022386  0.91715630  0.34818724  1
  Cu+  Cu108  1  -0.00761199  -0.00442347  0.10896985  1
  Cu+  Cu109  1  -0.00443008  0.50000362  0.11757347  1
  Cu+  Cu110  1  0.50087917  0.00086434  0.11603579  1
  Cu+  Cu111  1  0.49508226  0.49803484  0.11434720  1
  Cu+  Cu112  1  0.32946826  0.16679060  0.44703582  1
  Cu+  Cu113  1  0.33294031  0.66505013  0.44932476  1
  Cu+  Cu114  1  0.83620767  0.16571313  0.44525330  1
  Cu+  Cu115  1  0.82870894  0.66722345  0.44405444  1
  Cu+  Cu116  1  0.16373502  0.33232157  0.77988471  1
  Cu+  Cu117  1  0.16267490  0.83479886  0.78159647  1
  Cu+  Cu118  1  0.66852534  0.33657785  0.78295681  1
  Cu+  Cu119  1  0.66890496  0.83246720  0.78072645  1
  Te2-  Te120  1  0.00112068  0.00171286  0.38231053  1
  Te2-  Te121  1  0.00180244  0.49637419  0.39241450  1
  Te2-  Te122  1  0.49880239  0.00237219  0.39160841  1
  Te2-  Te123  1  0.50657828  0.50378627  0.38838076  1
  Te2-  Te124  1  0.33151160  0.16597022  0.72108233  1
  Te2-  Te125  1  0.33656406  0.66712999  0.72435789  1
  Te2-  Te126  1  0.83329918  0.16710804  0.71889362  1
  Te2-  Te127  1  0.83521025  0.66779116  0.71728538  1
  Te2-  Te128  1  0.16944381  0.33487684  0.05415863  1
  Te2-  Te129  1  0.16201716  0.82636181  0.05536458  1
  Te2-  Te130  1  0.66553504  0.33280356  0.05695333  1
  Te2-  Te131  1  0.66951296  0.83544374  0.05556867  1
  Te2-  Te132  1  0.48770972  0.24102648  0.88673994  1
  Te2-  Te133  1  0.49062899  0.74219969  0.88695772  1
  Te2-  Te134  1  0.99489748  0.25026250  0.88350258  1
  Te2-  Te135  1  0.99734839  0.74548427  0.88011158  1
  Te2-  Te136  1  0.25184278  0.00047371  0.88418830  1
  Te2-  Te137  1  0.25670527  0.50606289  0.88330972  1
  Te2-  Te138  1  0.75021879  0.00318080  0.88127026  1
  Te2-  Te139  1  0.74636884  0.50096130  0.88242818  1
  Te2-  Te140  1  0.24782314  0.24140924  0.88167761  1
  Te2-  Te141  1  0.25572202  0.74149958  0.88595893  1
  Te2-  Te142  1  0.74989086  0.24649544  0.88437506  1
  Te2-  Te143  1  0.74992686  0.74618273  0.88156486  1
  Te2-  Te144  1  0.33235151  0.41739222  0.21705542  1
  Te2-  Te145  1  0.32597302  0.90928022  0.21926421  1
  Te2-  Te146  1  0.83098540  0.41244697  0.21792249  1
  Te2-  Te147  1  0.83280604  0.91894980  0.21005052  1
  Te2-  Te148  1  0.09465281  0.17562942  0.21238551  1
  Te2-  Te149  1  0.08339952  0.66917475  0.22010886  1
  Te2-  Te150  1  0.58556963  0.17070295  0.21651608  1
  Te2-  Te151  1  0.59133383  0.67598619  0.21663126  1
  Te2-  Te152  1  0.09092419  0.41393605  0.21812741  1
  Te2-  Te153  1  0.08486302  0.90806436  0.21342581  1
  Te2-  Te154  1  0.58952977  0.41501336  0.21584594  1
  Te2-  Te155  1  0.58870552  0.91510043  0.22070470  1
  Te2-  Te156  1  0.16581615  0.08728482  0.54667812  1
  Te2-  Te157  1  0.16516703  0.58057886  0.55221074  1
  Te2-  Te158  1  0.65780842  0.08385964  0.55002389  1
  Te2-  Te159  1  0.66622722  0.58125275  0.54593828  1
  Te2-  Te160  1  0.42575422  0.34586034  0.55227635  1
  Te2-  Te161  1  0.42181939  0.84652160  0.55464373  1
  Te2-  Te162  1  0.92320423  0.34023047  0.54907644  1
  Te2-  Te163  1  0.92319730  0.83772550  0.54583407  1
  Te2-  Te164  1  0.42403097  0.08541989  0.55048313  1
  Te2-  Te165  1  0.42599779  0.58827166  0.54999001  1
  Te2-  Te166  1  0.91552374  0.07879777  0.54711483  1
  Te2-  Te167  1  0.92482519  0.57643801  0.54970026  1
  Te2-  Te168  1  -0.00154899  -0.00060365  0.88058388  1
  Te2-  Te169  1  -0.00232549  0.49903682  0.88281723  1
  Te2-  Te170  1  0.49940034  -0.00032931  0.88384659  1
  Te2-  Te171  1  0.49760992  0.49962893  0.88248856  1
  Te2-  Te172  1  0.33050473  0.16673492  0.21598767  1
  Te2-  Te173  1  0.33147585  0.66604802  0.21870355  1
  Te2-  Te174  1  0.83285290  0.16493110  0.21595858  1
  Te2-  Te175  1  0.83190549  0.66715624  0.21383412  1
  Te2-  Te176  1  0.16511584  0.33311472  0.54947521  1
  Te2-  Te177  1  0.16608608  0.83528773  0.54910590  1
  Te2-  Te178  1  0.66711246  0.33372361  0.54725981  1
  Te2-  Te179  1  0.66888032  0.83429935  0.54845220  1
  Te2-  Te180  1  0.32544241  0.41591485  0.70968135  1
  Te2-  Te181  1  0.32580030  0.91705435  0.71199257  1
  Te2-  Te182  1  0.82792216  0.41458169  0.71255319  1
  Te2-  Te183  1  0.82873901  0.91323799  0.70985068  1
  Te2-  Te184  1  0.08338032  0.17213111  0.70998770  1
  Te2-  Te185  1  0.08582588  0.67478847  0.71012018  1
  Te2-  Te186  1  0.58610012  0.17323165  0.71380192  1
  Te2-  Te187  1  0.58814836  0.67170134  0.71131448  1
  Te2-  Te188  1  0.08444469  0.41320331  0.71049661  1
  Te2-  Te189  1  0.08689107  0.91695136  0.71014685  1
  Te2-  Te190  1  0.58777942  0.41581588  0.71109856  1
  Te2-  Te191  1  0.58833928  0.91612743  0.71191596  1
  Te2-  Te192  1  0.15773611  0.07827068  0.04102602  1
  Te2-  Te193  1  0.15984260  0.57899520  0.04831766  1
  Te2-  Te194  1  0.66070449  0.08026862  0.04579820  1
  Te2-  Te195  1  0.65789918  0.57889238  0.04364052  1
  Te2-  Te196  1  0.41499272  0.33786492  0.04415907  1
  Te2-  Te197  1  0.41792599  0.84007755  0.04693804  1
  Te2-  Te198  1  0.91704215  0.34003186  0.04503945  1
  Te2-  Te199  1  0.91692473  0.83537299  0.04068306  1
  Te2-  Te200  1  0.41721563  0.07664843  0.04399084  1
  Te2-  Te201  1  0.41752935  0.57984035  0.04562496  1
  Te2-  Te202  1  0.91765238  0.08056697  0.04058535  1
  Te2-  Te203  1  0.91549471  0.57755683  0.04520042  1
  Te2-  Te204  1  0.49279292  0.24751089  0.37779328  1
  Te2-  Te205  1  0.49180778  0.74501102  0.37772214  1
  Te2-  Te206  1  0.99708341  0.24585524  0.37731719  1
  Te2-  Te207  1  0.99243768  0.74846664  0.37505742  1
  Te2-  Te208  1  0.25031710  0.00624107  0.37672583  1
  Te2-  Te209  1  0.25408449  0.50689897  0.37798861  1
  Te2-  Te210  1  0.75438762  0.00629905  0.37554044  1
  Te2-  Te211  1  0.75309326  0.50588141  0.37439196  1
  Te2-  Te212  1  0.25412055  0.24819859  0.37638127  1
  Te2-  Te213  1  0.25167940  0.74379025  0.37729758  1
  Te2-  Te214  1  0.75085623  0.24308207  0.37563159  1
  Te2-  Te215  1  0.75397138  0.75160903  0.37607572  1
