# generated using pymatgen
data_Ti(CuTe)4
_symmetry_space_group_name_H-M   'P 1'
_cell_length_a   16.88453880
_cell_length_b   16.88345798
_cell_length_c   20.69620645
_cell_angle_alpha   89.95208916
_cell_angle_beta   90.04558689
_cell_angle_gamma   120.02336245
_symmetry_Int_Tables_number   1
_chemical_formula_structural   Ti(CuTe)4
_chemical_formula_sum   'Ti24 Cu96 Te96'
_cell_volume   5108.21893652
_cell_formula_units_Z   24
loop_
 _symmetry_equiv_pos_site_id
 _symmetry_equiv_pos_as_xyz
  1  'x, y, z'
loop_
 _atom_type_symbol
 _atom_type_oxidation_number
  Ti4+  4.0
  Cu+  1.0
  Te2-  -2.0
loop_
 _atom_site_type_symbol
 _atom_site_label
 _atom_site_symmetry_multiplicity
 _atom_site_fract_x
 _atom_site_fract_y
 _atom_site_fract_z
 _atom_site_occupancy
  Ti4+  Ti0  1  0.00003823  -0.00034871  0.25831614  1
  Ti4+  Ti1  1  0.00165934  0.50324453  0.25705557  1
  Ti4+  Ti2  1  0.50226509  0.00259045  0.25551579  1
  Ti4+  Ti3  1  0.49975381  0.49901630  0.26072007  1
  Ti4+  Ti4  1  0.33827658  0.17155697  0.59398050  1
  Ti4+  Ti5  1  0.33310506  0.66895089  0.58805477  1
  Ti4+  Ti6  1  0.83643807  0.17083961  0.59215745  1
  Ti4+  Ti7  1  0.83529264  0.66892319  0.59267846  1
  Ti4+  Ti8  1  0.16153891  0.32940063  0.92250465  1
  Ti4+  Ti9  1  0.16327368  0.83054328  0.92506347  1
  Ti4+  Ti10  1  0.66078433  0.32817214  0.92728846  1
  Ti4+  Ti11  1  0.66497894  0.82876956  0.92176491  1
  Ti4+  Ti12  1  0.00049847  -0.00078942  0.75201752  1
  Ti4+  Ti13  1  0.00096887  0.49975272  0.75724925  1
  Ti4+  Ti14  1  0.50167616  0.00240183  0.75538303  1
  Ti4+  Ti15  1  0.49973740  0.49921650  0.75552544  1
  Ti4+  Ti16  1  0.33267539  0.16452630  0.08893870  1
  Ti4+  Ti17  1  0.33164809  0.66462161  0.08810931  1
  Ti4+  Ti18  1  0.83181230  0.16477998  0.08824729  1
  Ti4+  Ti19  1  0.83319227  0.66437932  0.08828670  1
  Ti4+  Ti20  1  0.16703807  0.33556428  0.42135267  1
  Ti4+  Ti21  1  0.16868544  0.83434707  0.42370945  1
  Ti4+  Ti22  1  0.66706671  0.33392939  0.42443715  1
  Ti4+  Ti23  1  0.66861900  0.83378516  0.42129720  1
  Cu+  Cu24  1  0.74699156  0.26416549  0.14345522  1
  Cu+  Cu25  1  0.34850641  0.43028128  0.47636884  1
  Cu+  Cu26  1  0.90386119  0.80903442  0.80743295  1
  Cu+  Cu27  1  0.40182634  0.31395570  0.81190286  1
  Cu+  Cu28  1  0.57996894  0.43039425  0.48003346  1
  Cu+  Cu29  1  0.24550750  0.76344578  0.14160659  1
  Cu+  Cu30  1  0.01743076  0.76354892  0.14266767  1
  Cu+  Cu31  1  0.89956521  0.31248651  0.81024692  1
  Cu+  Cu32  1  0.90315427  0.08249057  0.80663430  1
  Cu+  Cu33  1  0.40270163  0.08634522  0.81139133  1
  Cu+  Cu34  1  0.51434610  0.26116764  0.14762149  1
  Cu+  Cu35  1  0.07121615  0.43032088  0.47227667  1
  Cu+  Cu36  1  0.16208213  0.08143771  0.17157808  1
  Cu+  Cu37  1  0.16469117  0.58556892  0.16982719  1
  Cu+  Cu38  1  0.66471283  0.08636909  0.16806940  1
  Cu+  Cu39  1  0.66359566  0.57948458  0.17253232  1
  Cu+  Cu40  1  0.41909686  0.33693722  0.17383911  1
  Cu+  Cu41  1  0.41759734  0.83652290  0.16930533  1
  Cu+  Cu42  1  0.91811442  0.33706534  0.17201646  1
  Cu+  Cu43  1  0.92001501  0.83670063  0.17099478  1
  Cu+  Cu44  1  0.42408141  0.08512326  0.16750808  1
  Cu+  Cu45  1  0.41682931  0.57906875  0.17289029  1
  Cu+  Cu46  1  0.91865783  0.08020044  0.17189628  1
  Cu+  Cu47  1  0.92345570  0.58588569  0.16745933  1
  Cu+  Cu48  1  0.49952882  0.25370119  0.50720660  1
  Cu+  Cu49  1  0.49926645  0.75223394  0.50108649  1
  Cu+  Cu50  1  0.99733002  0.25571300  0.50432582  1
  Cu+  Cu51  1  0.99979931  0.75101172  0.50809997  1
  Cu+  Cu52  1  0.25725329  0.00357203  0.50820793  1
  Cu+  Cu53  1  0.24940324  0.50650316  0.50105616  1
  Cu+  Cu54  1  0.75404323  0.00339192  0.50547563  1
  Cu+  Cu55  1  0.75215421  0.50492796  0.50700936  1
  Cu+  Cu56  1  0.25833527  0.25544145  0.50413786  1
  Cu+  Cu57  1  0.25349492  0.74979651  0.50244743  1
  Cu+  Cu58  1  0.75598246  0.25260357  0.50570436  1
  Cu+  Cu59  1  0.75554082  0.75178295  0.50482861  1
  Cu+  Cu60  1  0.32773659  0.41176493  0.83695401  1
  Cu+  Cu61  1  0.33046813  0.91448198  0.83881607  1
  Cu+  Cu62  1  0.82964288  0.41207875  0.84149176  1
  Cu+  Cu63  1  0.82770128  0.90840624  0.83349855  1
  Cu+  Cu64  1  0.08017370  0.17002643  0.83205656  1
  Cu+  Cu65  1  0.08427750  0.66890819  0.83953651  1
  Cu+  Cu66  1  0.57915059  0.16834675  0.83802557  1
  Cu+  Cu67  1  0.58387875  0.66882479  0.83584937  1
  Cu+  Cu68  1  0.07802139  0.40884629  0.83607322  1
  Cu+  Cu69  1  0.07825031  0.90667048  0.83425725  1
  Cu+  Cu70  1  0.57691865  0.40838961  0.83856851  1
  Cu+  Cu71  1  0.58268184  0.91098854  0.83510457  1
  Cu+  Cu72  1  0.17176943  0.08494012  0.67410964  1
  Cu+  Cu73  1  0.17039322  0.58672646  0.67318364  1
  Cu+  Cu74  1  0.67006280  0.08637237  0.67412055  1
  Cu+  Cu75  1  0.67008071  0.58579493  0.67694895  1
  Cu+  Cu76  1  0.41829726  0.33329509  0.68281729  1
  Cu+  Cu77  1  0.41687103  0.83291181  0.67126587  1
  Cu+  Cu78  1  0.91788664  0.33275575  0.68102961  1
  Cu+  Cu79  1  0.91699333  0.83034966  0.67886921  1
  Cu+  Cu80  1  0.41950296  0.08880902  0.68195469  1
  Cu+  Cu81  1  0.41564617  0.58660133  0.67209967  1
  Cu+  Cu82  1  0.91893040  0.08845017  0.67716879  1
  Cu+  Cu83  1  0.91809916  0.58634462  0.67621680  1
  Cu+  Cu84  1  -0.00119251  0.24744368  0.00825847  1
  Cu+  Cu85  1  -0.00114169  0.74696405  0.01326556  1
  Cu+  Cu86  1  0.49779296  0.24755872  0.01777981  1
  Cu+  Cu87  1  0.50130623  0.74613388  0.00565821  1
  Cu+  Cu88  1  0.24754736  0.49415677  0.00509138  1
  Cu+  Cu89  1  0.24619460  0.99690340  0.00796149  1
  Cu+  Cu90  1  0.74548772  0.49475521  0.00929990  1
  Cu+  Cu91  1  0.74917278  0.99296931  0.00578506  1
  Cu+  Cu92  1  0.24664112  0.24929782  0.00804230  1
  Cu+  Cu93  1  0.24616705  0.74849085  0.01216515  1
  Cu+  Cu94  1  0.74595472  0.24793011  0.01462545  1
  Cu+  Cu95  1  0.74763885  0.74724569  0.00686722  1
  Cu+  Cu96  1  0.33601553  0.41612126  0.34688169  1
  Cu+  Cu97  1  0.33677288  0.91920420  0.33989695  1
  Cu+  Cu98  1  0.83401150  0.41724840  0.34216043  1
  Cu+  Cu99  1  0.83701124  0.91719750  0.34035143  1
  Cu+  Cu100  1  0.08016029  0.16251544  0.34183859  1
  Cu+  Cu101  1  0.08394433  0.66808389  0.34376966  1
  Cu+  Cu102  1  0.58474057  0.16573125  0.34408190  1
  Cu+  Cu103  1  0.58464601  0.66472827  0.34201283  1
  Cu+  Cu104  1  0.08030412  0.41848432  0.34339630  1
  Cu+  Cu105  1  0.08319039  0.91898118  0.34368091  1
  Cu+  Cu106  1  0.58032324  0.41496069  0.35036775  1
  Cu+  Cu107  1  0.58493608  0.91970703  0.33759305  1
  Cu+  Cu108  1  -0.00142484  0.00004261  0.11391608  1
  Cu+  Cu109  1  0.00134257  0.49711711  0.11244279  1
  Cu+  Cu110  1  0.50146936  -0.00485106  0.11016662  1
  Cu+  Cu111  1  0.49989887  0.50214138  0.11678036  1
  Cu+  Cu112  1  0.33100340  0.16275805  0.45169509  1
  Cu+  Cu113  1  0.33849914  0.67262530  0.44259626  1
  Cu+  Cu114  1  0.83089684  0.16345513  0.44920709  1
  Cu+  Cu115  1  0.83730077  0.66846438  0.45023563  1
  Cu+  Cu116  1  0.16902397  0.33783145  0.77744086  1
  Cu+  Cu117  1  0.17009122  0.83258466  0.78073821  1
  Cu+  Cu118  1  0.67005603  0.33770543  0.78404044  1
  Cu+  Cu119  1  0.66345530  0.83264662  0.77555976  1
  Te2-  Te120  1  -0.00040522  -0.00062821  0.38765988  1
  Te2-  Te121  1  -0.00152247  0.50279665  0.38722836  1
  Te2-  Te122  1  0.50142486  -0.00039779  0.38397683  1
  Te2-  Te123  1  0.50134670  0.50237907  0.39275021  1
  Te2-  Te124  1  0.33253190  0.16719235  0.72623931  1
  Te2-  Te125  1  0.33465936  0.66922527  0.71704294  1
  Te2-  Te126  1  0.83206196  0.16630298  0.72416024  1
  Te2-  Te127  1  0.83332906  0.66442856  0.72331906  1
  Te2-  Te128  1  0.16357063  0.33088045  0.05124353  1
  Te2-  Te129  1  0.16559523  0.83377147  0.05669689  1
  Te2-  Te130  1  0.66464686  0.33268021  0.05889752  1
  Te2-  Te131  1  0.66533602  0.82921655  0.05069111  1
  Te2-  Te132  1  0.48486253  0.24103619  0.88864423  1
  Te2-  Te133  1  0.49309650  0.74428781  0.87999328  1
  Te2-  Te134  1  0.98469692  0.24022018  0.88226818  1
  Te2-  Te135  1  0.98960873  0.74054057  0.88537804  1
  Te2-  Te136  1  0.24517926  0.00251040  0.88204835  1
  Te2-  Te137  1  0.24716612  0.49963838  0.87917139  1
  Te2-  Te138  1  0.75003121  0.00199255  0.87986917  1
  Te2-  Te139  1  0.74559708  0.49743379  0.88327519  1
  Te2-  Te140  1  0.24552926  0.23993908  0.88201627  1
  Te2-  Te141  1  0.25096771  0.74725435  0.88457620  1
  Te2-  Te142  1  0.74525090  0.24059947  0.88670345  1
  Te2-  Te143  1  0.75015206  0.73972591  0.88110894  1
  Te2-  Te144  1  0.32867550  0.41273981  0.21950583  1
  Te2-  Te145  1  0.32883988  0.91895469  0.21412367  1
  Te2-  Te146  1  0.82886151  0.41965971  0.21616974  1
  Te2-  Te147  1  0.82879327  0.91253946  0.21477535  1
  Te2-  Te148  1  0.08576487  0.17168919  0.21608233  1
  Te2-  Te149  1  0.09012258  0.67940788  0.21709872  1
  Te2-  Te150  1  0.59125127  0.17995005  0.21754403  1
  Te2-  Te151  1  0.58547174  0.66885004  0.21609684  1
  Te2-  Te152  1  0.08621539  0.41746890  0.21570231  1
  Te2-  Te153  1  0.09049176  0.91568969  0.21768749  1
  Te2-  Te154  1  0.58931482  0.41458088  0.22198223  1
  Te2-  Te155  1  0.58684537  0.91764412  0.21141980  1
  Te2-  Te156  1  0.16970051  0.08676831  0.54825173  1
  Te2-  Te157  1  0.15844417  0.58351642  0.54749475  1
  Te2-  Te158  1  0.66626664  0.08457510  0.54848298  1
  Te2-  Te159  1  0.66152901  0.58547493  0.55118967  1
  Te2-  Te160  1  0.42486377  0.34776912  0.55454489  1
  Te2-  Te161  1  0.42065419  0.84035985  0.54567913  1
  Te2-  Te162  1  0.92082222  0.34587555  0.55337910  1
  Te2-  Te163  1  0.92136892  0.84021178  0.55158086  1
  Te2-  Te164  1  0.42437227  0.08707621  0.55429973  1
  Te2-  Te165  1  0.42198357  0.58486578  0.54633040  1
  Te2-  Te166  1  0.92276444  0.08735760  0.54943144  1
  Te2-  Te167  1  0.91986959  0.58256531  0.55054403  1
  Te2-  Te168  1  -0.00099132  -0.00139846  0.87949865  1
  Te2-  Te169  1  -0.00014423  0.49867311  0.88435725  1
  Te2-  Te170  1  0.50011672  -0.00312371  0.88242219  1
  Te2-  Te171  1  0.49699662  0.49892425  0.88241741  1
  Te2-  Te172  1  0.33337809  0.16487951  0.21571008  1
  Te2-  Te173  1  0.33485942  0.66732858  0.21519377  1
  Te2-  Te174  1  0.83414525  0.16612236  0.21510360  1
  Te2-  Te175  1  0.83453664  0.66625217  0.21526295  1
  Te2-  Te176  1  0.16853575  0.33618342  0.54891847  1
  Te2-  Te177  1  0.17022682  0.83429443  0.54973380  1
  Te2-  Te178  1  0.66988047  0.33533293  0.55147105  1
  Te2-  Te179  1  0.66756915  0.83427841  0.54758487  1
  Te2-  Te180  1  0.32789690  0.41679797  0.70887994  1
  Te2-  Te181  1  0.32939382  0.91439967  0.71037695  1
  Te2-  Te182  1  0.82839360  0.41595412  0.71280157  1
  Te2-  Te183  1  0.82706560  0.91460913  0.70565550  1
  Te2-  Te184  1  0.09086696  0.17436040  0.70698765  1
  Te2-  Te185  1  0.08725653  0.67206630  0.71310444  1
  Te2-  Te186  1  0.59193450  0.17710710  0.71193297  1
  Te2-  Te187  1  0.58496814  0.67131262  0.71018178  1
  Te2-  Te188  1  0.09004629  0.41729433  0.70938028  1
  Te2-  Te189  1  0.09008915  0.91459755  0.70807369  1
  Te2-  Te190  1  0.59052478  0.41572158  0.71173163  1
  Te2-  Te191  1  0.58604771  0.91583835  0.70869981  1
  Te2-  Te192  1  0.15989128  0.07962389  0.04543175  1
  Te2-  Te193  1  0.15926500  0.57582903  0.04244300  1
  Te2-  Te194  1  0.65980257  0.07437606  0.04137820  1
  Te2-  Te195  1  0.65973637  0.57819934  0.04595548  1
  Te2-  Te196  1  0.41591353  0.33878363  0.04601838  1
  Te2-  Te197  1  0.42001115  0.83584140  0.04106710  1
  Te2-  Te198  1  0.91922181  0.33796169  0.04352683  1
  Te2-  Te199  1  0.91711057  0.83758780  0.04337503  1
  Te2-  Te200  1  0.41610047  0.07399706  0.04199482  1
  Te2-  Te201  1  0.41647438  0.57741591  0.04506544  1
  Te2-  Te202  1  0.91755312  0.07817547  0.04477678  1
  Te2-  Te203  1  0.91634685  0.57405997  0.04176295  1
  Te2-  Te204  1  0.49283929  0.24318926  0.38068822  1
  Te2-  Te205  1  0.49766430  0.74935665  0.37432595  1
  Te2-  Te206  1  0.99385804  0.24676875  0.37717838  1
  Te2-  Te207  1  0.99592945  0.74930844  0.38068943  1
  Te2-  Te208  1  0.25427224  0.00581913  0.38001304  1
  Te2-  Te209  1  0.25377325  0.50818368  0.37338899  1
  Te2-  Te210  1  0.75421515  0.00507880  0.37734147  1
  Te2-  Te211  1  0.75419073  0.50685079  0.37927123  1
  Te2-  Te212  1  0.25036427  0.24442542  0.37795846  1
  Te2-  Te213  1  0.25472704  0.74938995  0.37615968  1
  Te2-  Te214  1  0.75445682  0.24872905  0.37965987  1
  Te2-  Te215  1  0.75488853  0.74732030  0.37824450  1
