# generated using pymatgen
data_Ti(CuTe)4
_symmetry_space_group_name_H-M   'P 1'
_cell_length_a   16.89636969
_cell_length_b   16.90179502
_cell_length_c   20.72439825
_cell_angle_alpha   90.05359453
_cell_angle_beta   90.00067615
_cell_angle_gamma   119.99226570
_symmetry_Int_Tables_number   1
_chemical_formula_structural   Ti(CuTe)4
_chemical_formula_sum   'Ti24 Cu96 Te96'
_cell_volume   5125.92656328
_cell_formula_units_Z   24
loop_
 _symmetry_equiv_pos_site_id
 _symmetry_equiv_pos_as_xyz
  1  'x, y, z'
loop_
 _atom_type_symbol
 _atom_type_oxidation_number
  Ti4+  4.0
  Cu+  1.0
  Te2-  -2.0
loop_
 _atom_site_type_symbol
 _atom_site_label
 _atom_site_symmetry_multiplicity
 _atom_site_fract_x
 _atom_site_fract_y
 _atom_site_fract_z
 _atom_site_occupancy
  Ti4+  Ti0  1  -0.00338857  0.00024549  0.25857692  1
  Ti4+  Ti1  1  0.00038940  0.50170916  0.26042511  1
  Ti4+  Ti2  1  0.50088937  0.00106546  0.25966121  1
  Ti4+  Ti3  1  0.49825786  0.50029996  0.25716666  1
  Ti4+  Ti4  1  0.32949360  0.16380315  0.58749158  1
  Ti4+  Ti5  1  0.33734276  0.66891656  0.59331383  1
  Ti4+  Ti6  1  0.83484869  0.16749042  0.59208832  1
  Ti4+  Ti7  1  0.83233857  0.66436555  0.58721790  1
  Ti4+  Ti8  1  0.16590603  0.33353074  0.92431160  1
  Ti4+  Ti9  1  0.16981594  0.83364624  0.92222480  1
  Ti4+  Ti10  1  0.66479824  0.33070612  0.92143011  1
  Ti4+  Ti11  1  0.66786170  0.83343142  0.92826715  1
  Ti4+  Ti12  1  0.00029621  -0.00093900  0.75606782  1
  Ti4+  Ti13  1  0.00089153  0.49887562  0.75387362  1
  Ti4+  Ti14  1  0.49918270  0.00138430  0.75395075  1
  Ti4+  Ti15  1  0.50131211  0.50042500  0.75522627  1
  Ti4+  Ti16  1  0.33272187  0.16680938  0.08936065  1
  Ti4+  Ti17  1  0.33387958  0.66781253  0.09055499  1
  Ti4+  Ti18  1  0.83308040  0.16724222  0.08975362  1
  Ti4+  Ti19  1  0.83399853  0.66649694  0.08857774  1
  Ti4+  Ti20  1  0.16461225  0.33301818  0.42176082  1
  Ti4+  Ti21  1  0.16903930  0.83643601  0.41942085  1
  Ti4+  Ti22  1  0.66755988  0.33497455  0.42075850  1
  Ti4+  Ti23  1  0.66571851  0.83181049  0.42334869  1
  Cu+  Cu24  1  0.35588774  0.92669627  0.47491069  1
  Cu+  Cu25  1  0.40393182  0.09577247  0.80420807  1
  Cu+  Cu26  1  0.06822164  0.14685048  0.47338059  1
  Cu+  Cu27  1  0.41645413  0.82256277  0.81331282  1
  Cu+  Cu28  1  0.07323490  0.92058878  0.47500125  1
  Cu+  Cu29  1  0.73714206  0.98400317  0.14468976  1
  Cu+  Cu30  1  0.85169499  0.42112478  0.47492947  1
  Cu+  Cu31  1  0.08486212  0.65853941  0.47891420  1
  Cu+  Cu32  1  0.56899366  0.64022836  0.47294111  1
  Cu+  Cu33  1  0.73931738  0.75432842  0.14553219  1
  Cu+  Cu34  1  0.18168618  0.58631051  0.81146144  1
  Cu+  Cu35  1  0.90645300  0.31118122  0.80918163  1
  Cu+  Cu36  1  0.16294517  0.08430644  0.17266685  1
  Cu+  Cu37  1  0.16441734  0.58438285  0.17437651  1
  Cu+  Cu38  1  0.66225957  0.08004910  0.17252088  1
  Cu+  Cu39  1  0.66140242  0.58330444  0.17086525  1
  Cu+  Cu40  1  0.41613046  0.33619768  0.17133271  1
  Cu+  Cu41  1  0.41734413  0.83742372  0.17315832  1
  Cu+  Cu42  1  0.91663434  0.33851581  0.17314887  1
  Cu+  Cu43  1  0.91480405  0.83636387  0.17075423  1
  Cu+  Cu44  1  0.41628981  0.08237253  0.17423623  1
  Cu+  Cu45  1  0.41779558  0.58275712  0.17148525  1
  Cu+  Cu46  1  0.91404261  0.08024779  0.17121638  1
  Cu+  Cu47  1  0.91938315  0.58170821  0.17343992  1
  Cu+  Cu48  1  0.49604393  0.24752705  0.50182441  1
  Cu+  Cu49  1  0.49923149  0.74620388  0.50561119  1
  Cu+  Cu50  1  0.99509184  0.24522138  0.50446721  1
  Cu+  Cu51  1  0.99426580  0.74641854  0.49935503  1
  Cu+  Cu52  1  0.25333523  0.00539808  0.49889185  1
  Cu+  Cu53  1  0.25205752  0.50341126  0.50472664  1
  Cu+  Cu54  1  0.75094155  0.00256989  0.50637895  1
  Cu+  Cu55  1  0.75530956  0.50296264  0.50026525  1
  Cu+  Cu56  1  0.24355886  0.24292997  0.50068041  1
  Cu+  Cu57  1  0.25889701  0.75218013  0.50505402  1
  Cu+  Cu58  1  0.75488990  0.25203326  0.50574987  1
  Cu+  Cu59  1  0.74545313  0.74260794  0.50161293  1
  Cu+  Cu60  1  0.33256722  0.41637791  0.83735251  1
  Cu+  Cu61  1  0.33066013  0.91622584  0.83337169  1
  Cu+  Cu62  1  0.82988836  0.40895248  0.83537675  1
  Cu+  Cu63  1  0.83266556  0.91526467  0.84157445  1
  Cu+  Cu64  1  0.08390707  0.16846538  0.83823481  1
  Cu+  Cu65  1  0.09031596  0.66982372  0.83506928  1
  Cu+  Cu66  1  0.58033070  0.17124229  0.83356328  1
  Cu+  Cu67  1  0.58750895  0.66873577  0.83972148  1
  Cu+  Cu68  1  0.08434690  0.41169723  0.83596198  1
  Cu+  Cu69  1  0.08518228  0.91372453  0.83679567  1
  Cu+  Cu70  1  0.58456435  0.41403230  0.83546245  1
  Cu+  Cu71  1  0.58782560  0.91504850  0.84027296  1
  Cu+  Cu72  1  0.16439199  0.08056376  0.67350014  1
  Cu+  Cu73  1  0.17187396  0.58714997  0.68136762  1
  Cu+  Cu74  1  0.67015637  0.08706239  0.67478472  1
  Cu+  Cu75  1  0.66706562  0.58315980  0.67260778  1
  Cu+  Cu76  1  0.41394029  0.33037780  0.67137553  1
  Cu+  Cu77  1  0.41807391  0.83313627  0.68113624  1
  Cu+  Cu78  1  0.91695348  0.33028143  0.67941089  1
  Cu+  Cu79  1  0.91340655  0.82945650  0.67278335  1
  Cu+  Cu80  1  0.41376170  0.08454607  0.67635663  1
  Cu+  Cu81  1  0.41973689  0.58652053  0.67816139  1
  Cu+  Cu82  1  0.91608948  0.08371596  0.67803199  1
  Cu+  Cu83  1  0.91557478  0.58415375  0.67277105  1
  Cu+  Cu84  1  0.00186660  0.25421914  0.00937020  1
  Cu+  Cu85  1  0.00506312  0.74944991  0.00740510  1
  Cu+  Cu86  1  0.50091376  0.24966877  0.00744880  1
  Cu+  Cu87  1  0.50219933  0.75180487  0.01136791  1
  Cu+  Cu88  1  0.24745487  0.49826250  0.00953886  1
  Cu+  Cu89  1  0.25030570  0.99868139  0.00739829  1
  Cu+  Cu90  1  0.75030640  0.49578803  0.00541298  1
  Cu+  Cu91  1  0.74987232  0.99742021  0.01496286  1
  Cu+  Cu92  1  0.24769441  0.25164444  0.00820354  1
  Cu+  Cu93  1  0.25177712  0.75130497  0.00846143  1
  Cu+  Cu94  1  0.74874137  0.25073537  0.00628151  1
  Cu+  Cu95  1  0.75093342  0.75217200  0.01524523  1
  Cu+  Cu96  1  0.33391288  0.41965648  0.34051815  1
  Cu+  Cu97  1  0.33967655  0.92123597  0.34648273  1
  Cu+  Cu98  1  0.83833509  0.42082449  0.34705447  1
  Cu+  Cu99  1  0.83219858  0.91773618  0.34343058  1
  Cu+  Cu100  1  0.07866914  0.16432560  0.34518386  1
  Cu+  Cu101  1  0.08400221  0.66583407  0.34709840  1
  Cu+  Cu102  1  0.58328853  0.16552605  0.34110644  1
  Cu+  Cu103  1  0.57954102  0.66263645  0.34552276  1
  Cu+  Cu104  1  0.08226347  0.41906731  0.34225928  1
  Cu+  Cu105  1  0.08326982  0.92231212  0.34436924  1
  Cu+  Cu106  1  0.58177978  0.41936443  0.33923011  1
  Cu+  Cu107  1  0.58210307  0.91801057  0.34439314  1
  Cu+  Cu108  1  0.00275294  0.00107091  0.11493400  1
  Cu+  Cu109  1  0.00162145  0.50080849  0.11741024  1
  Cu+  Cu110  1  0.49833981  0.00253315  0.11708124  1
  Cu+  Cu111  1  0.49838795  0.49794040  0.11378258  1
  Cu+  Cu112  1  0.33719527  0.17519783  0.44294542  1
  Cu+  Cu113  1  0.33435595  0.66379220  0.44886306  1
  Cu+  Cu114  1  0.82831999  0.16386874  0.44959276  1
  Cu+  Cu115  1  0.83206283  0.66724211  0.44229581  1
  Cu+  Cu116  1  0.17168696  0.33041615  0.78136351  1
  Cu+  Cu117  1  0.16318816  0.83197475  0.77784706  1
  Cu+  Cu118  1  0.66873335  0.33809149  0.77704225  1
  Cu+  Cu119  1  0.67081415  0.83324498  0.78564394  1
  Te2-  Te120  1  -0.00482861  -0.00151998  0.39045255  1
  Te2-  Te121  1  0.00370695  0.50130899  0.39353188  1
  Te2-  Te122  1  0.50501182  0.00397768  0.39090104  1
  Te2-  Te123  1  0.49640962  0.49580329  0.38809578  1
  Te2-  Te124  1  0.32904304  0.16700883  0.71754727  1
  Te2-  Te125  1  0.33774926  0.66779107  0.72479918  1
  Te2-  Te126  1  0.83252699  0.16442687  0.72243858  1
  Te2-  Te127  1  0.83180411  0.66479189  0.71554926  1
  Te2-  Te128  1  0.16608212  0.33393927  0.05317388  1
  Te2-  Te129  1  0.16947227  0.83414021  0.05069732  1
  Te2-  Te130  1  0.66585589  0.33214548  0.05013474  1
  Te2-  Te131  1  0.66492823  0.83185322  0.06009426  1
  Te2-  Te132  1  0.48996582  0.24730949  0.88154894  1
  Te2-  Te133  1  0.49508701  0.74435446  0.88529402  1
  Te2-  Te134  1  0.99183482  0.24414050  0.88354133  1
  Te2-  Te135  1  0.99904053  0.74542522  0.88098509  1
  Te2-  Te136  1  0.25306920  0.00667448  0.88116103  1
  Te2-  Te137  1  0.25517728  0.50672172  0.88340002  1
  Te2-  Te138  1  0.75360022  0.00426387  0.88729915  1
  Te2-  Te139  1  0.75345668  0.50118821  0.87904032  1
  Te2-  Te140  1  0.25179551  0.24857152  0.88210691  1
  Te2-  Te141  1  0.25898004  0.74595779  0.88263841  1
  Te2-  Te142  1  0.74783665  0.23959454  0.88071025  1
  Te2-  Te143  1  0.75358530  0.74823566  0.88773952  1
  Te2-  Te144  1  0.32700827  0.41534970  0.21513750  1
  Te2-  Te145  1  0.32888703  0.91518537  0.21987123  1
  Te2-  Te146  1  0.82830232  0.41593413  0.22065294  1
  Te2-  Te147  1  0.82059710  0.91141777  0.21762201  1
  Te2-  Te148  1  0.08085784  0.17028005  0.21811785  1
  Te2-  Te149  1  0.08616051  0.67336977  0.21991407  1
  Te2-  Te150  1  0.58611758  0.17121284  0.21547765  1
  Te2-  Te151  1  0.58358125  0.67461516  0.21887554  1
  Te2-  Te152  1  0.08470836  0.41551883  0.21675829  1
  Te2-  Te153  1  0.08234125  0.91594997  0.21690712  1
  Te2-  Te154  1  0.58493961  0.41626604  0.21377641  1
  Te2-  Te155  1  0.58381216  0.91014413  0.21894878  1
  Te2-  Te156  1  0.15314200  0.07446263  0.54784251  1
  Te2-  Te157  1  0.16474603  0.58241904  0.55312916  1
  Te2-  Te158  1  0.66437215  0.08431877  0.54924960  1
  Te2-  Te159  1  0.65911210  0.57406192  0.54695223  1
  Te2-  Te160  1  0.41257140  0.33295422  0.54506326  1
  Te2-  Te161  1  0.42647958  0.84159155  0.55301549  1
  Te2-  Te162  1  0.92479912  0.34072988  0.55214665  1
  Te2-  Te163  1  0.91458708  0.83657232  0.54661097  1
  Te2-  Te164  1  0.42033543  0.08065238  0.54925742  1
  Te2-  Te165  1  0.41899676  0.57771714  0.55163304  1
  Te2-  Te166  1  0.91770776  0.07667219  0.55189256  1
  Te2-  Te167  1  0.92371828  0.57872410  0.54751133  1
  Te2-  Te168  1  0.00235461  -0.00071476  0.88223414  1
  Te2-  Te169  1  0.00027793  0.49946363  0.88110534  1
  Te2-  Te170  1  0.50093613  0.00121051  0.88124252  1
  Te2-  Te171  1  0.50139909  0.49879527  0.88127288  1
  Te2-  Te172  1  0.33171985  0.16778260  0.21553361  1
  Te2-  Te173  1  0.33385749  0.66794328  0.21673446  1
  Te2-  Te174  1  0.83277510  0.16870599  0.21657532  1
  Te2-  Te175  1  0.83261555  0.66623078  0.21540812  1
  Te2-  Te176  1  0.16598462  0.33357403  0.54856096  1
  Te2-  Te177  1  0.16618543  0.83376922  0.54774469  1
  Te2-  Te178  1  0.66530724  0.33401014  0.54752794  1
  Te2-  Te179  1  0.66850066  0.83333423  0.55005886  1
  Te2-  Te180  1  0.32955796  0.41507857  0.71057197  1
  Te2-  Te181  1  0.32480123  0.91278069  0.70687139  1
  Te2-  Te182  1  0.82809838  0.41454140  0.70831086  1
  Te2-  Te183  1  0.82844387  0.91334142  0.71403530  1
  Te2-  Te184  1  0.08595180  0.17089125  0.71179862  1
  Te2-  Te185  1  0.08469074  0.67265810  0.70849313  1
  Te2-  Te186  1  0.58671129  0.17418568  0.70770585  1
  Te2-  Te187  1  0.58931366  0.67346856  0.71328593  1
  Te2-  Te188  1  0.08995306  0.41354539  0.70896690  1
  Te2-  Te189  1  0.08309562  0.91148076  0.70978763  1
  Te2-  Te190  1  0.58397210  0.41302422  0.70856277  1
  Te2-  Te191  1  0.59039232  0.91743618  0.71290303  1
  Te2-  Te192  1  0.16216237  0.08127610  0.04509680  1
  Te2-  Te193  1  0.16201013  0.58219097  0.04727646  1
  Te2-  Te194  1  0.66037300  0.08126091  0.04499719  1
  Te2-  Te195  1  0.66182826  0.57814548  0.04331196  1
  Te2-  Te196  1  0.41815108  0.33727572  0.04454829  1
  Te2-  Te197  1  0.42066904  0.84022720  0.04695783  1
  Te2-  Te198  1  0.91742132  0.33928448  0.04643896  1
  Te2-  Te199  1  0.92414843  0.83926224  0.04403263  1
  Te2-  Te200  1  0.41886077  0.08120121  0.04671548  1
  Te2-  Te201  1  0.41862748  0.58081974  0.04555243  1
  Te2-  Te202  1  0.92265831  0.08359226  0.04497237  1
  Te2-  Te203  1  0.91953087  0.57980760  0.04630551  1
  Te2-  Te204  1  0.49637895  0.24921750  0.37546179  1
  Te2-  Te205  1  0.49295118  0.74805381  0.37900320  1
  Te2-  Te206  1  0.99111035  0.24887384  0.37791988  1
  Te2-  Te207  1  0.99423961  0.74957022  0.37287707  1
  Te2-  Te208  1  0.25569697  0.01097043  0.37305926  1
  Te2-  Te209  1  0.25176996  0.50597047  0.37858618  1
  Te2-  Te210  1  0.75123624  0.00493066  0.38013874  1
  Te2-  Te211  1  0.75131493  0.50717351  0.37429873  1
  Te2-  Te212  1  0.25194058  0.24902222  0.37409925  1
  Te2-  Te213  1  0.25657473  0.74835786  0.37752949  1
  Te2-  Te214  1  0.75345867  0.24763952  0.37791122  1
  Te2-  Te215  1  0.75261995  0.74743400  0.37501512  1
