# generated using pymatgen
data_Ti(CuTe)4
_symmetry_space_group_name_H-M   'P 1'
_cell_length_a   16.89358253
_cell_length_b   16.88965494
_cell_length_c   20.71571799
_cell_angle_alpha   90.01455307
_cell_angle_beta   89.96732450
_cell_angle_gamma   119.98820174
_symmetry_Int_Tables_number   1
_chemical_formula_structural   Ti(CuTe)4
_chemical_formula_sum   'Ti24 Cu96 Te96'
_cell_volume   5119.46649743
_cell_formula_units_Z   24
loop_
 _symmetry_equiv_pos_site_id
 _symmetry_equiv_pos_as_xyz
  1  'x, y, z'
loop_
 _atom_type_symbol
 _atom_type_oxidation_number
  Ti4+  4.0
  Cu+  1.0
  Te2-  -2.0
loop_
 _atom_site_type_symbol
 _atom_site_label
 _atom_site_symmetry_multiplicity
 _atom_site_fract_x
 _atom_site_fract_y
 _atom_site_fract_z
 _atom_site_occupancy
  Ti4+  Ti0  1  -0.00065901  -0.00219567  0.26048248  1
  Ti4+  Ti1  1  -0.00004632  0.49700082  0.26021148  1
  Ti4+  Ti2  1  0.50007096  -0.00188492  0.25829501  1
  Ti4+  Ti3  1  0.50016872  0.49681370  0.25209580  1
  Ti4+  Ti4  1  0.33403643  0.16787380  0.58942961  1
  Ti4+  Ti5  1  0.33660230  0.67119803  0.58728650  1
  Ti4+  Ti6  1  0.83739643  0.16934141  0.59136966  1
  Ti4+  Ti7  1  0.83345129  0.66672149  0.59201405  1
  Ti4+  Ti8  1  0.16275312  0.33280133  0.92424243  1
  Ti4+  Ti9  1  0.16306984  0.83303095  0.92462627  1
  Ti4+  Ti10  1  0.66684012  0.33348706  0.92613245  1
  Ti4+  Ti11  1  0.66541182  0.83519527  0.92578712  1
  Ti4+  Ti12  1  0.00069855  0.00115401  0.75565138  1
  Ti4+  Ti13  1  -0.00018997  0.50101271  0.75600613  1
  Ti4+  Ti14  1  0.50084143  0.00082324  0.75649657  1
  Ti4+  Ti15  1  0.49995214  0.50166848  0.75611615  1
  Ti4+  Ti16  1  0.33197532  0.16679478  0.08727490  1
  Ti4+  Ti17  1  0.33216193  0.66547219  0.08806797  1
  Ti4+  Ti18  1  0.83194446  0.16685058  0.09202278  1
  Ti4+  Ti19  1  0.83146559  0.66601394  0.08893254  1
  Ti4+  Ti20  1  0.16706227  0.33257834  0.42013190  1
  Ti4+  Ti21  1  0.16792294  0.83246650  0.41954334  1
  Ti4+  Ti22  1  0.66757569  0.33341647  0.42325708  1
  Ti4+  Ti23  1  0.66685383  0.83193583  0.42040182  1
  Cu+  Cu24  1  0.90464575  0.31405126  0.81126508  1
  Cu+  Cu25  1  0.07953926  0.15126578  0.47596875  1
  Cu+  Cu26  1  0.51580459  0.25098123  0.14122906  1
  Cu+  Cu27  1  0.23758874  0.47587287  0.13864102  1
  Cu+  Cu28  1  0.51964417  0.75913975  0.14076792  1
  Cu+  Cu29  1  0.58170114  0.92956157  0.47555839  1
  Cu+  Cu30  1  0.08170106  0.42784262  0.47848044  1
  Cu+  Cu31  1  0.35222601  0.93103660  0.47349058  1
  Cu+  Cu32  1  0.84922205  0.92074346  0.47703430  1
  Cu+  Cu33  1  0.90437180  0.59400423  0.81004866  1
  Cu+  Cu34  1  0.74638918  0.48007661  0.14161408  1
  Cu+  Cu35  1  0.85226038  0.42979051  0.47886553  1
  Cu+  Cu36  1  0.16200301  0.08101556  0.17247825  1
  Cu+  Cu37  1  0.16383231  0.57494008  0.17176169  1
  Cu+  Cu38  1  0.66263990  0.07874968  0.17233027  1
  Cu+  Cu39  1  0.66288286  0.57468648  0.16566001  1
  Cu+  Cu40  1  0.42247154  0.33517297  0.16486792  1
  Cu+  Cu41  1  0.42116844  0.83531293  0.17122492  1
  Cu+  Cu42  1  0.91806376  0.33581845  0.17448568  1
  Cu+  Cu43  1  0.91601046  0.83567932  0.17359105  1
  Cu+  Cu44  1  0.41740690  0.08045185  0.17167897  1
  Cu+  Cu45  1  0.41704079  0.58015783  0.16616546  1
  Cu+  Cu46  1  0.91667166  0.08063768  0.17576276  1
  Cu+  Cu47  1  0.91515645  0.57839248  0.17367533  1
  Cu+  Cu48  1  0.49637345  0.25040419  0.50422006  1
  Cu+  Cu49  1  0.49711539  0.75274508  0.49957660  1
  Cu+  Cu50  1  0.99885679  0.24967999  0.50190754  1
  Cu+  Cu51  1  0.99648161  0.74707527  0.50267209  1
  Cu+  Cu52  1  0.25457501  0.00532042  0.50135368  1
  Cu+  Cu53  1  0.25399098  0.50717229  0.50159241  1
  Cu+  Cu54  1  0.75521549  0.00381439  0.50274144  1
  Cu+  Cu55  1  0.75401272  0.50362081  0.50645911  1
  Cu+  Cu56  1  0.25168461  0.24675318  0.50279642  1
  Cu+  Cu57  1  0.25833354  0.75427047  0.49904851  1
  Cu+  Cu58  1  0.75696560  0.25426194  0.50455025  1
  Cu+  Cu59  1  0.75279037  0.74784005  0.50408019  1
  Cu+  Cu60  1  0.32980026  0.41832527  0.83870845  1
  Cu+  Cu61  1  0.32957227  0.91510834  0.83922502  1
  Cu+  Cu62  1  0.82923889  0.41581130  0.83800216  1
  Cu+  Cu63  1  0.83046661  0.91804364  0.83906499  1
  Cu+  Cu64  1  0.08102693  0.16945595  0.83743762  1
  Cu+  Cu65  1  0.07879994  0.67137673  0.83793293  1
  Cu+  Cu66  1  0.58438794  0.16859077  0.83946023  1
  Cu+  Cu67  1  0.58245417  0.67129139  0.83977835  1
  Cu+  Cu68  1  0.07998873  0.41063380  0.83760019  1
  Cu+  Cu69  1  0.08282501  0.91475690  0.83744787  1
  Cu+  Cu70  1  0.58314452  0.41620667  0.83988828  1
  Cu+  Cu71  1  0.58505316  0.91655823  0.83984251  1
  Cu+  Cu72  1  0.17033382  0.08551531  0.67443024  1
  Cu+  Cu73  1  0.17212029  0.58856943  0.67288511  1
  Cu+  Cu74  1  0.67047398  0.08596320  0.67701347  1
  Cu+  Cu75  1  0.66858665  0.58486062  0.67581256  1
  Cu+  Cu76  1  0.41494884  0.33204341  0.67403175  1
  Cu+  Cu77  1  0.41949790  0.83594974  0.67420298  1
  Cu+  Cu78  1  0.91948734  0.33395446  0.68158127  1
  Cu+  Cu79  1  0.91627042  0.83244840  0.67655647  1
  Cu+  Cu80  1  0.41646824  0.08526178  0.67516942  1
  Cu+  Cu81  1  0.41701765  0.58731991  0.67149163  1
  Cu+  Cu82  1  0.91832567  0.08509594  0.67679882  1
  Cu+  Cu83  1  0.91516176  0.58522622  0.68097750  1
  Cu+  Cu84  1  -0.00206789  0.25050968  0.01024247  1
  Cu+  Cu85  1  0.00027731  0.75221131  0.00983933  1
  Cu+  Cu86  1  0.50170853  0.25096128  0.01260160  1
  Cu+  Cu87  1  0.50219706  0.75392967  0.01181622  1
  Cu+  Cu88  1  0.24351498  0.49497842  0.01023591  1
  Cu+  Cu89  1  0.24536164  0.99683358  0.00792617  1
  Cu+  Cu90  1  0.74909198  0.49783223  0.01297848  1
  Cu+  Cu91  1  0.74794173  0.99906033  0.01010160  1
  Cu+  Cu92  1  0.24478971  0.24950691  0.00662260  1
  Cu+  Cu93  1  0.24456101  0.75172332  0.00716419  1
  Cu+  Cu94  1  0.75048519  0.25098195  0.01110843  1
  Cu+  Cu95  1  0.74827903  0.75372156  0.00827368  1
  Cu+  Cu96  1  0.33613512  0.41607181  0.33551081  1
  Cu+  Cu97  1  0.33691241  0.91666196  0.34394303  1
  Cu+  Cu98  1  0.83638745  0.41798432  0.34939605  1
  Cu+  Cu99  1  0.83667063  0.91584165  0.34768926  1
  Cu+  Cu100  1  0.08124007  0.16078041  0.34704693  1
  Cu+  Cu101  1  0.08132354  0.66239700  0.34067379  1
  Cu+  Cu102  1  0.58186911  0.16452009  0.34320244  1
  Cu+  Cu103  1  0.58225927  0.66090562  0.33604373  1
  Cu+  Cu104  1  0.08246215  0.41634891  0.34767376  1
  Cu+  Cu105  1  0.08174823  0.91501121  0.34155718  1
  Cu+  Cu106  1  0.58310374  0.41543689  0.34019576  1
  Cu+  Cu107  1  0.58054775  0.91431581  0.34628981  1
  Cu+  Cu108  1  -0.00174980  0.00009597  0.11811804  1
  Cu+  Cu109  1  0.00128097  0.50294699  0.11687092  1
  Cu+  Cu110  1  0.49700166  -0.00188622  0.11442217  1
  Cu+  Cu111  1  0.49828347  0.49972203  0.10647704  1
  Cu+  Cu112  1  0.33515669  0.16860431  0.44448714  1
  Cu+  Cu113  1  0.33475588  0.66522093  0.44143281  1
  Cu+  Cu114  1  0.83201443  0.16647490  0.44728451  1
  Cu+  Cu115  1  0.83274723  0.66554179  0.44777592  1
  Cu+  Cu116  1  0.17058128  0.33351803  0.78140133  1
  Cu+  Cu117  1  0.16952422  0.83626930  0.78142695  1
  Cu+  Cu118  1  0.66044528  0.33130613  0.78330754  1
  Cu+  Cu119  1  0.66780708  0.83386928  0.78346961  1
  Te2-  Te120  1  0.00177437  -0.00390931  0.39352751  1
  Te2-  Te121  1  0.00260252  0.50199293  0.39238731  1
  Te2-  Te122  1  0.50197112  0.00171819  0.39030176  1
  Te2-  Te123  1  0.49953410  0.49745422  0.38076751  1
  Te2-  Te124  1  0.33443712  0.16799292  0.71820624  1
  Te2-  Te125  1  0.33648302  0.67072067  0.71581431  1
  Te2-  Te126  1  0.83490060  0.16633849  0.72103854  1
  Te2-  Te127  1  0.83161532  0.66843312  0.72229766  1
  Te2-  Te128  1  0.16210760  0.32919447  0.05488646  1
  Te2-  Te129  1  0.16423025  0.83372512  0.05401760  1
  Te2-  Te130  1  0.66776300  0.33148678  0.05812609  1
  Te2-  Te131  1  0.66768303  0.83554695  0.05698693  1
  Te2-  Te132  1  0.49681412  0.24834099  0.88525019  1
  Te2-  Te133  1  0.49349025  0.74961003  0.88516220  1
  Te2-  Te134  1  0.98804543  0.24252922  0.88457436  1
  Te2-  Te135  1  0.98758989  0.74843405  0.88427596  1
  Te2-  Te136  1  0.24998209  0.00427406  0.88223701  1
  Te2-  Te137  1  0.24713627  0.50400426  0.88337066  1
  Te2-  Te138  1  0.75228813  0.00705818  0.88455647  1
  Te2-  Te139  1  0.75101460  0.50635217  0.88559758  1
  Te2-  Te140  1  0.24901583  0.24863481  0.88082839  1
  Te2-  Te141  1  0.24696902  0.74587084  0.88142249  1
  Te2-  Te142  1  0.75178898  0.24551090  0.88495302  1
  Te2-  Te143  1  0.75109076  0.74984715  0.88266139  1
  Te2-  Te144  1  0.32793188  0.40891658  0.21017756  1
  Te2-  Te145  1  0.33043046  0.91286365  0.21673169  1
  Te2-  Te146  1  0.82593668  0.40942771  0.22182422  1
  Te2-  Te147  1  0.82739891  0.91301604  0.22094098  1
  Te2-  Te148  1  0.08447742  0.16942236  0.22023097  1
  Te2-  Te149  1  0.08463779  0.66580132  0.21465637  1
  Te2-  Te150  1  0.58827353  0.17136003  0.21737035  1
  Te2-  Te151  1  0.58861865  0.66896316  0.21055184  1
  Te2-  Te152  1  0.08478860  0.40777312  0.22003623  1
  Te2-  Te153  1  0.08455368  0.91272744  0.21618014  1
  Te2-  Te154  1  0.58922647  0.40804182  0.21464897  1
  Te2-  Te155  1  0.58875861  0.91256184  0.21907418  1
  Te2-  Te156  1  0.16012170  0.07670130  0.54869518  1
  Te2-  Te157  1  0.16320311  0.58758534  0.54711384  1
  Te2-  Te158  1  0.66598522  0.08561760  0.55006205  1
  Te2-  Te159  1  0.66305640  0.58109841  0.54961418  1
  Te2-  Te160  1  0.41811033  0.33966259  0.54805009  1
  Te2-  Te161  1  0.42558859  0.84878709  0.54825057  1
  Te2-  Te162  1  0.92558665  0.34495731  0.55302585  1
  Te2-  Te163  1  0.92301275  0.83987838  0.55040692  1
  Te2-  Te164  1  0.42388487  0.08361043  0.54923089  1
  Te2-  Te165  1  0.42137557  0.58527169  0.54537027  1
  Te2-  Te166  1  0.92355197  0.08064600  0.55046597  1
  Te2-  Te167  1  0.92391226  0.58284280  0.55336329  1
  Te2-  Te168  1  -0.00055995  0.00074622  0.88188223  1
  Te2-  Te169  1  -0.00005236  0.50103362  0.88309810  1
  Te2-  Te170  1  0.49841683  -0.00036464  0.88281450  1
  Te2-  Te171  1  0.49820758  0.50135346  0.88235751  1
  Te2-  Te172  1  0.33281543  0.16687661  0.21425280  1
  Te2-  Te173  1  0.33397565  0.66516361  0.21541038  1
  Te2-  Te174  1  0.83174606  0.16526671  0.21810016  1
  Te2-  Te175  1  0.83050025  0.66489321  0.21583494  1
  Te2-  Te176  1  0.17018274  0.33672258  0.54759526  1
  Te2-  Te177  1  0.16813962  0.83421980  0.54620803  1
  Te2-  Te178  1  0.66593722  0.33319045  0.55006488  1
  Te2-  Te179  1  0.66642389  0.83263501  0.54796715  1
  Te2-  Te180  1  0.32987138  0.41756205  0.71093135  1
  Te2-  Te181  1  0.32976706  0.91562232  0.71196208  1
  Te2-  Te182  1  0.82524063  0.41261094  0.71085497  1
  Te2-  Te183  1  0.82821902  0.91486534  0.71214236  1
  Te2-  Te184  1  0.08816789  0.17345225  0.71117773  1
  Te2-  Te185  1  0.08820472  0.67399535  0.71102542  1
  Te2-  Te186  1  0.58652556  0.17264739  0.71263526  1
  Te2-  Te187  1  0.58581572  0.67281696  0.71235096  1
  Te2-  Te188  1  0.09177070  0.41932100  0.71111868  1
  Te2-  Te189  1  0.08685806  0.91518557  0.71132416  1
  Te2-  Te190  1  0.58483508  0.41471519  0.71287155  1
  Te2-  Te191  1  0.58822615  0.91596744  0.71298607  1
  Te2-  Te192  1  0.15919899  0.08040404  0.04579643  1
  Te2-  Te193  1  0.15904378  0.58189759  0.04453123  1
  Te2-  Te194  1  0.66017057  0.08065594  0.04666353  1
  Te2-  Te195  1  0.66011370  0.58248468  0.03991873  1
  Te2-  Te196  1  0.41580347  0.33870985  0.03894686  1
  Te2-  Te197  1  0.41468121  0.83861765  0.04418668  1
  Te2-  Te198  1  0.91898841  0.33990635  0.04864804  1
  Te2-  Te199  1  0.91721490  0.83898120  0.04717220  1
  Te2-  Te200  1  0.41617356  0.07788251  0.04386079  1
  Te2-  Te201  1  0.41734418  0.57964971  0.03869160  1
  Te2-  Te202  1  0.91736122  0.08068662  0.04862585  1
  Te2-  Te203  1  0.92075898  0.58186315  0.04571241  1
  Te2-  Te204  1  0.49562781  0.24723737  0.37802363  1
  Te2-  Te205  1  0.49442958  0.74188798  0.37325478  1
  Te2-  Te206  1  0.99148193  0.24379918  0.37561298  1
  Te2-  Te207  1  0.99408363  0.74492851  0.37699897  1
  Te2-  Te208  1  0.25288210  0.00573570  0.37462006  1
  Te2-  Te209  1  0.25603647  0.50476820  0.37391381  1
  Te2-  Te210  1  0.75362798  0.00648244  0.37557440  1
  Te2-  Te211  1  0.75169309  0.50588748  0.37868456  1
  Te2-  Te212  1  0.25474691  0.24745133  0.37527558  1
  Te2-  Te213  1  0.25224281  0.74377182  0.37311482  1
  Te2-  Te214  1  0.75194396  0.24479386  0.37785119  1
  Te2-  Te215  1  0.75070283  0.74250283  0.37658050  1
