# generated using pymatgen
data_Ti(CuTe)4
_symmetry_space_group_name_H-M   'P 1'
_cell_length_a   16.88433814
_cell_length_b   16.88756785
_cell_length_c   20.71061681
_cell_angle_alpha   90.06274460
_cell_angle_beta   89.96815493
_cell_angle_gamma   119.98590563
_symmetry_Int_Tables_number   1
_chemical_formula_structural   Ti(CuTe)4
_chemical_formula_sum   'Ti24 Cu96 Te96'
_cell_volume   5114.88902648
_cell_formula_units_Z   24
loop_
 _symmetry_equiv_pos_site_id
 _symmetry_equiv_pos_as_xyz
  1  'x, y, z'
loop_
 _atom_type_symbol
 _atom_type_oxidation_number
  Ti4+  4.0
  Cu+  1.0
  Te2-  -2.0
loop_
 _atom_site_type_symbol
 _atom_site_label
 _atom_site_symmetry_multiplicity
 _atom_site_fract_x
 _atom_site_fract_y
 _atom_site_fract_z
 _atom_site_occupancy
  Ti4+  Ti0  1  0.00020513  -0.00271522  0.25859987  1
  Ti4+  Ti1  1  -0.00144632  0.49576371  0.25656176  1
  Ti4+  Ti2  1  0.49712588  -0.00239686  0.25655348  1
  Ti4+  Ti3  1  0.49697064  0.49662701  0.26087417  1
  Ti4+  Ti4  1  0.33420704  0.16848892  0.59523394  1
  Ti4+  Ti5  1  0.33270887  0.66722118  0.59083825  1
  Ti4+  Ti6  1  0.83599352  0.16918151  0.58884456  1
  Ti4+  Ti7  1  0.83192071  0.66615924  0.58882317  1
  Ti4+  Ti8  1  0.16700227  0.33181285  0.92484040  1
  Ti4+  Ti9  1  0.16865833  0.83370237  0.92359676  1
  Ti4+  Ti10  1  0.66932125  0.33842212  0.92554847  1
  Ti4+  Ti11  1  0.66816591  0.83567096  0.92051487  1
  Ti4+  Ti12  1  0.00030833  0.00245749  0.75465726  1
  Ti4+  Ti13  1  0.00022596  0.50130459  0.75610735  1
  Ti4+  Ti14  1  0.49937660  -0.00089502  0.75376859  1
  Ti4+  Ti15  1  0.50322353  0.50228940  0.75549016  1
  Ti4+  Ti16  1  0.33313903  0.16543045  0.08976606  1
  Ti4+  Ti17  1  0.33394868  0.66577451  0.08892328  1
  Ti4+  Ti18  1  0.83387068  0.16846480  0.08832904  1
  Ti4+  Ti19  1  0.83299662  0.66751163  0.09085833  1
  Ti4+  Ti20  1  0.16524735  0.33181017  0.42347504  1
  Ti4+  Ti21  1  0.16549154  0.83181887  0.42264440  1
  Ti4+  Ti22  1  0.66632106  0.33314559  0.42233163  1
  Ti4+  Ti23  1  0.66677279  0.83325971  0.42032865  1
  Cu+  Cu24  1  0.69345490  0.59787579  0.80690105  1
  Cu+  Cu25  1  0.23618390  0.97398770  0.13990598  1
  Cu+  Cu26  1  0.40499728  0.81002103  0.80629720  1
  Cu+  Cu27  1  0.18188508  0.08971041  0.81185433  1
  Cu+  Cu28  1  0.57139983  0.65260293  0.47681129  1
  Cu+  Cu29  1  0.85627574  0.42865471  0.47202249  1
  Cu+  Cu30  1  0.90674149  0.09822043  0.80549782  1
  Cu+  Cu31  1  0.23748979  0.47314103  0.14095567  1
  Cu+  Cu32  1  0.41596016  0.32416834  0.81565198  1
  Cu+  Cu33  1  0.85508499  0.92821333  0.47371756  1
  Cu+  Cu34  1  0.73675196  0.47706394  0.14483302  1
  Cu+  Cu35  1  0.57155456  0.42020985  0.47941677  1
  Cu+  Cu36  1  0.16372758  0.07566541  0.17158613  1
  Cu+  Cu37  1  0.16518572  0.57596673  0.17013015  1
  Cu+  Cu38  1  0.66327702  0.08240722  0.17099021  1
  Cu+  Cu39  1  0.66325274  0.57767257  0.17502042  1
  Cu+  Cu40  1  0.41839759  0.33618092  0.17275948  1
  Cu+  Cu41  1  0.41762768  0.83687326  0.16986953  1
  Cu+  Cu42  1  0.91820213  0.33644763  0.16944087  1
  Cu+  Cu43  1  0.91812339  0.83732965  0.17253596  1
  Cu+  Cu44  1  0.41130637  0.07517561  0.17003807  1
  Cu+  Cu45  1  0.41212393  0.57711137  0.17280262  1
  Cu+  Cu46  1  0.91682285  0.08166527  0.17295194  1
  Cu+  Cu47  1  0.91200986  0.57684221  0.17213953  1
  Cu+  Cu48  1  0.49400957  0.24964892  0.50738634  1
  Cu+  Cu49  1  0.49321206  0.74662084  0.50394732  1
  Cu+  Cu50  1  0.99622847  0.24800708  0.50317547  1
  Cu+  Cu51  1  0.99609644  0.74617311  0.50216788  1
  Cu+  Cu52  1  0.24925308  0.00127361  0.50836909  1
  Cu+  Cu53  1  0.24930315  0.50213742  0.50469253  1
  Cu+  Cu54  1  0.75727240  0.00449991  0.50226508  1
  Cu+  Cu55  1  0.75023419  0.50201426  0.50177288  1
  Cu+  Cu56  1  0.25168345  0.24955910  0.50826925  1
  Cu+  Cu57  1  0.25133687  0.74988885  0.50513394  1
  Cu+  Cu58  1  0.75687015  0.25442793  0.50259193  1
  Cu+  Cu59  1  0.74990517  0.74849127  0.50099767  1
  Cu+  Cu60  1  0.33136219  0.41376160  0.83818667  1
  Cu+  Cu61  1  0.33084364  0.91181673  0.83555395  1
  Cu+  Cu62  1  0.83235412  0.42066477  0.83921826  1
  Cu+  Cu63  1  0.83064137  0.92163612  0.83419487  1
  Cu+  Cu64  1  0.08494636  0.17072338  0.83604868  1
  Cu+  Cu65  1  0.08465429  0.67101620  0.83735333  1
  Cu+  Cu66  1  0.58548123  0.16986123  0.83719886  1
  Cu+  Cu67  1  0.59324247  0.67332876  0.83439942  1
  Cu+  Cu68  1  0.08583408  0.41731746  0.83879072  1
  Cu+  Cu69  1  0.08850151  0.91834206  0.83769114  1
  Cu+  Cu70  1  0.59199660  0.42097856  0.83761523  1
  Cu+  Cu71  1  0.58109853  0.91156220  0.83337488  1
  Cu+  Cu72  1  0.17116202  0.08736494  0.68205991  1
  Cu+  Cu73  1  0.16804700  0.58604427  0.67466548  1
  Cu+  Cu74  1  0.67027495  0.08638359  0.67069116  1
  Cu+  Cu75  1  0.66964410  0.58592227  0.67757157  1
  Cu+  Cu76  1  0.41692868  0.33228495  0.68414453  1
  Cu+  Cu77  1  0.41439322  0.83006621  0.67709487  1
  Cu+  Cu78  1  0.91703826  0.33399024  0.67464103  1
  Cu+  Cu79  1  0.91533309  0.83286129  0.67299599  1
  Cu+  Cu80  1  0.41611142  0.08555795  0.67626686  1
  Cu+  Cu81  1  0.41615537  0.58677237  0.67502316  1
  Cu+  Cu82  1  0.91563766  0.08632278  0.67749997  1
  Cu+  Cu83  1  0.91464948  0.58247550  0.67494823  1
  Cu+  Cu84  1  0.00122438  0.25062624  0.00913159  1
  Cu+  Cu85  1  0.00296816  0.75451693  0.00817268  1
  Cu+  Cu86  1  0.50299480  0.25481727  0.00974279  1
  Cu+  Cu87  1  0.50303525  0.75156428  0.00564691  1
  Cu+  Cu88  1  0.25017527  0.49520473  0.01259924  1
  Cu+  Cu89  1  0.24979785  0.99670182  0.01137835  1
  Cu+  Cu90  1  0.74751797  0.50028667  0.01427754  1
  Cu+  Cu91  1  0.74927682  1.00057242  0.00517133  1
  Cu+  Cu92  1  0.25086928  0.24999874  0.01074886  1
  Cu+  Cu93  1  0.25242550  0.75149050  0.00815382  1
  Cu+  Cu94  1  0.75113306  0.25508086  0.00892825  1
  Cu+  Cu95  1  0.75068180  0.75413523  0.00715128  1
  Cu+  Cu96  1  0.33220387  0.41503438  0.34508918  1
  Cu+  Cu97  1  0.33371648  0.91724211  0.34201841  1
  Cu+  Cu98  1  0.83503266  0.41596812  0.34433841  1
  Cu+  Cu99  1  0.83744426  0.91893663  0.34508289  1
  Cu+  Cu100  1  0.08226130  0.16206311  0.34190821  1
  Cu+  Cu101  1  0.08152150  0.66151194  0.33930093  1
  Cu+  Cu102  1  0.57773568  0.16064079  0.33966284  1
  Cu+  Cu103  1  0.57921409  0.66161451  0.34633662  1
  Cu+  Cu104  1  0.08150604  0.41371937  0.34198555  1
  Cu+  Cu105  1  0.08319850  0.91578113  0.34293767  1
  Cu+  Cu106  1  0.58023073  0.41619040  0.34921416  1
  Cu+  Cu107  1  0.58046950  0.91791725  0.33920607  1
  Cu+  Cu108  1  -0.00076333  0.00363214  0.11611178  1
  Cu+  Cu109  1  0.00308780  0.50650831  0.11410880  1
  Cu+  Cu110  1  0.50259254  0.00193209  0.11328051  1
  Cu+  Cu111  1  0.50178358  0.50400862  0.11802117  1
  Cu+  Cu112  1  0.32898584  0.16254752  0.45272513  1
  Cu+  Cu113  1  0.32808286  0.66523425  0.44769849  1
  Cu+  Cu114  1  0.83017872  0.16564357  0.44447650  1
  Cu+  Cu115  1  0.83403012  0.66782513  0.44429636  1
  Cu+  Cu116  1  0.16842480  0.33940669  0.78154595  1
  Cu+  Cu117  1  0.16428152  0.83336866  0.77967538  1
  Cu+  Cu118  1  0.67034022  0.33032174  0.78234612  1
  Cu+  Cu119  1  0.66782159  0.83664975  0.77540957  1
  Te2-  Te120  1  0.00311345  -0.00059339  0.38940234  1
  Te2-  Te121  1  0.00203449  0.49880759  0.38687627  1
  Te2-  Te122  1  0.49786564  -0.00205093  0.38598284  1
  Te2-  Te123  1  0.49541172  0.49714394  0.39310260  1
  Te2-  Te124  1  0.33619474  0.16657943  0.72782556  1
  Te2-  Te125  1  0.33107839  0.66450774  0.72160386  1
  Te2-  Te126  1  0.83234191  0.16993923  0.71934953  1
  Te2-  Te127  1  0.83688223  0.66933922  0.71903157  1
  Te2-  Te128  1  0.16484412  0.32824897  0.05496222  1
  Te2-  Te129  1  0.16660491  0.82985727  0.05386335  1
  Te2-  Te130  1  0.66635203  0.33365584  0.05610731  1
  Te2-  Te131  1  0.66749628  0.83612854  0.04907586  1
  Te2-  Te132  1  0.49671571  0.24866320  0.88378524  1
  Te2-  Te133  1  0.49465270  0.74269316  0.87976610  1
  Te2-  Te134  1  0.99460644  0.24895783  0.88296598  1
  Te2-  Te135  1  0.99746888  0.75150309  0.88214909  1
  Te2-  Te136  1  0.25867263  0.00695935  0.88409302  1
  Te2-  Te137  1  0.25373188  0.50228750  0.88495038  1
  Te2-  Te138  1  0.74946861  0.00917743  0.87934679  1
  Te2-  Te139  1  0.75814083  0.51272202  0.88670482  1
  Te2-  Te140  1  0.25554750  0.24393302  0.88478803  1
  Te2-  Te141  1  0.25225535  0.74366192  0.88235144  1
  Te2-  Te142  1  0.75323568  0.25198246  0.88267863  1
  Te2-  Te143  1  0.76100075  0.75391128  0.88123777  1
  Te2-  Te144  1  0.32380390  0.40781799  0.21894297  1
  Te2-  Te145  1  0.32179868  0.90711618  0.21638174  1
  Te2-  Te146  1  0.82398596  0.40767055  0.21780208  1
  Te2-  Te147  1  0.82828665  0.91396441  0.21838859  1
  Te2-  Te148  1  0.08655343  0.16751242  0.21558520  1
  Te2-  Te149  1  0.08331405  0.66478440  0.21281439  1
  Te2-  Te150  1  0.58015236  0.16851288  0.21386659  1
  Te2-  Te151  1  0.58126442  0.66548687  0.21836190  1
  Te2-  Te152  1  0.08388891  0.40698193  0.21628223  1
  Te2-  Te153  1  0.08452843  0.90717175  0.21746259  1
  Te2-  Te154  1  0.58321432  0.40865582  0.22159508  1
  Te2-  Te155  1  0.58498311  0.91376550  0.21388238  1
  Te2-  Te156  1  0.16318587  0.08274010  0.55468402  1
  Te2-  Te157  1  0.16141669  0.58187164  0.54899858  1
  Te2-  Te158  1  0.66656070  0.08410775  0.54462446  1
  Te2-  Te159  1  0.65653385  0.57883051  0.55021246  1
  Te2-  Te160  1  0.41811975  0.34232120  0.55594745  1
  Te2-  Te161  1  0.41920186  0.83867241  0.55007684  1
  Te2-  Te162  1  0.92503826  0.34348042  0.54883082  1
  Te2-  Te163  1  0.92005933  0.83826134  0.54709469  1
  Te2-  Te164  1  0.41863554  0.08279905  0.55055585  1
  Te2-  Te165  1  0.41678497  0.57685227  0.54987626  1
  Te2-  Te166  1  0.92449393  0.08263496  0.55085073  1
  Te2-  Te167  1  0.91882768  0.58005853  0.54889777  1
  Te2-  Te168  1  -0.00023232  0.00022771  0.88215095  1
  Te2-  Te169  1  0.00176222  0.50252467  0.88229957  1
  Te2-  Te170  1  0.50104506  0.00017727  0.88061906  1
  Te2-  Te171  1  0.50256158  0.50348933  0.88281068  1
  Te2-  Te172  1  0.33315271  0.16569444  0.21644780  1
  Te2-  Te173  1  0.33343693  0.66782770  0.21578528  1
  Te2-  Te174  1  0.83225605  0.16676272  0.21457778  1
  Te2-  Te175  1  0.83338432  0.66733168  0.21768265  1
  Te2-  Te176  1  0.16505164  0.33349908  0.54968078  1
  Te2-  Te177  1  0.16410784  0.83142984  0.54894879  1
  Te2-  Te178  1  0.66598495  0.33271609  0.54981058  1
  Te2-  Te179  1  0.66538246  0.83437039  0.54770953  1
  Te2-  Te180  1  0.32867963  0.41738462  0.71161087  1
  Te2-  Te181  1  0.32617561  0.91484205  0.70918663  1
  Te2-  Te182  1  0.82813631  0.41427874  0.71234122  1
  Te2-  Te183  1  0.82745610  0.91405003  0.70766083  1
  Te2-  Te184  1  0.08774933  0.17704263  0.70954631  1
  Te2-  Te185  1  0.08470969  0.67232163  0.71093455  1
  Te2-  Te186  1  0.58665943  0.17179323  0.71053197  1
  Te2-  Te187  1  0.58611972  0.67470724  0.70821876  1
  Te2-  Te188  1  0.08675845  0.41637110  0.71182989  1
  Te2-  Te189  1  0.08523913  0.91384225  0.71000634  1
  Te2-  Te190  1  0.59026757  0.41446505  0.71051565  1
  Te2-  Te191  1  0.58788096  0.91631239  0.70639696  1
  Te2-  Te192  1  0.16021641  0.07935328  0.04437839  1
  Te2-  Te193  1  0.16208335  0.58073826  0.04275820  1
  Te2-  Te194  1  0.66286976  0.08376271  0.04370560  1
  Te2-  Te195  1  0.66062028  0.58500711  0.04682802  1
  Te2-  Te196  1  0.41985156  0.33987767  0.04725979  1
  Te2-  Te197  1  0.42100196  0.83824576  0.04409559  1
  Te2-  Te198  1  0.92116656  0.34110299  0.04414226  1
  Te2-  Te199  1  0.91937727  0.83964436  0.04653678  1
  Te2-  Te200  1  0.42245476  0.08285914  0.04307563  1
  Te2-  Te201  1  0.42263517  0.58198539  0.04483358  1
  Te2-  Te202  1  0.91807638  0.08064317  0.04516991  1
  Te2-  Te203  1  0.92091559  0.58396493  0.04446731  1
  Te2-  Te204  1  0.49192628  0.24359189  0.38008277  1
  Te2-  Te205  1  0.49283341  0.74815903  0.37691454  1
  Te2-  Te206  1  0.99378227  0.24406139  0.37752655  1
  Te2-  Te207  1  0.99478306  0.74476039  0.37606558  1
  Te2-  Te208  1  0.25201124  0.00426426  0.38109150  1
  Te2-  Te209  1  0.25092571  0.50406461  0.37862273  1
  Te2-  Te210  1  0.75090468  0.00556848  0.37513186  1
  Te2-  Te211  1  0.75352188  0.50684285  0.37500045  1
  Te2-  Te212  1  0.25166312  0.24513704  0.38151486  1
  Te2-  Te213  1  0.25114099  0.74663614  0.37787458  1
  Te2-  Te214  1  0.74839623  0.24354647  0.37559281  1
  Te2-  Te215  1  0.75262426  0.74535870  0.37384056  1
