# generated using pymatgen
data_Ti(CuTe)4
_symmetry_space_group_name_H-M   'P 1'
_cell_length_a   16.88451935
_cell_length_b   16.88880658
_cell_length_c   20.70595881
_cell_angle_alpha   90.04862615
_cell_angle_beta   89.99586188
_cell_angle_gamma   119.99143238
_symmetry_Int_Tables_number   1
_chemical_formula_structural   Ti(CuTe)4
_chemical_formula_sum   'Ti24 Cu96 Te96'
_cell_volume   5113.88475597
_cell_formula_units_Z   24
loop_
 _symmetry_equiv_pos_site_id
 _symmetry_equiv_pos_as_xyz
  1  'x, y, z'
loop_
 _atom_type_symbol
 _atom_type_oxidation_number
  Ti4+  4.0
  Cu+  1.0
  Te2-  -2.0
loop_
 _atom_site_type_symbol
 _atom_site_label
 _atom_site_symmetry_multiplicity
 _atom_site_fract_x
 _atom_site_fract_y
 _atom_site_fract_z
 _atom_site_occupancy
  Ti4+  Ti0  1  0.00033342  0.00218040  0.25533963  1
  Ti4+  Ti1  1  -0.00301727  0.49940032  0.26163926  1
  Ti4+  Ti2  1  0.50175002  -0.00120901  0.25866113  1
  Ti4+  Ti3  1  0.50214668  0.50359471  0.25712919  1
  Ti4+  Ti4  1  0.33602673  0.16973847  0.58681316  1
  Ti4+  Ti5  1  0.33273835  0.66725083  0.59285903  1
  Ti4+  Ti6  1  0.83188536  0.16655069  0.59413178  1
  Ti4+  Ti7  1  0.83346645  0.66539964  0.58972139  1
  Ti4+  Ti8  1  0.16706154  0.33376056  0.92291463  1
  Ti4+  Ti9  1  0.16397992  0.83213545  0.92199123  1
  Ti4+  Ti10  1  0.66877444  0.33044764  0.92862514  1
  Ti4+  Ti11  1  0.66461205  0.83002916  0.92219092  1
  Ti4+  Ti12  1  -0.00031116  -0.00173755  0.75251487  1
  Ti4+  Ti13  1  -0.00027737  0.49932919  0.75595715  1
  Ti4+  Ti14  1  0.50037254  0.00113391  0.75505579  1
  Ti4+  Ti15  1  0.50025805  0.50123091  0.75599716  1
  Ti4+  Ti16  1  0.33253761  0.16618444  0.08688901  1
  Ti4+  Ti17  1  0.33477256  0.66771826  0.09099818  1
  Ti4+  Ti18  1  0.83260278  0.16583573  0.08909265  1
  Ti4+  Ti19  1  0.83249761  0.66560514  0.08876522  1
  Ti4+  Ti20  1  0.16801431  0.33559214  0.42140663  1
  Ti4+  Ti21  1  0.16714413  0.83353652  0.42034255  1
  Ti4+  Ti22  1  0.66470407  0.33320598  0.42056520  1
  Ti4+  Ti23  1  0.66792699  0.83480680  0.42467357  1
  Cu+  Cu24  1  0.74062020  0.48437935  0.14750102  1
  Cu+  Cu25  1  0.83967996  0.41718995  0.48453102  1
  Cu+  Cu26  1  0.74117392  0.25441333  0.14987355  1
  Cu+  Cu27  1  0.40159392  0.58846319  0.80785609  1
  Cu+  Cu28  1  0.57548270  0.14815222  0.47555129  1
  Cu+  Cu29  1  0.90371185  0.80678999  0.80487130  1
  Cu+  Cu30  1  0.91062878  0.31611866  0.81300876  1
  Cu+  Cu31  1  0.52804407  0.76437224  0.14002358  1
  Cu+  Cu32  1  0.07904070  0.65038714  0.47739789  1
  Cu+  Cu33  1  0.40422024  0.81739041  0.80894794  1
  Cu+  Cu34  1  0.68209545  0.08764197  0.81200822  1
  Cu+  Cu35  1  0.57445671  0.42876634  0.47287758  1
  Cu+  Cu36  1  0.16247066  0.08352899  0.16894864  1
  Cu+  Cu37  1  0.16450877  0.58443637  0.17534853  1
  Cu+  Cu38  1  0.66102882  0.08080154  0.17162098  1
  Cu+  Cu39  1  0.66214360  0.58016389  0.17060694  1
  Cu+  Cu40  1  0.41667147  0.33574163  0.16939756  1
  Cu+  Cu41  1  0.42482659  0.83468032  0.17184610  1
  Cu+  Cu42  1  0.91456699  0.33675145  0.17287957  1
  Cu+  Cu43  1  0.91724925  0.83918389  0.16996003  1
  Cu+  Cu44  1  0.41607478  0.08127491  0.17073279  1
  Cu+  Cu45  1  0.42473385  0.59055136  0.17146540  1
  Cu+  Cu46  1  0.91853714  0.08118695  0.17002189  1
  Cu+  Cu47  1  0.91456677  0.57908383  0.17378508  1
  Cu+  Cu48  1  0.49563730  0.24921246  0.49936706  1
  Cu+  Cu49  1  0.49836899  0.74967459  0.50850591  1
  Cu+  Cu50  1  1.00082342  0.25350994  0.50580292  1
  Cu+  Cu51  1  0.99955162  0.74664410  0.50221997  1
  Cu+  Cu52  1  0.25450110  0.00495140  0.49996397  1
  Cu+  Cu53  1  0.25396795  0.50400296  0.50420870  1
  Cu+  Cu54  1  0.74860030  0.00196515  0.50775084  1
  Cu+  Cu55  1  0.75152385  0.50673051  0.50096895  1
  Cu+  Cu56  1  0.25535899  0.25274940  0.50055515  1
  Cu+  Cu57  1  0.25138170  0.74776412  0.50494243  1
  Cu+  Cu58  1  0.75056779  0.24331167  0.50515513  1
  Cu+  Cu59  1  0.75240782  0.75010991  0.50526899  1
  Cu+  Cu60  1  0.33006304  0.41809403  0.83764563  1
  Cu+  Cu61  1  0.32783986  0.91295448  0.83619682  1
  Cu+  Cu62  1  0.83119547  0.41086751  0.84052735  1
  Cu+  Cu63  1  0.83101071  0.90899265  0.83401390  1
  Cu+  Cu64  1  0.08630054  0.16923015  0.83476078  1
  Cu+  Cu65  1  0.08481397  0.67150624  0.83576899  1
  Cu+  Cu66  1  0.59159676  0.17072711  0.83850708  1
  Cu+  Cu67  1  0.57845425  0.66846291  0.83517936  1
  Cu+  Cu68  1  0.08444361  0.41205030  0.83651312  1
  Cu+  Cu69  1  0.07877317  0.90980254  0.83424811  1
  Cu+  Cu70  1  0.58686515  0.41686735  0.84202495  1
  Cu+  Cu71  1  0.58201362  0.91179977  0.83551904  1
  Cu+  Cu72  1  0.17076485  0.08596075  0.66946189  1
  Cu+  Cu73  1  0.16687492  0.58454224  0.67601962  1
  Cu+  Cu74  1  0.66888028  0.08801994  0.68211273  1
  Cu+  Cu75  1  0.66757615  0.58268553  0.67496738  1
  Cu+  Cu76  1  0.41895438  0.33324299  0.67271729  1
  Cu+  Cu77  1  0.41429703  0.83154312  0.67901199  1
  Cu+  Cu78  1  0.91305273  0.33021197  0.68267530  1
  Cu+  Cu79  1  0.91590898  0.82865983  0.67623826  1
  Cu+  Cu80  1  0.41772944  0.08894953  0.67234315  1
  Cu+  Cu81  1  0.41549742  0.58645765  0.67995440  1
  Cu+  Cu82  1  0.91613053  0.08479903  0.67524202  1
  Cu+  Cu83  1  0.91629828  0.58295127  0.67584520  1
  Cu+  Cu84  1  0.00269200  0.25136749  0.00855235  1
  Cu+  Cu85  1  0.00073948  0.75084997  0.00776168  1
  Cu+  Cu86  1  0.50243981  0.24904159  0.00923820  1
  Cu+  Cu87  1  0.50164532  0.75119631  0.01223294  1
  Cu+  Cu88  1  0.24723378  0.49738006  0.00938457  1
  Cu+  Cu89  1  0.24666941  0.99643017  0.00438416  1
  Cu+  Cu90  1  0.75031872  0.49453579  0.01677978  1
  Cu+  Cu91  1  0.74854923  0.99711770  0.00735361  1
  Cu+  Cu92  1  0.24939449  0.25189139  0.00525833  1
  Cu+  Cu93  1  0.24756216  0.75116804  0.00882439  1
  Cu+  Cu94  1  0.74980672  0.24946680  0.01776116  1
  Cu+  Cu95  1  0.74819225  0.74689989  0.00631202  1
  Cu+  Cu96  1  0.33623877  0.42092777  0.33931514  1
  Cu+  Cu97  1  0.33633993  0.91699384  0.34019324  1
  Cu+  Cu98  1  0.83404817  0.41758855  0.35192830  1
  Cu+  Cu99  1  0.83836215  0.92174299  0.34100471  1
  Cu+  Cu100  1  0.08209349  0.16604624  0.33863190  1
  Cu+  Cu101  1  0.08043629  0.66346654  0.34796973  1
  Cu+  Cu102  1  0.58127704  0.16266898  0.34669515  1
  Cu+  Cu103  1  0.58479281  0.66770051  0.34278520  1
  Cu+  Cu104  1  0.08255562  0.41894720  0.34352327  1
  Cu+  Cu105  1  0.08266646  0.92089874  0.33732944  1
  Cu+  Cu106  1  0.58108460  0.41916385  0.34470789  1
  Cu+  Cu107  1  0.58416194  0.91806397  0.34412987  1
  Cu+  Cu108  1  0.00035590  0.00012443  0.11126348  1
  Cu+  Cu109  1  0.00488124  0.50227541  0.11915863  1
  Cu+  Cu110  1  0.49412011  -0.00232914  0.11586550  1
  Cu+  Cu111  1  0.49539091  0.49762011  0.11420884  1
  Cu+  Cu112  1  0.32691033  0.16453565  0.44117958  1
  Cu+  Cu113  1  0.33691300  0.66851139  0.44975069  1
  Cu+  Cu114  1  0.84026781  0.16309563  0.45181289  1
  Cu+  Cu115  1  0.83718867  0.67520868  0.44615035  1
  Cu+  Cu116  1  0.16857540  0.33039983  0.77852842  1
  Cu+  Cu117  1  0.16781269  0.83723309  0.77733277  1
  Cu+  Cu118  1  0.66527914  0.33682489  0.78555811  1
  Cu+  Cu119  1  0.66880810  0.83432174  0.77793537  1
  Te2-  Te120  1  0.00260400  0.00308936  0.38492214  1
  Te2-  Te121  1  0.00007178  0.49815495  0.39353959  1
  Te2-  Te122  1  0.49858289  -0.00355319  0.38930822  1
  Te2-  Te123  1  0.49895612  0.50356502  0.38753294  1
  Te2-  Te124  1  0.33359602  0.16879195  0.71594726  1
  Te2-  Te125  1  0.32952237  0.66640571  0.72526306  1
  Te2-  Te126  1  0.83430746  0.16444373  0.72650214  1
  Te2-  Te127  1  0.83143886  0.66229644  0.72003259  1
  Te2-  Te128  1  0.16723009  0.33271058  0.05189382  1
  Te2-  Te129  1  0.16517021  0.83376255  0.05096906  1
  Te2-  Te130  1  0.66375286  0.32917462  0.06071422  1
  Te2-  Te131  1  0.66971129  0.83277168  0.05210564  1
  Te2-  Te132  1  0.49988772  0.24667098  0.88319369  1
  Te2-  Te133  1  0.48795881  0.74460198  0.88478606  1
  Te2-  Te134  1  0.99304521  0.24220415  0.88279877  1
  Te2-  Te135  1  0.98908002  0.74139460  0.88202757  1
  Te2-  Te136  1  0.24845178  0.00211133  0.87814811  1
  Te2-  Te137  1  0.24971706  0.50812696  0.88347751  1
  Te2-  Te138  1  0.75408712  0.00145742  0.88088814  1
  Te2-  Te139  1  0.75462792  0.50088726  0.88847470  1
  Te2-  Te140  1  0.25386226  0.24988506  0.87940289  1
  Te2-  Te141  1  0.25020420  0.74325095  0.88310540  1
  Te2-  Te142  1  0.75764161  0.24223540  0.88942733  1
  Te2-  Te143  1  0.74687165  0.74008420  0.88030305  1
  Te2-  Te144  1  0.33285380  0.42063509  0.21318817  1
  Te2-  Te145  1  0.33262559  0.91242317  0.21409801  1
  Te2-  Te146  1  0.82007414  0.41044855  0.22290603  1
  Te2-  Te147  1  0.82664405  0.91514119  0.21558870  1
  Te2-  Te148  1  0.08594318  0.17468246  0.21329494  1
  Te2-  Te149  1  0.08160223  0.66961456  0.22039744  1
  Te2-  Te150  1  0.58313649  0.17222287  0.21915850  1
  Te2-  Te151  1  0.59360604  0.67764095  0.21689036  1
  Te2-  Te152  1  0.08208944  0.41501087  0.21744581  1
  Te2-  Te153  1  0.08562538  0.91535881  0.21207641  1
  Te2-  Te154  1  0.58326629  0.41093962  0.21773218  1
  Te2-  Te155  1  0.59303907  0.91584919  0.21822146  1
  Te2-  Te156  1  0.16541227  0.08395501  0.54355977  1
  Te2-  Te157  1  0.16002194  0.57720191  0.55038370  1
  Te2-  Te158  1  0.65778098  0.07801005  0.55467229  1
  Te2-  Te159  1  0.65995859  0.58200017  0.54918055  1
  Te2-  Te160  1  0.42197177  0.34414105  0.54713322  1
  Te2-  Te161  1  0.41799898  0.83814422  0.55177307  1
  Te2-  Te162  1  0.91986272  0.33956548  0.55451687  1
  Te2-  Te163  1  0.92087190  0.83521080  0.54883707  1
  Te2-  Te164  1  0.42102964  0.08020952  0.54695970  1
  Te2-  Te165  1  0.41921151  0.58219126  0.55303216  1
  Te2-  Te166  1  0.91839344  0.08410755  0.54911308  1
  Te2-  Te167  1  0.92131384  0.57704814  0.54997099  1
  Te2-  Te168  1  0.00009383  -0.00004359  0.87940925  1
  Te2-  Te169  1  0.00280508  0.50114893  0.88264066  1
  Te2-  Te170  1  0.49838656  -0.00102616  0.88258604  1
  Te2-  Te171  1  0.50006238  0.49997941  0.88300965  1
  Te2-  Te172  1  0.33164801  0.16671547  0.21315591  1
  Te2-  Te173  1  0.33302420  0.66699152  0.21791879  1
  Te2-  Te174  1  0.83263408  0.16506918  0.21594913  1
  Te2-  Te175  1  0.83289101  0.66950254  0.21553539  1
  Te2-  Te176  1  0.16993966  0.33492790  0.54779999  1
  Te2-  Te177  1  0.16898909  0.83660474  0.54735434  1
  Te2-  Te178  1  0.66651750  0.33421258  0.54879877  1
  Te2-  Te179  1  0.66790344  0.83344605  0.55121413  1
  Te2-  Te180  1  0.32863670  0.41332769  0.70987790  1
  Te2-  Te181  1  0.32825980  0.91832179  0.70876671  1
  Te2-  Te182  1  0.82496230  0.41415777  0.71346884  1
  Te2-  Te183  1  0.82712648  0.91337808  0.70694642  1
  Te2-  Te184  1  0.08655795  0.17073914  0.70850425  1
  Te2-  Te185  1  0.08573664  0.67266318  0.71061964  1
  Te2-  Te186  1  0.58534343  0.17601992  0.71226821  1
  Te2-  Te187  1  0.58817161  0.67360433  0.70912218  1
  Te2-  Te188  1  0.08753739  0.41385847  0.70998823  1
  Te2-  Te189  1  0.08871918  0.91591099  0.70658943  1
  Te2-  Te190  1  0.58644036  0.41472035  0.71409255  1
  Te2-  Te191  1  0.58710017  0.91386120  0.70851545  1
  Te2-  Te192  1  0.16176026  0.08155445  0.04197814  1
  Te2-  Te193  1  0.16262117  0.58207238  0.04798384  1
  Te2-  Te194  1  0.65836229  0.07588812  0.04482799  1
  Te2-  Te195  1  0.65902001  0.57788281  0.04374264  1
  Te2-  Te196  1  0.41951112  0.33778835  0.04271689  1
  Te2-  Te197  1  0.41784500  0.83923346  0.04455203  1
  Te2-  Te198  1  0.92260793  0.34033307  0.04620405  1
  Te2-  Te199  1  0.91740963  0.83726045  0.04350344  1
  Te2-  Te200  1  0.41668985  0.07827412  0.04356222  1
  Te2-  Te201  1  0.41778796  0.57920272  0.04429945  1
  Te2-  Te202  1  0.91882008  0.08059216  0.04367915  1
  Te2-  Te203  1  0.92300727  0.58168930  0.04683765  1
  Te2-  Te204  1  0.49090146  0.24607932  0.37310623  1
  Te2-  Te205  1  0.49639211  0.74853541  0.38117098  1
  Te2-  Te206  1  0.99555186  0.24866276  0.37872003  1
  Te2-  Te207  1  0.99456234  0.75122627  0.37524703  1
  Te2-  Te208  1  0.25271723  0.00427379  0.37370766  1
  Te2-  Te209  1  0.25360356  0.50770703  0.37784968  1
  Te2-  Te210  1  0.75369600  0.00608018  0.38090420  1
  Te2-  Te211  1  0.75294489  0.50970219  0.37514553  1
  Te2-  Te212  1  0.25283166  0.25042695  0.37402492  1
  Te2-  Te213  1  0.25444823  0.74709556  0.37727284  1
  Te2-  Te214  1  0.75334005  0.24464247  0.37845499  1
  Te2-  Te215  1  0.75477835  0.75161097  0.37848658  1
