# generated using pymatgen
data_Ti(CuTe)4
_symmetry_space_group_name_H-M   'P 1'
_cell_length_a   16.85604177
_cell_length_b   16.85603479
_cell_length_c   20.65992834
_cell_angle_alpha   90.01839062
_cell_angle_beta   89.99021654
_cell_angle_gamma   119.99536347
_symmetry_Int_Tables_number   1
_chemical_formula_structural   Ti(CuTe)4
_chemical_formula_sum   'Ti24 Cu96 Te96'
_cell_volume   5083.82656883
_cell_formula_units_Z   24
loop_
 _symmetry_equiv_pos_site_id
 _symmetry_equiv_pos_as_xyz
  1  'x, y, z'
loop_
 _atom_type_symbol
 _atom_type_oxidation_number
  Ti4+  4.0
  Cu+  1.0
  Te2-  -2.0
loop_
 _atom_site_type_symbol
 _atom_site_label
 _atom_site_symmetry_multiplicity
 _atom_site_fract_x
 _atom_site_fract_y
 _atom_site_fract_z
 _atom_site_occupancy
  Ti4+  Ti0  1  0.00175566  0.00027238  0.25476895  1
  Ti4+  Ti1  1  -0.00151909  0.50199276  0.25981298  1
  Ti4+  Ti2  1  0.49839000  -0.00331230  0.25997698  1
  Ti4+  Ti3  1  0.50157288  0.50199292  0.25781835  1
  Ti4+  Ti4  1  0.33360009  0.16805756  0.58884986  1
  Ti4+  Ti5  1  0.33549929  0.66521901  0.59297659  1
  Ti4+  Ti6  1  0.83133168  0.16994828  0.58865169  1
  Ti4+  Ti7  1  0.83274596  0.66840940  0.59037990  1
  Ti4+  Ti8  1  0.16343068  0.33007424  0.92308585  1
  Ti4+  Ti9  1  0.16898858  0.83114542  0.92435135  1
  Ti4+  Ti10  1  0.66803213  0.33226864  0.92716122  1
  Ti4+  Ti11  1  0.66628220  0.83323514  0.92653653  1
  Ti4+  Ti12  1  -0.00022886  0.00127089  0.75345357  1
  Ti4+  Ti13  1  -0.00044367  0.49933973  0.75528172  1
  Ti4+  Ti14  1  0.49907354  -0.00130772  0.75665518  1
  Ti4+  Ti15  1  0.50073639  0.50192415  0.75704144  1
  Ti4+  Ti16  1  0.33252458  0.16639055  0.08836398  1
  Ti4+  Ti17  1  0.33477974  0.66837634  0.09259256  1
  Ti4+  Ti18  1  0.83354152  0.16619610  0.09117773  1
  Ti4+  Ti19  1  0.83255926  0.66380860  0.08785125  1
  Ti4+  Ti20  1  0.16718971  0.33554345  0.42078137  1
  Ti4+  Ti21  1  0.16687453  0.83319595  0.42268926  1
  Ti4+  Ti22  1  0.66689581  0.33334250  0.41925142  1
  Ti4+  Ti23  1  0.66584217  0.83307935  0.42133650  1
  Cu+  Cu24  1  0.56862707  0.91949891  0.47719418  1
  Cu+  Cu25  1  0.57403445  0.15307589  0.47676489  1
  Cu+  Cu26  1  0.23858641  0.76179657  0.14328257  1
  Cu+  Cu27  1  0.84744655  0.42763992  0.47836062  1
  Cu+  Cu28  1  0.41091038  0.81230786  0.81209943  1
  Cu+  Cu29  1  0.73580319  0.47264089  0.14187414  1
  Cu+  Cu30  1  0.18048352  0.58375926  0.81234581  1
  Cu+  Cu31  1  0.90393195  0.31046497  0.80914776  1
  Cu+  Cu32  1  0.07986650  0.43342623  0.47641749  1
  Cu+  Cu33  1  0.52682229  0.76381221  0.14358376  1
  Cu+  Cu34  1  0.57719938  0.64887531  0.47468741  1
  Cu+  Cu35  1  0.35247743  0.42395419  0.47367153  1
  Cu+  Cu36  1  0.16320630  0.08076703  0.16857218  1
  Cu+  Cu37  1  0.16363372  0.58660873  0.17398001  1
  Cu+  Cu38  1  0.66528922  0.08139459  0.17520685  1
  Cu+  Cu39  1  0.66466081  0.57881107  0.16992506  1
  Cu+  Cu40  1  0.41357596  0.33586446  0.17140365  1
  Cu+  Cu41  1  0.41904659  0.83610522  0.17258444  1
  Cu+  Cu42  1  0.91762811  0.33589435  0.17470412  1
  Cu+  Cu43  1  0.92014066  0.83710000  0.16839377  1
  Cu+  Cu44  1  0.41745459  0.08365087  0.17264872  1
  Cu+  Cu45  1  0.42411182  0.58843880  0.17368605  1
  Cu+  Cu46  1  0.91915370  0.08180785  0.17105351  1
  Cu+  Cu47  1  0.91203111  0.57694616  0.17046445  1
  Cu+  Cu48  1  0.49333034  0.24606243  0.49992195  1
  Cu+  Cu49  1  0.49663277  0.74609886  0.50343262  1
  Cu+  Cu50  1  0.99652905  0.25566210  0.50039099  1
  Cu+  Cu51  1  0.99869148  0.75177046  0.50405718  1
  Cu+  Cu52  1  0.25079262  0.00209442  0.50285034  1
  Cu+  Cu53  1  0.25340724  0.50260723  0.50349672  1
  Cu+  Cu54  1  0.74594963  0.00369217  0.50042228  1
  Cu+  Cu55  1  0.75411356  0.50782466  0.50078152  1
  Cu+  Cu56  1  0.25422417  0.25087221  0.50105481  1
  Cu+  Cu57  1  0.25169731  0.74934685  0.50594208  1
  Cu+  Cu58  1  0.75247669  0.24916711  0.49953631  1
  Cu+  Cu59  1  0.75010408  0.74708920  0.50255206  1
  Cu+  Cu60  1  0.33128252  0.41348065  0.83751986  1
  Cu+  Cu61  1  0.33073337  0.90857813  0.83704869  1
  Cu+  Cu62  1  0.82809381  0.40976240  0.83880474  1
  Cu+  Cu63  1  0.83207421  0.91689564  0.83799776  1
  Cu+  Cu64  1  0.08343600  0.16886802  0.83451085  1
  Cu+  Cu65  1  0.09064549  0.67079107  0.83589937  1
  Cu+  Cu66  1  0.58480670  0.16970292  0.83947483  1
  Cu+  Cu67  1  0.58462631  0.67057802  0.83980628  1
  Cu+  Cu68  1  0.08228581  0.40887424  0.83541609  1
  Cu+  Cu69  1  0.08500307  0.91601767  0.83717824  1
  Cu+  Cu70  1  0.58628081  0.41893141  0.84162369  1
  Cu+  Cu71  1  0.58343121  0.91230030  0.83963976  1
  Cu+  Cu72  1  0.16888342  0.08588409  0.67110927  1
  Cu+  Cu73  1  0.16928716  0.58521069  0.68224379  1
  Cu+  Cu74  1  0.66572678  0.08544711  0.67630589  1
  Cu+  Cu75  1  0.66857721  0.58686086  0.67564997  1
  Cu+  Cu76  1  0.41733036  0.33287155  0.67421505  1
  Cu+  Cu77  1  0.41652843  0.83080406  0.68250273  1
  Cu+  Cu78  1  0.91228811  0.33293778  0.67999021  1
  Cu+  Cu79  1  0.91458492  0.83269961  0.67278822  1
  Cu+  Cu80  1  0.41603783  0.08552017  0.67472203  1
  Cu+  Cu81  1  0.41854964  0.58434780  0.67803710  1
  Cu+  Cu82  1  0.91465340  0.08667833  0.67004869  1
  Cu+  Cu83  1  0.91487233  0.58567097  0.67559889  1
  Cu+  Cu84  1  0.00077117  0.25122002  0.00797510  1
  Cu+  Cu85  1  0.00333929  0.74889416  0.00645649  1
  Cu+  Cu86  1  0.50125091  0.25225052  0.00955991  1
  Cu+  Cu87  1  0.50338811  0.75056352  0.01576675  1
  Cu+  Cu88  1  0.24801881  0.49646512  0.00916130  1
  Cu+  Cu89  1  0.25156470  0.99705726  0.00632284  1
  Cu+  Cu90  1  0.74780600  0.49353628  0.01333622  1
  Cu+  Cu91  1  0.74673039  0.99727810  0.00951445  1
  Cu+  Cu92  1  0.24710612  0.24992772  0.00554727  1
  Cu+  Cu93  1  0.24952828  0.74984721  0.01567844  1
  Cu+  Cu94  1  0.75092397  0.25024772  0.01167700  1
  Cu+  Cu95  1  0.74868699  0.74988485  0.00827604  1
  Cu+  Cu96  1  0.33795487  0.42137161  0.34515601  1
  Cu+  Cu97  1  0.33267337  0.91304188  0.34218846  1
  Cu+  Cu98  1  0.83559417  0.41888619  0.34805325  1
  Cu+  Cu99  1  0.83856315  0.91928037  0.33782891  1
  Cu+  Cu100  1  0.08228326  0.16421109  0.33739710  1
  Cu+  Cu101  1  0.08340986  0.66731615  0.34200200  1
  Cu+  Cu102  1  0.58054890  0.16092693  0.34732934  1
  Cu+  Cu103  1  0.58344393  0.66515311  0.34575418  1
  Cu+  Cu104  1  0.08016910  0.41944343  0.34668710  1
  Cu+  Cu105  1  0.08258046  0.91918320  0.33744696  1
  Cu+  Cu106  1  0.58353735  0.41671311  0.34033454  1
  Cu+  Cu107  1  0.58164925  0.91694477  0.34781914  1
  Cu+  Cu108  1  0.00069995  0.00098279  0.11076204  1
  Cu+  Cu109  1  0.00054118  0.49910228  0.11724370  1
  Cu+  Cu110  1  0.50140643  0.00528850  0.11808219  1
  Cu+  Cu111  1  0.49888123  0.49780788  0.11524779  1
  Cu+  Cu112  1  0.32632445  0.16199163  0.44333587  1
  Cu+  Cu113  1  0.33175211  0.66720740  0.44773991  1
  Cu+  Cu114  1  0.83582958  0.16425934  0.44317608  1
  Cu+  Cu115  1  0.83833637  0.67299132  0.44522335  1
  Cu+  Cu116  1  0.17085019  0.32954655  0.77794361  1
  Cu+  Cu117  1  0.16655141  0.83956077  0.78048817  1
  Cu+  Cu118  1  0.66118276  0.33403150  0.78479367  1
  Cu+  Cu119  1  0.67245235  0.83509970  0.78279097  1
  Te2-  Te120  1  0.00158923  0.00135773  0.38444262  1
  Te2-  Te121  1  0.00122465  0.50545202  0.39277011  1
  Te2-  Te122  1  0.49468759  -0.00440041  0.39254413  1
  Te2-  Te123  1  0.50355573  0.49901591  0.39039238  1
  Te2-  Te124  1  0.33265874  0.16753088  0.71788406  1
  Te2-  Te125  1  0.33531138  0.66431420  0.72510285  1
  Te2-  Te126  1  0.83085285  0.16515217  0.71895121  1
  Te2-  Te127  1  0.83360291  0.66921273  0.71957487  1
  Te2-  Te128  1  0.16538600  0.33154980  0.05227208  1
  Te2-  Te129  1  0.16598652  0.83440425  0.05475594  1
  Te2-  Te130  1  0.66400088  0.32736842  0.05799955  1
  Te2-  Te131  1  0.67087400  0.83435504  0.05744702  1
  Te2-  Te132  1  0.49707154  0.24943989  0.88357538  1
  Te2-  Te133  1  0.49174424  0.74279400  0.88836830  1
  Te2-  Te134  1  0.98919861  0.24114906  0.88186602  1
  Te2-  Te135  1  0.99869030  0.74632620  0.88042882  1
  Te2-  Te136  1  0.25454172  0.00108822  0.88016475  1
  Te2-  Te137  1  0.25359333  0.50348206  0.88309116  1
  Te2-  Te138  1  0.75068097  0.00386734  0.88325567  1
  Te2-  Te139  1  0.75526049  0.50361011  0.88594391  1
  Te2-  Te140  1  0.25018425  0.24564953  0.87989711  1
  Te2-  Te141  1  0.25646680  0.74087032  0.88725904  1
  Te2-  Te142  1  0.75131526  0.24131393  0.88543913  1
  Te2-  Te143  1  0.75264878  0.74888113  0.88246084  1
  Te2-  Te144  1  0.33090545  0.42030005  0.21829281  1
  Te2-  Te145  1  0.32635506  0.91446613  0.21661984  1
  Te2-  Te146  1  0.82469669  0.41029446  0.22050308  1
  Te2-  Te147  1  0.82926664  0.91333328  0.21261562  1
  Te2-  Te148  1  0.08753900  0.17265438  0.21210622  1
  Te2-  Te149  1  0.08053327  0.67419324  0.21624834  1
  Te2-  Te150  1  0.58375877  0.16746016  0.22022755  1
  Te2-  Te151  1  0.59395804  0.67548291  0.21840215  1
  Te2-  Te152  1  0.08598302  0.41912160  0.21955368  1
  Te2-  Te153  1  0.08718490  0.91332731  0.21213464  1
  Te2-  Te154  1  0.58173754  0.40950493  0.21523928  1
  Te2-  Te155  1  0.58820912  0.91325530  0.22045976  1
  Te2-  Te156  1  0.16290282  0.08345271  0.54491380  1
  Te2-  Te157  1  0.16304391  0.58234634  0.55398065  1
  Te2-  Te158  1  0.65492426  0.07995836  0.54981295  1
  Te2-  Te159  1  0.65886914  0.57714049  0.54935053  1
  Te2-  Te160  1  0.42462768  0.34193837  0.54787372  1
  Te2-  Te161  1  0.41866390  0.83770890  0.55420338  1
  Te2-  Te162  1  0.92067990  0.34654552  0.55139900  1
  Te2-  Te163  1  0.91716147  0.83919564  0.54675418  1
  Te2-  Te164  1  0.41797118  0.07807073  0.54885929  1
  Te2-  Te165  1  0.42247007  0.57790756  0.55124135  1
  Te2-  Te166  1  0.91528803  0.08571548  0.54376975  1
  Te2-  Te167  1  0.92251102  0.58412866  0.54973858  1
  Te2-  Te168  1  0.00103846  0.00059387  0.88022094  1
  Te2-  Te169  1  0.00079079  0.49923822  0.88263410  1
  Te2-  Te170  1  0.49988788  -0.00013272  0.88375220  1
  Te2-  Te171  1  0.49926115  0.50089340  0.88391293  1
  Te2-  Te172  1  0.33103400  0.16674132  0.21509840  1
  Te2-  Te173  1  0.33291286  0.66715107  0.22015445  1
  Te2-  Te174  1  0.83528216  0.16604598  0.21789474  1
  Te2-  Te175  1  0.83406608  0.66851315  0.21496296  1
  Te2-  Te176  1  0.16518174  0.33149265  0.54851993  1
  Te2-  Te177  1  0.16698870  0.83447783  0.54948550  1
  Te2-  Te178  1  0.66634339  0.33473563  0.54683343  1
  Te2-  Te179  1  0.66802633  0.83539379  0.54915004  1
  Te2-  Te180  1  0.32893651  0.41399116  0.71039806  1
  Te2-  Te181  1  0.32666837  0.91470859  0.70975155  1
  Te2-  Te182  1  0.82480997  0.41681346  0.71211783  1
  Te2-  Te183  1  0.82822464  0.91682503  0.70943896  1
  Te2-  Te184  1  0.08468386  0.17226219  0.70706773  1
  Te2-  Te185  1  0.08509243  0.67380952  0.70980848  1
  Te2-  Te186  1  0.58427233  0.17232377  0.71318796  1
  Te2-  Te187  1  0.58775033  0.67515150  0.71287284  1
  Te2-  Te188  1  0.08622386  0.41153729  0.70821612  1
  Te2-  Te189  1  0.08548288  0.91574326  0.70894779  1
  Te2-  Te190  1  0.58665276  0.41660616  0.71320954  1
  Te2-  Te191  1  0.58935979  0.91528264  0.71196255  1
  Te2-  Te192  1  0.16210677  0.07927873  0.04130312  1
  Te2-  Te193  1  0.16132441  0.57778315  0.04690632  1
  Te2-  Te194  1  0.66075639  0.08005014  0.04804963  1
  Te2-  Te195  1  0.65939659  0.57952218  0.04291961  1
  Te2-  Te196  1  0.41674200  0.33843061  0.04422542  1
  Te2-  Te197  1  0.42233789  0.84217095  0.04566088  1
  Te2-  Te198  1  0.92017930  0.33892301  0.04771460  1
  Te2-  Te199  1  0.91960675  0.83580452  0.04197136  1
  Te2-  Te200  1  0.42037126  0.08149123  0.04529261  1
  Te2-  Te201  1  0.41709084  0.57792235  0.04657761  1
  Te2-  Te202  1  0.91811035  0.08044593  0.04383484  1
  Te2-  Te203  1  0.92157860  0.57935762  0.04355448  1
  Te2-  Te204  1  0.49224410  0.24668509  0.37384995  1
  Te2-  Te205  1  0.49043702  0.74425776  0.37595865  1
  Te2-  Te206  1  0.99486342  0.24649689  0.37364343  1
  Te2-  Te207  1  0.99591500  0.75002724  0.37673446  1
  Te2-  Te208  1  0.25216180  0.00367201  0.37558185  1
  Te2-  Te209  1  0.25368833  0.50988283  0.37565105  1
  Te2-  Te210  1  0.75503912  0.00536702  0.37376340  1
  Te2-  Te211  1  0.75250864  0.50896194  0.37464787  1
  Te2-  Te212  1  0.25181262  0.24770988  0.37380981  1
  Te2-  Te213  1  0.25202873  0.74487246  0.37899979  1
  Te2-  Te214  1  0.75422289  0.24491769  0.37328951  1
  Te2-  Te215  1  0.75626357  0.75056320  0.37538801  1
