# generated using pymatgen
data_Ti(CuTe)4
_symmetry_space_group_name_H-M   'P 1'
_cell_length_a   16.90277240
_cell_length_b   16.90145094
_cell_length_c   20.72270223
_cell_angle_alpha   90.02277477
_cell_angle_beta   89.96512601
_cell_angle_gamma   119.98786039
_symmetry_Int_Tables_number   1
_chemical_formula_structural   Ti(CuTe)4
_chemical_formula_sum   'Ti24 Cu96 Te96'
_cell_volume   5127.57452079
_cell_formula_units_Z   24
loop_
 _symmetry_equiv_pos_site_id
 _symmetry_equiv_pos_as_xyz
  1  'x, y, z'
loop_
 _atom_type_symbol
 _atom_type_oxidation_number
  Ti4+  4.0
  Cu+  1.0
  Te2-  -2.0
loop_
 _atom_site_type_symbol
 _atom_site_label
 _atom_site_symmetry_multiplicity
 _atom_site_fract_x
 _atom_site_fract_y
 _atom_site_fract_z
 _atom_site_occupancy
  Ti4+  Ti0  1  -0.00140708  -0.00077926  0.26141501  1
  Ti4+  Ti1  1  -0.00328519  0.49827026  0.25852959  1
  Ti4+  Ti2  1  0.50235026  -0.00016809  0.25875277  1
  Ti4+  Ti3  1  0.49913573  0.50101538  0.25406934  1
  Ti4+  Ti4  1  0.33426261  0.16489536  0.58607632  1
  Ti4+  Ti5  1  0.33241039  0.66699038  0.59090332  1
  Ti4+  Ti6  1  0.83542580  0.16989861  0.59154146  1
  Ti4+  Ti7  1  0.83291215  0.66793112  0.58947035  1
  Ti4+  Ti8  1  0.16708387  0.33180398  0.92445012  1
  Ti4+  Ti9  1  0.16681692  0.83161411  0.92490136  1
  Ti4+  Ti10  1  0.66744384  0.33233264  0.92455541  1
  Ti4+  Ti11  1  0.66644912  0.83541901  0.92648231  1
  Ti4+  Ti12  1  0.00112710  0.00119411  0.75648849  1
  Ti4+  Ti13  1  0.00006057  0.50099866  0.75624225  1
  Ti4+  Ti14  1  0.50106611  -0.00004485  0.75675737  1
  Ti4+  Ti15  1  0.49940118  0.49929291  0.75437865  1
  Ti4+  Ti16  1  0.33295456  0.16508151  0.08885909  1
  Ti4+  Ti17  1  0.33346722  0.66550075  0.08840349  1
  Ti4+  Ti18  1  0.83278789  0.16789459  0.09069223  1
  Ti4+  Ti19  1  0.83257161  0.66665688  0.08839474  1
  Ti4+  Ti20  1  0.16585712  0.33398098  0.41933038  1
  Ti4+  Ti21  1  0.16748428  0.83358988  0.41841146  1
  Ti4+  Ti22  1  0.66625501  0.33339376  0.42020865  1
  Ti4+  Ti23  1  0.66602198  0.83332029  0.42264886  1
  Cu+  Cu24  1  0.07920258  0.15789223  0.47914413  1
  Cu+  Cu25  1  0.74691848  0.98684565  0.14729102  1
  Cu+  Cu26  1  0.84331876  0.92300619  0.48292690  1
  Cu+  Cu27  1  0.51722550  0.75655970  0.14249863  1
  Cu+  Cu28  1  0.40603114  0.81269016  0.81089597  1
  Cu+  Cu29  1  0.07856454  0.43127825  0.47268232  1
  Cu+  Cu30  1  0.84772019  0.42777119  0.47703430  1
  Cu+  Cu31  1  0.73760368  0.26169715  0.14160590  1
  Cu+  Cu32  1  0.34921815  0.92029096  0.47533040  1
  Cu+  Cu33  1  0.07935920  0.91989900  0.48038450  1
  Cu+  Cu34  1  0.57989254  0.15085158  0.47536898  1
  Cu+  Cu35  1  0.68925377  0.09386979  0.81151611  1
  Cu+  Cu36  1  0.16449273  0.08145140  0.17434717  1
  Cu+  Cu37  1  0.16258486  0.57805042  0.17184144  1
  Cu+  Cu38  1  0.66382209  0.08317053  0.17119832  1
  Cu+  Cu39  1  0.66254363  0.58243907  0.16790265  1
  Cu+  Cu40  1  0.41650513  0.33514298  0.16934658  1
  Cu+  Cu41  1  0.42022288  0.83394737  0.17129841  1
  Cu+  Cu42  1  0.91276781  0.33747894  0.17237528  1
  Cu+  Cu43  1  0.91563154  0.83498738  0.17324869  1
  Cu+  Cu44  1  0.41783455  0.08124584  0.17207408  1
  Cu+  Cu45  1  0.42191354  0.58390514  0.16848899  1
  Cu+  Cu46  1  0.91827133  0.07893536  0.17450604  1
  Cu+  Cu47  1  0.91435477  0.57958327  0.17146995  1
  Cu+  Cu48  1  0.49665279  0.24374612  0.49921787  1
  Cu+  Cu49  1  0.49539172  0.74866315  0.50458811  1
  Cu+  Cu50  1  0.99800712  0.25316523  0.50117720  1
  Cu+  Cu51  1  0.99245872  0.74697486  0.50008997  1
  Cu+  Cu52  1  0.25608197  0.00557876  0.49746362  1
  Cu+  Cu53  1  0.24912080  0.50463666  0.50275098  1
  Cu+  Cu54  1  0.75231304  0.00516831  0.50503741  1
  Cu+  Cu55  1  0.75287657  0.50530455  0.50289748  1
  Cu+  Cu56  1  0.25284183  0.24701502  0.49887784  1
  Cu+  Cu57  1  0.25570614  0.74868821  0.50175228  1
  Cu+  Cu58  1  0.75319026  0.25028626  0.50351162  1
  Cu+  Cu59  1  0.75202454  0.74933293  0.50361623  1
  Cu+  Cu60  1  0.33010498  0.41249392  0.83689353  1
  Cu+  Cu61  1  0.32864292  0.90999777  0.83871941  1
  Cu+  Cu62  1  0.83097114  0.41398739  0.83818490  1
  Cu+  Cu63  1  0.83232741  0.91902343  0.83971322  1
  Cu+  Cu64  1  0.08548676  0.17022079  0.83871758  1
  Cu+  Cu65  1  0.08406678  0.66936023  0.83832454  1
  Cu+  Cu66  1  0.59115354  0.17025573  0.83846825  1
  Cu+  Cu67  1  0.58242161  0.66764519  0.83850946  1
  Cu+  Cu68  1  0.08396169  0.41422235  0.83946275  1
  Cu+  Cu69  1  0.08510228  0.91601211  0.83930293  1
  Cu+  Cu70  1  0.58315495  0.41365362  0.83749153  1
  Cu+  Cu71  1  0.58592582  0.91608198  0.83884969  1
  Cu+  Cu72  1  0.16839074  0.08355964  0.67369672  1
  Cu+  Cu73  1  0.16829831  0.58597393  0.67579859  1
  Cu+  Cu74  1  0.67087876  0.08678319  0.68151329  1
  Cu+  Cu75  1  0.66862495  0.58515374  0.67342384  1
  Cu+  Cu76  1  0.41604887  0.33084691  0.67020162  1
  Cu+  Cu77  1  0.41534101  0.83123562  0.68105668  1
  Cu+  Cu78  1  0.91657765  0.33417223  0.67662828  1
  Cu+  Cu79  1  0.91576588  0.83295719  0.67654099  1
  Cu+  Cu80  1  0.41636774  0.08358154  0.67371083  1
  Cu+  Cu81  1  0.41490969  0.58396248  0.67404785  1
  Cu+  Cu82  1  0.91777652  0.08572336  0.67759383  1
  Cu+  Cu83  1  0.91474277  0.58567380  0.67526555  1
  Cu+  Cu84  1  0.00440696  0.25236100  0.00912576  1
  Cu+  Cu85  1  0.00250094  0.75164827  0.00901672  1
  Cu+  Cu86  1  0.50243618  0.24826447  0.00716476  1
  Cu+  Cu87  1  0.50259411  0.75304801  0.01336984  1
  Cu+  Cu88  1  0.24798131  0.49519665  0.00667946  1
  Cu+  Cu89  1  0.24750444  0.99504380  0.00844737  1
  Cu+  Cu90  1  0.74962545  0.49795688  0.00727019  1
  Cu+  Cu91  1  0.74920394  1.00026698  0.01583686  1
  Cu+  Cu92  1  0.24727596  0.24816389  0.00767340  1
  Cu+  Cu93  1  0.24666583  0.74825118  0.00913901  1
  Cu+  Cu94  1  0.75067680  0.25378013  0.01342480  1
  Cu+  Cu95  1  0.75001586  0.75286837  0.00921733  1
  Cu+  Cu96  1  0.33537982  0.42012203  0.33585662  1
  Cu+  Cu97  1  0.33720414  0.91680796  0.34544844  1
  Cu+  Cu98  1  0.83432639  0.41796209  0.34702874  1
  Cu+  Cu99  1  0.83473080  0.91747379  0.35005590  1
  Cu+  Cu100  1  0.08122148  0.16318822  0.34728791  1
  Cu+  Cu101  1  0.08205663  0.66409923  0.33990898  1
  Cu+  Cu102  1  0.58114462  0.16360516  0.34617544  1
  Cu+  Cu103  1  0.57910166  0.66381232  0.34006783  1
  Cu+  Cu104  1  0.07982562  0.41813735  0.34474985  1
  Cu+  Cu105  1  0.08093928  0.91735897  0.34754297  1
  Cu+  Cu106  1  0.58031893  0.41984816  0.33697759  1
  Cu+  Cu107  1  0.58220282  0.91590267  0.34297951  1
  Cu+  Cu108  1  0.00326290  -0.00171498  0.11863793  1
  Cu+  Cu109  1  0.00209549  0.50417766  0.11533995  1
  Cu+  Cu110  1  0.49534051  -0.00232041  0.11542789  1
  Cu+  Cu111  1  0.49953293  0.49603752  0.11022031  1
  Cu+  Cu112  1  0.33533744  0.17082997  0.43987826  1
  Cu+  Cu113  1  0.33510610  0.66444309  0.44584798  1
  Cu+  Cu114  1  0.83308891  0.16673861  0.44787936  1
  Cu+  Cu115  1  0.82916867  0.66475399  0.44427061  1
  Cu+  Cu116  1  0.16754883  0.33486618  0.78196721  1
  Cu+  Cu117  1  0.16420626  0.83412273  0.78261195  1
  Cu+  Cu118  1  0.66620308  0.33597778  0.78187374  1
  Cu+  Cu119  1  0.66937940  0.82956402  0.78423288  1
  Te2-  Te120  1  -0.00047149  -0.00030984  0.39548100  1
  Te2-  Te121  1  -0.00016082  0.50336077  0.39116248  1
  Te2-  Te122  1  0.50219858  -0.00176748  0.39090240  1
  Te2-  Te123  1  0.49752161  0.49973824  0.38339465  1
  Te2-  Te124  1  0.33398855  0.16664546  0.71433211  1
  Te2-  Te125  1  0.33222757  0.66428651  0.72118572  1
  Te2-  Te126  1  0.83776409  0.17014102  0.72155048  1
  Te2-  Te127  1  0.83237565  0.66790538  0.71789946  1
  Te2-  Te128  1  0.16815844  0.33243514  0.05373251  1
  Te2-  Te129  1  0.16617364  0.83156542  0.05398121  1
  Te2-  Te130  1  0.66513811  0.33507041  0.05512548  1
  Te2-  Te131  1  0.66862114  0.83386311  0.05834934  1
  Te2-  Te132  1  0.49744058  0.24480996  0.88112074  1
  Te2-  Te133  1  0.49411079  0.74688470  0.88565637  1
  Te2-  Te134  1  0.99460607  0.24655349  0.88361848  1
  Te2-  Te135  1  0.99541332  0.74794107  0.88313019  1
  Te2-  Te136  1  0.25379317  0.00288413  0.88242260  1
  Te2-  Te137  1  0.25272589  0.50303785  0.88114918  1
  Te2-  Te138  1  0.75510634  0.00855870  0.88760555  1
  Te2-  Te139  1  0.75140917  0.50247397  0.88149021  1
  Te2-  Te140  1  0.25259371  0.24556478  0.88214943  1
  Te2-  Te141  1  0.25082674  0.74094510  0.88365912  1
  Te2-  Te142  1  0.75869833  0.24830564  0.88642244  1
  Te2-  Te143  1  0.75086699  0.75054911  0.88306457  1
  Te2-  Te144  1  0.32824161  0.41651379  0.21065241  1
  Te2-  Te145  1  0.33214928  0.91302947  0.21794150  1
  Te2-  Te146  1  0.82221760  0.41397240  0.21995369  1
  Te2-  Te147  1  0.82514744  0.91036151  0.22210264  1
  Te2-  Te148  1  0.08381284  0.16907538  0.21984465  1
  Te2-  Te149  1  0.08333408  0.66775012  0.21441280  1
  Te2-  Te150  1  0.58522746  0.17254729  0.21882876  1
  Te2-  Te151  1  0.59056726  0.67606063  0.21512364  1
  Te2-  Te152  1  0.08030202  0.41095792  0.21817120  1
  Te2-  Te153  1  0.08264270  0.91374857  0.21992636  1
  Te2-  Te154  1  0.58475988  0.41515675  0.21192229  1
  Te2-  Te155  1  0.58964749  0.91279531  0.21744507  1
  Te2-  Te156  1  0.15853975  0.07771829  0.54787108  1
  Te2-  Te157  1  0.15887919  0.58402546  0.54962988  1
  Te2-  Te158  1  0.66264027  0.08106345  0.55319632  1
  Te2-  Te159  1  0.66239676  0.58202245  0.54720779  1
  Te2-  Te160  1  0.41952223  0.33487552  0.54381570  1
  Te2-  Te161  1  0.42271368  0.84152470  0.55310585  1
  Te2-  Te162  1  0.92240233  0.34466747  0.55034130  1
  Te2-  Te163  1  0.92227651  0.84460764  0.55084925  1
  Te2-  Te164  1  0.42261695  0.07610572  0.54801555  1
  Te2-  Te165  1  0.41572217  0.58028648  0.54789428  1
  Te2-  Te166  1  0.92317957  0.08306567  0.55135189  1
  Te2-  Te167  1  0.92297491  0.58358132  0.54934118  1
  Te2-  Te168  1  0.00134834  0.00118227  0.88248351  1
  Te2-  Te169  1  -0.00003542  0.49995075  0.88224180  1
  Te2-  Te170  1  0.49915556  -0.00003576  0.88392493  1
  Te2-  Te171  1  0.49887427  0.49813298  0.88092029  1
  Te2-  Te172  1  0.33424462  0.16698445  0.21527145  1
  Te2-  Te173  1  0.33208350  0.66391049  0.21525677  1
  Te2-  Te174  1  0.83386742  0.16684581  0.21805256  1
  Te2-  Te175  1  0.83037114  0.66501455  0.21486916  1
  Te2-  Te176  1  0.16887869  0.33324734  0.54720904  1
  Te2-  Te177  1  0.16643995  0.83321051  0.54602331  1
  Te2-  Te178  1  0.66578257  0.33443528  0.54793406  1
  Te2-  Te179  1  0.66560498  0.83363547  0.54967876  1
  Te2-  Te180  1  0.32855524  0.41300301  0.70961755  1
  Te2-  Te181  1  0.32757129  0.91546485  0.71187760  1
  Te2-  Te182  1  0.82788011  0.41546060  0.71166239  1
  Te2-  Te183  1  0.82848108  0.91569640  0.71285973  1
  Te2-  Te184  1  0.08818679  0.17304408  0.71172031  1
  Te2-  Te185  1  0.08498933  0.67285540  0.71179288  1
  Te2-  Te186  1  0.58514938  0.17315998  0.71155221  1
  Te2-  Te187  1  0.58498248  0.67139148  0.71141406  1
  Te2-  Te188  1  0.08675131  0.41559257  0.71225027  1
  Te2-  Te189  1  0.08599165  0.91454747  0.71189054  1
  Te2-  Te190  1  0.58533130  0.41443926  0.70991333  1
  Te2-  Te191  1  0.58857656  0.91368617  0.71167948  1
  Te2-  Te192  1  0.16112157  0.07871896  0.04686893  1
  Te2-  Te193  1  0.16149071  0.57821342  0.04508862  1
  Te2-  Te194  1  0.65847176  0.08168014  0.04473118  1
  Te2-  Te195  1  0.66169706  0.58133792  0.04172926  1
  Te2-  Te196  1  0.41839020  0.33526515  0.04250643  1
  Te2-  Te197  1  0.41655815  0.83893430  0.04451577  1
  Te2-  Te198  1  0.92268521  0.34057282  0.04598404  1
  Te2-  Te199  1  0.91972944  0.83935951  0.04640297  1
  Te2-  Te200  1  0.41814385  0.07871390  0.04514499  1
  Te2-  Te201  1  0.41872587  0.57906281  0.04161929  1
  Te2-  Te202  1  0.92168796  0.08287960  0.04753456  1
  Te2-  Te203  1  0.91877503  0.58093661  0.04498930  1
  Te2-  Te204  1  0.49464521  0.25026886  0.37274756  1
  Te2-  Te205  1  0.49388391  0.74700664  0.37810122  1
  Te2-  Te206  1  0.99089386  0.24567654  0.37475179  1
  Te2-  Te207  1  0.99255453  0.74445211  0.37432568  1
  Te2-  Te208  1  0.25472767  0.00804278  0.37137240  1
  Te2-  Te209  1  0.25303475  0.50643626  0.37501174  1
  Te2-  Te210  1  0.75151215  0.00717455  0.37811563  1
  Te2-  Te211  1  0.74897603  0.50596791  0.37543979  1
  Te2-  Te212  1  0.25467535  0.25054913  0.37221394  1
  Te2-  Te213  1  0.25198675  0.74383584  0.37518026  1
  Te2-  Te214  1  0.75336643  0.24536158  0.37624886  1
  Te2-  Te215  1  0.74890576  0.74422017  0.37662606  1
