# generated using pymatgen
data_Ti(CuTe)4
_symmetry_space_group_name_H-M   'P 1'
_cell_length_a   16.88681014
_cell_length_b   16.88975591
_cell_length_c   20.70751434
_cell_angle_alpha   89.98510871
_cell_angle_beta   90.03167087
_cell_angle_gamma   120.01149007
_symmetry_Int_Tables_number   1
_chemical_formula_structural   Ti(CuTe)4
_chemical_formula_sum   'Ti24 Cu96 Te96'
_cell_volume   5114.21798157
_cell_formula_units_Z   24
loop_
 _symmetry_equiv_pos_site_id
 _symmetry_equiv_pos_as_xyz
  1  'x, y, z'
loop_
 _atom_type_symbol
 _atom_type_oxidation_number
  Ti4+  4.0
  Cu+  1.0
  Te2-  -2.0
loop_
 _atom_site_type_symbol
 _atom_site_label
 _atom_site_symmetry_multiplicity
 _atom_site_fract_x
 _atom_site_fract_y
 _atom_site_fract_z
 _atom_site_occupancy
  Ti4+  Ti0  1  -0.00078558  -0.00243531  0.25890609  1
  Ti4+  Ti1  1  -0.00174267  0.49771384  0.25828335  1
  Ti4+  Ti2  1  0.49877527  0.00207524  0.25768456  1
  Ti4+  Ti3  1  0.49982273  0.50156962  0.25497551  1
  Ti4+  Ti4  1  0.33514148  0.16742084  0.59315805  1
  Ti4+  Ti5  1  0.33814274  0.67141457  0.58773353  1
  Ti4+  Ti6  1  0.83688300  0.17055104  0.59375794  1
  Ti4+  Ti7  1  0.83807136  0.66924359  0.59135164  1
  Ti4+  Ti8  1  0.16290676  0.33098301  0.92089237  1
  Ti4+  Ti9  1  0.16429323  0.83087005  0.92492693  1
  Ti4+  Ti10  1  0.66164265  0.32979509  0.92634627  1
  Ti4+  Ti11  1  0.66702694  0.83117501  0.92334758  1
  Ti4+  Ti12  1  0.00124339  -0.00039768  0.75409967  1
  Ti4+  Ti13  1  0.00165194  0.50067360  0.75531416  1
  Ti4+  Ti14  1  0.50180020  0.00230077  0.75651793  1
  Ti4+  Ti15  1  0.50107044  0.50037828  0.75398400  1
  Ti4+  Ti16  1  0.33069257  0.16293879  0.08904391  1
  Ti4+  Ti17  1  0.33231234  0.66519573  0.08685697  1
  Ti4+  Ti18  1  0.83305375  0.16698326  0.08969683  1
  Ti4+  Ti19  1  0.83069341  0.66558542  0.08894576  1
  Ti4+  Ti20  1  0.16703771  0.33312214  0.42189906  1
  Ti4+  Ti21  1  0.16742556  0.83452250  0.42146708  1
  Ti4+  Ti22  1  0.66900054  0.33451842  0.42498662  1
  Ti4+  Ti23  1  0.66623715  0.83331247  0.42207282  1
  Cu+  Cu24  1  0.50983802  0.25692274  0.14874387  1
  Cu+  Cu25  1  0.35631541  0.93070829  0.47459289  1
  Cu+  Cu26  1  0.73869617  0.76273658  0.14139417  1
  Cu+  Cu27  1  0.40299593  0.08770255  0.81213208  1
  Cu+  Cu28  1  0.86113104  0.43108502  0.47627574  1
  Cu+  Cu29  1  0.74252879  0.26231384  0.14295280  1
  Cu+  Cu30  1  0.90191836  0.31539595  0.80997186  1
  Cu+  Cu31  1  0.07606912  0.92947194  0.47618120  1
  Cu+  Cu32  1  0.23573667  0.97382939  0.14124388  1
  Cu+  Cu33  1  0.90667785  0.81059820  0.80839032  1
  Cu+  Cu34  1  0.90537627  0.08438066  0.80991208  1
  Cu+  Cu35  1  0.40339989  0.31545660  0.80916254  1
  Cu+  Cu36  1  0.16276167  0.07433961  0.17213899  1
  Cu+  Cu37  1  0.16334030  0.57924383  0.17126209  1
  Cu+  Cu38  1  0.66508498  0.08806956  0.17086376  1
  Cu+  Cu39  1  0.66193275  0.58552828  0.16840713  1
  Cu+  Cu40  1  0.41926806  0.33861524  0.16987181  1
  Cu+  Cu41  1  0.41633094  0.83476332  0.17029072  1
  Cu+  Cu42  1  0.91414616  0.33663757  0.17160939  1
  Cu+  Cu43  1  0.91441877  0.83538114  0.17168420  1
  Cu+  Cu44  1  0.41521916  0.07875065  0.16984703  1
  Cu+  Cu45  1  0.41738898  0.58140149  0.16754158  1
  Cu+  Cu46  1  0.91979654  0.08254187  0.17229679  1
  Cu+  Cu47  1  0.91478826  0.57842126  0.17184447  1
  Cu+  Cu48  1  0.49864273  0.24918802  0.50754549  1
  Cu+  Cu49  1  0.49834007  0.75114695  0.50181518  1
  Cu+  Cu50  1  0.99885844  0.25004399  0.50618493  1
  Cu+  Cu51  1  0.99749562  0.75397522  0.50345569  1
  Cu+  Cu52  1  0.25450097  0.00438555  0.50422623  1
  Cu+  Cu53  1  0.25323090  0.50482770  0.50276295  1
  Cu+  Cu54  1  0.75185698  0.00290529  0.50721318  1
  Cu+  Cu55  1  0.75907903  0.50312474  0.50589891  1
  Cu+  Cu56  1  0.25474291  0.25227419  0.50530226  1
  Cu+  Cu57  1  0.26008859  0.75568851  0.50124465  1
  Cu+  Cu58  1  0.75938866  0.25669085  0.50707384  1
  Cu+  Cu59  1  0.75382791  0.75154685  0.50515792  1
  Cu+  Cu60  1  0.32854986  0.41251113  0.83524182  1
  Cu+  Cu61  1  0.32999851  0.91707581  0.83960095  1
  Cu+  Cu62  1  0.82939812  0.41249075  0.83966697  1
  Cu+  Cu63  1  0.82894270  0.90985626  0.83619114  1
  Cu+  Cu64  1  0.08076262  0.17102990  0.83320282  1
  Cu+  Cu65  1  0.08515363  0.66885594  0.83777795  1
  Cu+  Cu66  1  0.57970200  0.16968857  0.83841107  1
  Cu+  Cu67  1  0.58737822  0.66955616  0.83598721  1
  Cu+  Cu68  1  0.07884140  0.41011452  0.83397562  1
  Cu+  Cu69  1  0.08194871  0.90922732  0.83691868  1
  Cu+  Cu70  1  0.57762694  0.40959426  0.83735115  1
  Cu+  Cu71  1  0.58521694  0.91482080  0.83716367  1
  Cu+  Cu72  1  0.17020575  0.08310314  0.67505066  1
  Cu+  Cu73  1  0.17524934  0.59014054  0.67111770  1
  Cu+  Cu74  1  0.67136705  0.08781806  0.67622736  1
  Cu+  Cu75  1  0.67247471  0.58657496  0.67404769  1
  Cu+  Cu76  1  0.41734581  0.33114401  0.68028695  1
  Cu+  Cu77  1  0.41933590  0.83448179  0.67293162  1
  Cu+  Cu78  1  0.91807680  0.33322986  0.68081742  1
  Cu+  Cu79  1  0.91839217  0.83163931  0.67957769  1
  Cu+  Cu80  1  0.41772561  0.08569227  0.68142950  1
  Cu+  Cu81  1  0.41945079  0.58859364  0.67087430  1
  Cu+  Cu82  1  0.91803063  0.08684562  0.68009025  1
  Cu+  Cu83  1  0.92036962  0.58715009  0.67570701  1
  Cu+  Cu84  1  -0.00045628  0.24985720  0.00817825  1
  Cu+  Cu85  1  -0.00109478  0.74814471  0.00976512  1
  Cu+  Cu86  1  0.49784806  0.24647787  0.01662195  1
  Cu+  Cu87  1  0.50172488  0.74920276  0.00650789  1
  Cu+  Cu88  1  0.24631607  0.49583266  0.00379274  1
  Cu+  Cu89  1  0.24438678  0.99285157  0.01307454  1
  Cu+  Cu90  1  0.74620724  0.49532485  0.00826396  1
  Cu+  Cu91  1  0.75142618  0.99704077  0.00895301  1
  Cu+  Cu92  1  0.24436321  0.24841240  0.00619535  1
  Cu+  Cu93  1  0.24845378  0.74990083  0.00772085  1
  Cu+  Cu94  1  0.74695317  0.25000010  0.01389087  1
  Cu+  Cu95  1  0.74948812  0.75148189  0.01199325  1
  Cu+  Cu96  1  0.33599099  0.41738775  0.33878568  1
  Cu+  Cu97  1  0.33535809  0.91951425  0.34522898  1
  Cu+  Cu98  1  0.83670046  0.41692499  0.34781988  1
  Cu+  Cu99  1  0.83387740  0.91634436  0.34340766  1
  Cu+  Cu100  1  0.08338446  0.16281279  0.34293778  1
  Cu+  Cu101  1  0.08054205  0.66216249  0.34084673  1
  Cu+  Cu102  1  0.58217497  0.16780686  0.34439324  1
  Cu+  Cu103  1  0.58235116  0.66571401  0.34007192  1
  Cu+  Cu104  1  0.07997039  0.41336301  0.34063237  1
  Cu+  Cu105  1  0.08048296  0.91640701  0.34655843  1
  Cu+  Cu106  1  0.58167595  0.41886281  0.34090097  1
  Cu+  Cu107  1  0.58213888  0.91933360  0.34150128  1
  Cu+  Cu108  1  -0.00000403  0.00195724  0.11572395  1
  Cu+  Cu109  1  0.00159979  0.50260510  0.11529728  1
  Cu+  Cu110  1  0.50221917  -0.00480665  0.11465162  1
  Cu+  Cu111  1  0.49638406  0.49858749  0.10986461  1
  Cu+  Cu112  1  0.33637328  0.17162164  0.44954546  1
  Cu+  Cu113  1  0.33267609  0.66426981  0.44360028  1
  Cu+  Cu114  1  0.83209845  0.16400401  0.45170328  1
  Cu+  Cu115  1  0.82785134  0.66441991  0.44877619  1
  Cu+  Cu116  1  0.16988510  0.33872761  0.77613250  1
  Cu+  Cu117  1  0.17007184  0.83097216  0.78121295  1
  Cu+  Cu118  1  0.66932911  0.33854376  0.78285573  1
  Cu+  Cu119  1  0.66191188  0.83110557  0.77883171  1
  Te2-  Te120  1  -0.00217063  -0.00034873  0.38939886  1
  Te2-  Te121  1  0.00392861  0.49980832  0.38898174  1
  Te2-  Te122  1  0.50210507  0.00306782  0.38787225  1
  Te2-  Te123  1  0.49970018  0.50142621  0.38391072  1
  Te2-  Te124  1  0.33146832  0.16515484  0.72548131  1
  Te2-  Te125  1  0.33822666  0.67038650  0.71702258  1
  Te2-  Te126  1  0.83293755  0.16722014  0.72601819  1
  Te2-  Te127  1  0.83477560  0.66503067  0.72201382  1
  Te2-  Te128  1  0.16464338  0.33277495  0.04979736  1
  Te2-  Te129  1  0.16260600  0.82664695  0.05555336  1
  Te2-  Te130  1  0.66441213  0.33366307  0.05805481  1
  Te2-  Te131  1  0.66473239  0.83331414  0.05385933  1
  Te2-  Te132  1  0.48492110  0.24200080  0.88753418  1
  Te2-  Te133  1  0.49654486  0.74660355  0.88043262  1
  Te2-  Te134  1  0.98517858  0.24214989  0.88252541  1
  Te2-  Te135  1  0.99034046  0.74094471  0.88389924  1
  Te2-  Te136  1  0.24740009  0.00486913  0.88610974  1
  Te2-  Te137  1  0.24778998  0.50052958  0.87761223  1
  Te2-  Te138  1  0.75224371  0.00448985  0.88304184  1
  Te2-  Te139  1  0.74648168  0.49831880  0.88208628  1
  Te2-  Te140  1  0.24652219  0.24098239  0.88057893  1
  Te2-  Te141  1  0.25261352  0.74888781  0.88195791  1
  Te2-  Te142  1  0.74654675  0.24210846  0.88634284  1
  Te2-  Te143  1  0.75293867  0.74271284  0.88466709  1
  Te2-  Te144  1  0.32827149  0.41411416  0.21295970  1
  Te2-  Te145  1  0.32533602  0.91122153  0.21778199  1
  Te2-  Te146  1  0.82308806  0.41337060  0.22059542  1
  Te2-  Te147  1  0.82552160  0.91534394  0.21752520  1
  Te2-  Te148  1  0.08776743  0.16792886  0.21661007  1
  Te2-  Te149  1  0.08344867  0.66844253  0.21487975  1
  Te2-  Te150  1  0.58648639  0.17817724  0.21814893  1
  Te2-  Te151  1  0.58395326  0.67587599  0.21429258  1
  Te2-  Te152  1  0.08166071  0.41074814  0.21483911  1
  Te2-  Te153  1  0.08189042  0.90623997  0.21922876  1
  Te2-  Te154  1  0.59044398  0.41796556  0.21515393  1
  Te2-  Te155  1  0.58524678  0.91943226  0.21490689  1
  Te2-  Te156  1  0.16284568  0.08333465  0.54924110  1
  Te2-  Te157  1  0.16681107  0.58751751  0.54529652  1
  Te2-  Te158  1  0.66691772  0.08733367  0.55025041  1
  Te2-  Te159  1  0.66841270  0.58239417  0.54790520  1
  Te2-  Te160  1  0.42096686  0.33832444  0.55314091  1
  Te2-  Te161  1  0.42820006  0.84732309  0.54786739  1
  Te2-  Te162  1  0.92735532  0.34474871  0.55364753  1
  Te2-  Te163  1  0.92082225  0.84374854  0.55243200  1
  Te2-  Te164  1  0.42329546  0.08221078  0.55347150  1
  Te2-  Te165  1  0.42202842  0.58372213  0.54545311  1
  Te2-  Te166  1  0.92020134  0.08301379  0.55275748  1
  Te2-  Te167  1  0.92911689  0.58682085  0.54998008  1
  Te2-  Te168  1  0.00086865  0.00008504  0.88128541  1
  Te2-  Te169  1  0.00021043  0.49939768  0.88239471  1
  Te2-  Te170  1  0.50044125  -0.00101964  0.88342018  1
  Te2-  Te171  1  0.49794308  0.49983466  0.88097074  1
  Te2-  Te172  1  0.33345513  0.16794811  0.21643254  1
  Te2-  Te173  1  0.33320486  0.66555705  0.21328653  1
  Te2-  Te174  1  0.83443256  0.16657289  0.21657142  1
  Te2-  Te175  1  0.83110930  0.66483070  0.21567418  1
  Te2-  Te176  1  0.16975124  0.33657904  0.54840987  1
  Te2-  Te177  1  0.16852079  0.83344745  0.54865844  1
  Te2-  Te178  1  0.66822688  0.33481547  0.55182670  1
  Te2-  Te179  1  0.66682587  0.83352294  0.54879725  1
  Te2-  Te180  1  0.32994266  0.41783439  0.70744890  1
  Te2-  Te181  1  0.32937762  0.91330577  0.71159949  1
  Te2-  Te182  1  0.82855031  0.41645907  0.71150841  1
  Te2-  Te183  1  0.82701327  0.91354723  0.70895262  1
  Te2-  Te184  1  0.09090718  0.17427006  0.70782423  1
  Te2-  Te185  1  0.08975371  0.67286849  0.71143559  1
  Te2-  Te186  1  0.59037251  0.17624721  0.71229607  1
  Te2-  Te187  1  0.58845958  0.67240714  0.70964906  1
  Te2-  Te188  1  0.09158986  0.41966045  0.70753215  1
  Te2-  Te189  1  0.09067958  0.91411178  0.71072180  1
  Te2-  Te190  1  0.59018357  0.41632854  0.71022211  1
  Te2-  Te191  1  0.58844775  0.91742555  0.71086820  1
  Te2-  Te192  1  0.15787417  0.07904609  0.04469379  1
  Te2-  Te193  1  0.16079463  0.57928165  0.04382390  1
  Te2-  Te194  1  0.66055145  0.07721561  0.04391452  1
  Te2-  Te195  1  0.65838459  0.57794182  0.04193620  1
  Te2-  Te196  1  0.41393895  0.33593468  0.04278340  1
  Te2-  Te197  1  0.41892791  0.83692633  0.04331736  1
  Te2-  Te198  1  0.91961642  0.33982216  0.04437851  1
  Te2-  Te199  1  0.92083206  0.83943575  0.04519834  1
  Te2-  Te200  1  0.41700047  0.07418065  0.04348771  1
  Te2-  Te201  1  0.41637062  0.57861841  0.04103031  1
  Te2-  Te202  1  0.91985356  0.08105968  0.04582218  1
  Te2-  Te203  1  0.91572927  0.57765912  0.04545788  1
  Te2-  Te204  1  0.49620638  0.25055787  0.38103608  1
  Te2-  Te205  1  0.49514203  0.74882781  0.37589005  1
  Te2-  Te206  1  0.99436320  0.24464828  0.37978036  1
  Te2-  Te207  1  0.99289856  0.74393903  0.37760246  1
  Te2-  Te208  1  0.25336946  0.00915407  0.37680021  1
  Te2-  Te209  1  0.25128244  0.50300726  0.37567300  1
  Te2-  Te210  1  0.75216199  0.00524973  0.37970940  1
  Te2-  Te211  1  0.75205174  0.50548826  0.37839403  1
  Te2-  Te212  1  0.25409956  0.24848027  0.37850881  1
  Te2-  Te213  1  0.25162330  0.74627526  0.37475173  1
  Te2-  Te214  1  0.75231141  0.24506376  0.38003686  1
  Te2-  Te215  1  0.75159214  0.74671262  0.37845467  1
