# generated using pymatgen
data_Ti(CuTe)4
_symmetry_space_group_name_H-M   'P 1'
_cell_length_a   16.89079924
_cell_length_b   16.88729112
_cell_length_c   20.71008087
_cell_angle_alpha   89.91946739
_cell_angle_beta   90.05957299
_cell_angle_gamma   120.02164467
_symmetry_Int_Tables_number   1
_chemical_formula_structural   Ti(CuTe)4
_chemical_formula_sum   'Ti24 Cu96 Te96'
_cell_volume   5114.78509867
_cell_formula_units_Z   24
loop_
 _symmetry_equiv_pos_site_id
 _symmetry_equiv_pos_as_xyz
  1  'x, y, z'
loop_
 _atom_type_symbol
 _atom_type_oxidation_number
  Ti4+  4.0
  Cu+  1.0
  Te2-  -2.0
loop_
 _atom_site_type_symbol
 _atom_site_label
 _atom_site_symmetry_multiplicity
 _atom_site_fract_x
 _atom_site_fract_y
 _atom_site_fract_z
 _atom_site_occupancy
  Ti4+  Ti0  1  -0.00060448  0.00126189  0.25665227  1
  Ti4+  Ti1  1  0.00149019  0.50170735  0.25740371  1
  Ti4+  Ti2  1  0.50234234  0.00487695  0.25744070  1
  Ti4+  Ti3  1  0.50006301  0.50204783  0.25871772  1
  Ti4+  Ti4  1  0.33079877  0.16714356  0.59348182  1
  Ti4+  Ti5  1  0.33109805  0.66679518  0.58987977  1
  Ti4+  Ti6  1  0.83064734  0.16118183  0.58981419  1
  Ti4+  Ti7  1  0.83012761  0.66049664  0.59101619  1
  Ti4+  Ti8  1  0.16832639  0.33574240  0.92422994  1
  Ti4+  Ti9  1  0.16928280  0.83691037  0.92241807  1
  Ti4+  Ti10  1  0.66835172  0.33381254  0.92709382  1
  Ti4+  Ti11  1  0.66635979  0.82961287  0.92338672  1
  Ti4+  Ti12  1  -0.00030901  -0.00268434  0.75484989  1
  Ti4+  Ti13  1  -0.00106684  0.49716521  0.75535303  1
  Ti4+  Ti14  1  0.49843078  -0.00135124  0.75553436  1
  Ti4+  Ti15  1  0.49963539  0.49996252  0.75636419  1
  Ti4+  Ti16  1  0.33407909  0.16784939  0.08937405  1
  Ti4+  Ti17  1  0.33489378  0.66744852  0.08917761  1
  Ti4+  Ti18  1  0.83432045  0.16649743  0.08796166  1
  Ti4+  Ti19  1  0.83427194  0.66719841  0.08913294  1
  Ti4+  Ti20  1  0.16651789  0.33053858  0.42302925  1
  Ti4+  Ti21  1  0.16659030  0.83127627  0.42166352  1
  Ti4+  Ti22  1  0.66685246  0.33607292  0.42336393  1
  Ti4+  Ti23  1  0.66653594  0.83579219  0.42226902  1
  Cu+  Cu24  1  0.18267841  0.09513477  0.81118098  1
  Cu+  Cu25  1  0.06927310  0.13885023  0.47452928  1
  Cu+  Cu26  1  0.56784410  0.42719202  0.47569568  1
  Cu+  Cu27  1  0.40494810  0.59545127  0.80521994  1
  Cu+  Cu28  1  0.51653311  0.26321144  0.14458335  1
  Cu+  Cu29  1  0.68778604  0.59150349  0.80933660  1
  Cu+  Cu30  1  0.56871913  0.92837013  0.47316496  1
  Cu+  Cu31  1  0.06940887  0.64024698  0.47355286  1
  Cu+  Cu32  1  0.41350074  0.09787789  0.80978238  1
  Cu+  Cu33  1  0.23934891  0.26416396  0.14027094  1
  Cu+  Cu34  1  0.73922985  0.76256026  0.14121763  1
  Cu+  Cu35  1  0.74805472  0.26273039  0.14466196  1
  Cu+  Cu36  1  0.16470790  0.08867634  0.17060862  1
  Cu+  Cu37  1  0.16607767  0.58556312  0.17174721  1
  Cu+  Cu38  1  0.66565623  0.08689393  0.16981424  1
  Cu+  Cu39  1  0.66565762  0.58658273  0.17165996  1
  Cu+  Cu40  1  0.41705064  0.33690388  0.17189822  1
  Cu+  Cu41  1  0.41974524  0.83758194  0.17190097  1
  Cu+  Cu42  1  0.91911128  0.33898792  0.17097166  1
  Cu+  Cu43  1  0.91445394  0.83645433  0.17044734  1
  Cu+  Cu44  1  0.42452747  0.08712920  0.16981624  1
  Cu+  Cu45  1  0.41779207  0.58198064  0.17138500  1
  Cu+  Cu46  1  0.92119660  0.08255675  0.16905713  1
  Cu+  Cu47  1  0.92289342  0.58510864  0.17041260  1
  Cu+  Cu48  1  0.49748202  0.25387486  0.50718664  1
  Cu+  Cu49  1  0.49689648  0.75353595  0.50421704  1
  Cu+  Cu50  1  0.99690403  0.24052792  0.50400734  1
  Cu+  Cu51  1  0.99695133  0.74049994  0.50383958  1
  Cu+  Cu52  1  0.25062377  0.00147155  0.50598740  1
  Cu+  Cu53  1  0.25211459  0.50168523  0.50485388  1
  Cu+  Cu54  1  0.74542076  0.00239459  0.50290309  1
  Cu+  Cu55  1  0.74461958  0.50212686  0.50391181  1
  Cu+  Cu56  1  0.24466848  0.24089999  0.50520687  1
  Cu+  Cu57  1  0.24615390  0.74224748  0.50156106  1
  Cu+  Cu58  1  0.75093435  0.24725283  0.50436242  1
  Cu+  Cu59  1  0.74804668  0.74509427  0.50522920  1
  Cu+  Cu60  1  0.33005665  0.42013282  0.83739358  1
  Cu+  Cu61  1  0.33147277  0.92098311  0.83538735  1
  Cu+  Cu62  1  0.83214322  0.41211743  0.83911906  1
  Cu+  Cu63  1  0.82980394  0.90997274  0.83705286  1
  Cu+  Cu64  1  0.08712758  0.16956735  0.83861424  1
  Cu+  Cu65  1  0.08506041  0.66892214  0.83712925  1
  Cu+  Cu66  1  0.58353921  0.16900158  0.84061525  1
  Cu+  Cu67  1  0.58496305  0.66774666  0.83656317  1
  Cu+  Cu68  1  0.08550444  0.41564770  0.83699669  1
  Cu+  Cu69  1  0.09076077  0.91941063  0.83504740  1
  Cu+  Cu70  1  0.58939941  0.41713887  0.83887456  1
  Cu+  Cu71  1  0.58419319  0.91223666  0.83698658  1
  Cu+  Cu72  1  0.16740852  0.08247383  0.68137940  1
  Cu+  Cu73  1  0.16590631  0.58126542  0.67472762  1
  Cu+  Cu74  1  0.66682870  0.08097646  0.67507131  1
  Cu+  Cu75  1  0.66735758  0.58065181  0.68042990  1
  Cu+  Cu76  1  0.41420278  0.33262182  0.67626255  1
  Cu+  Cu77  1  0.41477889  0.83118056  0.67368871  1
  Cu+  Cu78  1  0.91394250  0.32503161  0.67386386  1
  Cu+  Cu79  1  0.91331741  0.82521266  0.67369475  1
  Cu+  Cu80  1  0.41459813  0.08598691  0.68028761  1
  Cu+  Cu81  1  0.41426275  0.58637296  0.67720800  1
  Cu+  Cu82  1  0.91237052  0.07911267  0.67354266  1
  Cu+  Cu83  1  0.91190346  0.57703173  0.67455125  1
  Cu+  Cu84  1  0.00266732  0.24958398  0.00713411  1
  Cu+  Cu85  1  0.00516763  0.75280985  0.00554668  1
  Cu+  Cu86  1  0.50401768  0.25092810  0.01493040  1
  Cu+  Cu87  1  0.50131680  0.74772240  0.00816040  1
  Cu+  Cu88  1  0.25070548  0.50022604  0.00935581  1
  Cu+  Cu89  1  0.25006429  0.99908104  0.00882266  1
  Cu+  Cu90  1  0.75284559  0.49902517  0.01030118  1
  Cu+  Cu91  1  0.75078324  0.99522129  0.00723809  1
  Cu+  Cu92  1  0.24830353  0.25256677  0.01199607  1
  Cu+  Cu93  1  0.25100687  0.75404311  0.00542099  1
  Cu+  Cu94  1  0.74813896  0.24926711  0.01414255  1
  Cu+  Cu95  1  0.74804906  0.74845321  0.01205375  1
  Cu+  Cu96  1  0.33482026  0.41513922  0.34357532  1
  Cu+  Cu97  1  0.33669710  0.91944684  0.34035052  1
  Cu+  Cu98  1  0.83597023  0.42001290  0.34196217  1
  Cu+  Cu99  1  0.83477742  0.91835657  0.34152026  1
  Cu+  Cu100  1  0.08362747  0.16319300  0.34597537  1
  Cu+  Cu101  1  0.08315105  0.66327536  0.34514734  1
  Cu+  Cu102  1  0.58465936  0.16940799  0.34330141  1
  Cu+  Cu103  1  0.58397992  0.66775206  0.34263187  1
  Cu+  Cu104  1  0.08366684  0.41851466  0.33998037  1
  Cu+  Cu105  1  0.08340593  0.91851815  0.33892292  1
  Cu+  Cu106  1  0.58185903  0.42082287  0.34712797  1
  Cu+  Cu107  1  0.58293062  0.92243833  0.34470224  1
  Cu+  Cu108  1  0.00262813  -0.00157390  0.11291059  1
  Cu+  Cu109  1  0.00483151  0.50216975  0.11369138  1
  Cu+  Cu110  1  0.50054652  -0.00305604  0.11380128  1
  Cu+  Cu111  1  0.50213073  0.50159626  0.11534617  1
  Cu+  Cu112  1  0.33474744  0.16215621  0.45058382  1
  Cu+  Cu113  1  0.33410448  0.66385122  0.44644210  1
  Cu+  Cu114  1  0.83561077  0.17167950  0.44659817  1
  Cu+  Cu115  1  0.83564284  0.67245187  0.44789279  1
  Cu+  Cu116  1  0.16318348  0.33056471  0.78069502  1
  Cu+  Cu117  1  0.16524830  0.82786789  0.77897023  1
  Cu+  Cu118  1  0.66851914  0.33139043  0.78369519  1
  Cu+  Cu119  1  0.66859266  0.83596490  0.77916655  1
  Te2-  Te120  1  -0.00142476  -0.00409577  0.38706867  1
  Te2-  Te121  1  -0.00067934  0.49655936  0.38803965  1
  Te2-  Te122  1  0.49909034  0.00496594  0.38789342  1
  Te2-  Te123  1  0.49838434  0.50401883  0.38920042  1
  Te2-  Te124  1  0.33360182  0.17058731  0.72550471  1
  Te2-  Te125  1  0.32973841  0.66802230  0.72039806  1
  Te2-  Te126  1  0.83112503  0.16131461  0.71879430  1
  Te2-  Te127  1  0.83427142  0.66265156  0.72155130  1
  Te2-  Te128  1  0.16535538  0.33603040  0.05478081  1
  Te2-  Te129  1  0.16835273  0.83457270  0.05132394  1
  Te2-  Te130  1  0.66982069  0.33653801  0.05899491  1
  Te2-  Te131  1  0.66502605  0.83226234  0.05393255  1
  Te2-  Te132  1  0.49526138  0.25087083  0.88719612  1
  Te2-  Te133  1  0.49285926  0.74537006  0.88242690  1
  Te2-  Te134  1  0.99767817  0.24767726  0.88142352  1
  Te2-  Te135  1  0.99874562  0.75175897  0.87983945  1
  Te2-  Te136  1  0.25864585  0.01579180  0.88340833  1
  Te2-  Te137  1  0.25210595  0.50973040  0.88342409  1
  Te2-  Te138  1  0.75243725  0.00059842  0.88119494  1
  Te2-  Te139  1  0.75867987  0.50664186  0.88408240  1
  Te2-  Te140  1  0.25822522  0.25251177  0.88464921  1
  Te2-  Te141  1  0.25481326  0.75246439  0.87937843  1
  Te2-  Te142  1  0.75045220  0.24556175  0.88649132  1
  Te2-  Te143  1  0.75458713  0.74403562  0.88470338  1
  Te2-  Te144  1  0.32672338  0.41502759  0.21765732  1
  Te2-  Te145  1  0.33225426  0.91944853  0.21433628  1
  Te2-  Te146  1  0.82750248  0.41856369  0.21634657  1
  Te2-  Te147  1  0.82522304  0.91668645  0.21583062  1
  Te2-  Te148  1  0.08563021  0.17638815  0.21878916  1
  Te2-  Te149  1  0.08800331  0.67399826  0.21839763  1
  Te2-  Te150  1  0.59202899  0.18227715  0.21758191  1
  Te2-  Te151  1  0.58496033  0.67524147  0.21686990  1
  Te2-  Te152  1  0.08656208  0.41616992  0.21416418  1
  Te2-  Te153  1  0.08522548  0.91780041  0.21255607  1
  Te2-  Te154  1  0.58854839  0.41831908  0.21916448  1
  Te2-  Te155  1  0.58795926  0.91995986  0.21718083  1
  Te2-  Te156  1  0.15697083  0.07419512  0.55363646  1
  Te2-  Te157  1  0.15727948  0.57441376  0.54897670  1
  Te2-  Te158  1  0.65559452  0.08024173  0.54964016  1
  Te2-  Te159  1  0.65515053  0.57890332  0.55318699  1
  Te2-  Te160  1  0.41299805  0.33986531  0.55058374  1
  Te2-  Te161  1  0.41361755  0.83995420  0.54808428  1
  Te2-  Te162  1  0.91925334  0.33203333  0.54767514  1
  Te2-  Te163  1  0.91754294  0.83050704  0.54745382  1
  Te2-  Te164  1  0.41846200  0.08489229  0.55220144  1
  Te2-  Te165  1  0.41986085  0.58459359  0.54992060  1
  Te2-  Te166  1  0.91356456  0.07032611  0.54802817  1
  Te2-  Te167  1  0.91281101  0.57058839  0.54867087  1
  Te2-  Te168  1  -0.00005936  -0.00184189  0.88169137  1
  Te2-  Te169  1  0.00176975  0.50026855  0.88138936  1
  Te2-  Te170  1  0.50057593  -0.00221398  0.88236134  1
  Te2-  Te171  1  0.50008341  0.49806911  0.88353786  1
  Te2-  Te172  1  0.33388638  0.16593738  0.21675518  1
  Te2-  Te173  1  0.33495629  0.66873587  0.21521602  1
  Te2-  Te174  1  0.83582594  0.16763194  0.21484170  1
  Te2-  Te175  1  0.83566368  0.66747323  0.21587685  1
  Te2-  Te176  1  0.16588924  0.33188882  0.54972678  1
  Te2-  Te177  1  0.16641571  0.83118946  0.54851115  1
  Te2-  Te178  1  0.66758249  0.33257923  0.55003760  1
  Te2-  Te179  1  0.66614880  0.83259336  0.54895969  1
  Te2-  Te180  1  0.32591776  0.41400110  0.71100909  1
  Te2-  Te181  1  0.32602736  0.91246747  0.70884227  1
  Te2-  Te182  1  0.82687760  0.40784539  0.71232327  1
  Te2-  Te183  1  0.82770163  0.90932185  0.71055529  1
  Te2-  Te184  1  0.08248349  0.17038565  0.71064479  1
  Te2-  Te185  1  0.08271516  0.66817895  0.70982416  1
  Te2-  Te186  1  0.58728193  0.17186921  0.71240606  1
  Te2-  Te187  1  0.58640868  0.67288874  0.70945902  1
  Te2-  Te188  1  0.08413772  0.41120153  0.71054059  1
  Te2-  Te189  1  0.08377963  0.90887713  0.70876592  1
  Te2-  Te190  1  0.58322691  0.40892639  0.71243601  1
  Te2-  Te191  1  0.58350972  0.91164658  0.71081618  1
  Te2-  Te192  1  0.16138308  0.08031666  0.04349086  1
  Te2-  Te193  1  0.16399658  0.58424321  0.04442872  1
  Te2-  Te194  1  0.66120202  0.07628768  0.04310828  1
  Te2-  Te195  1  0.66072239  0.57676904  0.04468033  1
  Te2-  Te196  1  0.42122560  0.34148927  0.04402304  1
  Te2-  Te197  1  0.42064515  0.83801952  0.04416654  1
  Te2-  Te198  1  0.92192157  0.33953561  0.04327894  1
  Te2-  Te199  1  0.92124711  0.83859566  0.04291583  1
  Te2-  Te200  1  0.41933352  0.07879700  0.04391006  1
  Te2-  Te201  1  0.41964313  0.57940134  0.04549192  1
  Te2-  Te202  1  0.92060654  0.08011367  0.04358598  1
  Te2-  Te203  1  0.92306768  0.58364736  0.04456271  1
  Te2-  Te204  1  0.49371795  0.24809332  0.37930675  1
  Te2-  Te205  1  0.49449470  0.74910673  0.37665971  1
  Te2-  Te206  1  0.99524701  0.24813445  0.37648451  1
  Te2-  Te207  1  0.99485823  0.74814908  0.37606124  1
  Te2-  Te208  1  0.25212404  0.00409639  0.37883913  1
  Te2-  Te209  1  0.25229640  0.50293911  0.37850882  1
  Te2-  Te210  1  0.75519025  0.00864118  0.37671408  1
  Te2-  Te211  1  0.75494524  0.50890731  0.37772194  1
  Te2-  Te212  1  0.25522646  0.24562162  0.37891819  1
  Te2-  Te213  1  0.25612916  0.74886768  0.37538119  1
  Te2-  Te214  1  0.75377830  0.25062805  0.37820868  1
  Te2-  Te215  1  0.75266520  0.74909855  0.37869915  1
