# generated using pymatgen
data_Ti(CuTe)4
_symmetry_space_group_name_H-M   'P 1'
_cell_length_a   16.88808613
_cell_length_b   16.88899865
_cell_length_c   20.70682907
_cell_angle_alpha   90.00144908
_cell_angle_beta   90.00004230
_cell_angle_gamma   120.00120183
_symmetry_Int_Tables_number   1
_chemical_formula_structural   Ti(CuTe)4
_chemical_formula_sum   'Ti24 Cu96 Te96'
_cell_volume   5114.73699346
_cell_formula_units_Z   24
loop_
 _symmetry_equiv_pos_site_id
 _symmetry_equiv_pos_as_xyz
  1  'x, y, z'
loop_
 _atom_type_symbol
 _atom_type_oxidation_number
  Ti4+  4.0
  Cu+  1.0
  Te2-  -2.0
loop_
 _atom_site_type_symbol
 _atom_site_label
 _atom_site_symmetry_multiplicity
 _atom_site_fract_x
 _atom_site_fract_y
 _atom_site_fract_z
 _atom_site_occupancy
  Ti4+  Ti0  1  0.00265592  0.00392543  0.25588327  1
  Ti4+  Ti1  1  0.00163633  0.50044330  0.26104024  1
  Ti4+  Ti2  1  0.49893778  -0.00320744  0.25293373  1
  Ti4+  Ti3  1  0.50114224  0.50094608  0.25575169  1
  Ti4+  Ti4  1  0.33270616  0.16573416  0.59223308  1
  Ti4+  Ti5  1  0.32873924  0.66435105  0.59318680  1
  Ti4+  Ti6  1  0.83142261  0.16552438  0.59267058  1
  Ti4+  Ti7  1  0.83226155  0.66700067  0.59174286  1
  Ti4+  Ti8  1  0.16722104  0.33393388  0.92540715  1
  Ti4+  Ti9  1  0.16688774  0.83266060  0.92557899  1
  Ti4+  Ti10  1  0.66835440  0.33524853  0.92277502  1
  Ti4+  Ti11  1  0.66955845  0.83461745  0.92410777  1
  Ti4+  Ti12  1  -0.00114365  0.00001650  0.75611604  1
  Ti4+  Ti13  1  0.00060765  0.50048835  0.75701470  1
  Ti4+  Ti14  1  0.49874042  -0.00075592  0.75595660  1
  Ti4+  Ti15  1  0.49903024  0.49916551  0.75475715  1
  Ti4+  Ti16  1  0.33275599  0.16641073  0.08540179  1
  Ti4+  Ti17  1  0.33481495  0.66762540  0.08732268  1
  Ti4+  Ti18  1  0.83479348  0.16696353  0.08718376  1
  Ti4+  Ti19  1  0.83462515  0.66757719  0.08806118  1
  Ti4+  Ti20  1  0.16658637  0.33377361  0.42402313  1
  Ti4+  Ti21  1  0.16670590  0.83323429  0.42333118  1
  Ti4+  Ti22  1  0.66596725  0.33227823  0.42031061  1
  Ti4+  Ti23  1  0.66718895  0.83377565  0.42349705  1
  Cu+  Cu24  1  0.23931125  0.98476792  0.14168495  1
  Cu+  Cu25  1  0.24649708  0.26258369  0.14206428  1
  Cu+  Cu26  1  0.90753585  0.81327686  0.80747786  1
  Cu+  Cu27  1  0.06926502  0.42012427  0.48028469  1
  Cu+  Cu28  1  0.24018438  0.75161003  0.14698073  1
  Cu+  Cu29  1  0.19073219  0.59490897  0.81146162  1
  Cu+  Cu30  1  0.51639060  0.75444850  0.14190386  1
  Cu+  Cu31  1  0.74628987  0.98399193  0.14041289  1
  Cu+  Cu32  1  0.90693490  0.09545233  0.80861517  1
  Cu+  Cu33  1  0.01892668  0.26451207  0.14156688  1
  Cu+  Cu34  1  0.18687145  0.09318494  0.80868025  1
  Cu+  Cu35  1  0.07068082  0.65047507  0.48061016  1
  Cu+  Cu36  1  0.16343839  0.08447967  0.16702874  1
  Cu+  Cu37  1  0.16029925  0.58017795  0.17260790  1
  Cu+  Cu38  1  0.66315260  0.07653035  0.16589466  1
  Cu+  Cu39  1  0.66543515  0.58282161  0.16915010  1
  Cu+  Cu40  1  0.41747789  0.33838630  0.16850703  1
  Cu+  Cu41  1  0.41968133  0.83726600  0.16548503  1
  Cu+  Cu42  1  0.92211210  0.33685926  0.17266328  1
  Cu+  Cu43  1  0.91937503  0.83771063  0.16833601  1
  Cu+  Cu44  1  0.41482098  0.07693284  0.16510661  1
  Cu+  Cu45  1  0.42270551  0.58227745  0.16856840  1
  Cu+  Cu46  1  0.92213329  0.08567802  0.16737052  1
  Cu+  Cu47  1  0.91936180  0.58473808  0.17270690  1
  Cu+  Cu48  1  0.49665685  0.24683612  0.50329128  1
  Cu+  Cu49  1  0.49704392  0.74851519  0.50740676  1
  Cu+  Cu50  1  0.99427076  0.24789818  0.50739346  1
  Cu+  Cu51  1  0.99439183  0.74684453  0.50612528  1
  Cu+  Cu52  1  0.25058371  0.00435295  0.50663671  1
  Cu+  Cu53  1  0.24470767  0.50192256  0.50550741  1
  Cu+  Cu54  1  0.75185544  0.00203893  0.50692682  1
  Cu+  Cu55  1  0.74867549  0.50138471  0.50293708  1
  Cu+  Cu56  1  0.25053214  0.24609297  0.50708783  1
  Cu+  Cu57  1  0.24552530  0.74330110  0.50564154  1
  Cu+  Cu58  1  0.74805908  0.24623849  0.50288608  1
  Cu+  Cu59  1  0.75247209  0.75073511  0.50607773  1
  Cu+  Cu60  1  0.33122702  0.41322857  0.83738442  1
  Cu+  Cu61  1  0.33043392  0.91398953  0.83900476  1
  Cu+  Cu62  1  0.82970581  0.41599116  0.83838321  1
  Cu+  Cu63  1  0.82968017  0.91583926  0.83567477  1
  Cu+  Cu64  1  0.08397395  0.16965564  0.83826642  1
  Cu+  Cu65  1  0.08979135  0.66898979  0.83824396  1
  Cu+  Cu66  1  0.58656644  0.17041776  0.83781858  1
  Cu+  Cu67  1  0.58404259  0.66809587  0.83682347  1
  Cu+  Cu68  1  0.08764798  0.41882398  0.83875193  1
  Cu+  Cu69  1  0.08459173  0.91551391  0.83752848  1
  Cu+  Cu70  1  0.58791993  0.41780275  0.83647462  1
  Cu+  Cu71  1  0.58543797  0.91635070  0.83831582  1
  Cu+  Cu72  1  0.17059409  0.08599315  0.67983375  1
  Cu+  Cu73  1  0.16744660  0.58335654  0.68263438  1
  Cu+  Cu74  1  0.66709000  0.08227006  0.67527714  1
  Cu+  Cu75  1  0.66753711  0.58535198  0.67411000  1
  Cu+  Cu76  1  0.41487554  0.33010970  0.67442806  1
  Cu+  Cu77  1  0.41214406  0.82972686  0.67604077  1
  Cu+  Cu78  1  0.91412639  0.33047528  0.67684813  1
  Cu+  Cu79  1  0.91383858  0.82940607  0.67865397  1
  Cu+  Cu80  1  0.41380331  0.08316951  0.67535409  1
  Cu+  Cu81  1  0.41153677  0.58157142  0.67575434  1
  Cu+  Cu82  1  0.91376584  0.08595755  0.67963428  1
  Cu+  Cu83  1  0.91483443  0.58495821  0.67661289  1
  Cu+  Cu84  1  0.00353225  0.25308444  0.01240543  1
  Cu+  Cu85  1  0.00131170  0.74941189  0.00754197  1
  Cu+  Cu86  1  0.50559602  0.25403845  0.00405821  1
  Cu+  Cu87  1  0.50518740  0.75224431  0.01230081  1
  Cu+  Cu88  1  0.25019867  0.50052540  0.00946156  1
  Cu+  Cu89  1  0.24872473  0.99664904  0.01226317  1
  Cu+  Cu90  1  0.75036742  0.49779773  0.00702628  1
  Cu+  Cu91  1  0.75033057  0.99837587  0.01128772  1
  Cu+  Cu92  1  0.24781249  0.25060952  0.01280925  1
  Cu+  Cu93  1  0.24820023  0.74989019  0.01608396  1
  Cu+  Cu94  1  0.74968739  0.25464014  0.00607697  1
  Cu+  Cu95  1  0.75178655  0.75106597  0.00649208  1
  Cu+  Cu96  1  0.33786636  0.41812483  0.34208318  1
  Cu+  Cu97  1  0.33437662  0.91723683  0.34099936  1
  Cu+  Cu98  1  0.83478733  0.41635401  0.34218514  1
  Cu+  Cu99  1  0.83705361  0.92034840  0.34153468  1
  Cu+  Cu100  1  0.08489915  0.16768698  0.34227242  1
  Cu+  Cu101  1  0.08284407  0.66514885  0.35029985  1
  Cu+  Cu102  1  0.58162421  0.16295150  0.33607950  1
  Cu+  Cu103  1  0.58402425  0.66546579  0.34179338  1
  Cu+  Cu104  1  0.08297810  0.41840730  0.35000640  1
  Cu+  Cu105  1  0.08491049  0.92042763  0.34180327  1
  Cu+  Cu106  1  0.58174342  0.41636671  0.33829378  1
  Cu+  Cu107  1  0.58337998  0.91582790  0.34088260  1
  Cu+  Cu108  1  -0.00148521  -0.00211942  0.11084554  1
  Cu+  Cu109  1  -0.00579839  0.49844517  0.11765153  1
  Cu+  Cu110  1  0.50302061  0.00466545  0.10696758  1
  Cu+  Cu111  1  0.50469646  0.49940028  0.11107684  1
  Cu+  Cu112  1  0.33498334  0.16752524  0.44901866  1
  Cu+  Cu113  1  0.33743406  0.66845703  0.45054803  1
  Cu+  Cu114  1  0.82873456  0.16362727  0.44930031  1
  Cu+  Cu115  1  0.82884550  0.66513385  0.44852486  1
  Cu+  Cu116  1  0.16744012  0.33440702  0.78175192  1
  Cu+  Cu117  1  0.16650147  0.83306325  0.78170072  1
  Cu+  Cu118  1  0.66467318  0.33217221  0.77971676  1
  Cu+  Cu119  1  0.66079465  0.82991050  0.78043290  1
  Te2-  Te120  1  0.00194999  0.00256294  0.38436130  1
  Te2-  Te121  1  -0.00324843  0.49850490  0.39272787  1
  Te2-  Te122  1  0.50041465  -0.00098098  0.38096016  1
  Te2-  Te123  1  0.50261150  0.50045000  0.38443903  1
  Te2-  Te124  1  0.33605168  0.16798676  0.72369879  1
  Te2-  Te125  1  0.33425928  0.66694416  0.72377019  1
  Te2-  Te126  1  0.82980899  0.16732562  0.72368364  1
  Te2-  Te127  1  0.83020713  0.66383203  0.72254398  1
  Te2-  Te128  1  0.16912273  0.33767769  0.05740410  1
  Te2-  Te129  1  0.16325338  0.83125749  0.05734338  1
  Te2-  Te130  1  0.66713636  0.33456044  0.05266993  1
  Te2-  Te131  1  0.67106782  0.83272128  0.05603887  1
  Te2-  Te132  1  0.49665409  0.24947363  0.87902723  1
  Te2-  Te133  1  0.49868956  0.74910772  0.88457525  1
  Te2-  Te134  1  0.99477369  0.25073440  0.88501773  1
  Te2-  Te135  1  0.99550241  0.74419639  0.88164367  1
  Te2-  Te136  1  0.25416280  0.00532846  0.88455446  1
  Te2-  Te137  1  0.25749982  0.50676465  0.88375027  1
  Te2-  Te138  1  0.75310391  0.00799020  0.88389944  1
  Te2-  Te139  1  0.75485687  0.50808898  0.88180665  1
  Te2-  Te140  1  0.25337001  0.24712811  0.88517624  1
  Te2-  Te141  1  0.25673275  0.74836270  0.88767549  1
  Te2-  Te142  1  0.75461843  0.24860955  0.88115868  1
  Te2-  Te143  1  0.75268293  0.74548391  0.88076725  1
  Te2-  Te144  1  0.32644202  0.41699094  0.21616060  1
  Te2-  Te145  1  0.32193856  0.90933623  0.21480808  1
  Te2-  Te146  1  0.83262740  0.41542890  0.21591100  1
  Te2-  Te147  1  0.83019351  0.91533691  0.21493976  1
  Te2-  Te148  1  0.09057785  0.18002940  0.21600393  1
  Te2-  Te149  1  0.08534986  0.67389878  0.22167609  1
  Te2-  Te150  1  0.58342742  0.16604363  0.20947145  1
  Te2-  Te151  1  0.59147730  0.67531848  0.21578735  1
  Te2-  Te152  1  0.09075948  0.41575983  0.22184832  1
  Te2-  Te153  1  0.08606615  0.91449836  0.21542952  1
  Te2-  Te154  1  0.58470886  0.41406738  0.21220346  1
  Te2-  Te155  1  0.58824454  0.90905831  0.21465465  1
  Te2-  Te156  1  0.15964973  0.07974677  0.55310216  1
  Te2-  Te157  1  0.15142170  0.57572122  0.55494936  1
  Te2-  Te158  1  0.66096313  0.07964375  0.54936221  1
  Te2-  Te159  1  0.66194411  0.58196526  0.54822625  1
  Te2-  Te160  1  0.41893500  0.33670878  0.54877151  1
  Te2-  Te161  1  0.41340771  0.83426877  0.54992541  1
  Te2-  Te162  1  0.91420336  0.33900789  0.55108796  1
  Te2-  Te163  1  0.91968581  0.83875783  0.55170455  1
  Te2-  Te164  1  0.41825190  0.07985436  0.54964956  1
  Te2-  Te165  1  0.41289207  0.57883311  0.54961429  1
  Te2-  Te166  1  0.91901740  0.08130821  0.55261538  1
  Te2-  Te167  1  0.91500390  0.57605219  0.55082226  1
  Te2-  Te168  1  -0.00096961  -0.00041415  0.88444445  1
  Te2-  Te169  1  -0.00068746  0.49988305  0.88378329  1
  Te2-  Te170  1  0.50088430  0.00108545  0.88209970  1
  Te2-  Te171  1  0.50087284  0.49948156  0.88103720  1
  Te2-  Te172  1  0.33481636  0.16672979  0.21288858  1
  Te2-  Te173  1  0.33440939  0.66631118  0.21479176  1
  Te2-  Te174  1  0.83176238  0.16524346  0.21479471  1
  Te2-  Te175  1  0.83404847  0.66903204  0.21430184  1
  Te2-  Te176  1  0.16547417  0.33160630  0.55076445  1
  Te2-  Te177  1  0.16529683  0.83385806  0.55015827  1
  Te2-  Te178  1  0.66503757  0.33209458  0.54672882  1
  Te2-  Te179  1  0.66603634  0.83298451  0.54992589  1
  Te2-  Te180  1  0.32645115  0.41157436  0.71127933  1
  Te2-  Te181  1  0.32625018  0.91345067  0.71270136  1
  Te2-  Te182  1  0.82832213  0.41484362  0.71252703  1
  Te2-  Te183  1  0.82492408  0.91308006  0.70923640  1
  Te2-  Te184  1  0.08604725  0.17400259  0.71095666  1
  Te2-  Te185  1  0.08460071  0.67351839  0.71157992  1
  Te2-  Te186  1  0.58465688  0.17033982  0.71100417  1
  Te2-  Te187  1  0.58295590  0.67082133  0.71020630  1
  Te2-  Te188  1  0.08380343  0.41049374  0.71199571  1
  Te2-  Te189  1  0.08601552  0.91327010  0.71034626  1
  Te2-  Te190  1  0.58582060  0.41473174  0.70980939  1
  Te2-  Te191  1  0.58328266  0.91222745  0.71152083  1
  Te2-  Te192  1  0.15741398  0.07807552  0.03998469  1
  Te2-  Te193  1  0.15843657  0.57757034  0.04603137  1
  Te2-  Te194  1  0.66287694  0.08386368  0.03960576  1
  Te2-  Te195  1  0.66363527  0.58137976  0.04264222  1
  Te2-  Te196  1  0.42144274  0.33970152  0.04112348  1
  Te2-  Te197  1  0.42210951  0.84202714  0.03947802  1
  Te2-  Te198  1  0.91919286  0.34088755  0.04480298  1
  Te2-  Te199  1  0.92108936  0.83923152  0.04193260  1
  Te2-  Te200  1  0.42231390  0.08352963  0.03872832  1
  Te2-  Te201  1  0.42087015  0.57942339  0.04231682  1
  Te2-  Te202  1  0.92260203  0.08045930  0.04021519  1
  Te2-  Te203  1  0.91971874  0.58043240  0.04560213  1
  Te2-  Te204  1  0.49496472  0.24603455  0.37572922  1
  Te2-  Te205  1  0.49581300  0.74687836  0.37965607  1
  Te2-  Te206  1  0.99309238  0.24535735  0.37980945  1
  Te2-  Te207  1  0.99369004  0.74987380  0.37868285  1
  Te2-  Te208  1  0.25372628  0.00568026  0.37975991  1
  Te2-  Te209  1  0.25613914  0.50681760  0.37900246  1
  Te2-  Te210  1  0.75267229  0.00519271  0.37929683  1
  Te2-  Te211  1  0.75188204  0.50460050  0.37639137  1
  Te2-  Te212  1  0.25388999  0.24879947  0.38029578  1
  Te2-  Te213  1  0.25557499  0.74822938  0.37894177  1
  Te2-  Te214  1  0.75108249  0.24524413  0.37606735  1
  Te2-  Te215  1  0.75426196  0.74988132  0.37881318  1
