# generated using pymatgen
data_Ti(CuTe)4
_symmetry_space_group_name_H-M   'P 1'
_cell_length_a   16.86155604
_cell_length_b   16.86417791
_cell_length_c   20.67288267
_cell_angle_alpha   89.98825120
_cell_angle_beta   90.02936893
_cell_angle_gamma   120.00703196
_symmetry_Int_Tables_number   1
_chemical_formula_structural   Ti(CuTe)4
_chemical_formula_sum   'Ti24 Cu96 Te96'
_cell_volume   5090.53773460
_cell_formula_units_Z   24
loop_
 _symmetry_equiv_pos_site_id
 _symmetry_equiv_pos_as_xyz
  1  'x, y, z'
loop_
 _atom_type_symbol
 _atom_type_oxidation_number
  Ti4+  4.0
  Cu+  1.0
  Te2-  -2.0
loop_
 _atom_site_type_symbol
 _atom_site_label
 _atom_site_symmetry_multiplicity
 _atom_site_fract_x
 _atom_site_fract_y
 _atom_site_fract_z
 _atom_site_occupancy
  Ti4+  Ti0  1  -0.00415794  -0.00159408  0.25937362  1
  Ti4+  Ti1  1  0.00336503  0.50213298  0.25856420  1
  Ti4+  Ti2  1  0.49904780  0.00271188  0.25702570  1
  Ti4+  Ti3  1  0.49915298  0.49914341  0.25592563  1
  Ti4+  Ti4  1  0.33611027  0.17095122  0.59145759  1
  Ti4+  Ti5  1  0.33620754  0.66786681  0.58722312  1
  Ti4+  Ti6  1  0.83014316  0.16527559  0.59370536  1
  Ti4+  Ti7  1  0.83614816  0.66479232  0.59398310  1
  Ti4+  Ti8  1  0.16353353  0.33022393  0.92326048  1
  Ti4+  Ti9  1  0.16468288  0.83332019  0.92346519  1
  Ti4+  Ti10  1  0.66702878  0.33281340  0.92611743  1
  Ti4+  Ti11  1  0.66702038  0.83266540  0.92476273  1
  Ti4+  Ti12  1  0.00245965  0.00083317  0.75158565  1
  Ti4+  Ti13  1  0.00059631  0.49949335  0.75518655  1
  Ti4+  Ti14  1  0.49987201  -0.00033523  0.75660647  1
  Ti4+  Ti15  1  0.50103886  0.50089834  0.75716057  1
  Ti4+  Ti16  1  0.33654108  0.16743053  0.08873907  1
  Ti4+  Ti17  1  0.32972449  0.66407919  0.08892795  1
  Ti4+  Ti18  1  0.83396657  0.16539149  0.08983599  1
  Ti4+  Ti19  1  0.83331558  0.66906079  0.08971524  1
  Ti4+  Ti20  1  0.16994117  0.33415099  0.42311978  1
  Ti4+  Ti21  1  0.16481759  0.83087471  0.42273485  1
  Ti4+  Ti22  1  0.66802184  0.33440766  0.42342258  1
  Ti4+  Ti23  1  0.66515606  0.83498215  0.42337973  1
  Cu+  Cu24  1  0.06971133  0.64025419  0.47544838  1
  Cu+  Cu25  1  0.23740910  0.76224807  0.14062648  1
  Cu+  Cu26  1  0.57064090  0.93344364  0.47147200  1
  Cu+  Cu27  1  0.73602812  0.76362092  0.14134503  1
  Cu+  Cu28  1  0.90668738  0.82063154  0.80866014  1
  Cu+  Cu29  1  0.36268814  0.43018762  0.47172256  1
  Cu+  Cu30  1  0.90653718  0.08463100  0.80901481  1
  Cu+  Cu31  1  0.90318008  0.31604224  0.81009183  1
  Cu+  Cu32  1  0.18845894  0.09389847  0.80505875  1
  Cu+  Cu33  1  0.23507940  0.47353318  0.13998031  1
  Cu+  Cu34  1  0.90528942  0.58542123  0.81227594  1
  Cu+  Cu35  1  0.52737320  0.26465780  0.14112513  1
  Cu+  Cu36  1  0.16341153  0.08112079  0.17305150  1
  Cu+  Cu37  1  0.16375153  0.58238715  0.17054413  1
  Cu+  Cu38  1  0.66419029  0.08113987  0.17165639  1
  Cu+  Cu39  1  0.66473340  0.58752516  0.16972497  1
  Cu+  Cu40  1  0.42245294  0.33557613  0.16956479  1
  Cu+  Cu41  1  0.41249515  0.83628827  0.17108220  1
  Cu+  Cu42  1  0.91782882  0.33522559  0.17204978  1
  Cu+  Cu43  1  0.91159952  0.83705463  0.17190723  1
  Cu+  Cu44  1  0.42496466  0.08854828  0.16916531  1
  Cu+  Cu45  1  0.41147986  0.57462803  0.16882559  1
  Cu+  Cu46  1  0.91807815  0.08034083  0.17216925  1
  Cu+  Cu47  1  0.92125015  0.58531192  0.17240881  1
  Cu+  Cu48  1  0.49796814  0.24983355  0.50456628  1
  Cu+  Cu49  1  0.49829350  0.75532392  0.50135397  1
  Cu+  Cu50  1  0.99712479  0.24770328  0.50890263  1
  Cu+  Cu51  1  0.99722497  0.74222653  0.50715479  1
  Cu+  Cu52  1  0.25023037  0.00372105  0.50624140  1
  Cu+  Cu53  1  0.26007372  0.50347064  0.50152539  1
  Cu+  Cu54  1  0.74475650  0.00235065  0.50680036  1
  Cu+  Cu55  1  0.75414250  0.50246079  0.50639589  1
  Cu+  Cu56  1  0.25860681  0.25520580  0.50510995  1
  Cu+  Cu57  1  0.24754322  0.74416707  0.50129463  1
  Cu+  Cu58  1  0.75306317  0.25025773  0.50629196  1
  Cu+  Cu59  1  0.75314619  0.74979243  0.50815147  1
  Cu+  Cu60  1  0.33013196  0.41757957  0.83814797  1
  Cu+  Cu61  1  0.33016388  0.91339787  0.83766611  1
  Cu+  Cu62  1  0.82705786  0.41247775  0.83815622  1
  Cu+  Cu63  1  0.82412841  0.91083912  0.83454437  1
  Cu+  Cu64  1  0.08603634  0.17084609  0.83101819  1
  Cu+  Cu65  1  0.08302991  0.67025363  0.83570757  1
  Cu+  Cu66  1  0.58165147  0.16728684  0.83963828  1
  Cu+  Cu67  1  0.58549145  0.66779131  0.83882847  1
  Cu+  Cu68  1  0.08056845  0.41076647  0.83571078  1
  Cu+  Cu69  1  0.08629906  0.91500414  0.83125940  1
  Cu+  Cu70  1  0.58237279  0.41382431  0.84024759  1
  Cu+  Cu71  1  0.58287433  0.91455963  0.83819637  1
  Cu+  Cu72  1  0.17398894  0.08913054  0.67643791  1
  Cu+  Cu73  1  0.17230001  0.58462860  0.67121659  1
  Cu+  Cu74  1  0.66633249  0.08345170  0.67713756  1
  Cu+  Cu75  1  0.67065916  0.58396291  0.67640426  1
  Cu+  Cu76  1  0.41668731  0.33475265  0.67606419  1
  Cu+  Cu77  1  0.41705681  0.83277767  0.67182286  1
  Cu+  Cu78  1  0.91675195  0.32933048  0.68130601  1
  Cu+  Cu79  1  0.91909965  0.82959929  0.67900243  1
  Cu+  Cu80  1  0.41540184  0.08469370  0.67426425  1
  Cu+  Cu81  1  0.41988521  0.58672857  0.67210024  1
  Cu+  Cu82  1  0.91400008  0.08343001  0.67886033  1
  Cu+  Cu83  1  0.91968932  0.58565591  0.68276794  1
  Cu+  Cu84  1  -0.00104615  0.24757245  0.00882922  1
  Cu+  Cu85  1  -0.00018093  0.75126480  0.00859656  1
  Cu+  Cu86  1  0.50559256  0.25214155  0.01362120  1
  Cu+  Cu87  1  0.50000955  0.74866549  0.00725942  1
  Cu+  Cu88  1  0.24461855  0.49358110  0.01142119  1
  Cu+  Cu89  1  0.25018496  0.99936774  0.00722176  1
  Cu+  Cu90  1  0.75204394  0.49945004  0.01023576  1
  Cu+  Cu91  1  0.75111828  0.99778173  0.00887328  1
  Cu+  Cu92  1  0.24923139  0.24882114  0.00650245  1
  Cu+  Cu93  1  0.24602518  0.75105145  0.01162286  1
  Cu+  Cu94  1  0.75047081  0.24949354  0.00979297  1
  Cu+  Cu95  1  0.74922039  0.75311375  0.01340965  1
  Cu+  Cu96  1  0.33664200  0.41541117  0.34378461  1
  Cu+  Cu97  1  0.33289877  0.91996247  0.33998253  1
  Cu+  Cu98  1  0.83633866  0.41865188  0.34201635  1
  Cu+  Cu99  1  0.83330109  0.91721370  0.34383675  1
  Cu+  Cu100  1  0.07995243  0.16195387  0.34271510  1
  Cu+  Cu101  1  0.08236122  0.66371526  0.34690119  1
  Cu+  Cu102  1  0.58522349  0.16903893  0.34235250  1
  Cu+  Cu103  1  0.58369139  0.66661138  0.34071960  1
  Cu+  Cu104  1  0.08399186  0.41660320  0.34274489  1
  Cu+  Cu105  1  0.07715565  0.91603323  0.34155043  1
  Cu+  Cu106  1  0.58578508  0.41800702  0.34162194  1
  Cu+  Cu107  1  0.57995514  0.92070886  0.34393242  1
  Cu+  Cu108  1  0.00514541  0.00211330  0.11546765  1
  Cu+  Cu109  1  -0.00446474  0.49700466  0.11517096  1
  Cu+  Cu110  1  0.50111544  -0.00235030  0.11335278  1
  Cu+  Cu111  1  0.50043285  0.50002964  0.11147249  1
  Cu+  Cu112  1  0.33362556  0.16359011  0.44835764  1
  Cu+  Cu113  1  0.33351298  0.66695371  0.44211760  1
  Cu+  Cu114  1  0.83619628  0.16829182  0.45152022  1
  Cu+  Cu115  1  0.83046154  0.66745324  0.45144697  1
  Cu+  Cu116  1  0.17174502  0.33833034  0.77827647  1
  Cu+  Cu117  1  0.17150573  0.83304929  0.77821818  1
  Cu+  Cu118  1  0.66017003  0.32983361  0.78299215  1
  Cu+  Cu119  1  0.65591811  0.82803000  0.78130073  1
  Te2-  Te120  1  -0.00295607  -0.00138494  0.38894202  1
  Te2-  Te121  1  0.00002247  0.49673982  0.38892476  1
  Te2-  Te122  1  0.49671577  0.00438950  0.38729527  1
  Te2-  Te123  1  0.50456023  0.50196736  0.38577667  1
  Te2-  Te124  1  0.33867371  0.17091250  0.72225925  1
  Te2-  Te125  1  0.33643973  0.66811686  0.71612210  1
  Te2-  Te126  1  0.82951433  0.16350813  0.72606940  1
  Te2-  Te127  1  0.83319132  0.66516609  0.72647544  1
  Te2-  Te128  1  0.16381261  0.32713515  0.05362404  1
  Te2-  Te129  1  0.16424412  0.83561991  0.05393031  1
  Te2-  Te130  1  0.67256474  0.33551020  0.05636970  1
  Te2-  Te131  1  0.66318990  0.83405783  0.05514966  1
  Te2-  Te132  1  0.49530766  0.24718630  0.88615988  1
  Te2-  Te133  1  0.49598423  0.74666250  0.88147846  1
  Te2-  Te134  1  0.98795919  0.24147777  0.88225377  1
  Te2-  Te135  1  0.98932463  0.74634229  0.88204356  1
  Te2-  Te136  1  0.25412585  0.00621491  0.88104607  1
  Te2-  Te137  1  0.24684934  0.50174961  0.88377476  1
  Te2-  Te138  1  0.75110684  0.00558823  0.88279641  1
  Te2-  Te139  1  0.75063801  0.50588995  0.88440559  1
  Te2-  Te140  1  0.25388530  0.24791592  0.88037092  1
  Te2-  Te141  1  0.24905732  0.74622359  0.88397533  1
  Te2-  Te142  1  0.74977166  0.24270314  0.88399351  1
  Te2-  Te143  1  0.75240766  0.74435678  0.88551973  1
  Te2-  Te144  1  0.32562128  0.40645911  0.21602852  1
  Te2-  Te145  1  0.32596889  0.92041609  0.21409804  1
  Te2-  Te146  1  0.83220842  0.41739797  0.21612045  1
  Te2-  Te147  1  0.82113807  0.91481918  0.21814890  1
  Te2-  Te148  1  0.08481242  0.17026563  0.21686907  1
  Te2-  Te149  1  0.08750281  0.67591988  0.21876577  1
  Te2-  Te150  1  0.59275480  0.17682262  0.21650138  1
  Te2-  Te151  1  0.57994275  0.67216659  0.21461505  1
  Te2-  Te152  1  0.08564080  0.41142235  0.21644367  1
  Te2-  Te153  1  0.08027055  0.91203539  0.21545374  1
  Te2-  Te154  1  0.59222631  0.41914085  0.21533721  1
  Te2-  Te155  1  0.58108285  0.91365420  0.21642226  1
  Te2-  Te156  1  0.16483315  0.08665034  0.54927980  1
  Te2-  Te157  1  0.16272234  0.57482833  0.54568668  1
  Te2-  Te158  1  0.65704725  0.08359599  0.55153286  1
  Te2-  Te159  1  0.66536727  0.58119056  0.55074971  1
  Te2-  Te160  1  0.42732760  0.34523506  0.55036553  1
  Te2-  Te161  1  0.41583849  0.84142694  0.54616430  1
  Te2-  Te162  1  0.91904572  0.33707267  0.55381409  1
  Te2-  Te163  1  0.92181113  0.83537772  0.55151278  1
  Te2-  Te164  1  0.41881584  0.08231949  0.54844537  1
  Te2-  Te165  1  0.42883359  0.58698811  0.54624348  1
  Te2-  Te166  1  0.91364708  0.07828732  0.55122424  1
  Te2-  Te167  1  0.91930949  0.57422961  0.55476502  1
  Te2-  Te168  1  -0.00021221  -0.00026720  0.87982371  1
  Te2-  Te169  1  0.00000084  0.50026855  0.88290589  1
  Te2-  Te170  1  0.49817017  -0.00217228  0.88323913  1
  Te2-  Te171  1  0.49833330  0.49936287  0.88374311  1
  Te2-  Te172  1  0.33334692  0.16620210  0.21581450  1
  Te2-  Te173  1  0.33381730  0.66648932  0.21625506  1
  Te2-  Te174  1  0.83376444  0.16617390  0.21599094  1
  Te2-  Te175  1  0.83354242  0.66748089  0.21667179  1
  Te2-  Te176  1  0.16858703  0.33502109  0.55008404  1
  Te2-  Te177  1  0.16852146  0.83362710  0.54969402  1
  Te2-  Te178  1  0.66664118  0.33315268  0.54981058  1
  Te2-  Te179  1  0.66617836  0.83251311  0.55051478  1
  Te2-  Te180  1  0.32979441  0.41770293  0.71080336  1
  Te2-  Te181  1  0.32917905  0.91439725  0.71019408  1
  Te2-  Te182  1  0.82527969  0.41141815  0.71051235  1
  Te2-  Te183  1  0.82608690  0.91022441  0.70746745  1
  Te2-  Te184  1  0.08765186  0.17579058  0.70494613  1
  Te2-  Te185  1  0.09241413  0.67322648  0.70926834  1
  Te2-  Te186  1  0.58499772  0.17239645  0.71270733  1
  Te2-  Te187  1  0.58867919  0.67252828  0.71150577  1
  Te2-  Te188  1  0.08980888  0.41568866  0.70918746  1
  Te2-  Te189  1  0.09230940  0.91567968  0.70508740  1
  Te2-  Te190  1  0.58683192  0.41412249  0.71320688  1
  Te2-  Te191  1  0.58558134  0.91318628  0.71098603  1
  Te2-  Te192  1  0.16324671  0.08087983  0.04523397  1
  Te2-  Te193  1  0.15629200  0.57808230  0.04278861  1
  Te2-  Te194  1  0.66164762  0.07907731  0.04481042  1
  Te2-  Te195  1  0.66089362  0.57946215  0.04290765  1
  Te2-  Te196  1  0.41934612  0.33980510  0.04231007  1
  Te2-  Te197  1  0.41859359  0.83704875  0.04322864  1
  Te2-  Te198  1  0.92018703  0.33830636  0.04508131  1
  Te2-  Te199  1  0.92149552  0.84233640  0.04439069  1
  Te2-  Te200  1  0.42039234  0.07841858  0.04251806  1
  Te2-  Te201  1  0.41756871  0.57898084  0.04210151  1
  Te2-  Te202  1  0.92012606  0.07828893  0.04563780  1
  Te2-  Te203  1  0.92099827  0.58281267  0.04597653  1
  Te2-  Te204  1  0.49514868  0.24873747  0.37813718  1
  Te2-  Te205  1  0.49389023  0.74741360  0.37458487  1
  Te2-  Te206  1  0.99633901  0.24754333  0.38124569  1
  Te2-  Te207  1  0.99159181  0.74612635  0.37927513  1
  Te2-  Te208  1  0.24761097  0.00327380  0.37879632  1
  Te2-  Te209  1  0.25462628  0.50612200  0.37469180  1
  Te2-  Te210  1  0.75248430  0.00771840  0.37900678  1
  Te2-  Te211  1  0.75538869  0.50718653  0.37947461  1
  Te2-  Te212  1  0.25133367  0.24334580  0.37771846  1
  Te2-  Te213  1  0.25579891  0.74997441  0.37449986  1
  Te2-  Te214  1  0.75511356  0.24870622  0.37948016  1
  Te2-  Te215  1  0.75161942  0.74792027  0.38056960  1
