# generated using pymatgen
data_Ti(CuTe)4
_symmetry_space_group_name_H-M   'P 1'
_cell_length_a   16.87671508
_cell_length_b   16.87959183
_cell_length_c   20.68965272
_cell_angle_alpha   89.99797841
_cell_angle_beta   90.04259588
_cell_angle_gamma   120.00974159
_symmetry_Int_Tables_number   1
_chemical_formula_structural   Ti(CuTe)4
_chemical_formula_sum   'Ti24 Cu96 Te96'
_cell_volume   5103.76769934
_cell_formula_units_Z   24
loop_
 _symmetry_equiv_pos_site_id
 _symmetry_equiv_pos_as_xyz
  1  'x, y, z'
loop_
 _atom_type_symbol
 _atom_type_oxidation_number
  Ti4+  4.0
  Cu+  1.0
  Te2-  -2.0
loop_
 _atom_site_type_symbol
 _atom_site_label
 _atom_site_symmetry_multiplicity
 _atom_site_fract_x
 _atom_site_fract_y
 _atom_site_fract_z
 _atom_site_occupancy
  Ti4+  Ti0  1  0.00061020  -0.00063043  0.26147391  1
  Ti4+  Ti1  1  0.00264355  0.49869826  0.25623297  1
  Ti4+  Ti2  1  0.50154326  -0.00199738  0.25531667  1
  Ti4+  Ti3  1  0.49916212  0.49873026  0.26064800  1
  Ti4+  Ti4  1  0.33606519  0.16556192  0.58777086  1
  Ti4+  Ti5  1  0.33489590  0.66613577  0.59281182  1
  Ti4+  Ti6  1  0.83132064  0.16420818  0.59204104  1
  Ti4+  Ti7  1  0.83277479  0.66857407  0.59127193  1
  Ti4+  Ti8  1  0.16504009  0.33498385  0.92404082  1
  Ti4+  Ti9  1  0.16146347  0.83383545  0.92173691  1
  Ti4+  Ti10  1  0.66535601  0.33480379  0.92337261  1
  Ti4+  Ti11  1  0.66513273  0.83583138  0.92883308  1
  Ti4+  Ti12  1  0.00088568  0.00134703  0.75575215  1
  Ti4+  Ti13  1  -0.00067408  0.50090364  0.75206561  1
  Ti4+  Ti14  1  0.50123452  -0.00016140  0.75629528  1
  Ti4+  Ti15  1  0.50002249  0.50114039  0.75719102  1
  Ti4+  Ti16  1  0.33378310  0.16742827  0.08912731  1
  Ti4+  Ti17  1  0.33197357  0.66575122  0.08711993  1
  Ti4+  Ti18  1  0.83267778  0.16679635  0.08857871  1
  Ti4+  Ti19  1  0.83345826  0.66890044  0.09172976  1
  Ti4+  Ti20  1  0.16864779  0.33372021  0.42254891  1
  Ti4+  Ti21  1  0.16735228  0.83397694  0.42086918  1
  Ti4+  Ti22  1  0.66646421  0.33103474  0.42064746  1
  Ti4+  Ti23  1  0.66821374  0.83318989  0.42259227  1
  Cu+  Cu24  1  0.24032461  0.47582700  0.14011032  1
  Cu+  Cu25  1  0.84903512  0.92759376  0.47964830  1
  Cu+  Cu26  1  0.90290406  0.09551288  0.80933679  1
  Cu+  Cu27  1  0.57116138  0.13887322  0.46910422  1
  Cu+  Cu28  1  0.07719289  0.92712006  0.47759258  1
  Cu+  Cu29  1  0.57528570  0.42058568  0.47706295  1
  Cu+  Cu30  1  0.57355683  0.65179680  0.47834445  1
  Cu+  Cu31  1  0.74700923  0.98376362  0.14617085  1
  Cu+  Cu32  1  0.40395780  0.59788792  0.81067953  1
  Cu+  Cu33  1  0.90379906  0.82259232  0.81351643  1
  Cu+  Cu34  1  0.90123599  0.58919492  0.80626721  1
  Cu+  Cu35  1  0.51184145  0.74983424  0.14604772  1
  Cu+  Cu36  1  0.16609155  0.08037144  0.17385932  1
  Cu+  Cu37  1  0.16260706  0.57463712  0.16789351  1
  Cu+  Cu38  1  0.66440662  0.07808258  0.16935955  1
  Cu+  Cu39  1  0.66546192  0.58256828  0.17489321  1
  Cu+  Cu40  1  0.41988561  0.33514517  0.17230249  1
  Cu+  Cu41  1  0.42264574  0.83693246  0.16715925  1
  Cu+  Cu42  1  0.92142539  0.33814457  0.16952276  1
  Cu+  Cu43  1  0.91917655  0.83727056  0.17491697  1
  Cu+  Cu44  1  0.42013935  0.08209026  0.17028608  1
  Cu+  Cu45  1  0.41638730  0.57771961  0.17136756  1
  Cu+  Cu46  1  0.91726446  0.07974805  0.17317616  1
  Cu+  Cu47  1  0.91973688  0.58317127  0.17240125  1
  Cu+  Cu48  1  0.49796003  0.24393312  0.50006126  1
  Cu+  Cu49  1  0.49554236  0.74499156  0.50571010  1
  Cu+  Cu50  1  1.00018450  0.24890767  0.50562485  1
  Cu+  Cu51  1  0.99815191  0.75211206  0.50373057  1
  Cu+  Cu52  1  0.25191068  0.00408762  0.50005859  1
  Cu+  Cu53  1  0.25466740  0.50225183  0.50572904  1
  Cu+  Cu54  1  0.75525977  0.00601797  0.50419120  1
  Cu+  Cu55  1  0.75031130  0.50297587  0.50288164  1
  Cu+  Cu56  1  0.25421806  0.24892498  0.50124612  1
  Cu+  Cu57  1  0.25335288  0.74957108  0.50536376  1
  Cu+  Cu58  1  0.74433711  0.24124815  0.50334166  1
  Cu+  Cu59  1  0.75304319  0.74913202  0.50207879  1
  Cu+  Cu60  1  0.33123520  0.42088648  0.83853501  1
  Cu+  Cu61  1  0.32950630  0.91779317  0.83742882  1
  Cu+  Cu62  1  0.82867650  0.41785224  0.83509380  1
  Cu+  Cu63  1  0.83002082  0.92063039  0.84123807  1
  Cu+  Cu64  1  0.07980368  0.17025708  0.83694603  1
  Cu+  Cu65  1  0.07741636  0.66999555  0.83273213  1
  Cu+  Cu66  1  0.58344738  0.17057451  0.83799794  1
  Cu+  Cu67  1  0.57769401  0.66827338  0.84081520  1
  Cu+  Cu68  1  0.08538667  0.41519097  0.83518984  1
  Cu+  Cu69  1  0.08150715  0.91087826  0.83396542  1
  Cu+  Cu70  1  0.58470870  0.41408194  0.83709434  1
  Cu+  Cu71  1  0.58510543  0.91678532  0.84099833  1
  Cu+  Cu72  1  0.17208472  0.08565754  0.67335966  1
  Cu+  Cu73  1  0.16938679  0.58288816  0.67396866  1
  Cu+  Cu74  1  0.66817098  0.08143551  0.67599515  1
  Cu+  Cu75  1  0.66559900  0.58406644  0.67713795  1
  Cu+  Cu76  1  0.41861605  0.33141748  0.67329235  1
  Cu+  Cu77  1  0.41914390  0.83047561  0.67582247  1
  Cu+  Cu78  1  0.91582006  0.33074340  0.67314622  1
  Cu+  Cu79  1  0.91756885  0.83435048  0.68296242  1
  Cu+  Cu80  1  0.41824022  0.08383055  0.67123246  1
  Cu+  Cu81  1  0.41599253  0.58547734  0.68186205  1
  Cu+  Cu82  1  0.91647041  0.08597728  0.68127851  1
  Cu+  Cu83  1  0.91491640  0.58629502  0.67704826  1
  Cu+  Cu84  1  0.00020195  0.25076546  0.00876093  1
  Cu+  Cu85  1  -0.00136468  0.75312881  0.00874282  1
  Cu+  Cu86  1  0.50207126  0.25273110  0.00674860  1
  Cu+  Cu87  1  0.50030691  0.75237412  0.01676535  1
  Cu+  Cu88  1  0.24856329  0.49811702  0.01213858  1
  Cu+  Cu89  1  0.24708820  0.99859744  0.00505798  1
  Cu+  Cu90  1  0.74787802  0.49967829  0.00850100  1
  Cu+  Cu91  1  0.74861639  0.99941488  0.01676016  1
  Cu+  Cu92  1  0.24920582  0.25221141  0.00717457  1
  Cu+  Cu93  1  0.24414467  0.75208624  0.00417417  1
  Cu+  Cu94  1  0.74831700  0.25467169  0.00611510  1
  Cu+  Cu95  1  0.74941390  0.75270947  0.01247110  1
  Cu+  Cu96  1  0.33451109  0.41832502  0.34266635  1
  Cu+  Cu97  1  0.33585221  0.91585277  0.33734098  1
  Cu+  Cu98  1  0.83915954  0.41748104  0.33898009  1
  Cu+  Cu99  1  0.83631445  0.91821455  0.35004062  1
  Cu+  Cu100  1  0.08286102  0.16487956  0.34188782  1
  Cu+  Cu101  1  0.08369211  0.66226991  0.33848765  1
  Cu+  Cu102  1  0.58355204  0.16048250  0.34148483  1
  Cu+  Cu103  1  0.58204273  0.66380840  0.34940176  1
  Cu+  Cu104  1  0.08486441  0.41857313  0.34130246  1
  Cu+  Cu105  1  0.08110327  0.91684066  0.34775844  1
  Cu+  Cu106  1  0.58378876  0.41880933  0.34732377  1
  Cu+  Cu107  1  0.58492016  0.91606905  0.34261514  1
  Cu+  Cu108  1  0.00541050  0.00335494  0.11825939  1
  Cu+  Cu109  1  -0.00308754  0.50215972  0.11235740  1
  Cu+  Cu110  1  0.49823959  0.00267646  0.11134046  1
  Cu+  Cu111  1  0.50327213  0.49704131  0.11705803  1
  Cu+  Cu112  1  0.33445342  0.16652382  0.44114304  1
  Cu+  Cu113  1  0.32816161  0.66529285  0.44970200  1
  Cu+  Cu114  1  0.83963366  0.17526290  0.44912517  1
  Cu+  Cu115  1  0.83699992  0.66361719  0.44643159  1
  Cu+  Cu116  1  0.17021499  0.33207852  0.78037794  1
  Cu+  Cu117  1  0.17198773  0.83260355  0.77734167  1
  Cu+  Cu118  1  0.66596448  0.33018648  0.77849596  1
  Cu+  Cu119  1  0.66615212  0.83118594  0.78571836  1
  Te2-  Te120  1  0.00217785  0.00307865  0.39346537  1
  Te2-  Te121  1  0.00192917  0.49969431  0.38561206  1
  Te2-  Te122  1  0.49857692  -0.00544580  0.38607700  1
  Te2-  Te123  1  0.49740919  0.49765490  0.39243936  1
  Te2-  Te124  1  0.33689954  0.16651466  0.71631863  1
  Te2-  Te125  1  0.33172322  0.66774334  0.72354690  1
  Te2-  Te126  1  0.83173536  0.16824371  0.72248712  1
  Te2-  Te127  1  0.83017333  0.66735576  0.72273393  1
  Te2-  Te128  1  0.16474300  0.33109147  0.05426060  1
  Te2-  Te129  1  0.16401070  0.83489387  0.05076176  1
  Te2-  Te130  1  0.66582854  0.33534284  0.05244568  1
  Te2-  Te131  1  0.66650120  0.83310093  0.06036721  1
  Te2-  Te132  1  0.49334536  0.24801775  0.88121771  1
  Te2-  Te133  1  0.49191417  0.75075426  0.88851914  1
  Te2-  Te134  1  0.99081544  0.24997900  0.88300210  1
  Te2-  Te135  1  0.98392176  0.74410910  0.88244109  1
  Te2-  Te136  1  0.24819045  0.00513829  0.87939234  1
  Te2-  Te137  1  0.25006908  0.50907587  0.88461367  1
  Te2-  Te138  1  0.75087914  0.00904599  0.88873630  1
  Te2-  Te139  1  0.75043901  0.50945732  0.88258827  1
  Te2-  Te140  1  0.24972407  0.25004961  0.88063674  1
  Te2-  Te141  1  0.24567919  0.74774401  0.87805777  1
  Te2-  Te142  1  0.75209099  0.25067967  0.88015659  1
  Te2-  Te143  1  0.74744220  0.74698589  0.88578012  1
  Te2-  Te144  1  0.32666271  0.40965744  0.21693619  1
  Te2-  Te145  1  0.33146914  0.91276254  0.21189070  1
  Te2-  Te146  1  0.83075665  0.41407050  0.21361181  1
  Te2-  Te147  1  0.82639991  0.91028926  0.22193069  1
  Te2-  Te148  1  0.08505022  0.16854564  0.21628096  1
  Te2-  Te149  1  0.08946798  0.66949808  0.21272948  1
  Te2-  Te150  1  0.58814914  0.16881454  0.21454951  1
  Te2-  Te151  1  0.58709447  0.67145832  0.22096835  1
  Te2-  Te152  1  0.08705245  0.40770585  0.21572233  1
  Te2-  Te153  1  0.08557082  0.91368945  0.22009897  1
  Te2-  Te154  1  0.58625268  0.41508748  0.21931822  1
  Te2-  Te155  1  0.58989349  0.90917342  0.21674650  1
  Te2-  Te156  1  0.16200295  0.08314614  0.54762778  1
  Te2-  Te157  1  0.16490254  0.58091345  0.54810642  1
  Te2-  Te158  1  0.65743805  0.07352777  0.55025469  1
  Te2-  Te159  1  0.65793102  0.57979933  0.55073661  1
  Te2-  Te160  1  0.42057989  0.33861593  0.54717001  1
  Te2-  Te161  1  0.42100350  0.83698778  0.55010396  1
  Te2-  Te162  1  0.91444813  0.33326985  0.54675696  1
  Te2-  Te163  1  0.92122227  0.84387940  0.55355276  1
  Te2-  Te164  1  0.41885106  0.07535061  0.54560900  1
  Te2-  Te165  1  0.42003997  0.57653652  0.55405389  1
  Te2-  Te166  1  0.92353241  0.08242032  0.55348515  1
  Te2-  Te167  1  0.91784376  0.58384587  0.54917849  1
  Te2-  Te168  1  0.00226333  0.00118843  0.88342784  1
  Te2-  Te169  1  -0.00096358  0.50086233  0.87889418  1
  Te2-  Te170  1  0.49805567  0.00158270  0.88234835  1
  Te2-  Te171  1  0.49975722  0.49837039  0.88400873  1
  Te2-  Te172  1  0.33593158  0.16561425  0.21556923  1
  Te2-  Te173  1  0.33294090  0.66686198  0.21469658  1
  Te2-  Te174  1  0.83448870  0.16808314  0.21547606  1
  Te2-  Te175  1  0.83547866  0.66674030  0.21770166  1
  Te2-  Te176  1  0.16950256  0.33276042  0.54885497  1
  Te2-  Te177  1  0.16865772  0.83482235  0.54808442  1
  Te2-  Te178  1  0.66723176  0.33342001  0.54868392  1
  Te2-  Te179  1  0.66754723  0.83414165  0.55036071  1
  Te2-  Te180  1  0.32893031  0.41196073  0.71063678  1
  Te2-  Te181  1  0.33109050  0.91429937  0.70963910  1
  Te2-  Te182  1  0.82648278  0.41292327  0.70698626  1
  Te2-  Te183  1  0.82514290  0.91394139  0.71270888  1
  Te2-  Te184  1  0.08975778  0.17341921  0.70978103  1
  Te2-  Te185  1  0.08807126  0.67357426  0.70584565  1
  Te2-  Te186  1  0.58667682  0.17085736  0.71041663  1
  Te2-  Te187  1  0.58789695  0.67517066  0.71327973  1
  Te2-  Te188  1  0.08571207  0.41308413  0.70983332  1
  Te2-  Te189  1  0.09017205  0.91646522  0.70872126  1
  Te2-  Te190  1  0.58672857  0.41474654  0.71163508  1
  Te2-  Te191  1  0.58787465  0.91253299  0.71471957  1
  Te2-  Te192  1  0.16196070  0.08209255  0.04561677  1
  Te2-  Te193  1  0.15943139  0.58238127  0.04137858  1
  Te2-  Te194  1  0.65973601  0.08430987  0.04286581  1
  Te2-  Te195  1  0.66108870  0.58206749  0.04767841  1
  Te2-  Te196  1  0.41922096  0.33942250  0.04515152  1
  Te2-  Te197  1  0.41403916  0.83967803  0.04139559  1
  Te2-  Te198  1  0.91812762  0.33892385  0.04379069  1
  Te2-  Te199  1  0.91921609  0.84209427  0.04824006  1
  Te2-  Te200  1  0.41778083  0.08171664  0.04241167  1
  Te2-  Te201  1  0.42092374  0.57895676  0.04360267  1
  Te2-  Te202  1  0.92169428  0.08131655  0.04540650  1
  Te2-  Te203  1  0.91774348  0.58306329  0.04499605  1
  Te2-  Te204  1  0.49424904  0.24432521  0.37216682  1
  Te2-  Te205  1  0.49335479  0.74707834  0.37896054  1
  Te2-  Te206  1  0.99664745  0.24826115  0.37851838  1
  Te2-  Te207  1  0.99464844  0.74341861  0.37614522  1
  Te2-  Te208  1  0.25589858  0.00587936  0.37319283  1
  Te2-  Te209  1  0.25406247  0.50661554  0.37909363  1
  Te2-  Te210  1  0.75375011  0.00821816  0.37837693  1
  Te2-  Te211  1  0.75652775  0.50469976  0.37596941  1
  Te2-  Te212  1  0.25376709  0.24716343  0.37557504  1
  Te2-  Te213  1  0.25277976  0.74743614  0.37765168  1
  Te2-  Te214  1  0.75512822  0.24738729  0.37581861  1
  Te2-  Te215  1  0.75514982  0.74481650  0.37632551  1
