# generated using pymatgen
data_Ti(CuTe)4
_symmetry_space_group_name_H-M   'P 1'
_cell_length_a   16.89062403
_cell_length_b   16.89027526
_cell_length_c   20.71178431
_cell_angle_alpha   90.00097268
_cell_angle_beta   89.99611348
_cell_angle_gamma   120.00012832
_symmetry_Int_Tables_number   1
_chemical_formula_structural   Ti(CuTe)4
_chemical_formula_sum   'Ti24 Cu96 Te96'
_cell_volume   5117.17189935
_cell_formula_units_Z   24
loop_
 _symmetry_equiv_pos_site_id
 _symmetry_equiv_pos_as_xyz
  1  'x, y, z'
loop_
 _atom_type_symbol
 _atom_type_oxidation_number
  Ti4+  4.0
  Cu+  1.0
  Te2-  -2.0
loop_
 _atom_site_type_symbol
 _atom_site_label
 _atom_site_symmetry_multiplicity
 _atom_site_fract_x
 _atom_site_fract_y
 _atom_site_fract_z
 _atom_site_occupancy
  Ti4+  Ti0  1  -0.00037896  -0.00263452  0.25430531  1
  Ti4+  Ti1  1  -0.00107225  0.49971671  0.25860431  1
  Ti4+  Ti2  1  0.50138377  -0.00371052  0.25750941  1
  Ti4+  Ti3  1  0.49878791  0.49529287  0.25650338  1
  Ti4+  Ti4  1  0.33590400  0.16835511  0.59103855  1
  Ti4+  Ti5  1  0.33470167  0.66955039  0.59066537  1
  Ti4+  Ti6  1  0.83798644  0.17230736  0.59246671  1
  Ti4+  Ti7  1  0.83181010  0.66723359  0.58902518  1
  Ti4+  Ti8  1  0.16393244  0.33346929  0.92990716  1
  Ti4+  Ti9  1  0.16678772  0.83598682  0.92336946  1
  Ti4+  Ti10  1  0.66495309  0.33117447  0.92464636  1
  Ti4+  Ti11  1  0.66516568  0.83288857  0.92289525  1
  Ti4+  Ti12  1  0.00093417  0.00094627  0.75571161  1
  Ti4+  Ti13  1  0.00028105  0.49997327  0.75799858  1
  Ti4+  Ti14  1  0.50070945  0.00308381  0.75418214  1
  Ti4+  Ti15  1  0.50078653  0.50209979  0.75708384  1
  Ti4+  Ti16  1  0.33289586  0.16716559  0.08772636  1
  Ti4+  Ti17  1  0.33210651  0.66681228  0.08742120  1
  Ti4+  Ti18  1  0.83027567  0.16354920  0.08863909  1
  Ti4+  Ti19  1  0.83342367  0.66512153  0.08772532  1
  Ti4+  Ti20  1  0.16477993  0.33200587  0.42334815  1
  Ti4+  Ti21  1  0.16988827  0.83360802  0.42191014  1
  Ti4+  Ti22  1  0.66621068  0.33345758  0.42112260  1
  Ti4+  Ti23  1  0.66763770  0.83172707  0.42073274  1
  Cu+  Cu24  1  0.73941810  0.47519164  0.13930448  1
  Cu+  Cu25  1  0.73550701  0.97240622  0.13735717  1
  Cu+  Cu26  1  0.02226380  0.75862634  0.13857856  1
  Cu+  Cu27  1  0.57236140  0.42772448  0.47510156  1
  Cu+  Cu28  1  0.24381865  0.25356516  0.14902450  1
  Cu+  Cu29  1  0.24349911  0.48739355  0.14665040  1
  Cu+  Cu30  1  0.84730899  0.42806580  0.47811026  1
  Cu+  Cu31  1  0.40470813  0.09591035  0.80752511  1
  Cu+  Cu32  1  0.35999395  0.93050785  0.47453733  1
  Cu+  Cu33  1  0.07859104  0.43074064  0.47875770  1
  Cu+  Cu34  1  0.90577287  0.31048350  0.81273688  1
  Cu+  Cu35  1  0.00491573  0.25193439  0.15128238  1
  Cu+  Cu36  1  0.16129054  0.08046776  0.16758098  1
  Cu+  Cu37  1  0.16205943  0.57934522  0.16942303  1
  Cu+  Cu38  1  0.66211677  0.07318285  0.17029692  1
  Cu+  Cu39  1  0.66438111  0.57360988  0.16950685  1
  Cu+  Cu40  1  0.41863935  0.33712856  0.16940750  1
  Cu+  Cu41  1  0.41850778  0.83676530  0.16989763  1
  Cu+  Cu42  1  0.91770764  0.33831800  0.17097529  1
  Cu+  Cu43  1  0.92274220  0.83513425  0.16725560  1
  Cu+  Cu44  1  0.41744237  0.07942949  0.17206888  1
  Cu+  Cu45  1  0.41685134  0.57955541  0.16882155  1
  Cu+  Cu46  1  0.91307481  0.07580726  0.16769883  1
  Cu+  Cu47  1  0.91622862  0.58078553  0.17028790  1
  Cu+  Cu48  1  0.49526090  0.25181518  0.50254360  1
  Cu+  Cu49  1  0.49875474  0.74776864  0.50306967  1
  Cu+  Cu50  1  0.99788261  0.25537349  0.50473172  1
  Cu+  Cu51  1  0.99826577  0.75019020  0.50343693  1
  Cu+  Cu52  1  0.25771411  0.00255148  0.50464524  1
  Cu+  Cu53  1  0.24991593  0.50437410  0.50549625  1
  Cu+  Cu54  1  0.75419907  0.00276561  0.50543793  1
  Cu+  Cu55  1  0.75003659  0.50606579  0.50196068  1
  Cu+  Cu56  1  0.25113819  0.24823315  0.50552316  1
  Cu+  Cu57  1  0.25791332  0.75397662  0.50319107  1
  Cu+  Cu58  1  0.75867944  0.25483248  0.50376938  1
  Cu+  Cu59  1  0.75129647  0.74787080  0.50172214  1
  Cu+  Cu60  1  0.33171518  0.41826780  0.84275270  1
  Cu+  Cu61  1  0.33044280  0.92117160  0.83584891  1
  Cu+  Cu62  1  0.83079204  0.41094588  0.83991187  1
  Cu+  Cu63  1  0.83010892  0.91678375  0.83761340  1
  Cu+  Cu64  1  0.08423060  0.16968146  0.84145125  1
  Cu+  Cu65  1  0.08446409  0.67068796  0.83934368  1
  Cu+  Cu66  1  0.58007836  0.17072366  0.83602860  1
  Cu+  Cu67  1  0.58358766  0.67111317  0.83790177  1
  Cu+  Cu68  1  0.08034032  0.41147573  0.84192897  1
  Cu+  Cu69  1  0.08335524  0.91389232  0.83692092  1
  Cu+  Cu70  1  0.58588573  0.41789234  0.83929100  1
  Cu+  Cu71  1  0.58547344  0.91654980  0.83713623  1
  Cu+  Cu72  1  0.16978035  0.08395722  0.67535246  1
  Cu+  Cu73  1  0.17038057  0.58672950  0.67620372  1
  Cu+  Cu74  1  0.67279380  0.08873808  0.67484432  1
  Cu+  Cu75  1  0.66768776  0.58523981  0.67400820  1
  Cu+  Cu76  1  0.41748232  0.33458680  0.67695462  1
  Cu+  Cu77  1  0.41790693  0.83416370  0.67446486  1
  Cu+  Cu78  1  0.91876976  0.33402534  0.68251378  1
  Cu+  Cu79  1  0.91478704  0.83186360  0.67325626  1
  Cu+  Cu80  1  0.41736488  0.08743113  0.67823106  1
  Cu+  Cu81  1  0.41453155  0.58578285  0.67532767  1
  Cu+  Cu82  1  0.92039443  0.08867446  0.67571245  1
  Cu+  Cu83  1  0.91429623  0.58562609  0.67469413  1
  Cu+  Cu84  1  -0.00029441  0.25151786  0.01745046  1
  Cu+  Cu85  1  0.00396992  0.75228113  0.01070744  1
  Cu+  Cu86  1  0.49997604  0.24990283  0.00894497  1
  Cu+  Cu87  1  0.50024155  0.75225619  0.00625887  1
  Cu+  Cu88  1  0.24585449  0.49767611  0.01507815  1
  Cu+  Cu89  1  0.24965295  0.99964730  0.00691622  1
  Cu+  Cu90  1  0.74778400  0.49374504  0.01126299  1
  Cu+  Cu91  1  0.74489347  0.99358803  0.00989911  1
  Cu+  Cu92  1  0.24855727  0.25396753  0.01684936  1
  Cu+  Cu93  1  0.24943171  0.75405085  0.00607628  1
  Cu+  Cu94  1  0.74592000  0.24788253  0.00821562  1
  Cu+  Cu95  1  0.74741953  0.75017544  0.00516691  1
  Cu+  Cu96  1  0.33252345  0.41314821  0.34364988  1
  Cu+  Cu97  1  0.33931087  0.91764723  0.34576701  1
  Cu+  Cu98  1  0.83477895  0.41693222  0.34730004  1
  Cu+  Cu99  1  0.83535864  0.91587627  0.33892254  1
  Cu+  Cu100  1  0.08042127  0.16224700  0.34245031  1
  Cu+  Cu101  1  0.08364878  0.66511960  0.34200101  1
  Cu+  Cu102  1  0.58178537  0.16075955  0.34016378  1
  Cu+  Cu103  1  0.58235017  0.66047292  0.33911422  1
  Cu+  Cu104  1  0.08029870  0.41521311  0.34947953  1
  Cu+  Cu105  1  0.08425326  0.91716769  0.33917242  1
  Cu+  Cu106  1  0.57992810  0.41388463  0.34497691  1
  Cu+  Cu107  1  0.58431708  0.91443149  0.34140381  1
  Cu+  Cu108  1  -0.00155252  -0.00329550  0.10904904  1
  Cu+  Cu109  1  -0.00035459  0.50063360  0.11347962  1
  Cu+  Cu110  1  0.49716222  0.00053448  0.11375213  1
  Cu+  Cu111  1  0.50438787  0.50655926  0.11235338  1
  Cu+  Cu112  1  0.32744643  0.16360060  0.44807335  1
  Cu+  Cu113  1  0.33608586  0.66547591  0.44733594  1
  Cu+  Cu114  1  0.83077470  0.16253112  0.44922908  1
  Cu+  Cu115  1  0.83790695  0.67181600  0.44487342  1
  Cu+  Cu116  1  0.17021901  0.33432636  0.78740953  1
  Cu+  Cu117  1  0.16620864  0.83124046  0.77992312  1
  Cu+  Cu118  1  0.66826007  0.33793344  0.78183438  1
  Cu+  Cu119  1  0.66789598  0.83520792  0.77983039  1
  Te2-  Te120  1  -0.00037249  -0.00320147  0.38281015  1
  Te2-  Te121  1  0.00071348  0.50271880  0.39037238  1
  Te2-  Te122  1  0.50560290  -0.00095156  0.38829498  1
  Te2-  Te123  1  0.49740739  0.49798223  0.38660940  1
  Te2-  Te124  1  0.33348381  0.16990347  0.72125028  1
  Te2-  Te125  1  0.33487839  0.67032382  0.71962950  1
  Te2-  Te126  1  0.83545045  0.16693375  0.72274201  1
  Te2-  Te127  1  0.83199370  0.66786435  0.71787739  1
  Te2-  Te128  1  0.16402717  0.33386983  0.06384213  1
  Te2-  Te129  1  0.17011585  0.83666342  0.05437118  1
  Te2-  Te130  1  0.66329680  0.32789199  0.05561840  1
  Te2-  Te131  1  0.66269802  0.82720841  0.05401479  1
  Te2-  Te132  1  0.49143191  0.24977439  0.88332421  1
  Te2-  Te133  1  0.49338419  0.74899853  0.88100679  1
  Te2-  Te134  1  0.99071611  0.24306743  0.88896962  1
  Te2-  Te135  1  0.99444644  0.74776367  0.88423124  1
  Te2-  Te136  1  0.25039817  0.00988259  0.88171522  1
  Te2-  Te137  1  0.24819661  0.50321135  0.88760644  1
  Te2-  Te138  1  0.75180334  0.00553404  0.88378138  1
  Te2-  Te139  1  0.75336665  0.50175234  0.88441575  1
  Te2-  Te140  1  0.25111735  0.25045947  0.88871120  1
  Te2-  Te141  1  0.25395263  0.75255121  0.88027348  1
  Te2-  Te142  1  0.74726845  0.24021234  0.88276291  1
  Te2-  Te143  1  0.75186146  0.74815517  0.87999942  1
  Te2-  Te144  1  0.32204708  0.40976624  0.21789890  1
  Te2-  Te145  1  0.32913754  0.91258084  0.21868452  1
  Te2-  Te146  1  0.82615276  0.41166431  0.21919895  1
  Te2-  Te147  1  0.82713278  0.90797000  0.21292710  1
  Te2-  Te148  1  0.08518427  0.17393691  0.21674989  1
  Te2-  Te149  1  0.08717125  0.67096362  0.21564238  1
  Te2-  Te150  1  0.58703148  0.16704103  0.21432008  1
  Te2-  Te151  1  0.58479816  0.66399699  0.21248881  1
  Te2-  Te152  1  0.08646631  0.41140260  0.22096478  1
  Te2-  Te153  1  0.09112775  0.91520319  0.21360574  1
  Te2-  Te154  1  0.58343769  0.40587924  0.21764929  1
  Te2-  Te155  1  0.58480721  0.90516716  0.21601078  1
  Te2-  Te156  1  0.16582358  0.08001775  0.54895920  1
  Te2-  Te157  1  0.16099648  0.58662492  0.55020087  1
  Te2-  Te158  1  0.66830599  0.08701588  0.54835649  1
  Te2-  Te159  1  0.65756155  0.58181408  0.54832228  1
  Te2-  Te160  1  0.41842253  0.34252252  0.55071177  1
  Te2-  Te161  1  0.42671080  0.84327784  0.54868897  1
  Te2-  Te162  1  0.92530517  0.34993938  0.55436616  1
  Te2-  Te163  1  0.91849605  0.83835800  0.54715789  1
  Te2-  Te164  1  0.42687738  0.08573394  0.55086834  1
  Te2-  Te165  1  0.41704205  0.58075042  0.54915253  1
  Te2-  Te166  1  0.92316324  0.08764671  0.54953692  1
  Te2-  Te167  1  0.92113548  0.58282321  0.54881721  1
  Te2-  Te168  1  -0.00109722  -0.00124932  0.88197822  1
  Te2-  Te169  1  0.00006836  0.50184818  0.88473341  1
  Te2-  Te170  1  0.49997120  0.00097197  0.88091548  1
  Te2-  Te171  1  0.50153862  0.50265864  0.88357104  1
  Te2-  Te172  1  0.33234034  0.16503883  0.21482425  1
  Te2-  Te173  1  0.33291583  0.66592965  0.21455798  1
  Te2-  Te174  1  0.83267165  0.16621951  0.21632839  1
  Te2-  Te175  1  0.83305585  0.66712495  0.21515556  1
  Te2-  Te176  1  0.16776010  0.33415619  0.55015329  1
  Te2-  Te177  1  0.16737926  0.83326971  0.54873588  1
  Te2-  Te178  1  0.66677437  0.33476862  0.54832024  1
  Te2-  Te179  1  0.66802311  0.83312732  0.54699540  1
  Te2-  Te180  1  0.32890495  0.41630060  0.71498827  1
  Te2-  Te181  1  0.32797326  0.91460803  0.70886173  1
  Te2-  Te182  1  0.82828988  0.41655379  0.71232534  1
  Te2-  Te183  1  0.83002008  0.91735036  0.71062802  1
  Te2-  Te184  1  0.08955286  0.17394068  0.71439531  1
  Te2-  Te185  1  0.08429646  0.67095628  0.71241312  1
  Te2-  Te186  1  0.59007894  0.17641850  0.70961275  1
  Te2-  Te187  1  0.58498696  0.67260808  0.71132752  1
  Te2-  Te188  1  0.09085729  0.41732096  0.71464020  1
  Te2-  Te189  1  0.08495921  0.91344654  0.71074159  1
  Te2-  Te190  1  0.58704766  0.41659859  0.71265688  1
  Te2-  Te191  1  0.58820708  0.91804561  0.71071546  1
  Te2-  Te192  1  0.15982680  0.07979932  0.04135668  1
  Te2-  Te193  1  0.15888669  0.58376705  0.04272897  1
  Te2-  Te194  1  0.65760724  0.07807098  0.04362113  1
  Te2-  Te195  1  0.66135881  0.58034405  0.04190021  1
  Te2-  Te196  1  0.42183628  0.34159976  0.04363664  1
  Te2-  Te197  1  0.41842832  0.83923975  0.04398978  1
  Te2-  Te198  1  0.91471080  0.33884765  0.04474806  1
  Te2-  Te199  1  0.91662209  0.83746428  0.04082736  1
  Te2-  Te200  1  0.41831492  0.08016447  0.04488006  1
  Te2-  Te201  1  0.41973596  0.58180542  0.04180267  1
  Te2-  Te202  1  0.91756368  0.07756079  0.04106356  1
  Te2-  Te203  1  0.92045770  0.57917983  0.04240804  1
  Te2-  Te204  1  0.49274236  0.24172485  0.37653527  1
  Te2-  Te205  1  0.49585680  0.74398128  0.37647352  1
  Te2-  Te206  1  0.99135902  0.24277059  0.37818205  1
  Te2-  Te207  1  0.99756449  0.74845987  0.37685821  1
  Te2-  Te208  1  0.25389055  0.00544504  0.37677439  1
  Te2-  Te209  1  0.25375617  0.50487297  0.37780491  1
  Te2-  Te210  1  0.75419286  0.00372814  0.37785786  1
  Te2-  Te211  1  0.75270954  0.50762215  0.37471218  1
  Te2-  Te212  1  0.24972270  0.24428533  0.37898087  1
  Te2-  Te213  1  0.25368584  0.74451068  0.37657508  1
  Te2-  Te214  1  0.75155560  0.24454925  0.37713128  1
  Te2-  Te215  1  0.75251121  0.74562533  0.37509522  1
