# generated using pymatgen
data_Ti(CuTe)4
_symmetry_space_group_name_H-M   'P 1'
_cell_length_a   16.89388607
_cell_length_b   16.89245619
_cell_length_c   20.71671193
_cell_angle_alpha   90.03004100
_cell_angle_beta   89.93901433
_cell_angle_gamma   119.99295861
_symmetry_Int_Tables_number   1
_chemical_formula_structural   Ti(CuTe)4
_chemical_formula_sum   'Ti24 Cu96 Te96'
_cell_volume   5120.40585369
_cell_formula_units_Z   24
loop_
 _symmetry_equiv_pos_site_id
 _symmetry_equiv_pos_as_xyz
  1  'x, y, z'
loop_
 _atom_type_symbol
 _atom_type_oxidation_number
  Ti4+  4.0
  Cu+  1.0
  Te2-  -2.0
loop_
 _atom_site_type_symbol
 _atom_site_label
 _atom_site_symmetry_multiplicity
 _atom_site_fract_x
 _atom_site_fract_y
 _atom_site_fract_z
 _atom_site_occupancy
  Ti4+  Ti0  1  0.00373956  0.00318483  0.25919872  1
  Ti4+  Ti1  1  0.00259876  0.50011576  0.25854532  1
  Ti4+  Ti2  1  0.50274361  -0.00007775  0.25998975  1
  Ti4+  Ti3  1  0.50282706  0.50310551  0.25767094  1
  Ti4+  Ti4  1  0.33062437  0.16619985  0.58861827  1
  Ti4+  Ti5  1  0.32970050  0.66335902  0.59299984  1
  Ti4+  Ti6  1  0.82704949  0.16314418  0.59112707  1
  Ti4+  Ti7  1  0.83221475  0.66838099  0.58773514  1
  Ti4+  Ti8  1  0.16590806  0.33203451  0.92534275  1
  Ti4+  Ti9  1  0.16867877  0.83167609  0.92342277  1
  Ti4+  Ti10  1  0.66890805  0.33551511  0.92140268  1
  Ti4+  Ti11  1  0.66814277  0.83347703  0.92541929  1
  Ti4+  Ti12  1  -0.00238094  -0.00118409  0.75578248  1
  Ti4+  Ti13  1  -0.00238610  0.49916182  0.75395950  1
  Ti4+  Ti14  1  0.49801105  -0.00111651  0.75484839  1
  Ti4+  Ti15  1  0.49965492  0.50010306  0.75547376  1
  Ti4+  Ti16  1  0.33387956  0.16605206  0.08819369  1
  Ti4+  Ti17  1  0.33589415  0.66798494  0.09043973  1
  Ti4+  Ti18  1  0.83525390  0.16820120  0.09090072  1
  Ti4+  Ti19  1  0.83378831  0.66662914  0.08999231  1
  Ti4+  Ti20  1  0.16700191  0.33440917  0.42247113  1
  Ti4+  Ti21  1  0.16652971  0.83344934  0.42077913  1
  Ti4+  Ti22  1  0.66606229  0.33308893  0.42065617  1
  Ti4+  Ti23  1  0.66680655  0.83313215  0.42110361  1
  Cu+  Cu24  1  0.56950313  0.64559081  0.47460108  1
  Cu+  Cu25  1  0.17822775  0.58507372  0.81364120  1
  Cu+  Cu26  1  0.84642287  0.92766812  0.47614259  1
  Cu+  Cu27  1  0.68647561  0.09291930  0.81048984  1
  Cu+  Cu28  1  0.07660340  0.92635828  0.47512144  1
  Cu+  Cu29  1  0.41251145  0.81698794  0.81114238  1
  Cu+  Cu30  1  0.07129484  0.64388756  0.47346032  1
  Cu+  Cu31  1  0.57116258  0.91682739  0.47972398  1
  Cu+  Cu32  1  0.52669742  0.76409059  0.14262430  1
  Cu+  Cu33  1  0.56848517  0.14823576  0.47453486  1
  Cu+  Cu34  1  0.69260778  0.59674787  0.80549238  1
  Cu+  Cu35  1  0.02562457  0.26280547  0.14202987  1
  Cu+  Cu36  1  0.16533815  0.08111505  0.17050154  1
  Cu+  Cu37  1  0.16394027  0.58239486  0.17242919  1
  Cu+  Cu38  1  0.66415190  0.08202193  0.17389251  1
  Cu+  Cu39  1  0.66492733  0.58380492  0.17198781  1
  Cu+  Cu40  1  0.41757255  0.33613439  0.17067336  1
  Cu+  Cu41  1  0.42606078  0.83667369  0.17308730  1
  Cu+  Cu42  1  0.92467183  0.33674317  0.17189496  1
  Cu+  Cu43  1  0.91952428  0.83671421  0.17387190  1
  Cu+  Cu44  1  0.42066987  0.08435628  0.17225832  1
  Cu+  Cu45  1  0.42555830  0.58925698  0.17182374  1
  Cu+  Cu46  1  0.92372114  0.08790579  0.17322206  1
  Cu+  Cu47  1  0.92042482  0.58410452  0.17344967  1
  Cu+  Cu48  1  0.49489558  0.24581555  0.50291846  1
  Cu+  Cu49  1  0.49202950  0.74375271  0.50495292  1
  Cu+  Cu50  1  0.99663861  0.24775969  0.50463680  1
  Cu+  Cu51  1  0.99664093  0.74911398  0.50022775  1
  Cu+  Cu52  1  0.24912490  0.00689111  0.50087656  1
  Cu+  Cu53  1  0.24843148  0.50181114  0.50516791  1
  Cu+  Cu54  1  0.74879465  0.00593887  0.50250097  1
  Cu+  Cu55  1  0.74899781  0.50459308  0.50074673  1
  Cu+  Cu56  1  0.25070249  0.24987039  0.50275247  1
  Cu+  Cu57  1  0.24532380  0.74343180  0.50476897  1
  Cu+  Cu58  1  0.74266765  0.24347040  0.50364027  1
  Cu+  Cu59  1  0.75012994  0.74785287  0.49999421  1
  Cu+  Cu60  1  0.32883075  0.41257451  0.83830393  1
  Cu+  Cu61  1  0.32848422  0.90884316  0.83566771  1
  Cu+  Cu62  1  0.82724700  0.41420974  0.83434180  1
  Cu+  Cu63  1  0.83000632  0.91507658  0.83824986  1
  Cu+  Cu64  1  0.08172450  0.16733114  0.83904866  1
  Cu+  Cu65  1  0.08791673  0.66926730  0.83562694  1
  Cu+  Cu66  1  0.58917324  0.17089670  0.83542172  1
  Cu+  Cu67  1  0.58782354  0.66765742  0.83788546  1
  Cu+  Cu68  1  0.08429438  0.41293274  0.83824106  1
  Cu+  Cu69  1  0.08526445  0.91543054  0.83808659  1
  Cu+  Cu70  1  0.58982280  0.42134964  0.83545173  1
  Cu+  Cu71  1  0.58563675  0.91566743  0.83802019  1
  Cu+  Cu72  1  0.16611109  0.08469646  0.67395286  1
  Cu+  Cu73  1  0.16512732  0.58204655  0.68202215  1
  Cu+  Cu74  1  0.66457990  0.08190854  0.67987823  1
  Cu+  Cu75  1  0.66774838  0.58656794  0.67718631  1
  Cu+  Cu76  1  0.41313904  0.33016957  0.67206464  1
  Cu+  Cu77  1  0.41034935  0.82774459  0.68094493  1
  Cu+  Cu78  1  0.91000509  0.32894094  0.67434735  1
  Cu+  Cu79  1  0.91460969  0.83387045  0.67384635  1
  Cu+  Cu80  1  0.41125230  0.08440283  0.67335118  1
  Cu+  Cu81  1  0.41320425  0.58174406  0.67686199  1
  Cu+  Cu82  1  0.91103746  0.08148734  0.67685419  1
  Cu+  Cu83  1  0.91334884  0.58340752  0.67289680  1
  Cu+  Cu84  1  0.00409631  0.25239787  0.01280723  1
  Cu+  Cu85  1  0.00468657  0.75133857  0.00747631  1
  Cu+  Cu86  1  0.50385951  0.25187116  0.00435656  1
  Cu+  Cu87  1  0.50533465  0.75293697  0.01338849  1
  Cu+  Cu88  1  0.24820379  0.49800290  0.01036161  1
  Cu+  Cu89  1  0.25092732  0.99646632  0.00689175  1
  Cu+  Cu90  1  0.74969631  0.49937760  0.00750180  1
  Cu+  Cu91  1  0.74865065  1.00048966  0.01037223  1
  Cu+  Cu92  1  0.24756991  0.24802131  0.00847256  1
  Cu+  Cu93  1  0.25074388  0.75015524  0.00992524  1
  Cu+  Cu94  1  0.74858903  0.25100458  0.00803270  1
  Cu+  Cu95  1  0.75011362  0.74981152  0.01047957  1
  Cu+  Cu96  1  0.33797688  0.42257526  0.34089702  1
  Cu+  Cu97  1  0.33691276  0.91709002  0.34037433  1
  Cu+  Cu98  1  0.83776028  0.41896561  0.34036791  1
  Cu+  Cu99  1  0.83952188  0.92038854  0.34585349  1
  Cu+  Cu100  1  0.08487356  0.16784153  0.34249794  1
  Cu+  Cu101  1  0.08264252  0.66222621  0.34552124  1
  Cu+  Cu102  1  0.58213314  0.16274325  0.34679749  1
  Cu+  Cu103  1  0.58238809  0.66460920  0.34577141  1
  Cu+  Cu104  1  0.08387932  0.41797670  0.34301854  1
  Cu+  Cu105  1  0.08375331  0.91984972  0.34557778  1
  Cu+  Cu106  1  0.58352077  0.41938342  0.33975111  1
  Cu+  Cu107  1  0.58350033  0.91796363  0.34849748  1
  Cu+  Cu108  1  -0.00101952  -0.00190951  0.11650372  1
  Cu+  Cu109  1  -0.00270420  0.50055198  0.11601995  1
  Cu+  Cu110  1  0.49839662  0.00112161  0.11701834  1
  Cu+  Cu111  1  0.49807311  0.49693784  0.11478718  1
  Cu+  Cu112  1  0.33427919  0.17161315  0.44477010  1
  Cu+  Cu113  1  0.32947683  0.66517245  0.44850864  1
  Cu+  Cu114  1  0.83703811  0.17537355  0.44834733  1
  Cu+  Cu115  1  0.83257013  0.66423889  0.44202249  1
  Cu+  Cu116  1  0.16515184  0.32912022  0.78217689  1
  Cu+  Cu117  1  0.16216834  0.83344554  0.77967091  1
  Cu+  Cu118  1  0.66167247  0.33193437  0.77713963  1
  Cu+  Cu119  1  0.66519255  0.83120274  0.78235635  1
  Te2-  Te120  1  0.00397347  0.00530562  0.39167477  1
  Te2-  Te121  1  -0.00080852  0.49650010  0.38956435  1
  Te2-  Te122  1  0.49700889  -0.00308690  0.39274913  1
  Te2-  Te123  1  0.50029792  0.49846548  0.38869056  1
  Te2-  Te124  1  0.33036250  0.16704563  0.71773957  1
  Te2-  Te125  1  0.33132171  0.66226618  0.72497681  1
  Te2-  Te126  1  0.83120851  0.16586085  0.72133598  1
  Te2-  Te127  1  0.83544944  0.66943135  0.71764560  1
  Te2-  Te128  1  0.17050827  0.33410431  0.05574892  1
  Te2-  Te129  1  0.16859457  0.83294025  0.05205373  1
  Te2-  Te130  1  0.66715368  0.33456400  0.05021933  1
  Te2-  Te131  1  0.67208997  0.83625998  0.05560863  1
  Te2-  Te132  1  0.49931411  0.25062143  0.87791055  1
  Te2-  Te133  1  0.49611537  0.74472552  0.88537891  1
  Te2-  Te134  1  0.99445173  0.24735451  0.88557817  1
  Te2-  Te135  1  0.99820563  0.74645495  0.88127018  1
  Te2-  Te136  1  0.25463034  0.00204247  0.88074145  1
  Te2-  Te137  1  0.25509950  0.50565666  0.88442355  1
  Te2-  Te138  1  0.75454443  0.00666630  0.88432427  1
  Te2-  Te139  1  0.75855110  0.51054014  0.88169068  1
  Te2-  Te140  1  0.25006694  0.24521227  0.88261443  1
  Te2-  Te141  1  0.25722412  0.74171894  0.88418175  1
  Te2-  Te142  1  0.75778511  0.24900887  0.88240844  1
  Te2-  Te143  1  0.75638914  0.74843830  0.88417665  1
  Te2-  Te144  1  0.33279847  0.42018704  0.21475679  1
  Te2-  Te145  1  0.33376975  0.91434943  0.21445642  1
  Te2-  Te146  1  0.83266477  0.41412769  0.21450854  1
  Te2-  Te147  1  0.83320125  0.91917427  0.21828737  1
  Te2-  Te148  1  0.09328533  0.17603516  0.21679529  1
  Te2-  Te149  1  0.08792111  0.67235975  0.21903240  1
  Te2-  Te150  1  0.58703088  0.17124693  0.22011202  1
  Te2-  Te151  1  0.59324510  0.67818973  0.21921047  1
  Te2-  Te152  1  0.09306132  0.41619243  0.21769426  1
  Te2-  Te153  1  0.08721685  0.91553740  0.21878156  1
  Te2-  Te154  1  0.58603268  0.41554095  0.21436133  1
  Te2-  Te155  1  0.59354607  0.91619612  0.22116255  1
  Te2-  Te156  1  0.15651984  0.08270189  0.54830845  1
  Te2-  Te157  1  0.15656349  0.57605081  0.55351163  1
  Te2-  Te158  1  0.65044863  0.07459411  0.55207113  1
  Te2-  Te159  1  0.65885046  0.58038195  0.54954874  1
  Te2-  Te160  1  0.41862200  0.33705307  0.54646573  1
  Te2-  Te161  1  0.41316624  0.83556594  0.55275932  1
  Te2-  Te162  1  0.91145657  0.33201389  0.54807977  1
  Te2-  Te163  1  0.91994015  0.84347855  0.54787882  1
  Te2-  Te164  1  0.41388338  0.07506025  0.54800991  1
  Te2-  Te165  1  0.41544117  0.57607394  0.55091701  1
  Te2-  Te166  1  0.91733945  0.08020553  0.55071660  1
  Te2-  Te167  1  0.91631370  0.57977645  0.54690904  1
  Te2-  Te168  1  -0.00049908  -0.00155838  0.88197625  1
  Te2-  Te169  1  -0.00225523  0.49857419  0.88084509  1
  Te2-  Te170  1  0.49923724  0.00097428  0.88213657  1
  Te2-  Te171  1  0.49858544  0.49827204  0.88229317  1
  Te2-  Te172  1  0.33461013  0.16747162  0.21437054  1
  Te2-  Te173  1  0.33397077  0.66700278  0.21707477  1
  Te2-  Te174  1  0.83417515  0.16793982  0.21764008  1
  Te2-  Te175  1  0.83459023  0.66737083  0.21631033  1
  Te2-  Te176  1  0.16494962  0.33241683  0.54862221  1
  Te2-  Te177  1  0.16634124  0.83591198  0.54810095  1
  Te2-  Te178  1  0.66487047  0.33573578  0.54753768  1
  Te2-  Te179  1  0.66518516  0.83338421  0.54933584  1
  Te2-  Te180  1  0.32678493  0.41211344  0.71207545  1
  Te2-  Te181  1  0.32453660  0.91477125  0.70953756  1
  Te2-  Te182  1  0.82498523  0.41378501  0.70887103  1
  Te2-  Te183  1  0.82484710  0.91239796  0.71206816  1
  Te2-  Te184  1  0.08194469  0.17025407  0.71202192  1
  Te2-  Te185  1  0.08278707  0.67287684  0.70884690  1
  Te2-  Te186  1  0.58099088  0.17130316  0.70861413  1
  Te2-  Te187  1  0.58317200  0.67336222  0.71082043  1
  Te2-  Te188  1  0.08068644  0.40847752  0.71071946  1
  Te2-  Te189  1  0.08440172  0.91485456  0.71054309  1
  Te2-  Te190  1  0.58344488  0.41334802  0.70796254  1
  Te2-  Te191  1  0.58324972  0.90945179  0.71012813  1
  Te2-  Te192  1  0.16184148  0.07793341  0.04441416  1
  Te2-  Te193  1  0.16244110  0.58111987  0.04691220  1
  Te2-  Te194  1  0.66213221  0.08265351  0.04783705  1
  Te2-  Te195  1  0.66157672  0.58028416  0.04597456  1
  Te2-  Te196  1  0.41890636  0.33694850  0.04338973  1
  Te2-  Te197  1  0.42100202  0.84080401  0.04561857  1
  Te2-  Te198  1  0.91894065  0.33978594  0.04475213  1
  Te2-  Te199  1  0.92104518  0.83789252  0.04636609  1
  Te2-  Te200  1  0.42133370  0.08231594  0.04446863  1
  Te2-  Te201  1  0.41975662  0.57968548  0.04460296  1
  Te2-  Te202  1  0.91945641  0.07992140  0.04581741  1
  Te2-  Te203  1  0.91976527  0.58172335  0.04585739  1
  Te2-  Te204  1  0.49414641  0.24866164  0.37528181  1
  Te2-  Te205  1  0.49128156  0.74553833  0.37752568  1
  Te2-  Te206  1  0.99518245  0.24782528  0.37803336  1
  Te2-  Te207  1  0.99356053  0.74673042  0.37347912  1
  Te2-  Te208  1  0.25656802  0.00711038  0.37480545  1
  Te2-  Te209  1  0.25326043  0.50666045  0.37895801  1
  Te2-  Te210  1  0.75608508  0.00918767  0.37645783  1
  Te2-  Te211  1  0.75306775  0.50468630  0.37481458  1
  Te2-  Te212  1  0.25506184  0.25157561  0.37634147  1
  Te2-  Te213  1  0.25502373  0.74786606  0.37767293  1
  Te2-  Te214  1  0.75485778  0.24884652  0.37652843  1
  Te2-  Te215  1  0.75535090  0.74763443  0.37372351  1
