# generated using pymatgen
data_Ti(CuTe)4
_symmetry_space_group_name_H-M   'P 1'
_cell_length_a   16.87233669
_cell_length_b   16.87449480
_cell_length_c   20.68976816
_cell_angle_alpha   89.99810853
_cell_angle_beta   90.04290701
_cell_angle_gamma   120.00657330
_symmetry_Int_Tables_number   1
_chemical_formula_structural   Ti(CuTe)4
_chemical_formula_sum   'Ti24 Cu96 Te96'
_cell_volume   5101.09419286
_cell_formula_units_Z   24
loop_
 _symmetry_equiv_pos_site_id
 _symmetry_equiv_pos_as_xyz
  1  'x, y, z'
loop_
 _atom_type_symbol
 _atom_type_oxidation_number
  Ti4+  4.0
  Cu+  1.0
  Te2-  -2.0
loop_
 _atom_site_type_symbol
 _atom_site_label
 _atom_site_symmetry_multiplicity
 _atom_site_fract_x
 _atom_site_fract_y
 _atom_site_fract_z
 _atom_site_occupancy
  Ti4+  Ti0  1  0.00068461  -0.00121242  0.25863728  1
  Ti4+  Ti1  1  0.00162862  0.50176164  0.25471563  1
  Ti4+  Ti2  1  0.50192845  0.00128192  0.25948295  1
  Ti4+  Ti3  1  0.49708867  0.49864519  0.25683673  1
  Ti4+  Ti4  1  0.33228510  0.16628985  0.59180030  1
  Ti4+  Ti5  1  0.32832258  0.66454769  0.59193877  1
  Ti4+  Ti6  1  0.83000270  0.16577126  0.59168307  1
  Ti4+  Ti7  1  0.83206210  0.66454852  0.58839826  1
  Ti4+  Ti8  1  0.16684076  0.33005935  0.92394840  1
  Ti4+  Ti9  1  0.17088917  0.83597327  0.92671807  1
  Ti4+  Ti10  1  0.66767669  0.33478886  0.92854553  1
  Ti4+  Ti11  1  0.66631761  0.83489944  0.92132766  1
  Ti4+  Ti12  1  0.00138245  0.00272165  0.75549982  1
  Ti4+  Ti13  1  -0.00180659  0.49979583  0.75861484  1
  Ti4+  Ti14  1  0.49782405  -0.00377324  0.75621510  1
  Ti4+  Ti15  1  0.50083413  0.49992608  0.75576466  1
  Ti4+  Ti16  1  0.33545771  0.16704677  0.09000571  1
  Ti4+  Ti17  1  0.33290699  0.66501072  0.08896774  1
  Ti4+  Ti18  1  0.83340119  0.16787020  0.08873305  1
  Ti4+  Ti19  1  0.83669087  0.66919322  0.08746173  1
  Ti4+  Ti20  1  0.16731896  0.33387709  0.42305418  1
  Ti4+  Ti21  1  0.16604940  0.83258839  0.42308472  1
  Ti4+  Ti22  1  0.66713875  0.33346895  0.42214862  1
  Ti4+  Ti23  1  0.66780427  0.83428044  0.42096630  1
  Cu+  Cu24  1  0.07058227  0.64314276  0.47329724  1
  Cu+  Cu25  1  0.56986380  0.14405542  0.47609528  1
  Cu+  Cu26  1  0.24808013  0.76178763  0.14558593  1
  Cu+  Cu27  1  0.90590772  0.09806629  0.80538852  1
  Cu+  Cu28  1  0.07104697  0.92735438  0.47563884  1
  Cu+  Cu29  1  0.19143020  0.09514483  0.80794854  1
  Cu+  Cu30  1  0.73746491  0.25600921  0.14349304  1
  Cu+  Cu31  1  0.01983005  0.76413343  0.14268837  1
  Cu+  Cu32  1  0.40138815  0.80475895  0.80698558  1
  Cu+  Cu33  1  0.23498609  0.47254841  0.13736153  1
  Cu+  Cu34  1  0.56861492  0.42574419  0.47264777  1
  Cu+  Cu35  1  0.74096248  0.48858639  0.14483562  1
  Cu+  Cu36  1  0.16625688  0.08209388  0.17198065  1
  Cu+  Cu37  1  0.16522842  0.58071459  0.16778731  1
  Cu+  Cu38  1  0.66528789  0.08442963  0.17264106  1
  Cu+  Cu39  1  0.66161259  0.58162305  0.16985940  1
  Cu+  Cu40  1  0.41747947  0.33647517  0.17040313  1
  Cu+  Cu41  1  0.41970362  0.83843733  0.17208203  1
  Cu+  Cu42  1  0.91541144  0.33618846  0.16699672  1
  Cu+  Cu43  1  0.92318855  0.83978640  0.17000616  1
  Cu+  Cu44  1  0.42079590  0.08361094  0.17213738  1
  Cu+  Cu45  1  0.41056328  0.57469703  0.16935143  1
  Cu+  Cu46  1  0.91801850  0.08069837  0.17173721  1
  Cu+  Cu47  1  0.92072142  0.58510767  0.16606390  1
  Cu+  Cu48  1  0.49838980  0.24936016  0.50453606  1
  Cu+  Cu49  1  0.49794501  0.75164771  0.50566673  1
  Cu+  Cu50  1  0.99762983  0.25069151  0.50627500  1
  Cu+  Cu51  1  0.99668929  0.74683822  0.50218646  1
  Cu+  Cu52  1  0.24686781  0.00291313  0.50482532  1
  Cu+  Cu53  1  0.24849839  0.50290808  0.50483198  1
  Cu+  Cu54  1  0.75119480  0.00377146  0.50433804  1
  Cu+  Cu55  1  0.74757923  0.50319406  0.50085164  1
  Cu+  Cu56  1  0.24940961  0.24705199  0.50520129  1
  Cu+  Cu57  1  0.24626787  0.74178818  0.50469475  1
  Cu+  Cu58  1  0.74701874  0.24290801  0.50366173  1
  Cu+  Cu59  1  0.74935280  0.74560965  0.50066971  1
  Cu+  Cu60  1  0.33219720  0.41500191  0.83806902  1
  Cu+  Cu61  1  0.33200154  0.91049787  0.83808941  1
  Cu+  Cu62  1  0.83039913  0.41584225  0.84292779  1
  Cu+  Cu63  1  0.83084643  0.92223784  0.83523208  1
  Cu+  Cu64  1  0.08659704  0.16986658  0.83569137  1
  Cu+  Cu65  1  0.08465676  0.67032124  0.84139408  1
  Cu+  Cu66  1  0.58643637  0.16960020  0.84131311  1
  Cu+  Cu67  1  0.58695925  0.67091182  0.83574666  1
  Cu+  Cu68  1  0.08448543  0.41547089  0.83941332  1
  Cu+  Cu69  1  0.09091339  0.92115074  0.83922119  1
  Cu+  Cu70  1  0.58713113  0.41718978  0.84118157  1
  Cu+  Cu71  1  0.57959779  0.90926775  0.83457910  1
  Cu+  Cu72  1  0.16904748  0.08362103  0.68061603  1
  Cu+  Cu73  1  0.16326387  0.58330129  0.67685589  1
  Cu+  Cu74  1  0.66473898  0.08228583  0.67572017  1
  Cu+  Cu75  1  0.66771360  0.58169492  0.67374379  1
  Cu+  Cu76  1  0.41809120  0.33236487  0.67649933  1
  Cu+  Cu77  1  0.41015366  0.82605285  0.67821633  1
  Cu+  Cu78  1  0.91222334  0.33101902  0.67530471  1
  Cu+  Cu79  1  0.91631653  0.83048725  0.67268517  1
  Cu+  Cu80  1  0.41584433  0.08299525  0.67663465  1
  Cu+  Cu81  1  0.41470255  0.58356966  0.67395744  1
  Cu+  Cu82  1  0.91361441  0.08644223  0.67759095  1
  Cu+  Cu83  1  0.91449258  0.58285952  0.67394682  1
  Cu+  Cu84  1  0.00104923  0.24747331  0.00771772  1
  Cu+  Cu85  1  0.00722243  0.75700376  0.01351441  1
  Cu+  Cu86  1  0.50249785  0.25180270  0.00936803  1
  Cu+  Cu87  1  0.50312983  0.75098181  0.00654514  1
  Cu+  Cu88  1  0.24837160  0.49258784  0.01044577  1
  Cu+  Cu89  1  0.25467509  1.00157104  0.00943117  1
  Cu+  Cu90  1  0.75080058  0.49917151  0.01484121  1
  Cu+  Cu91  1  0.74794379  0.99844451  0.00524454  1
  Cu+  Cu92  1  0.24990767  0.24768136  0.00842753  1
  Cu+  Cu93  1  0.25134226  0.75118872  0.01530041  1
  Cu+  Cu94  1  0.74920630  0.25373433  0.01454415  1
  Cu+  Cu95  1  0.75091548  0.75529459  0.00387315  1
  Cu+  Cu96  1  0.33279279  0.41649342  0.34238819  1
  Cu+  Cu97  1  0.33656770  0.91836420  0.34408258  1
  Cu+  Cu98  1  0.83563973  0.41816735  0.34154195  1
  Cu+  Cu99  1  0.83624990  0.91731131  0.34059740  1
  Cu+  Cu100  1  0.08345185  0.16492949  0.34127028  1
  Cu+  Cu101  1  0.08607859  0.66617573  0.34597791  1
  Cu+  Cu102  1  0.58547478  0.16465165  0.34842431  1
  Cu+  Cu103  1  0.58068279  0.66467694  0.33843716  1
  Cu+  Cu104  1  0.08443520  0.41779904  0.34018651  1
  Cu+  Cu105  1  0.08321755  0.91911309  0.34709838  1
  Cu+  Cu106  1  0.58337260  0.42018728  0.34512021  1
  Cu+  Cu107  1  0.58541587  0.92040515  0.34103199  1
  Cu+  Cu108  1  0.00287095  0.00639541  0.11462373  1
  Cu+  Cu109  1  0.00111875  0.49943752  0.10887053  1
  Cu+  Cu110  1  0.50226292  -0.00076792  0.11526584  1
  Cu+  Cu111  1  0.50138513  0.50246471  0.11199069  1
  Cu+  Cu112  1  0.33462928  0.16805088  0.44799968  1
  Cu+  Cu113  1  0.33860860  0.66511048  0.44891187  1
  Cu+  Cu114  1  0.83840390  0.16811328  0.44844172  1
  Cu+  Cu115  1  0.83341687  0.66788196  0.44233021  1
  Cu+  Cu116  1  0.16905925  0.33839962  0.78058859  1
  Cu+  Cu117  1  0.16428233  0.83215664  0.78338250  1
  Cu+  Cu118  1  0.66600044  0.33232833  0.78657617  1
  Cu+  Cu119  1  0.66887276  0.83198796  0.77640002  1
  Te2-  Te120  1  -0.00078009  0.00164990  0.38910713  1
  Te2-  Te121  1  0.00043929  0.49838632  0.38472479  1
  Te2-  Te122  1  0.50038424  -0.00206916  0.38999675  1
  Te2-  Te123  1  0.49777515  0.50156691  0.38707007  1
  Te2-  Te124  1  0.33635476  0.16780875  0.72187791  1
  Te2-  Te125  1  0.32784281  0.65993798  0.72227896  1
  Te2-  Te126  1  0.82868818  0.16738486  0.72204040  1
  Te2-  Te127  1  0.83276625  0.66633197  0.71715498  1
  Te2-  Te128  1  0.16448496  0.32650991  0.05425007  1
  Te2-  Te129  1  0.17262059  0.83831726  0.05899057  1
  Te2-  Te130  1  0.66463202  0.33428094  0.06082085  1
  Te2-  Te131  1  0.66729651  0.83467366  0.05058417  1
  Te2-  Te132  1  0.49728143  0.24874703  0.88401387  1
  Te2-  Te133  1  0.49151946  0.74179343  0.88126866  1
  Te2-  Te134  1  0.99383947  0.24683313  0.88208831  1
  Te2-  Te135  1  1.00037483  0.75413765  0.88604950  1
  Te2-  Te136  1  0.26102414  0.00784108  0.88347636  1
  Te2-  Te137  1  0.25199926  0.50148930  0.88369959  1
  Te2-  Te138  1  0.74800139  0.00831370  0.87957896  1
  Te2-  Te139  1  0.75349203  0.50617838  0.88751986  1
  Te2-  Te140  1  0.25671068  0.24691120  0.88246854  1
  Te2-  Te141  1  0.25185463  0.74368721  0.88722829  1
  Te2-  Te142  1  0.75275327  0.24837655  0.88743104  1
  Te2-  Te143  1  0.75552961  0.75328327  0.87822512  1
  Te2-  Te144  1  0.32254950  0.40784969  0.21648790  1
  Te2-  Te145  1  0.32834478  0.91706082  0.21829794  1
  Te2-  Te146  1  0.82630265  0.41521505  0.21530057  1
  Te2-  Te147  1  0.82964006  0.91283492  0.21497214  1
  Te2-  Te148  1  0.08584407  0.16971355  0.21546235  1
  Te2-  Te149  1  0.09003491  0.67651197  0.21691637  1
  Te2-  Te150  1  0.58649062  0.17503612  0.22069778  1
  Te2-  Te151  1  0.58003715  0.66837253  0.21250507  1
  Te2-  Te152  1  0.08312363  0.41071133  0.21400861  1
  Te2-  Te153  1  0.09147162  0.91563824  0.21924663  1
  Te2-  Te154  1  0.58409388  0.41188122  0.21764843  1
  Te2-  Te155  1  0.58718768  0.91639892  0.21543663  1
  Te2-  Te156  1  0.15794550  0.08115874  0.55316285  1
  Te2-  Te157  1  0.15367915  0.57430649  0.55094772  1
  Te2-  Te158  1  0.65587194  0.07510577  0.55010984  1
  Te2-  Te159  1  0.65760503  0.57995535  0.54798380  1
  Te2-  Te160  1  0.41766551  0.33894239  0.55013396  1
  Te2-  Te161  1  0.41355967  0.83567725  0.55087168  1
  Te2-  Te162  1  0.91451088  0.33670839  0.54928440  1
  Te2-  Te163  1  0.91666316  0.83765162  0.54682466  1
  Te2-  Te164  1  0.41589948  0.07769475  0.55011098  1
  Te2-  Te165  1  0.41662690  0.58241485  0.54803850  1
  Te2-  Te166  1  0.91799626  0.08246484  0.55046954  1
  Te2-  Te167  1  0.91586194  0.57542424  0.54733018  1
  Te2-  Te168  1  0.00005333  0.00062893  0.88281050  1
  Te2-  Te169  1  0.00075804  0.50048059  0.88496480  1
  Te2-  Te170  1  0.50168383  -0.00045021  0.88312614  1
  Te2-  Te171  1  0.50200511  0.50224403  0.88208402  1
  Te2-  Te172  1  0.33498501  0.16761757  0.21644546  1
  Te2-  Te173  1  0.33425435  0.66762541  0.21655501  1
  Te2-  Te174  1  0.83589532  0.16769045  0.21593910  1
  Te2-  Te175  1  0.83297721  0.66756046  0.21512537  1
  Te2-  Te176  1  0.16648146  0.33419619  0.54946542  1
  Te2-  Te177  1  0.16559607  0.83214100  0.55024255  1
  Te2-  Te178  1  0.66835728  0.33398260  0.54937584  1
  Te2-  Te179  1  0.66765870  0.83312988  0.54725128  1
  Te2-  Te180  1  0.32843939  0.41358219  0.71124439  1
  Te2-  Te181  1  0.32450259  0.91255485  0.71139861  1
  Te2-  Te182  1  0.82626678  0.41402773  0.71511095  1
  Te2-  Te183  1  0.82940307  0.91373347  0.70823546  1
  Te2-  Te184  1  0.08688995  0.17581236  0.70864199  1
  Te2-  Te185  1  0.08311128  0.67189399  0.71428948  1
  Te2-  Te186  1  0.58461354  0.17032388  0.71439559  1
  Te2-  Te187  1  0.58561449  0.67070283  0.70904855  1
  Te2-  Te188  1  0.08244988  0.41278109  0.71263561  1
  Te2-  Te189  1  0.08441733  0.91172977  0.71185784  1
  Te2-  Te190  1  0.58753686  0.41337423  0.71371486  1
  Te2-  Te191  1  0.58421223  0.91100164  0.70817306  1
  Te2-  Te192  1  0.16256728  0.07888705  0.04537141  1
  Te2-  Te193  1  0.16009902  0.57727063  0.04068728  1
  Te2-  Te194  1  0.66054605  0.08017169  0.04461166  1
  Te2-  Te195  1  0.66365890  0.58574005  0.04246474  1
  Te2-  Te196  1  0.41986850  0.33938058  0.04461912  1
  Te2-  Te197  1  0.42328161  0.83936435  0.04480968  1
  Te2-  Te198  1  0.92303470  0.34017106  0.04099086  1
  Te2-  Te199  1  0.92000590  0.84251227  0.04316451  1
  Te2-  Te200  1  0.42388519  0.08223319  0.04618831  1
  Te2-  Te201  1  0.42050932  0.58077126  0.04247965  1
  Te2-  Te202  1  0.91676856  0.07895621  0.04463128  1
  Te2-  Te203  1  0.92472590  0.58312961  0.03988339  1
  Te2-  Te204  1  0.49365684  0.24717505  0.37652924  1
  Te2-  Te205  1  0.49591087  0.74943773  0.37736716  1
  Te2-  Te206  1  0.99615343  0.24806327  0.37803645  1
  Te2-  Te207  1  0.99323696  0.74604589  0.37444138  1
  Te2-  Te208  1  0.25522506  0.00678223  0.37863419  1
  Te2-  Te209  1  0.25284822  0.50643736  0.37807820  1
  Te2-  Te210  1  0.75536153  0.00704865  0.37753436  1
  Te2-  Te211  1  0.75523785  0.50698321  0.37499475  1
  Te2-  Te212  1  0.25272266  0.24663981  0.37900362  1
  Te2-  Te213  1  0.25681454  0.74889479  0.37854461  1
  Te2-  Te214  1  0.75760024  0.24949933  0.37738342  1
  Te2-  Te215  1  0.75118557  0.74624738  0.37451684  1
