# generated using pymatgen
data_Ti(CuTe)4
_symmetry_space_group_name_H-M   'P 1'
_cell_length_a   16.87246726
_cell_length_b   16.86508984
_cell_length_c   20.68119426
_cell_angle_alpha   89.93114248
_cell_angle_beta   89.97768346
_cell_angle_gamma   120.01034604
_symmetry_Int_Tables_number   1
_chemical_formula_structural   Ti(CuTe)4
_chemical_formula_sum   'Ti24 Cu96 Te96'
_cell_volume   5095.97882452
_cell_formula_units_Z   24
loop_
 _symmetry_equiv_pos_site_id
 _symmetry_equiv_pos_as_xyz
  1  'x, y, z'
loop_
 _atom_type_symbol
 _atom_type_oxidation_number
  Ti4+  4.0
  Cu+  1.0
  Te2-  -2.0
loop_
 _atom_site_type_symbol
 _atom_site_label
 _atom_site_symmetry_multiplicity
 _atom_site_fract_x
 _atom_site_fract_y
 _atom_site_fract_z
 _atom_site_occupancy
  Ti4+  Ti0  1  0.00192764  0.00006541  0.25870109  1
  Ti4+  Ti1  1  0.00083504  0.50231467  0.25734846  1
  Ti4+  Ti2  1  0.50349931  0.00186688  0.25693582  1
  Ti4+  Ti3  1  0.50144118  0.50218992  0.25588465  1
  Ti4+  Ti4  1  0.32941972  0.16449137  0.59271500  1
  Ti4+  Ti5  1  0.33283724  0.66869188  0.59162483  1
  Ti4+  Ti6  1  0.83009191  0.16743075  0.59089687  1
  Ti4+  Ti7  1  0.83373338  0.66601016  0.59225152  1
  Ti4+  Ti8  1  0.16712162  0.33480890  0.92226472  1
  Ti4+  Ti9  1  0.16823894  0.83329205  0.92701897  1
  Ti4+  Ti10  1  0.66470237  0.33090420  0.92464266  1
  Ti4+  Ti11  1  0.67079276  0.83414159  0.92314038  1
  Ti4+  Ti12  1  -0.00381702  -0.00246369  0.75524414  1
  Ti4+  Ti13  1  0.00150439  0.49919697  0.75748308  1
  Ti4+  Ti14  1  0.49783980  -0.00007564  0.75787905  1
  Ti4+  Ti15  1  0.50023275  0.49915652  0.75415372  1
  Ti4+  Ti16  1  0.33289313  0.16506936  0.08777602  1
  Ti4+  Ti17  1  0.33552051  0.66697714  0.08769395  1
  Ti4+  Ti18  1  0.83148125  0.16588634  0.08940784  1
  Ti4+  Ti19  1  0.83422795  0.66476425  0.08845013  1
  Ti4+  Ti20  1  0.16690295  0.33305010  0.42056499  1
  Ti4+  Ti21  1  0.16512259  0.83356466  0.42328803  1
  Ti4+  Ti22  1  0.66876644  0.33262404  0.42459911  1
  Ti4+  Ti23  1  0.66377181  0.83321264  0.42335756  1
  Cu+  Cu24  1  0.52885710  0.76567804  0.13683130  1
  Cu+  Cu25  1  0.56767214  0.93020038  0.47429132  1
  Cu+  Cu26  1  0.24965663  0.76247782  0.14424968  1
  Cu+  Cu27  1  0.51749193  0.26364195  0.14100745  1
  Cu+  Cu28  1  0.85929885  0.43040043  0.47484689  1
  Cu+  Cu29  1  0.68782843  0.09463575  0.80732957  1
  Cu+  Cu30  1  0.01782204  0.76205911  0.14369919  1
  Cu+  Cu31  1  0.06959181  0.92842378  0.47554544  1
  Cu+  Cu32  1  0.40372743  0.09507521  0.80830593  1
  Cu+  Cu33  1  0.19484972  0.59971159  0.80805439  1
  Cu+  Cu34  1  0.74472049  0.26311420  0.14342567  1
  Cu+  Cu35  1  0.69030533  0.59312571  0.80714908  1
  Cu+  Cu36  1  0.16226306  0.08005931  0.17065250  1
  Cu+  Cu37  1  0.16348135  0.58507597  0.16816243  1
  Cu+  Cu38  1  0.66451442  0.08527275  0.16966998  1
  Cu+  Cu39  1  0.66080714  0.58056135  0.16905026  1
  Cu+  Cu40  1  0.41857581  0.33616220  0.16972407  1
  Cu+  Cu41  1  0.42376418  0.83654585  0.17044887  1
  Cu+  Cu42  1  0.91563068  0.33645264  0.17155371  1
  Cu+  Cu43  1  0.92037821  0.83551054  0.17220070  1
  Cu+  Cu44  1  0.42250566  0.08642215  0.16803556  1
  Cu+  Cu45  1  0.42544248  0.58859267  0.16804913  1
  Cu+  Cu46  1  0.91986564  0.08250907  0.17253775  1
  Cu+  Cu47  1  0.92175537  0.58494154  0.16919458  1
  Cu+  Cu48  1  0.49510092  0.24452472  0.50805965  1
  Cu+  Cu49  1  0.49569335  0.75486948  0.50451113  1
  Cu+  Cu50  1  0.99664844  0.24915182  0.50267907  1
  Cu+  Cu51  1  0.99555654  0.75180957  0.50434774  1
  Cu+  Cu52  1  0.24607428  0.00196257  0.50597222  1
  Cu+  Cu53  1  0.24863330  0.50209557  0.50485934  1
  Cu+  Cu54  1  0.74212839  0.00073658  0.50525508  1
  Cu+  Cu55  1  0.75476459  0.50048298  0.50725664  1
  Cu+  Cu56  1  0.25047993  0.24721507  0.50332862  1
  Cu+  Cu57  1  0.25007525  0.74656096  0.50547154  1
  Cu+  Cu58  1  0.75515788  0.25185525  0.50438165  1
  Cu+  Cu59  1  0.74798309  0.74523043  0.50618906  1
  Cu+  Cu60  1  0.32654784  0.41279905  0.83490528  1
  Cu+  Cu61  1  0.32936976  0.91847706  0.83928411  1
  Cu+  Cu62  1  0.82903895  0.41098469  0.83857230  1
  Cu+  Cu63  1  0.82804652  0.91300092  0.83563769  1
  Cu+  Cu64  1  0.08209577  0.16811017  0.83723552  1
  Cu+  Cu65  1  0.08844896  0.66659916  0.84204838  1
  Cu+  Cu66  1  0.58244696  0.16698315  0.83892718  1
  Cu+  Cu67  1  0.58893871  0.66749660  0.83688763  1
  Cu+  Cu68  1  0.09073011  0.42070696  0.83678035  1
  Cu+  Cu69  1  0.08099269  0.91286681  0.83982348  1
  Cu+  Cu70  1  0.58585030  0.41713572  0.83643131  1
  Cu+  Cu71  1  0.58988799  0.91937591  0.83815917  1
  Cu+  Cu72  1  0.16449159  0.08066209  0.67639326  1
  Cu+  Cu73  1  0.17214584  0.58585834  0.67941757  1
  Cu+  Cu74  1  0.66643722  0.08496608  0.67884775  1
  Cu+  Cu75  1  0.67119794  0.58283129  0.67846292  1
  Cu+  Cu76  1  0.41322007  0.32930794  0.67421419  1
  Cu+  Cu77  1  0.41434291  0.83223598  0.67613372  1
  Cu+  Cu78  1  0.91494397  0.33216475  0.67569184  1
  Cu+  Cu79  1  0.91367439  0.83074825  0.67617020  1
  Cu+  Cu80  1  0.40844645  0.08202641  0.68011809  1
  Cu+  Cu81  1  0.41524488  0.58429891  0.67227847  1
  Cu+  Cu82  1  0.90942205  0.08152606  0.67325786  1
  Cu+  Cu83  1  0.91656807  0.58267518  0.67691251  1
  Cu+  Cu84  1  0.00321742  0.25236118  0.00494979  1
  Cu+  Cu85  1  0.00460515  0.74761824  0.01451178  1
  Cu+  Cu86  1  0.49987305  0.24776082  0.01188318  1
  Cu+  Cu87  1  0.50877175  0.75177604  0.00818164  1
  Cu+  Cu88  1  0.24897223  0.49598555  0.00653424  1
  Cu+  Cu89  1  0.24763951  0.99804460  0.00972450  1
  Cu+  Cu90  1  0.74817749  0.49785683  0.00847275  1
  Cu+  Cu91  1  0.75103689  0.99886506  0.00806695  1
  Cu+  Cu92  1  0.24468347  0.24858732  0.00529064  1
  Cu+  Cu93  1  0.25060007  0.75007240  0.01436312  1
  Cu+  Cu94  1  0.74480506  0.24651904  0.01438980  1
  Cu+  Cu95  1  0.75133977  0.74817706  0.00798052  1
  Cu+  Cu96  1  0.33660938  0.41891895  0.33765653  1
  Cu+  Cu97  1  0.33443358  0.91574024  0.34263719  1
  Cu+  Cu98  1  0.83662316  0.41778508  0.34668573  1
  Cu+  Cu99  1  0.83569572  0.91584751  0.34210136  1
  Cu+  Cu100  1  0.08436014  0.16484148  0.34109391  1
  Cu+  Cu101  1  0.08378110  0.66735750  0.34403366  1
  Cu+  Cu102  1  0.58521791  0.16774738  0.34437266  1
  Cu+  Cu103  1  0.58123023  0.66481280  0.34115764  1
  Cu+  Cu104  1  0.08229613  0.41756182  0.33877005  1
  Cu+  Cu105  1  0.08187414  0.91768469  0.34711609  1
  Cu+  Cu106  1  0.58057205  0.41580053  0.34217920  1
  Cu+  Cu107  1  0.58148737  0.91747558  0.34517218  1
  Cu+  Cu108  1  -0.00377903  -0.00027758  0.11484133  1
  Cu+  Cu109  1  0.00133161  0.49631831  0.11248358  1
  Cu+  Cu110  1  0.49771421  -0.00180971  0.11200794  1
  Cu+  Cu111  1  0.49553247  0.49660705  0.11076179  1
  Cu+  Cu112  1  0.33562552  0.16816310  0.44898841  1
  Cu+  Cu113  1  0.33290324  0.66218748  0.44824467  1
  Cu+  Cu114  1  0.83633887  0.16300527  0.44693358  1
  Cu+  Cu115  1  0.82902651  0.66395194  0.44911431  1
  Cu+  Cu116  1  0.16245132  0.32810576  0.77821133  1
  Cu+  Cu117  1  0.16005783  0.82997590  0.78516120  1
  Cu+  Cu118  1  0.66591957  0.33269139  0.78079564  1
  Cu+  Cu119  1  0.66061146  0.82931359  0.77943791  1
  Te2-  Te120  1  -0.00106699  0.00165003  0.38914386  1
  Te2-  Te121  1  0.00390299  0.50205280  0.38748077  1
  Te2-  Te122  1  0.49923491  0.00203419  0.38680500  1
  Te2-  Te123  1  0.49963872  0.49998690  0.38499120  1
  Te2-  Te124  1  0.32762116  0.16698882  0.72354033  1
  Te2-  Te125  1  0.33839995  0.66908869  0.72230583  1
  Te2-  Te126  1  0.83291835  0.16788372  0.72127850  1
  Te2-  Te127  1  0.83690994  0.66692967  0.72277108  1
  Te2-  Te128  1  0.16585296  0.33266668  0.05178456  1
  Te2-  Te129  1  0.17030433  0.83517371  0.05917545  1
  Te2-  Te130  1  0.66594784  0.33405214  0.05662787  1
  Te2-  Te131  1  0.67389709  0.83493863  0.05367083  1
  Te2-  Te132  1  0.49280004  0.24892908  0.88396092  1
  Te2-  Te133  1  0.50119714  0.74940926  0.88066300  1
  Te2-  Te134  1  0.99628986  0.25101882  0.87933038  1
  Te2-  Te135  1  0.99840375  0.74551806  0.88647879  1
  Te2-  Te136  1  0.24852302  0.00617613  0.88434759  1
  Te2-  Te137  1  0.25911334  0.50999361  0.88138092  1
  Te2-  Te138  1  0.75891035  0.00895926  0.88250521  1
  Te2-  Te139  1  0.75461308  0.50366040  0.88300072  1
  Te2-  Te140  1  0.25025547  0.24624716  0.87971242  1
  Te2-  Te141  1  0.25933126  0.75141332  0.88648720  1
  Te2-  Te142  1  0.75246679  0.24532619  0.88616232  1
  Te2-  Te143  1  0.75836740  0.74749123  0.88227942  1
  Te2-  Te144  1  0.33172232  0.41872296  0.21137891  1
  Te2-  Te145  1  0.33162636  0.91817865  0.21581223  1
  Te2-  Te146  1  0.82718121  0.41845467  0.21843361  1
  Te2-  Te147  1  0.83106489  0.91411343  0.21593174  1
  Te2-  Te148  1  0.08757286  0.17153669  0.21560769  1
  Te2-  Te149  1  0.09022528  0.67896257  0.21751817  1
  Te2-  Te150  1  0.58956546  0.17827724  0.21766243  1
  Te2-  Te151  1  0.59231072  0.67749093  0.21541043  1
  Te2-  Te152  1  0.08466921  0.41701938  0.21293370  1
  Te2-  Te153  1  0.09101800  0.91522336  0.21934140  1
  Te2-  Te154  1  0.58897348  0.41527986  0.21626522  1
  Te2-  Te155  1  0.59246092  0.91787843  0.21719873  1
  Te2-  Te156  1  0.15595785  0.08130193  0.55051057  1
  Te2-  Te157  1  0.16088264  0.58086821  0.55204479  1
  Te2-  Te158  1  0.65641984  0.08431125  0.55113716  1
  Te2-  Te159  1  0.66334736  0.57806090  0.55092340  1
  Te2-  Te160  1  0.41694927  0.33544269  0.54865913  1
  Te2-  Te161  1  0.41588767  0.84349850  0.55070330  1
  Te2-  Te162  1  0.92334146  0.34166598  0.54991263  1
  Te2-  Te163  1  0.91514588  0.83986926  0.55052438  1
  Te2-  Te164  1  0.41345227  0.07694077  0.55262710  1
  Te2-  Te165  1  0.41832299  0.58474030  0.54638002  1
  Te2-  Te166  1  0.91230555  0.08054218  0.54697993  1
  Te2-  Te167  1  0.92529345  0.58413623  0.55078395  1
  Te2-  Te168  1  -0.00270982  -0.00085605  0.88189394  1
  Te2-  Te169  1  -0.00157559  0.49620480  0.88448769  1
  Te2-  Te170  1  0.49935626  -0.00260811  0.88542718  1
  Te2-  Te171  1  0.49666462  0.49763108  0.88111056  1
  Te2-  Te172  1  0.33295462  0.16639490  0.21492391  1
  Te2-  Te173  1  0.33275227  0.66548566  0.21533642  1
  Te2-  Te174  1  0.83457220  0.16668188  0.21664747  1
  Te2-  Te175  1  0.83111331  0.66467047  0.21540814  1
  Te2-  Te176  1  0.16561359  0.33226286  0.54721780  1
  Te2-  Te177  1  0.16476161  0.83172310  0.55005223  1
  Te2-  Te178  1  0.66473110  0.33058280  0.55154990  1
  Te2-  Te179  1  0.66398640  0.83134511  0.55038949  1
  Te2-  Te180  1  0.32766434  0.41428156  0.70907175  1
  Te2-  Te181  1  0.32396185  0.91061299  0.71344150  1
  Te2-  Te182  1  0.82787112  0.41341908  0.71307371  1
  Te2-  Te183  1  0.82343311  0.91155427  0.71020319  1
  Te2-  Te184  1  0.08064592  0.16862983  0.70967732  1
  Te2-  Te185  1  0.08649802  0.67220237  0.71382514  1
  Te2-  Te186  1  0.58198970  0.17261834  0.71089944  1
  Te2-  Te187  1  0.58561650  0.67123247  0.70855874  1
  Te2-  Te188  1  0.08589548  0.41235118  0.70953684  1
  Te2-  Te189  1  0.08341304  0.91123476  0.71288712  1
  Te2-  Te190  1  0.58382259  0.40981276  0.70937515  1
  Te2-  Te191  1  0.58392359  0.91342631  0.71080878  1
  Te2-  Te192  1  0.15946436  0.07975884  0.04482903  1
  Te2-  Te193  1  0.16141676  0.57775731  0.04206269  1
  Te2-  Te194  1  0.65768802  0.07466794  0.04363534  1
  Te2-  Te195  1  0.66060069  0.57923677  0.04397907  1
  Te2-  Te196  1  0.41559485  0.33685902  0.04151869  1
  Te2-  Te197  1  0.42472134  0.84026056  0.04156217  1
  Te2-  Te198  1  0.91891175  0.33774852  0.04299460  1
  Te2-  Te199  1  0.92141769  0.83826149  0.04421022  1
  Te2-  Te200  1  0.41793487  0.07592589  0.04179916  1
  Te2-  Te201  1  0.41988914  0.57972010  0.04094363  1
  Te2-  Te202  1  0.92066550  0.08328307  0.04513993  1
  Te2-  Te203  1  0.91836581  0.57490492  0.04322884  1
  Te2-  Te204  1  0.49583493  0.24732914  0.38074926  1
  Te2-  Te205  1  0.49175084  0.74536887  0.37675711  1
  Te2-  Te206  1  0.99515066  0.24725626  0.37552809  1
  Te2-  Te207  1  0.99151477  0.74505068  0.37795228  1
  Te2-  Te208  1  0.25497390  0.00648492  0.37842278  1
  Te2-  Te209  1  0.25221088  0.50465381  0.37644591  1
  Te2-  Te210  1  0.75396642  0.00497061  0.37702971  1
  Te2-  Te211  1  0.75075434  0.50464931  0.37932906  1
  Te2-  Te212  1  0.25478646  0.24855914  0.37665819  1
  Te2-  Te213  1  0.25294155  0.74723087  0.37975542  1
  Te2-  Te214  1  0.75484524  0.24530699  0.37805483  1
  Te2-  Te215  1  0.75032455  0.74670587  0.37984503  1
