# generated using pymatgen
data_Ti(CuTe)4
_symmetry_space_group_name_H-M   'P 1'
_cell_length_a   16.86641418
_cell_length_b   16.86685837
_cell_length_c   20.68103740
_cell_angle_alpha   90.02348210
_cell_angle_beta   89.98911267
_cell_angle_gamma   119.99871751
_symmetry_Int_Tables_number   1
_chemical_formula_structural   Ti(CuTe)4
_chemical_formula_sum   'Ti24 Cu96 Te96'
_cell_volume   5095.24987081
_cell_formula_units_Z   24
loop_
 _symmetry_equiv_pos_site_id
 _symmetry_equiv_pos_as_xyz
  1  'x, y, z'
loop_
 _atom_type_symbol
 _atom_type_oxidation_number
  Ti4+  4.0
  Cu+  1.0
  Te2-  -2.0
loop_
 _atom_site_type_symbol
 _atom_site_label
 _atom_site_symmetry_multiplicity
 _atom_site_fract_x
 _atom_site_fract_y
 _atom_site_fract_z
 _atom_site_occupancy
  Ti4+  Ti0  1  0.00277040  0.00484496  0.25700386  1
  Ti4+  Ti1  1  0.00294908  0.50348077  0.25500318  1
  Ti4+  Ti2  1  0.50179213  0.00499440  0.25863912  1
  Ti4+  Ti3  1  0.50172186  0.50302777  0.26106984  1
  Ti4+  Ti4  1  0.33421540  0.16618286  0.59270846  1
  Ti4+  Ti5  1  0.32918805  0.66490723  0.59182512  1
  Ti4+  Ti6  1  0.83174545  0.16424385  0.59037214  1
  Ti4+  Ti7  1  0.83238517  0.66672623  0.58688974  1
  Ti4+  Ti8  1  0.16744239  0.32925750  0.92569098  1
  Ti4+  Ti9  1  0.16656345  0.82961816  0.92690048  1
  Ti4+  Ti10  1  0.66493035  0.32955717  0.92471794  1
  Ti4+  Ti11  1  0.66507107  0.83203124  0.92302872  1
  Ti4+  Ti12  1  -0.00054251  -0.00004956  0.75607359  1
  Ti4+  Ti13  1  -0.00156939  0.50008514  0.75789860  1
  Ti4+  Ti14  1  0.50102734  -0.00177550  0.75548805  1
  Ti4+  Ti15  1  0.49798682  0.49703388  0.75551941  1
  Ti4+  Ti16  1  0.33388794  0.16502719  0.08964085  1
  Ti4+  Ti17  1  0.33247533  0.66623286  0.08921221  1
  Ti4+  Ti18  1  0.83380360  0.16752674  0.08945809  1
  Ti4+  Ti19  1  0.83333239  0.66608890  0.08907310  1
  Ti4+  Ti20  1  0.16839259  0.33665059  0.42248959  1
  Ti4+  Ti21  1  0.16569052  0.83199615  0.42329626  1
  Ti4+  Ti22  1  0.66576651  0.33334281  0.42170429  1
  Ti4+  Ti23  1  0.66985824  0.83726995  0.42044402  1
  Cu+  Cu24  1  0.40299753  0.30520548  0.80784106  1
  Cu+  Cu25  1  0.56964876  0.14255552  0.47645082  1
  Cu+  Cu26  1  0.57302036  0.65580443  0.47804100  1
  Cu+  Cu27  1  0.40506120  0.80818259  0.80659578  1
  Cu+  Cu28  1  0.02431628  0.26407943  0.13941116  1
  Cu+  Cu29  1  0.74038451  0.26487251  0.14071089  1
  Cu+  Cu30  1  0.01751257  0.76581902  0.14301893  1
  Cu+  Cu31  1  0.68964178  0.09348702  0.80714476  1
  Cu+  Cu32  1  0.85883089  0.93062305  0.47084986  1
  Cu+  Cu33  1  0.06913181  0.63939151  0.47284974  1
  Cu+  Cu34  1  0.24729848  0.76546430  0.14341170  1
  Cu+  Cu35  1  0.57003014  0.41872238  0.47668556  1
  Cu+  Cu36  1  0.16486535  0.08493877  0.16940243  1
  Cu+  Cu37  1  0.16487770  0.58754120  0.16736782  1
  Cu+  Cu38  1  0.66394356  0.08944146  0.17158330  1
  Cu+  Cu39  1  0.66206830  0.58286032  0.17433402  1
  Cu+  Cu40  1  0.41949334  0.33580825  0.17404921  1
  Cu+  Cu41  1  0.41753892  0.83800822  0.17265258  1
  Cu+  Cu42  1  0.91929470  0.33668927  0.16886990  1
  Cu+  Cu43  1  0.91899236  0.83866284  0.17216289  1
  Cu+  Cu44  1  0.42157123  0.08545927  0.17113386  1
  Cu+  Cu45  1  0.42095802  0.58445949  0.17369654  1
  Cu+  Cu46  1  0.92451631  0.08842677  0.17065644  1
  Cu+  Cu47  1  0.92373427  0.58849366  0.16744997  1
  Cu+  Cu48  1  0.49569390  0.24515261  0.50510213  1
  Cu+  Cu49  1  0.49406874  0.74905587  0.50470336  1
  Cu+  Cu50  1  0.99829652  0.24956373  0.50358997  1
  Cu+  Cu51  1  0.99573814  0.74245994  0.50107961  1
  Cu+  Cu52  1  0.25056733  0.00264568  0.50690001  1
  Cu+  Cu53  1  0.24960547  0.50462702  0.50363257  1
  Cu+  Cu54  1  0.75704350  0.00563682  0.50155262  1
  Cu+  Cu55  1  0.74828764  0.50396924  0.49955274  1
  Cu+  Cu56  1  0.25040698  0.25003068  0.50570616  1
  Cu+  Cu57  1  0.24408350  0.74315825  0.50577140  1
  Cu+  Cu58  1  0.74593053  0.24311749  0.50329279  1
  Cu+  Cu59  1  0.75361400  0.75223974  0.49853769  1
  Cu+  Cu60  1  0.33019726  0.40717181  0.83820611  1
  Cu+  Cu61  1  0.33009770  0.90762628  0.83899457  1
  Cu+  Cu62  1  0.83012302  0.41370703  0.83927453  1
  Cu+  Cu63  1  0.82878952  0.91197109  0.83673395  1
  Cu+  Cu64  1  0.08496243  0.16862711  0.83885914  1
  Cu+  Cu65  1  0.08389029  0.66869762  0.84068632  1
  Cu+  Cu66  1  0.59042853  0.16995381  0.83616022  1
  Cu+  Cu67  1  0.58430522  0.66911517  0.83673299  1
  Cu+  Cu68  1  0.08312304  0.41351866  0.84143448  1
  Cu+  Cu69  1  0.08232200  0.91348445  0.84046946  1
  Cu+  Cu70  1  0.57781238  0.40909053  0.83776714  1
  Cu+  Cu71  1  0.58401926  0.91344245  0.83511952  1
  Cu+  Cu72  1  0.16809273  0.08494235  0.67638465  1
  Cu+  Cu73  1  0.16387514  0.58403440  0.67784745  1
  Cu+  Cu74  1  0.66869967  0.08329791  0.67773628  1
  Cu+  Cu75  1  0.66689351  0.58508857  0.67321801  1
  Cu+  Cu76  1  0.41582696  0.32871739  0.68053514  1
  Cu+  Cu77  1  0.41163502  0.82715148  0.67760569  1
  Cu+  Cu78  1  0.91294078  0.33057588  0.67413240  1
  Cu+  Cu79  1  0.91658828  0.83264913  0.67144816  1
  Cu+  Cu80  1  0.41762939  0.08377046  0.67753874  1
  Cu+  Cu81  1  0.41442479  0.58302466  0.67614080  1
  Cu+  Cu82  1  0.91626497  0.08313359  0.67527824  1
  Cu+  Cu83  1  0.91527281  0.58433884  0.67397673  1
  Cu+  Cu84  1  0.00534921  0.24927675  0.01186046  1
  Cu+  Cu85  1  0.00164262  0.74932467  0.01389760  1
  Cu+  Cu86  1  0.49999658  0.24736837  0.00830706  1
  Cu+  Cu87  1  0.50165301  0.75020368  0.00752070  1
  Cu+  Cu88  1  0.25104935  0.49496100  0.00790218  1
  Cu+  Cu89  1  0.25030073  0.99611692  0.00870995  1
  Cu+  Cu90  1  0.74488459  0.49583686  0.00787639  1
  Cu+  Cu91  1  0.74645170  0.99547867  0.00696648  1
  Cu+  Cu92  1  0.25097573  0.24826887  0.01023043  1
  Cu+  Cu93  1  0.24802213  0.74792430  0.01410249  1
  Cu+  Cu94  1  0.74677178  0.24913268  0.01284622  1
  Cu+  Cu95  1  0.74553190  0.74846242  0.00699976  1
  Cu+  Cu96  1  0.33675480  0.42102397  0.34235833  1
  Cu+  Cu97  1  0.33617107  0.91976807  0.34378726  1
  Cu+  Cu98  1  0.83678899  0.41854638  0.33890304  1
  Cu+  Cu99  1  0.84103508  0.92578230  0.34232636  1
  Cu+  Cu100  1  0.08574827  0.17049428  0.34161082  1
  Cu+  Cu101  1  0.08440340  0.66645872  0.34624345  1
  Cu+  Cu102  1  0.58314042  0.16616230  0.34755205  1
  Cu+  Cu103  1  0.58299041  0.66691729  0.34724788  1
  Cu+  Cu104  1  0.08583483  0.41982793  0.33942898  1
  Cu+  Cu105  1  0.08456605  0.92012587  0.34206665  1
  Cu+  Cu106  1  0.58273995  0.42087313  0.34751302  1
  Cu+  Cu107  1  0.58445198  0.92223045  0.33973554  1
  Cu+  Cu108  1  -0.00156020  -0.00102164  0.11273247  1
  Cu+  Cu109  1  -0.00175103  0.49835987  0.10972613  1
  Cu+  Cu110  1  0.50158281  -0.00168414  0.11480262  1
  Cu+  Cu111  1  0.49756027  0.49737297  0.11841701  1
  Cu+  Cu112  1  0.32752429  0.16458380  0.44972092  1
  Cu+  Cu113  1  0.33433918  0.66964139  0.44742115  1
  Cu+  Cu114  1  0.83803466  0.17389107  0.44597970  1
  Cu+  Cu115  1  0.83413251  0.66863513  0.44053646  1
  Cu+  Cu116  1  0.16529262  0.33649331  0.78314286  1
  Cu+  Cu117  1  0.16440547  0.83533912  0.78444053  1
  Cu+  Cu118  1  0.66988879  0.34009764  0.78155317  1
  Cu+  Cu119  1  0.66824478  0.83131387  0.77760616  1
  Te2-  Te120  1  0.00644948  0.00625336  0.38746965  1
  Te2-  Te121  1  0.00025487  0.49840209  0.38501110  1
  Te2-  Te122  1  0.49994997  -0.00046094  0.38928916  1
  Te2-  Te123  1  0.49855772  0.50197385  0.39329144  1
  Te2-  Te124  1  0.33174519  0.16184118  0.72299805  1
  Te2-  Te125  1  0.32883360  0.66141124  0.72228501  1
  Te2-  Te126  1  0.83514217  0.16661525  0.72065572  1
  Te2-  Te127  1  0.83239463  0.66764042  0.71539649  1
  Te2-  Te128  1  0.17128857  0.33256577  0.05616548  1
  Te2-  Te129  1  0.16772063  0.83381955  0.05892088  1
  Te2-  Te130  1  0.66365126  0.33263719  0.05517681  1
  Te2-  Te131  1  0.66546030  0.83217675  0.05245420  1
  Te2-  Te132  1  0.49199189  0.23889586  0.88238425  1
  Te2-  Te133  1  0.49133382  0.74304657  0.88172674  1
  Te2-  Te134  1  0.99558774  0.24528998  0.88502159  1
  Te2-  Te135  1  0.99524433  0.74663334  0.88662848  1
  Te2-  Te136  1  0.25254543  -0.00074459  0.88260617  1
  Te2-  Te137  1  0.25368743  0.49952305  0.88184979  1
  Te2-  Te138  1  0.75425759  0.00537851  0.88100739  1
  Te2-  Te139  1  0.74673522  0.49965019  0.88171562  1
  Te2-  Te140  1  0.25134816  0.23897906  0.88456965  1
  Te2-  Te141  1  0.25073746  0.74023326  0.88646193  1
  Te2-  Te142  1  0.75659289  0.24680364  0.88538909  1
  Te2-  Te143  1  0.75046652  0.74526517  0.88156298  1
  Te2-  Te144  1  0.33127971  0.41658178  0.21684139  1
  Te2-  Te145  1  0.32819269  0.91936278  0.21803041  1
  Te2-  Te146  1  0.83074309  0.41986321  0.21303496  1
  Te2-  Te147  1  0.83215996  0.92028608  0.21522348  1
  Te2-  Te148  1  0.09306451  0.17894827  0.21591407  1
  Te2-  Te149  1  0.09051278  0.67976723  0.21801626  1
  Te2-  Te150  1  0.58668632  0.17950742  0.21958735  1
  Te2-  Te151  1  0.58705637  0.67471065  0.21986142  1
  Te2-  Te152  1  0.09106433  0.41937789  0.21345134  1
  Te2-  Te153  1  0.09084239  0.91921188  0.21636206  1
  Te2-  Te154  1  0.58642223  0.41613157  0.22019790  1
  Te2-  Te155  1  0.58644948  0.91976948  0.21414247  1
  Te2-  Te156  1  0.16322905  0.08270719  0.55063470  1
  Te2-  Te157  1  0.15464591  0.57475695  0.55161934  1
  Te2-  Te158  1  0.65825942  0.07379485  0.54990642  1
  Te2-  Te159  1  0.65675197  0.58077094  0.54695388  1
  Te2-  Te160  1  0.41813589  0.33902881  0.55263541  1
  Te2-  Te161  1  0.41317620  0.83530803  0.55024480  1
  Te2-  Te162  1  0.91472448  0.33445427  0.54785752  1
  Te2-  Te163  1  0.92308741  0.83936133  0.54524346  1
  Te2-  Te164  1  0.41803164  0.07609482  0.55161904  1
  Te2-  Te165  1  0.41578431  0.57820846  0.55015821  1
  Te2-  Te166  1  0.92401065  0.08241823  0.54924003  1
  Te2-  Te167  1  0.91444182  0.57442868  0.54771640  1
  Te2-  Te168  1  -0.00244199  -0.00197637  0.88226102  1
  Te2-  Te169  1  -0.00119469  0.49865457  0.88416544  1
  Te2-  Te170  1  0.50066263  -0.00060905  0.88277429  1
  Te2-  Te171  1  0.49984279  0.49970618  0.88239978  1
  Te2-  Te172  1  0.33345215  0.16696532  0.21597592  1
  Te2-  Te173  1  0.33396898  0.66796923  0.21645281  1
  Te2-  Te174  1  0.83418905  0.16820218  0.21683068  1
  Te2-  Te175  1  0.83393036  0.66802829  0.21621349  1
  Te2-  Te176  1  0.16614558  0.33515016  0.54887665  1
  Te2-  Te177  1  0.16354654  0.83250771  0.55019925  1
  Te2-  Te178  1  0.66777654  0.33457074  0.54922039  1
  Te2-  Te179  1  0.66594384  0.83381177  0.54801286  1
  Te2-  Te180  1  0.32506058  0.41195876  0.71064942  1
  Te2-  Te181  1  0.32679252  0.91335688  0.71205241  1
  Te2-  Te182  1  0.82739179  0.41433172  0.71182876  1
  Te2-  Te183  1  0.82791946  0.91287164  0.70982988  1
  Te2-  Te184  1  0.08636142  0.17320769  0.71254094  1
  Te2-  Te185  1  0.08369521  0.67314925  0.71411228  1
  Te2-  Te186  1  0.58718331  0.17299619  0.71056030  1
  Te2-  Te187  1  0.58389773  0.67029291  0.71087111  1
  Te2-  Te188  1  0.08268977  0.41286214  0.71326533  1
  Te2-  Te189  1  0.08532103  0.91393114  0.71224160  1
  Te2-  Te190  1  0.58874691  0.41538460  0.70980566  1
  Te2-  Te191  1  0.58511533  0.90987475  0.70740571  1
  Te2-  Te192  1  0.16112764  0.07763395  0.04404573  1
  Te2-  Te193  1  0.15982816  0.57478631  0.04167309  1
  Te2-  Te194  1  0.66029940  0.07789440  0.04456443  1
  Te2-  Te195  1  0.66021056  0.58000640  0.04721285  1
  Te2-  Te196  1  0.42088528  0.33777460  0.04640400  1
  Te2-  Te197  1  0.42092483  0.83917616  0.04435144  1
  Te2-  Te198  1  0.92102323  0.33909227  0.04083050  1
  Te2-  Te199  1  0.91652113  0.83811355  0.04375277  1
  Te2-  Te200  1  0.42008918  0.07809911  0.04529331  1
  Te2-  Te201  1  0.42011641  0.58109449  0.04667308  1
  Te2-  Te202  1  0.91643733  0.07746054  0.04378914  1
  Te2-  Te203  1  0.91583939  0.57609561  0.04144516  1
  Te2-  Te204  1  0.49100608  0.24746322  0.37750482  1
  Te2-  Te205  1  0.49574988  0.75256464  0.37683999  1
  Te2-  Te206  1  0.99642343  0.25063632  0.37668304  1
  Te2-  Te207  1  0.99426412  0.74948084  0.37440148  1
  Te2-  Te208  1  0.25305364  0.00573635  0.38066126  1
  Te2-  Te209  1  0.25472739  0.50939016  0.37759000  1
  Te2-  Te210  1  0.75414478  0.01060446  0.37537976  1
  Te2-  Te211  1  0.75575110  0.50680896  0.37422754  1
  Te2-  Te212  1  0.25525954  0.25073123  0.37886884  1
  Te2-  Te213  1  0.25620225  0.74953790  0.37810157  1
  Te2-  Te214  1  0.75573076  0.25020716  0.37599576  1
  Te2-  Te215  1  0.75721269  0.75209167  0.37168922  1
