# generated using pymatgen
data_Ti(CuTe)4
_symmetry_space_group_name_H-M   'P 1'
_cell_length_a   16.88831379
_cell_length_b   16.89315997
_cell_length_c   20.71222184
_cell_angle_alpha   89.97211969
_cell_angle_beta   90.06353974
_cell_angle_gamma   120.00782121
_symmetry_Int_Tables_number   1
_chemical_formula_structural   Ti(CuTe)4
_chemical_formula_sum   'Ti24 Cu96 Te96'
_cell_volume   5117.05404233
_cell_formula_units_Z   24
loop_
 _symmetry_equiv_pos_site_id
 _symmetry_equiv_pos_as_xyz
  1  'x, y, z'
loop_
 _atom_type_symbol
 _atom_type_oxidation_number
  Ti4+  4.0
  Cu+  1.0
  Te2-  -2.0
loop_
 _atom_site_type_symbol
 _atom_site_label
 _atom_site_symmetry_multiplicity
 _atom_site_fract_x
 _atom_site_fract_y
 _atom_site_fract_z
 _atom_site_occupancy
  Ti4+  Ti0  1  0.00137366  0.00244170  0.25515290  1
  Ti4+  Ti1  1  0.00114500  0.50179347  0.25979038  1
  Ti4+  Ti2  1  0.50026947  -0.00311709  0.25565672  1
  Ti4+  Ti3  1  0.49878429  0.49930119  0.25844731  1
  Ti4+  Ti4  1  0.33411531  0.16494797  0.59038272  1
  Ti4+  Ti5  1  0.32839755  0.66339838  0.59384901  1
  Ti4+  Ti6  1  0.83078799  0.16417819  0.58848553  1
  Ti4+  Ti7  1  0.83119514  0.66546673  0.59136853  1
  Ti4+  Ti8  1  0.16762085  0.33652330  0.92414761  1
  Ti4+  Ti9  1  0.16867530  0.83749620  0.92732942  1
  Ti4+  Ti10  1  0.66761296  0.33614314  0.92235115  1
  Ti4+  Ti11  1  0.66674071  0.83237238  0.92521804  1
  Ti4+  Ti12  1  0.00026109  -0.00044698  0.75603047  1
  Ti4+  Ti13  1  -0.00103376  0.49806922  0.75595494  1
  Ti4+  Ti14  1  0.49870265  -0.00036578  0.75693952  1
  Ti4+  Ti15  1  0.50047167  0.50028214  0.75474017  1
  Ti4+  Ti16  1  0.33451611  0.16963063  0.08813569  1
  Ti4+  Ti17  1  0.33476363  0.66843445  0.08781905  1
  Ti4+  Ti18  1  0.83389346  0.16657795  0.08742570  1
  Ti4+  Ti19  1  0.83507284  0.66748971  0.08930106  1
  Ti4+  Ti20  1  0.16677335  0.33367291  0.42224176  1
  Ti4+  Ti21  1  0.16778297  0.83307091  0.42300496  1
  Ti4+  Ti22  1  0.66517876  0.33134236  0.42014488  1
  Ti4+  Ti23  1  0.66765489  0.83291965  0.42299808  1
  Cu+  Cu24  1  0.68855471  0.59545016  0.80793459  1
  Cu+  Cu25  1  0.51618485  0.75324312  0.14337420  1
  Cu+  Cu26  1  0.74404107  0.98156753  0.14126441  1
  Cu+  Cu27  1  0.57189170  0.42490747  0.47517086  1
  Cu+  Cu28  1  0.23829929  0.75413281  0.14277438  1
  Cu+  Cu29  1  0.57014629  0.14131292  0.47135058  1
  Cu+  Cu30  1  0.23914846  0.26472807  0.13837579  1
  Cu+  Cu31  1  0.07102634  0.64963181  0.47842876  1
  Cu+  Cu32  1  0.40463086  0.09604112  0.80908383  1
  Cu+  Cu33  1  0.07025053  0.42154592  0.47646802  1
  Cu+  Cu34  1  0.24302025  0.98923170  0.14574472  1
  Cu+  Cu35  1  0.40745931  0.59469097  0.80921859  1
  Cu+  Cu36  1  0.16464452  0.08649236  0.16842503  1
  Cu+  Cu37  1  0.16215506  0.58360069  0.17260716  1
  Cu+  Cu38  1  0.66501103  0.07806553  0.16877006  1
  Cu+  Cu39  1  0.66598446  0.58073622  0.17254907  1
  Cu+  Cu40  1  0.41360117  0.33652289  0.17152394  1
  Cu+  Cu41  1  0.41943864  0.83682042  0.16661921  1
  Cu+  Cu42  1  0.92070676  0.33624348  0.17258913  1
  Cu+  Cu43  1  0.91956280  0.83738419  0.16863686  1
  Cu+  Cu44  1  0.41821014  0.07980683  0.16897380  1
  Cu+  Cu45  1  0.42140574  0.58104850  0.17025284  1
  Cu+  Cu46  1  0.91729301  0.07952385  0.16782856  1
  Cu+  Cu47  1  0.92127639  0.58533707  0.17233447  1
  Cu+  Cu48  1  0.49689356  0.24533966  0.50226178  1
  Cu+  Cu49  1  0.49732731  0.74745850  0.50863464  1
  Cu+  Cu50  1  0.99584786  0.24948564  0.50322655  1
  Cu+  Cu51  1  0.99670811  0.74694922  0.50556431  1
  Cu+  Cu52  1  0.25448746  0.00296842  0.50407582  1
  Cu+  Cu53  1  0.24588321  0.50100251  0.50554673  1
  Cu+  Cu54  1  0.75158196  0.00184496  0.50344784  1
  Cu+  Cu55  1  0.74612516  0.50332153  0.50240315  1
  Cu+  Cu56  1  0.25108445  0.24619383  0.50376905  1
  Cu+  Cu57  1  0.24582717  0.74294155  0.50546518  1
  Cu+  Cu58  1  0.74557850  0.24049874  0.50008597  1
  Cu+  Cu59  1  0.75124161  0.74836077  0.50520639  1
  Cu+  Cu60  1  0.33053273  0.42046561  0.83784856  1
  Cu+  Cu61  1  0.33077773  0.92114177  0.84070350  1
  Cu+  Cu62  1  0.83115215  0.41625355  0.83645784  1
  Cu+  Cu63  1  0.83161281  0.91717002  0.83858356  1
  Cu+  Cu64  1  0.08708268  0.17005294  0.83847140  1
  Cu+  Cu65  1  0.08587969  0.66821478  0.84098798  1
  Cu+  Cu66  1  0.57964291  0.16957841  0.83764710  1
  Cu+  Cu67  1  0.58485598  0.67008118  0.83639015  1
  Cu+  Cu68  1  0.08484352  0.41545302  0.83721881  1
  Cu+  Cu69  1  0.08706532  0.91791847  0.83926725  1
  Cu+  Cu70  1  0.59220491  0.42027192  0.83467403  1
  Cu+  Cu71  1  0.58412914  0.91411472  0.83921509  1
  Cu+  Cu72  1  0.16811290  0.08181605  0.67477597  1
  Cu+  Cu73  1  0.16522864  0.58088145  0.67884280  1
  Cu+  Cu74  1  0.66741795  0.08133814  0.67362679  1
  Cu+  Cu75  1  0.66807618  0.58397955  0.67877659  1
  Cu+  Cu76  1  0.41664405  0.33005400  0.67420646  1
  Cu+  Cu77  1  0.41297509  0.82869422  0.67720744  1
  Cu+  Cu78  1  0.91420130  0.32840140  0.67309317  1
  Cu+  Cu79  1  0.91548012  0.83111910  0.67609207  1
  Cu+  Cu80  1  0.41529880  0.08351942  0.67919302  1
  Cu+  Cu81  1  0.41174537  0.58285224  0.67999792  1
  Cu+  Cu82  1  0.91584454  0.08434879  0.67279798  1
  Cu+  Cu83  1  0.91466068  0.58339222  0.67575355  1
  Cu+  Cu84  1  0.00252145  0.25249546  0.00711210  1
  Cu+  Cu85  1  0.00383201  0.75193367  0.00980639  1
  Cu+  Cu86  1  0.50554552  0.25618410  0.00592894  1
  Cu+  Cu87  1  0.50268854  0.74942427  0.01337280  1
  Cu+  Cu88  1  0.24950784  0.50096415  0.00845089  1
  Cu+  Cu89  1  0.25207698  1.00126688  0.01480418  1
  Cu+  Cu90  1  0.75217425  0.50004013  0.00811499  1
  Cu+  Cu91  1  0.74790570  0.99649197  0.01260259  1
  Cu+  Cu92  1  0.25081172  0.25783118  0.01045323  1
  Cu+  Cu93  1  0.25010713  0.75475501  0.01347490  1
  Cu+  Cu94  1  0.75006181  0.25407919  0.00541972  1
  Cu+  Cu95  1  0.74921597  0.74861125  0.00844355  1
  Cu+  Cu96  1  0.33540745  0.41716815  0.34291348  1
  Cu+  Cu97  1  0.33426598  0.91573484  0.34192338  1
  Cu+  Cu98  1  0.83512123  0.41796663  0.34114865  1
  Cu+  Cu99  1  0.83689274  0.91801333  0.34149963  1
  Cu+  Cu100  1  0.08442549  0.16593461  0.33876217  1
  Cu+  Cu101  1  0.08361814  0.66530708  0.34873219  1
  Cu+  Cu102  1  0.58159731  0.16092860  0.34250199  1
  Cu+  Cu103  1  0.58383211  0.66431189  0.34343504  1
  Cu+  Cu104  1  0.08391659  0.42110800  0.34672445  1
  Cu+  Cu105  1  0.08497423  0.92114710  0.34058033  1
  Cu+  Cu106  1  0.57957698  0.41596525  0.34508232  1
  Cu+  Cu107  1  0.58346370  0.91448141  0.34213546  1
  Cu+  Cu108  1  0.00063017  -0.00022897  0.11021722  1
  Cu+  Cu109  1  -0.00427919  0.49637844  0.11676993  1
  Cu+  Cu110  1  0.50365211  0.00497495  0.11054354  1
  Cu+  Cu111  1  0.50537893  0.49947770  0.11538807  1
  Cu+  Cu112  1  0.33043140  0.16440494  0.44603386  1
  Cu+  Cu113  1  0.33766885  0.66878064  0.45198418  1
  Cu+  Cu114  1  0.83481493  0.16481702  0.44437231  1
  Cu+  Cu115  1  0.83516403  0.66898246  0.44818103  1
  Cu+  Cu116  1  0.16469142  0.32965619  0.78104170  1
  Cu+  Cu117  1  0.16387037  0.82954302  0.78540846  1
  Cu+  Cu118  1  0.66966514  0.33010270  0.77906154  1
  Cu+  Cu119  1  0.66923408  0.83755404  0.78133305  1
  Te2-  Te120  1  0.00189315  0.00241880  0.38393790  1
  Te2-  Te121  1  -0.00345093  0.49906147  0.39221341  1
  Te2-  Te122  1  0.49873758  -0.00531792  0.38559060  1
  Te2-  Te123  1  0.49872584  0.50042261  0.38897606  1
  Te2-  Te124  1  0.33190405  0.16692411  0.72087316  1
  Te2-  Te125  1  0.32936622  0.66596372  0.72423307  1
  Te2-  Te126  1  0.83191961  0.16433877  0.71728160  1
  Te2-  Te127  1  0.83464563  0.66733051  0.72162999  1
  Te2-  Te128  1  0.16510314  0.33779699  0.05511164  1
  Te2-  Te129  1  0.16620498  0.83572026  0.05978782  1
  Te2-  Te130  1  0.66870656  0.33563712  0.05140862  1
  Te2-  Te131  1  0.66849555  0.83052023  0.05752215  1
  Te2-  Te132  1  0.49334788  0.25358253  0.88075754  1
  Te2-  Te133  1  0.49343551  0.74734085  0.88576258  1
  Te2-  Te134  1  0.99674121  0.24837113  0.88163410  1
  Te2-  Te135  1  0.99863950  0.75003632  0.88396389  1
  Te2-  Te136  1  0.25313976  0.01140418  0.88714747  1
  Te2-  Te137  1  0.25185990  0.51076373  0.88316872  1
  Te2-  Te138  1  0.75101115  0.00329410  0.88524877  1
  Te2-  Te139  1  0.75930123  0.51101706  0.88248975  1
  Te2-  Te140  1  0.25529604  0.25300584  0.88353131  1
  Te2-  Te141  1  0.25414055  0.75252039  0.88613798  1
  Te2-  Te142  1  0.74986896  0.24782764  0.87954913  1
  Te2-  Te143  1  0.75497944  0.74863181  0.88245053  1
  Te2-  Te144  1  0.32465841  0.41594822  0.21730321  1
  Te2-  Te145  1  0.32454102  0.91019050  0.21584775  1
  Te2-  Te146  1  0.83135660  0.41630320  0.21526465  1
  Te2-  Te147  1  0.82717201  0.91082075  0.21549608  1
  Te2-  Te148  1  0.08470117  0.17558608  0.21327895  1
  Te2-  Te149  1  0.08664935  0.67591437  0.22127749  1
  Te2-  Te150  1  0.58558507  0.16682672  0.21481469  1
  Te2-  Te151  1  0.59028123  0.67286091  0.21755185  1
  Te2-  Te152  1  0.08798170  0.41754769  0.21925354  1
  Te2-  Te153  1  0.08651205  0.91439162  0.21473114  1
  Te2-  Te154  1  0.58215023  0.41232930  0.21717189  1
  Te2-  Te155  1  0.58799977  0.90893028  0.21591305  1
  Te2-  Te156  1  0.16289382  0.07886321  0.54880028  1
  Te2-  Te157  1  0.15128704  0.57464537  0.55281161  1
  Te2-  Te158  1  0.65577919  0.07336744  0.54792858  1
  Te2-  Te159  1  0.65719687  0.58136366  0.55140154  1
  Te2-  Te160  1  0.41872526  0.33800322  0.54846424  1
  Te2-  Te161  1  0.41362440  0.83340723  0.55093760  1
  Te2-  Te162  1  0.91292399  0.33758132  0.54733470  1
  Te2-  Te163  1  0.91884985  0.83635500  0.54989286  1
  Te2-  Te164  1  0.42012796  0.07711835  0.55149350  1
  Te2-  Te165  1  0.41346750  0.57833519  0.55245305  1
  Te2-  Te166  1  0.91965975  0.08177037  0.54685854  1
  Te2-  Te167  1  0.91368613  0.57541067  0.54954545  1
  Te2-  Te168  1  0.00115663  0.00172313  0.88247030  1
  Te2-  Te169  1  -0.00079868  0.49858394  0.88256235  1
  Te2-  Te170  1  0.50134426  0.00098638  0.88369254  1
  Te2-  Te171  1  0.50154973  0.49971624  0.88194907  1
  Te2-  Te172  1  0.33499858  0.16602013  0.21562396  1
  Te2-  Te173  1  0.33510418  0.66656044  0.21529558  1
  Te2-  Te174  1  0.83448684  0.16597154  0.21441424  1
  Te2-  Te175  1  0.83541026  0.66867833  0.21564311  1
  Te2-  Te176  1  0.16553575  0.33026106  0.54905251  1
  Te2-  Te177  1  0.16694717  0.83395143  0.54994764  1
  Te2-  Te178  1  0.66756885  0.33244581  0.54727664  1
  Te2-  Te179  1  0.66728663  0.83334617  0.54954591  1
  Te2-  Te180  1  0.32663849  0.41028630  0.71093315  1
  Te2-  Te181  1  0.32540918  0.91152677  0.71337624  1
  Te2-  Te182  1  0.82809362  0.41267389  0.71002203  1
  Te2-  Te183  1  0.82871256  0.91483818  0.71184188  1
  Te2-  Te184  1  0.08582411  0.17013908  0.71103080  1
  Te2-  Te185  1  0.08455024  0.67074116  0.71379891  1
  Te2-  Te186  1  0.58742651  0.17102908  0.71014612  1
  Te2-  Te187  1  0.58532545  0.67416364  0.70917980  1
  Te2-  Te188  1  0.08347983  0.41048748  0.71147848  1
  Te2-  Te189  1  0.08566448  0.91263736  0.71304057  1
  Te2-  Te190  1  0.58594278  0.41173634  0.70907083  1
  Te2-  Te191  1  0.58350064  0.91239007  0.71284134  1
  Te2-  Te192  1  0.16141612  0.08446574  0.04111240  1
  Te2-  Te193  1  0.16009274  0.58168300  0.04538069  1
  Te2-  Te194  1  0.66187229  0.08367042  0.04163478  1
  Te2-  Te195  1  0.66292429  0.57994951  0.04563581  1
  Te2-  Te196  1  0.42260465  0.34250771  0.04423514  1
  Te2-  Te197  1  0.42309816  0.84298143  0.04066575  1
  Te2-  Te198  1  0.91949247  0.33886025  0.04514412  1
  Te2-  Te199  1  0.92002308  0.83896535  0.04289211  1
  Te2-  Te200  1  0.42474333  0.08669575  0.04250202  1
  Te2-  Te201  1  0.41879929  0.57765562  0.04415910  1
  Te2-  Te202  1  0.92165105  0.08194793  0.04126844  1
  Te2-  Te203  1  0.92189509  0.58224412  0.04601107  1
  Te2-  Te204  1  0.49152021  0.24307031  0.37456376  1
  Te2-  Te205  1  0.49537346  0.74560418  0.38073715  1
  Te2-  Te206  1  0.99516586  0.24714861  0.37556140  1
  Te2-  Te207  1  0.99527520  0.75040043  0.37794673  1
  Te2-  Te208  1  0.25403257  0.00498761  0.37777934  1
  Te2-  Te209  1  0.25583759  0.50762341  0.37908945  1
  Te2-  Te210  1  0.75326203  0.00407004  0.37724402  1
  Te2-  Te211  1  0.75275137  0.50567275  0.37605721  1
  Te2-  Te212  1  0.25266495  0.24740256  0.37769550  1
  Te2-  Te213  1  0.25570141  0.74694263  0.37887962  1
  Te2-  Te214  1  0.75413571  0.24702237  0.37401618  1
  Te2-  Te215  1  0.75420551  0.74796408  0.37884434  1
