# generated using pymatgen
data_Ti(CuTe)4
_symmetry_space_group_name_H-M   'P 1'
_cell_length_a   16.89202779
_cell_length_b   16.88866432
_cell_length_c   20.70934431
_cell_angle_alpha   89.95168352
_cell_angle_beta   90.00108694
_cell_angle_gamma   120.01663306
_symmetry_Int_Tables_number   1
_chemical_formula_structural   Ti(CuTe)4
_chemical_formula_sum   'Ti24 Cu96 Te96'
_cell_volume   5115.65273024
_cell_formula_units_Z   24
loop_
 _symmetry_equiv_pos_site_id
 _symmetry_equiv_pos_as_xyz
  1  'x, y, z'
loop_
 _atom_type_symbol
 _atom_type_oxidation_number
  Ti4+  4.0
  Cu+  1.0
  Te2-  -2.0
loop_
 _atom_site_type_symbol
 _atom_site_label
 _atom_site_symmetry_multiplicity
 _atom_site_fract_x
 _atom_site_fract_y
 _atom_site_fract_z
 _atom_site_occupancy
  Ti4+  Ti0  1  0.00042577  0.00224995  0.25788914  1
  Ti4+  Ti1  1  -0.00223215  0.49964714  0.25724831  1
  Ti4+  Ti2  1  0.50070515  0.00198702  0.26213414  1
  Ti4+  Ti3  1  0.49770849  0.50329766  0.25370285  1
  Ti4+  Ti4  1  0.33454299  0.16793347  0.59086122  1
  Ti4+  Ti5  1  0.33342307  0.66613533  0.59175461  1
  Ti4+  Ti6  1  0.83141779  0.16461623  0.59356532  1
  Ti4+  Ti7  1  0.83501221  0.66675188  0.58726556  1
  Ti4+  Ti8  1  0.16663257  0.33013624  0.92320202  1
  Ti4+  Ti9  1  0.17007492  0.83339599  0.92238890  1
  Ti4+  Ti10  1  0.66785061  0.33222344  0.92548842  1
  Ti4+  Ti11  1  0.66696333  0.83426520  0.92587213  1
  Ti4+  Ti12  1  0.00267202  0.00089184  0.75524895  1
  Ti4+  Ti13  1  -0.00139113  0.49821980  0.75481326  1
  Ti4+  Ti14  1  0.49912349  -0.00254146  0.75554550  1
  Ti4+  Ti15  1  0.50114572  0.50025615  0.75528332  1
  Ti4+  Ti16  1  0.33240861  0.16666978  0.08918448  1
  Ti4+  Ti17  1  0.33421464  0.66515228  0.08840903  1
  Ti4+  Ti18  1  0.83156939  0.16611420  0.09156874  1
  Ti4+  Ti19  1  0.83438698  0.66702231  0.08650655  1
  Ti4+  Ti20  1  0.16535516  0.33309363  0.42306591  1
  Ti4+  Ti21  1  0.16559109  0.83345926  0.42082574  1
  Ti4+  Ti22  1  0.66595355  0.33425439  0.42100599  1
  Ti4+  Ti23  1  0.66648092  0.83371980  0.42295448  1
  Cu+  Cu24  1  0.19284717  0.09420340  0.80629939  1
  Cu+  Cu25  1  0.73575808  0.26091418  0.14417284  1
  Cu+  Cu26  1  0.85572159  0.92889345  0.47538867  1
  Cu+  Cu27  1  0.85419336  0.42520528  0.47314490  1
  Cu+  Cu28  1  0.91367659  0.09085303  0.81417783  1
  Cu+  Cu29  1  0.51732701  0.76564138  0.14363152  1
  Cu+  Cu30  1  0.67970584  0.09118947  0.81407214  1
  Cu+  Cu31  1  0.74621571  0.76351366  0.14218225  1
  Cu+  Cu32  1  0.57446434  0.15428786  0.48092224  1
  Cu+  Cu33  1  0.40605679  0.80870987  0.80807907  1
  Cu+  Cu34  1  0.23636853  0.26262681  0.13970680  1
  Cu+  Cu35  1  0.57302581  0.92096758  0.48127055  1
  Cu+  Cu36  1  0.16443739  0.08780694  0.17064715  1
  Cu+  Cu37  1  0.16312252  0.57990745  0.17108766  1
  Cu+  Cu38  1  0.66232665  0.08603266  0.17501324  1
  Cu+  Cu39  1  0.66455786  0.58759384  0.16661219  1
  Cu+  Cu40  1  0.41065283  0.33669602  0.16840295  1
  Cu+  Cu41  1  0.41988252  0.83638331  0.17480591  1
  Cu+  Cu42  1  0.91159751  0.33518471  0.17233404  1
  Cu+  Cu43  1  0.91690185  0.83715853  0.17080852  1
  Cu+  Cu44  1  0.41816421  0.08368906  0.17399706  1
  Cu+  Cu45  1  0.42241656  0.58618640  0.16645571  1
  Cu+  Cu46  1  0.91841148  0.08140639  0.17233620  1
  Cu+  Cu47  1  0.91901652  0.58082742  0.16908519  1
  Cu+  Cu48  1  0.49345454  0.24656700  0.50317184  1
  Cu+  Cu49  1  0.49322513  0.74843848  0.50542804  1
  Cu+  Cu50  1  0.99678005  0.24598444  0.50589324  1
  Cu+  Cu51  1  0.99534081  0.74665903  0.50014486  1
  Cu+  Cu52  1  0.24947285  0.00251928  0.50410925  1
  Cu+  Cu53  1  0.25162860  0.50122382  0.50591479  1
  Cu+  Cu54  1  0.75101409  0.00151242  0.50589570  1
  Cu+  Cu55  1  0.75523379  0.50363760  0.50057364  1
  Cu+  Cu56  1  0.25196333  0.24999562  0.50543641  1
  Cu+  Cu57  1  0.25135659  0.74993166  0.50406931  1
  Cu+  Cu58  1  0.74984256  0.24849316  0.50417987  1
  Cu+  Cu59  1  0.75607557  0.75226278  0.50249173  1
  Cu+  Cu60  1  0.33220890  0.41299881  0.83699442  1
  Cu+  Cu61  1  0.32908424  0.90810739  0.83534382  1
  Cu+  Cu62  1  0.83094398  0.41127144  0.83795164  1
  Cu+  Cu63  1  0.83116247  0.91679061  0.83817683  1
  Cu+  Cu64  1  0.08936160  0.17010609  0.83622954  1
  Cu+  Cu65  1  0.08488525  0.66770309  0.83624473  1
  Cu+  Cu66  1  0.58864219  0.17169276  0.83854637  1
  Cu+  Cu67  1  0.58521674  0.66921007  0.83868304  1
  Cu+  Cu68  1  0.08289006  0.41324074  0.83660918  1
  Cu+  Cu69  1  0.09304350  0.92098178  0.83613755  1
  Cu+  Cu70  1  0.58535209  0.41555038  0.83864996  1
  Cu+  Cu71  1  0.58365818  0.91268931  0.83707646  1
  Cu+  Cu72  1  0.17213004  0.08649636  0.67788467  1
  Cu+  Cu73  1  0.16825954  0.58326813  0.67445992  1
  Cu+  Cu74  1  0.66710028  0.08194611  0.68295592  1
  Cu+  Cu75  1  0.67107131  0.58563437  0.67101963  1
  Cu+  Cu76  1  0.41782948  0.33260145  0.67387267  1
  Cu+  Cu77  1  0.41380002  0.82819992  0.67998525  1
  Cu+  Cu78  1  0.91338969  0.33009160  0.67674476  1
  Cu+  Cu79  1  0.91701310  0.83021139  0.67241787  1
  Cu+  Cu80  1  0.41515467  0.08330686  0.67532033  1
  Cu+  Cu81  1  0.41743702  0.58534257  0.67478996  1
  Cu+  Cu82  1  0.91410463  0.08166170  0.68322296  1
  Cu+  Cu83  1  0.91397051  0.58126989  0.67260853  1
  Cu+  Cu84  1  -0.00041982  0.24680027  0.00893735  1
  Cu+  Cu85  1  0.00552649  0.75172410  0.00500297  1
  Cu+  Cu86  1  0.50334845  0.24890204  0.00817761  1
  Cu+  Cu87  1  0.50233704  0.75057526  0.01406271  1
  Cu+  Cu88  1  0.24895501  0.49572218  0.00658734  1
  Cu+  Cu89  1  0.25123992  0.99634911  0.00751228  1
  Cu+  Cu90  1  0.75237780  0.49727151  0.00730269  1
  Cu+  Cu91  1  0.74909052  1.00053444  0.01131157  1
  Cu+  Cu92  1  0.24619185  0.24772963  0.01110433  1
  Cu+  Cu93  1  0.24994852  0.74941127  0.00801638  1
  Cu+  Cu94  1  0.74698170  0.24973740  0.01508987  1
  Cu+  Cu95  1  0.74985284  0.75268318  0.01250402  1
  Cu+  Cu96  1  0.33275138  0.41839540  0.33914827  1
  Cu+  Cu97  1  0.33548131  0.91852961  0.34373876  1
  Cu+  Cu98  1  0.83489905  0.41892603  0.34475864  1
  Cu+  Cu99  1  0.83678279  0.91796826  0.34681169  1
  Cu+  Cu100  1  0.08252490  0.16619604  0.34293310  1
  Cu+  Cu101  1  0.08164670  0.66471362  0.34039909  1
  Cu+  Cu102  1  0.58132160  0.16571151  0.35020289  1
  Cu+  Cu103  1  0.58038922  0.66610369  0.34043214  1
  Cu+  Cu104  1  0.07878085  0.41599185  0.34155465  1
  Cu+  Cu105  1  0.08176767  0.91847804  0.34001835  1
  Cu+  Cu106  1  0.57847183  0.41973978  0.33598237  1
  Cu+  Cu107  1  0.58200319  0.91928662  0.35030822  1
  Cu+  Cu108  1  0.00226315  -0.00192843  0.11433997  1
  Cu+  Cu109  1  0.00302186  0.49913364  0.11395354  1
  Cu+  Cu110  1  0.49517052  -0.00188507  0.11923061  1
  Cu+  Cu111  1  0.50299545  0.49700615  0.10954002  1
  Cu+  Cu112  1  0.32909994  0.16660418  0.44729232  1
  Cu+  Cu113  1  0.32632419  0.66214416  0.44910164  1
  Cu+  Cu114  1  0.83461835  0.16810992  0.44986775  1
  Cu+  Cu115  1  0.83082352  0.66545376  0.44228435  1
  Cu+  Cu116  1  0.17067088  0.33947331  0.78012403  1
  Cu+  Cu117  1  0.16135913  0.82848408  0.77845558  1
  Cu+  Cu118  1  0.66722156  0.33743090  0.78246617  1
  Cu+  Cu119  1  0.66875641  0.82929145  0.78164694  1
  Te2-  Te120  1  0.00340803  0.00240666  0.38845987  1
  Te2-  Te121  1  0.00111423  0.50149038  0.38789820  1
  Te2-  Te122  1  0.49732403  0.00002328  0.39421133  1
  Te2-  Te123  1  0.49732293  0.50117278  0.38245437  1
  Te2-  Te124  1  0.33836380  0.16972649  0.72154453  1
  Te2-  Te125  1  0.33123268  0.66163308  0.72244302  1
  Te2-  Te126  1  0.83324339  0.16726358  0.72513686  1
  Te2-  Te127  1  0.83458800  0.66611872  0.71617082  1
  Te2-  Te128  1  0.16390405  0.33250423  0.05348224  1
  Te2-  Te129  1  0.16835294  0.83224257  0.05138599  1
  Te2-  Te130  1  0.66560290  0.33516756  0.05638614  1
  Te2-  Te131  1  0.66852641  0.83712804  0.05787869  1
  Te2-  Te132  1  0.49703431  0.24659574  0.88226347  1
  Te2-  Te133  1  0.49442532  0.74530039  0.88610921  1
  Te2-  Te134  1  0.99325473  0.24606019  0.88310943  1
  Te2-  Te135  1  0.99981255  0.75170115  0.87886763  1
  Te2-  Te136  1  0.26191917  0.00781812  0.88184196  1
  Te2-  Te137  1  0.25117041  0.50047016  0.88061748  1
  Te2-  Te138  1  0.75429018  0.00986054  0.88506950  1
  Te2-  Te139  1  0.75425901  0.50255295  0.88154280  1
  Te2-  Te140  1  0.25628014  0.24590816  0.88394218  1
  Te2-  Te141  1  0.25217327  0.74070877  0.88245078  1
  Te2-  Te142  1  0.75683800  0.24623153  0.88769059  1
  Te2-  Te143  1  0.75290437  0.75054933  0.88480006  1
  Te2-  Te144  1  0.32407313  0.41927679  0.21346591  1
  Te2-  Te145  1  0.33116233  0.91546817  0.21772659  1
  Te2-  Te146  1  0.82309508  0.41569453  0.21795545  1
  Te2-  Te147  1  0.82611345  0.91586766  0.21948752  1
  Te2-  Te148  1  0.08463841  0.17645298  0.21719349  1
  Te2-  Te149  1  0.08572930  0.67075048  0.21467853  1
  Te2-  Te150  1  0.58411246  0.17583460  0.22221758  1
  Te2-  Te151  1  0.58943486  0.68114140  0.21495763  1
  Te2-  Te152  1  0.08079651  0.41178880  0.21548914  1
  Te2-  Te153  1  0.08543915  0.91797447  0.21382589  1
  Te2-  Te154  1  0.58144762  0.41783739  0.20978014  1
  Te2-  Te155  1  0.59029117  0.91869168  0.22202336  1
  Te2-  Te156  1  0.16296759  0.08238984  0.55090149  1
  Te2-  Te157  1  0.16310399  0.58165871  0.54848434  1
  Te2-  Te158  1  0.65648515  0.07789308  0.55409803  1
  Te2-  Te159  1  0.66457785  0.58226757  0.54479624  1
  Te2-  Te160  1  0.42050851  0.33919407  0.54824113  1
  Te2-  Te161  1  0.41708892  0.84107472  0.55315673  1
  Te2-  Te162  1  0.91862596  0.33621682  0.55042939  1
  Te2-  Te163  1  0.92505335  0.84216980  0.54726359  1
  Te2-  Te164  1  0.41693391  0.07638777  0.54979287  1
  Te2-  Te165  1  0.42019403  0.58183268  0.54900124  1
  Te2-  Te166  1  0.91932619  0.07974619  0.55443553  1
  Te2-  Te167  1  0.92327540  0.58031383  0.54698750  1
  Te2-  Te168  1  0.00171998  -0.00080454  0.88279686  1
  Te2-  Te169  1  0.00028957  0.49898901  0.88117338  1
  Te2-  Te170  1  0.49937920  -0.00053374  0.88283290  1
  Te2-  Te171  1  0.50097859  0.49982782  0.88164198  1
  Te2-  Te172  1  0.33315730  0.16877183  0.21601085  1
  Te2-  Te173  1  0.33222599  0.66447862  0.21543009  1
  Te2-  Te174  1  0.83304580  0.16612666  0.21821433  1
  Te2-  Te175  1  0.83346094  0.66619444  0.21341028  1
  Te2-  Te176  1  0.16608363  0.33246991  0.54944680  1
  Te2-  Te177  1  0.16423475  0.83230018  0.54703014  1
  Te2-  Te178  1  0.66430749  0.33442976  0.54850497  1
  Te2-  Te179  1  0.66486353  0.83012002  0.55024683  1
  Te2-  Te180  1  0.32995249  0.41448943  0.71040897  1
  Te2-  Te181  1  0.32576056  0.91320492  0.70960474  1
  Te2-  Te182  1  0.82597352  0.41218549  0.71142384  1
  Te2-  Te183  1  0.82813881  0.90942590  0.71139040  1
  Te2-  Te184  1  0.08803319  0.17490009  0.70923030  1
  Te2-  Te185  1  0.08421036  0.66928778  0.70957558  1
  Te2-  Te186  1  0.58468103  0.17226074  0.71173155  1
  Te2-  Te187  1  0.58756869  0.67141605  0.71129784  1
  Te2-  Te188  1  0.08469017  0.41260207  0.71008693  1
  Te2-  Te189  1  0.08695042  0.91350034  0.70886178  1
  Te2-  Te190  1  0.58758844  0.41602224  0.71101867  1
  Te2-  Te191  1  0.58622433  0.90928863  0.71042643  1
  Te2-  Te192  1  0.16075818  0.07615376  0.04337574  1
  Te2-  Te193  1  0.16263967  0.57909420  0.04413793  1
  Te2-  Te194  1  0.65752294  0.07789349  0.04810106  1
  Te2-  Te195  1  0.66236124  0.57891134  0.03976378  1
  Te2-  Te196  1  0.41977975  0.33712673  0.04109819  1
  Te2-  Te197  1  0.41911861  0.83938206  0.04639957  1
  Te2-  Te198  1  0.92027842  0.33782711  0.04511217  1
  Te2-  Te199  1  0.92301555  0.83973165  0.04251510  1
  Te2-  Te200  1  0.41957226  0.08066494  0.04738366  1
  Te2-  Te201  1  0.41879398  0.57702723  0.04091815  1
  Te2-  Te202  1  0.91814549  0.07905997  0.04695912  1
  Te2-  Te203  1  0.92192811  0.58189584  0.04328634  1
  Te2-  Te204  1  0.49264349  0.25101135  0.37624535  1
  Te2-  Te205  1  0.49220301  0.74622235  0.37874207  1
  Te2-  Te206  1  0.99334423  0.24666994  0.37942247  1
  Te2-  Te207  1  0.99421377  0.74784820  0.37458532  1
  Te2-  Te208  1  0.25187466  0.00609782  0.37757751  1
  Te2-  Te209  1  0.24934889  0.50384850  0.37848804  1
  Te2-  Te210  1  0.75495975  0.00859835  0.37873328  1
  Te2-  Te211  1  0.74816229  0.50560257  0.37354072  1
  Te2-  Te212  1  0.25251663  0.24939874  0.37821152  1
  Te2-  Te213  1  0.25202661  0.74737723  0.37759844  1
  Te2-  Te214  1  0.75423570  0.24705628  0.37706661  1
  Te2-  Te215  1  0.74996179  0.74536100  0.37562149  1
