# generated using pymatgen
data_Ti(CuTe)4
_symmetry_space_group_name_H-M   'P 1'
_cell_length_a   16.89291588
_cell_length_b   16.89119148
_cell_length_c   20.71617564
_cell_angle_alpha   89.95087845
_cell_angle_beta   90.00342803
_cell_angle_gamma   120.00632769
_symmetry_Int_Tables_number   1
_chemical_formula_structural   Ti(CuTe)4
_chemical_formula_sum   'Ti24 Cu96 Te96'
_cell_volume   5118.90685030
_cell_formula_units_Z   24
loop_
 _symmetry_equiv_pos_site_id
 _symmetry_equiv_pos_as_xyz
  1  'x, y, z'
loop_
 _atom_type_symbol
 _atom_type_oxidation_number
  Ti4+  4.0
  Cu+  1.0
  Te2-  -2.0
loop_
 _atom_site_type_symbol
 _atom_site_label
 _atom_site_symmetry_multiplicity
 _atom_site_fract_x
 _atom_site_fract_y
 _atom_site_fract_z
 _atom_site_occupancy
  Ti4+  Ti0  1  0.00536030  -0.00026628  0.26029509  1
  Ti4+  Ti1  1  0.00265319  0.49859720  0.25562093  1
  Ti4+  Ti2  1  0.50208755  -0.00072610  0.25678635  1
  Ti4+  Ti3  1  0.50496808  0.50293986  0.25805748  1
  Ti4+  Ti4  1  0.32898848  0.16613608  0.58998304  1
  Ti4+  Ti5  1  0.33124037  0.66746304  0.59037414  1
  Ti4+  Ti6  1  0.83046577  0.16299136  0.59000167  1
  Ti4+  Ti7  1  0.83039682  0.66481746  0.59300403  1
  Ti4+  Ti8  1  0.16690694  0.33502077  0.92508059  1
  Ti4+  Ti9  1  0.16566545  0.83654776  0.92637903  1
  Ti4+  Ti10  1  0.66541346  0.33424890  0.91957088  1
  Ti4+  Ti11  1  0.66779277  0.83590266  0.92502313  1
  Ti4+  Ti12  1  -0.00238608  -0.00161087  0.75793666  1
  Ti4+  Ti13  1  -0.00245612  0.49844352  0.75426260  1
  Ti4+  Ti14  1  0.49825676  0.00096164  0.75546671  1
  Ti4+  Ti15  1  0.49732468  0.49887248  0.75397164  1
  Ti4+  Ti16  1  0.33326644  0.16641771  0.08959928  1
  Ti4+  Ti17  1  0.33604710  0.66955990  0.08702330  1
  Ti4+  Ti18  1  0.83587469  0.16896910  0.08922951  1
  Ti4+  Ti19  1  0.83288846  0.66537363  0.08974437  1
  Ti4+  Ti20  1  0.16819312  0.33156557  0.42061766  1
  Ti4+  Ti21  1  0.16794562  0.83127618  0.42301106  1
  Ti4+  Ti22  1  0.66688057  0.33374399  0.42262992  1
  Ti4+  Ti23  1  0.66778367  0.83450007  0.42231281  1
  Cu+  Cu24  1  0.07241138  0.91790383  0.48179398  1
  Cu+  Cu25  1  0.56977904  0.42762673  0.47536551  1
  Cu+  Cu26  1  0.91198176  0.59719781  0.80869857  1
  Cu+  Cu27  1  0.56929925  0.92596478  0.47426872  1
  Cu+  Cu28  1  0.06933452  0.14726337  0.47575071  1
  Cu+  Cu29  1  0.68665062  0.09353082  0.80714812  1
  Cu+  Cu30  1  0.01761136  0.75460318  0.14428800  1
  Cu+  Cu31  1  0.02610997  0.26008810  0.14103707  1
  Cu+  Cu32  1  0.67940060  0.59506950  0.81072910  1
  Cu+  Cu33  1  0.52580948  0.76148955  0.14047205  1
  Cu+  Cu34  1  0.24620633  0.98288257  0.14595913  1
  Cu+  Cu35  1  0.40280193  0.09643883  0.80447321  1
  Cu+  Cu36  1  0.16515246  0.07702091  0.17228991  1
  Cu+  Cu37  1  0.16398876  0.58102761  0.16749358  1
  Cu+  Cu38  1  0.66530419  0.08222185  0.17088656  1
  Cu+  Cu39  1  0.66321592  0.57899996  0.17164344  1
  Cu+  Cu40  1  0.42292438  0.33661167  0.17266166  1
  Cu+  Cu41  1  0.42591273  0.83720193  0.16850950  1
  Cu+  Cu42  1  0.92400943  0.33591923  0.16978368  1
  Cu+  Cu43  1  0.92300849  0.83359462  0.17322361  1
  Cu+  Cu44  1  0.41813261  0.07891920  0.17121130  1
  Cu+  Cu45  1  0.42526501  0.58811075  0.16991391  1
  Cu+  Cu46  1  0.92465637  0.08781346  0.17356583  1
  Cu+  Cu47  1  0.92130026  0.58167847  0.17067164  1
  Cu+  Cu48  1  0.49657866  0.25269735  0.50462783  1
  Cu+  Cu49  1  0.49619725  0.75314396  0.50415106  1
  Cu+  Cu50  1  0.99543037  0.24331090  0.50334322  1
  Cu+  Cu51  1  0.99494052  0.74585946  0.50693605  1
  Cu+  Cu52  1  0.24746090  0.00072015  0.50414897  1
  Cu+  Cu53  1  0.25024410  0.50199330  0.50407568  1
  Cu+  Cu54  1  0.74621976  0.00264043  0.50285559  1
  Cu+  Cu55  1  0.74537469  0.50104260  0.50628096  1
  Cu+  Cu56  1  0.24545574  0.24180505  0.50083531  1
  Cu+  Cu57  1  0.25126194  0.74538587  0.50398383  1
  Cu+  Cu58  1  0.75001414  0.24645051  0.50409355  1
  Cu+  Cu59  1  0.75047046  0.74695976  0.50502897  1
  Cu+  Cu60  1  0.32768049  0.41466718  0.83771362  1
  Cu+  Cu61  1  0.33054565  0.92422163  0.83876893  1
  Cu+  Cu62  1  0.82909244  0.41903292  0.83267522  1
  Cu+  Cu63  1  0.82894791  0.91534196  0.83892837  1
  Cu+  Cu64  1  0.08263248  0.16928071  0.84057760  1
  Cu+  Cu65  1  0.08155918  0.67015940  0.83944488  1
  Cu+  Cu66  1  0.58263382  0.16963430  0.83338392  1
  Cu+  Cu67  1  0.58402400  0.67067745  0.83877362  1
  Cu+  Cu68  1  0.08348046  0.41364081  0.83811712  1
  Cu+  Cu69  1  0.08491435  0.91641456  0.84024163  1
  Cu+  Cu70  1  0.58624937  0.41771297  0.83253602  1
  Cu+  Cu71  1  0.58763397  0.91978138  0.83865737  1
  Cu+  Cu72  1  0.16299326  0.08108327  0.67719291  1
  Cu+  Cu73  1  0.16714464  0.58282068  0.67446456  1
  Cu+  Cu74  1  0.66653334  0.08135094  0.67817097  1
  Cu+  Cu75  1  0.66575539  0.58271514  0.68044339  1
  Cu+  Cu76  1  0.41021035  0.33133049  0.67353243  1
  Cu+  Cu77  1  0.41242209  0.83020487  0.67523415  1
  Cu+  Cu78  1  0.91508435  0.32814753  0.67294581  1
  Cu+  Cu79  1  0.91482219  0.83064918  0.67870469  1
  Cu+  Cu80  1  0.41003969  0.08438414  0.67623237  1
  Cu+  Cu81  1  0.41196652  0.58526877  0.67322425  1
  Cu+  Cu82  1  0.91272334  0.08071864  0.67550088  1
  Cu+  Cu83  1  0.91254048  0.58310194  0.67913782  1
  Cu+  Cu84  1  0.00553409  0.25410706  0.01272940  1
  Cu+  Cu85  1  0.00150248  0.75103275  0.01473286  1
  Cu+  Cu86  1  0.50111326  0.25150786  0.00477702  1
  Cu+  Cu87  1  0.50568858  0.75464406  0.01122442  1
  Cu+  Cu88  1  0.25005953  0.50060274  0.00698318  1
  Cu+  Cu89  1  0.24779305  0.99942958  0.01539106  1
  Cu+  Cu90  1  0.74715942  0.49889800  0.00701983  1
  Cu+  Cu91  1  0.75047566  1.00143468  0.00960394  1
  Cu+  Cu92  1  0.24847062  0.25209617  0.00901063  1
  Cu+  Cu93  1  0.24954233  0.75373644  0.00733515  1
  Cu+  Cu94  1  0.74845896  0.25201773  0.00441296  1
  Cu+  Cu95  1  0.74609914  0.74862951  0.01093638  1
  Cu+  Cu96  1  0.33999011  0.41968158  0.33998565  1
  Cu+  Cu97  1  0.33719471  0.91323400  0.34129734  1
  Cu+  Cu98  1  0.83852107  0.41775218  0.33945520  1
  Cu+  Cu99  1  0.83896087  0.91781292  0.34321940  1
  Cu+  Cu100  1  0.08654566  0.16377935  0.34651774  1
  Cu+  Cu101  1  0.08360596  0.66186616  0.34186886  1
  Cu+  Cu102  1  0.58393065  0.16449121  0.34031028  1
  Cu+  Cu103  1  0.58641089  0.66747369  0.34179449  1
  Cu+  Cu104  1  0.08429945  0.41620601  0.33994907  1
  Cu+  Cu105  1  0.08518910  0.91556402  0.35035183  1
  Cu+  Cu106  1  0.58449855  0.42025515  0.34688515  1
  Cu+  Cu107  1  0.58446206  0.91835102  0.34529990  1
  Cu+  Cu108  1  -0.00504263  -0.00334811  0.11825928  1
  Cu+  Cu109  1  -0.00048383  0.49877424  0.11175088  1
  Cu+  Cu110  1  0.50364927  0.00358518  0.11277327  1
  Cu+  Cu111  1  0.49516758  0.49556903  0.11464544  1
  Cu+  Cu112  1  0.33619944  0.16398926  0.44675609  1
  Cu+  Cu113  1  0.33389284  0.66166299  0.44668577  1
  Cu+  Cu114  1  0.83419858  0.16952632  0.44592905  1
  Cu+  Cu115  1  0.83263003  0.66416455  0.44954680  1
  Cu+  Cu116  1  0.16396049  0.33100266  0.78195215  1
  Cu+  Cu117  1  0.16754743  0.83148767  0.78351648  1
  Cu+  Cu118  1  0.66542127  0.33250390  0.77458660  1
  Cu+  Cu119  1  0.66301910  0.83256208  0.78188282  1
  Te2-  Te120  1  0.00077681  -0.00210249  0.39203968  1
  Te2-  Te121  1  0.00167314  0.49727788  0.38497623  1
  Te2-  Te122  1  0.50053138  0.00128402  0.38718210  1
  Te2-  Te123  1  0.50175046  0.50428854  0.38876024  1
  Te2-  Te124  1  0.32763608  0.16808091  0.72015978  1
  Te2-  Te125  1  0.33056710  0.66662039  0.71976862  1
  Te2-  Te126  1  0.83331414  0.16546017  0.72039890  1
  Te2-  Te127  1  0.83159048  0.66735887  0.72521169  1
  Te2-  Te128  1  0.17186516  0.33814386  0.05607500  1
  Te2-  Te129  1  0.16793171  0.83301871  0.05864405  1
  Te2-  Te130  1  0.66565940  0.33346014  0.04820126  1
  Te2-  Te131  1  0.67136843  0.83771598  0.05552462  1
  Te2-  Te132  1  0.49274114  0.25027129  0.87897838  1
  Te2-  Te133  1  0.49741060  0.75129894  0.88393037  1
  Te2-  Te134  1  0.99422922  0.24801034  0.88614666  1
  Te2-  Te135  1  0.99216473  0.75007545  0.88726669  1
  Te2-  Te136  1  0.25070301  0.01081764  0.88757528  1
  Te2-  Te137  1  0.25172508  0.50634995  0.88162923  1
  Te2-  Te138  1  0.75684430  0.01005570  0.88393657  1
  Te2-  Te139  1  0.75434201  0.51180775  0.88139555  1
  Te2-  Te140  1  0.25140620  0.24774594  0.88326439  1
  Te2-  Te141  1  0.25133455  0.75354001  0.88094017  1
  Te2-  Te142  1  0.75404567  0.25082633  0.87839505  1
  Te2-  Te143  1  0.75459076  0.74889441  0.88511581  1
  Te2-  Te144  1  0.33488929  0.41881457  0.21373408  1
  Te2-  Te145  1  0.32916575  0.90749001  0.21547494  1
  Te2-  Te146  1  0.83192346  0.41334606  0.21336186  1
  Te2-  Te147  1  0.83680953  0.91717169  0.21649325  1
  Te2-  Te148  1  0.09395270  0.17246577  0.21937214  1
  Te2-  Te149  1  0.09144870  0.67311462  0.21635618  1
  Te2-  Te150  1  0.58557680  0.17042708  0.21455380  1
  Te2-  Te151  1  0.59436911  0.67678823  0.21644502  1
  Te2-  Te152  1  0.09323571  0.41497197  0.21455376  1
  Te2-  Te153  1  0.09147537  0.90956254  0.22181962  1
  Te2-  Te154  1  0.58916477  0.41421309  0.22001283  1
  Te2-  Te155  1  0.59253844  0.91564526  0.21791860  1
  Te2-  Te156  1  0.15215061  0.07536592  0.55119443  1
  Te2-  Te157  1  0.15916219  0.57868939  0.54888738  1
  Te2-  Te158  1  0.65636971  0.07988914  0.55095484  1
  Te2-  Te159  1  0.65682873  0.58118765  0.55278715  1
  Te2-  Te160  1  0.41202221  0.33887682  0.54783192  1
  Te2-  Te161  1  0.41661539  0.84284992  0.54999959  1
  Te2-  Te162  1  0.91863459  0.33363571  0.54697840  1
  Te2-  Te163  1  0.91612033  0.83811982  0.55271233  1
  Te2-  Te164  1  0.41542107  0.08292245  0.54895370  1
  Te2-  Te165  1  0.41904097  0.58424848  0.54736953  1
  Te2-  Te166  1  0.91347263  0.07286062  0.54957198  1
  Te2-  Te167  1  0.91417488  0.57893060  0.55183758  1
  Te2-  Te168  1  -0.00177058  -0.00006600  0.88386877  1
  Te2-  Te169  1  -0.00233774  0.49846129  0.88116096  1
  Te2-  Te170  1  0.50028686  0.00210526  0.88269305  1
  Te2-  Te171  1  0.49837281  0.49894701  0.88087859  1
  Te2-  Te172  1  0.33641438  0.16705520  0.21645208  1
  Te2-  Te173  1  0.33414910  0.66703625  0.21364995  1
  Te2-  Te174  1  0.83427192  0.16741420  0.21605133  1
  Te2-  Te175  1  0.83347101  0.66325600  0.21657421  1
  Te2-  Te176  1  0.16599873  0.33208293  0.54747609  1
  Te2-  Te177  1  0.16635445  0.83067169  0.54984306  1
  Te2-  Te178  1  0.66543614  0.33108073  0.54932245  1
  Te2-  Te179  1  0.66605501  0.83305178  0.54895892  1
  Te2-  Te180  1  0.32499584  0.41521378  0.71103771  1
  Te2-  Te181  1  0.32519846  0.91314814  0.71134346  1
  Te2-  Te182  1  0.82588693  0.40971486  0.70644327  1
  Te2-  Te183  1  0.82532570  0.91167426  0.71305169  1
  Te2-  Te184  1  0.08206871  0.17011193  0.71339000  1
  Te2-  Te185  1  0.08522548  0.67154097  0.71129081  1
  Te2-  Te186  1  0.58336267  0.17216780  0.70590636  1
  Te2-  Te187  1  0.58187901  0.67208620  0.71094020  1
  Te2-  Te188  1  0.08408339  0.41261748  0.71148343  1
  Te2-  Te189  1  0.08443792  0.91199920  0.71434983  1
  Te2-  Te190  1  0.58051740  0.40948976  0.70656600  1
  Te2-  Te191  1  0.58143211  0.91042162  0.71172020  1
  Te2-  Te192  1  0.15920407  0.08273107  0.04642377  1
  Te2-  Te193  1  0.16305265  0.58346840  0.04204333  1
  Te2-  Te194  1  0.66378138  0.08392135  0.04442777  1
  Te2-  Te195  1  0.65974301  0.57937626  0.04604082  1
  Te2-  Te196  1  0.41909760  0.33782192  0.04507588  1
  Te2-  Te197  1  0.42037637  0.84255341  0.04187832  1
  Te2-  Te198  1  0.91804244  0.33987443  0.04235525  1
  Te2-  Te199  1  0.91704094  0.83886006  0.04605596  1
  Te2-  Te200  1  0.42130016  0.08263198  0.04346271  1
  Te2-  Te201  1  0.42057347  0.58154819  0.04252420  1
  Te2-  Te202  1  0.92090998  0.08138231  0.04582025  1
  Te2-  Te203  1  0.91717649  0.57784624  0.04311891  1
  Te2-  Te204  1  0.49566870  0.24636940  0.37686913  1
  Te2-  Te205  1  0.49525648  0.74615566  0.37691013  1
  Te2-  Te206  1  0.99549451  0.24611185  0.37570623  1
  Te2-  Te207  1  0.99469995  0.74252465  0.37940004  1
  Te2-  Te208  1  0.25807308  0.00412285  0.37724705  1
  Te2-  Te209  1  0.25401843  0.50357556  0.37686644  1
  Te2-  Te210  1  0.75731701  0.00719645  0.37641378  1
  Te2-  Te211  1  0.75712197  0.50577790  0.37868173  1
  Te2-  Te212  1  0.25916244  0.24935209  0.37514614  1
  Te2-  Te213  1  0.25327289  0.74433832  0.37824242  1
  Te2-  Te214  1  0.75301309  0.24831573  0.37747833  1
  Te2-  Te215  1  0.75525372  0.74821528  0.37918717  1
