# generated using pymatgen
data_Ti(CuTe)4
_symmetry_space_group_name_H-M   'P 1'
_cell_length_a   16.88454956
_cell_length_b   16.88056505
_cell_length_c   20.70304874
_cell_angle_alpha   89.93532253
_cell_angle_beta   90.03010071
_cell_angle_gamma   120.01191192
_symmetry_Int_Tables_number   1
_chemical_formula_structural   Ti(CuTe)4
_chemical_formula_sum   'Ti24 Cu96 Te96'
_cell_volume   5109.62439041
_cell_formula_units_Z   24
loop_
 _symmetry_equiv_pos_site_id
 _symmetry_equiv_pos_as_xyz
  1  'x, y, z'
loop_
 _atom_type_symbol
 _atom_type_oxidation_number
  Ti4+  4.0
  Cu+  1.0
  Te2-  -2.0
loop_
 _atom_site_type_symbol
 _atom_site_label
 _atom_site_symmetry_multiplicity
 _atom_site_fract_x
 _atom_site_fract_y
 _atom_site_fract_z
 _atom_site_occupancy
  Ti4+  Ti0  1  0.00177930  -0.00207851  0.26098932  1
  Ti4+  Ti1  1  0.00363020  0.49991399  0.25549295  1
  Ti4+  Ti2  1  0.50402522  0.00330615  0.25801273  1
  Ti4+  Ti3  1  0.50045997  0.49982052  0.25461675  1
  Ti4+  Ti4  1  0.33457159  0.16987590  0.59098651  1
  Ti4+  Ti5  1  0.33202552  0.66787297  0.58927506  1
  Ti4+  Ti6  1  0.83207004  0.16476726  0.59223874  1
  Ti4+  Ti7  1  0.83324692  0.66594110  0.58779582  1
  Ti4+  Ti8  1  0.16197232  0.33157441  0.92467933  1
  Ti4+  Ti9  1  0.16610699  0.83574516  0.92513290  1
  Ti4+  Ti10  1  0.66396878  0.33245682  0.92377575  1
  Ti4+  Ti11  1  0.66607530  0.83365422  0.92802009  1
  Ti4+  Ti12  1  -0.00199777  -0.00105242  0.75709142  1
  Ti4+  Ti13  1  -0.00008782  0.49932375  0.75538100  1
  Ti4+  Ti14  1  0.49774723  0.00041572  0.75656691  1
  Ti4+  Ti15  1  0.50074899  0.50087913  0.75675275  1
  Ti4+  Ti16  1  0.33476442  0.16793104  0.08972768  1
  Ti4+  Ti17  1  0.33127211  0.66428206  0.08694606  1
  Ti4+  Ti18  1  0.83097284  0.16482699  0.08995399  1
  Ti4+  Ti19  1  0.83537497  0.66774522  0.08850894  1
  Ti4+  Ti20  1  0.16817837  0.33178604  0.42198680  1
  Ti4+  Ti21  1  0.16804276  0.83067383  0.42043814  1
  Ti4+  Ti22  1  0.66763364  0.33511927  0.42189514  1
  Ti4+  Ti23  1  0.66706646  0.83387738  0.42140887  1
  Cu+  Cu24  1  0.56994018  0.43014987  0.47166108  1
  Cu+  Cu25  1  0.07166925  0.64133475  0.47112782  1
  Cu+  Cu26  1  0.23841713  0.47557411  0.13855337  1
  Cu+  Cu27  1  0.90227416  0.09337565  0.80986902  1
  Cu+  Cu28  1  0.08199227  0.92427676  0.48026955  1
  Cu+  Cu29  1  0.02553570  0.76300250  0.14185173  1
  Cu+  Cu30  1  0.57224340  0.92838952  0.47558273  1
  Cu+  Cu31  1  0.74899683  0.76157518  0.14586091  1
  Cu+  Cu32  1  0.40167220  0.09601825  0.80685915  1
  Cu+  Cu33  1  0.52625531  0.26238055  0.14048194  1
  Cu+  Cu34  1  0.51316088  0.75936555  0.14390472  1
  Cu+  Cu35  1  0.84750018  0.92698370  0.47906207  1
  Cu+  Cu36  1  0.16584086  0.08047428  0.17364950  1
  Cu+  Cu37  1  0.16241171  0.57547517  0.16755477  1
  Cu+  Cu38  1  0.66332107  0.08118900  0.17120119  1
  Cu+  Cu39  1  0.66384285  0.58374842  0.16773987  1
  Cu+  Cu40  1  0.42408966  0.33689345  0.16846090  1
  Cu+  Cu41  1  0.42117356  0.83758115  0.17154169  1
  Cu+  Cu42  1  0.91780199  0.33447910  0.17013767  1
  Cu+  Cu43  1  0.92314894  0.83766394  0.17325675  1
  Cu+  Cu44  1  0.42482455  0.08903998  0.17175410  1
  Cu+  Cu45  1  0.41599091  0.57937014  0.16675662  1
  Cu+  Cu46  1  0.91651725  0.08056164  0.17363366  1
  Cu+  Cu47  1  0.92641464  0.58835007  0.16967738  1
  Cu+  Cu48  1  0.49959969  0.25538317  0.50447786  1
  Cu+  Cu49  1  0.49668786  0.75392979  0.50305761  1
  Cu+  Cu50  1  0.99909145  0.24675131  0.50513152  1
  Cu+  Cu51  1  0.99788108  0.74575513  0.49991892  1
  Cu+  Cu52  1  0.25426670  0.00518465  0.50524398  1
  Cu+  Cu53  1  0.25181934  0.50203463  0.50344340  1
  Cu+  Cu54  1  0.75034740  0.00415432  0.50427071  1
  Cu+  Cu55  1  0.74655166  0.50331482  0.50097748  1
  Cu+  Cu56  1  0.25334733  0.24873730  0.50321608  1
  Cu+  Cu57  1  0.24830604  0.74233005  0.50069351  1
  Cu+  Cu58  1  0.75084856  0.24825566  0.50531921  1
  Cu+  Cu59  1  0.75521548  0.75039384  0.50099188  1
  Cu+  Cu60  1  0.33012481  0.41648193  0.84006736  1
  Cu+  Cu61  1  0.32933270  0.92172023  0.83789560  1
  Cu+  Cu62  1  0.83010776  0.41343208  0.83783361  1
  Cu+  Cu63  1  0.82953731  0.91819160  0.84034564  1
  Cu+  Cu64  1  0.07742947  0.16817351  0.83827713  1
  Cu+  Cu65  1  0.08117486  0.66871052  0.83951943  1
  Cu+  Cu66  1  0.57665172  0.16839682  0.83793272  1
  Cu+  Cu67  1  0.58543361  0.66931178  0.84184006  1
  Cu+  Cu68  1  0.08302829  0.41401787  0.83752000  1
  Cu+  Cu69  1  0.08310987  0.91331315  0.83899478  1
  Cu+  Cu70  1  0.58312075  0.41390919  0.83810797  1
  Cu+  Cu71  1  0.58204313  0.91295927  0.83987185  1
  Cu+  Cu72  1  0.16717460  0.08247011  0.67656735  1
  Cu+  Cu73  1  0.16785510  0.58446940  0.67447185  1
  Cu+  Cu74  1  0.66593725  0.08083394  0.67692815  1
  Cu+  Cu75  1  0.66834361  0.58500163  0.67437708  1
  Cu+  Cu76  1  0.41764303  0.33517436  0.67580517  1
  Cu+  Cu77  1  0.41432867  0.83224037  0.67387823  1
  Cu+  Cu78  1  0.91690492  0.32975007  0.67585958  1
  Cu+  Cu79  1  0.91666673  0.83119340  0.67487356  1
  Cu+  Cu80  1  0.41397454  0.08727048  0.67793466  1
  Cu+  Cu81  1  0.41658578  0.58813358  0.67406317  1
  Cu+  Cu82  1  0.91153783  0.08105000  0.68068051  1
  Cu+  Cu83  1  0.91573745  0.58317238  0.67221529  1
  Cu+  Cu84  1  -0.00270427  0.24773376  0.00926752  1
  Cu+  Cu85  1  0.00477060  0.75334428  0.01326358  1
  Cu+  Cu86  1  0.50212245  0.25153051  0.01207657  1
  Cu+  Cu87  1  0.50231285  0.75025671  0.01416126  1
  Cu+  Cu88  1  0.24326840  0.49391100  0.01087671  1
  Cu+  Cu89  1  0.24903831  0.99993888  0.00962732  1
  Cu+  Cu90  1  0.74912170  0.49710901  0.00620290  1
  Cu+  Cu91  1  0.74786307  0.99769539  0.01134136  1
  Cu+  Cu92  1  0.24508995  0.24977792  0.00765165  1
  Cu+  Cu93  1  0.24700981  0.75127321  0.00615834  1
  Cu+  Cu94  1  0.74455509  0.24734894  0.00712855  1
  Cu+  Cu95  1  0.74925760  0.75253752  0.01480511  1
  Cu+  Cu96  1  0.33396759  0.41408180  0.33941970  1
  Cu+  Cu97  1  0.34024195  0.91853484  0.34007805  1
  Cu+  Cu98  1  0.83857522  0.41837672  0.33911050  1
  Cu+  Cu99  1  0.83745427  0.91596648  0.34856812  1
  Cu+  Cu100  1  0.08352077  0.16219448  0.34408724  1
  Cu+  Cu101  1  0.08688241  0.66196775  0.34257578  1
  Cu+  Cu102  1  0.58587333  0.16753254  0.34281452  1
  Cu+  Cu103  1  0.58196985  0.66488496  0.33995719  1
  Cu+  Cu104  1  0.08459210  0.41495897  0.34078440  1
  Cu+  Cu105  1  0.08350497  0.91515427  0.34862516  1
  Cu+  Cu106  1  0.58262768  0.41821823  0.34342270  1
  Cu+  Cu107  1  0.58387118  0.91948979  0.34660357  1
  Cu+  Cu108  1  0.00345768  0.00611316  0.11822194  1
  Cu+  Cu109  1  -0.00590396  0.49530887  0.11175294  1
  Cu+  Cu110  1  0.49550989  -0.00239952  0.11466465  1
  Cu+  Cu111  1  0.50052636  0.49911296  0.10935446  1
  Cu+  Cu112  1  0.33659198  0.16592877  0.44743875  1
  Cu+  Cu113  1  0.33553792  0.66205883  0.44526263  1
  Cu+  Cu114  1  0.83774395  0.17339291  0.44932468  1
  Cu+  Cu115  1  0.83357216  0.66515724  0.44267763  1
  Cu+  Cu116  1  0.16954661  0.33286388  0.78225729  1
  Cu+  Cu117  1  0.16586852  0.82935862  0.78222013  1
  Cu+  Cu118  1  0.66898459  0.33406030  0.78107397  1
  Cu+  Cu119  1  0.66414172  0.83074618  0.78510275  1
  Te2-  Te120  1  0.00280094  -0.00011154  0.39319446  1
  Te2-  Te121  1  0.00139305  0.49571912  0.38598517  1
  Te2-  Te122  1  0.50173758  0.00396408  0.38880600  1
  Te2-  Te123  1  0.49775828  0.50094930  0.38475153  1
  Te2-  Te124  1  0.33143397  0.17092842  0.72131618  1
  Te2-  Te125  1  0.33224486  0.66804616  0.71803610  1
  Te2-  Te126  1  0.82978612  0.16616774  0.72259665  1
  Te2-  Te127  1  0.83370020  0.66564076  0.71600359  1
  Te2-  Te128  1  0.16101860  0.32793118  0.05555448  1
  Te2-  Te129  1  0.17112256  0.83650585  0.05628687  1
  Te2-  Te130  1  0.66914271  0.33476824  0.05469687  1
  Te2-  Te131  1  0.66728160  0.83541388  0.06056654  1
  Te2-  Te132  1  0.48883087  0.24792507  0.88533373  1
  Te2-  Te133  1  0.49491144  0.74666920  0.88700624  1
  Te2-  Te134  1  0.98766277  0.24736843  0.88379899  1
  Te2-  Te135  1  0.99365848  0.74795171  0.88658206  1
  Te2-  Te136  1  0.24971268  0.01047841  0.88416373  1
  Te2-  Te137  1  0.24904112  0.50339950  0.88455894  1
  Te2-  Te138  1  0.74919526  0.00713564  0.88538743  1
  Te2-  Te139  1  0.75149811  0.50357809  0.88081899  1
  Te2-  Te140  1  0.24681089  0.24622460  0.88150240  1
  Te2-  Te141  1  0.25157012  0.75172352  0.88021471  1
  Te2-  Te142  1  0.74598637  0.24427286  0.88117549  1
  Te2-  Te143  1  0.75345593  0.75062007  0.88706042  1
  Te2-  Te144  1  0.32858185  0.41004817  0.21340999  1
  Te2-  Te145  1  0.33431343  0.91884385  0.21415850  1
  Te2-  Te146  1  0.83357373  0.41896228  0.21314046  1
  Te2-  Te147  1  0.82856128  0.91365515  0.22090843  1
  Te2-  Te148  1  0.08506427  0.16757449  0.21795281  1
  Te2-  Te149  1  0.09510118  0.67424296  0.21596727  1
  Te2-  Te150  1  0.59380059  0.17761315  0.21726711  1
  Te2-  Te151  1  0.58692675  0.67570458  0.21441629  1
  Te2-  Te152  1  0.08572058  0.40793669  0.21504411  1
  Te2-  Te153  1  0.09105344  0.91349449  0.22068924  1
  Te2-  Te154  1  0.59179837  0.41785548  0.21620057  1
  Te2-  Te155  1  0.59074705  0.91566633  0.21939290  1
  Te2-  Te156  1  0.16039925  0.08228489  0.55065222  1
  Te2-  Te157  1  0.15729396  0.57546009  0.54850100  1
  Te2-  Te158  1  0.65846562  0.08058557  0.55087744  1
  Te2-  Te159  1  0.65939587  0.58431840  0.54805109  1
  Te2-  Te160  1  0.41916191  0.34395041  0.54984629  1
  Te2-  Te161  1  0.41536290  0.84231190  0.54819900  1
  Te2-  Te162  1  0.91891917  0.33486108  0.54959840  1
  Te2-  Te163  1  0.92357954  0.84278267  0.54890726  1
  Te2-  Te164  1  0.42113672  0.08626470  0.55049818  1
  Te2-  Te165  1  0.42047260  0.58550528  0.54758153  1
  Te2-  Te166  1  0.92047965  0.07968313  0.55306076  1
  Te2-  Te167  1  0.91593991  0.57652186  0.54601894  1
  Te2-  Te168  1  -0.00077701  -0.00099176  0.88390501  1
  Te2-  Te169  1  -0.00139802  0.49910862  0.88166286  1
  Te2-  Te170  1  0.49810183  -0.00103995  0.88334700  1
  Te2-  Te171  1  0.49940235  0.49942589  0.88313723  1
  Te2-  Te172  1  0.33563228  0.16887591  0.21664874  1
  Te2-  Te173  1  0.33306227  0.66599958  0.21461577  1
  Te2-  Te174  1  0.83299508  0.16644644  0.21617003  1
  Te2-  Te175  1  0.83339562  0.66497491  0.21602509  1
  Te2-  Te176  1  0.16841867  0.33316513  0.54811161  1
  Te2-  Te177  1  0.16812094  0.83291649  0.54795238  1
  Te2-  Te178  1  0.66875147  0.33551952  0.54879571  1
  Te2-  Te179  1  0.66677033  0.83194891  0.54886561  1
  Te2-  Te180  1  0.32977674  0.41761711  0.71255443  1
  Te2-  Te181  1  0.32606988  0.91446951  0.71040908  1
  Te2-  Te182  1  0.82893109  0.41310978  0.71058302  1
  Te2-  Te183  1  0.82491077  0.90905843  0.71290154  1
  Te2-  Te184  1  0.08511342  0.17145676  0.71117623  1
  Te2-  Te185  1  0.08445741  0.67097052  0.71168738  1
  Te2-  Te186  1  0.58632919  0.17280773  0.71083430  1
  Te2-  Te187  1  0.58600172  0.67234994  0.71378604  1
  Te2-  Te188  1  0.08691256  0.41405076  0.71163496  1
  Te2-  Te189  1  0.08531542  0.91324073  0.71311237  1
  Te2-  Te190  1  0.58690494  0.41529298  0.71197724  1
  Te2-  Te191  1  0.58267022  0.91192302  0.71373404  1
  Te2-  Te192  1  0.16167674  0.08124012  0.04716508  1
  Te2-  Te193  1  0.15784065  0.58114500  0.04172818  1
  Te2-  Te194  1  0.65852166  0.07861207  0.04560878  1
  Te2-  Te195  1  0.66187042  0.57900503  0.04174748  1
  Te2-  Te196  1  0.41631531  0.33878421  0.04181441  1
  Te2-  Te197  1  0.41705453  0.83827025  0.04359639  1
  Te2-  Te198  1  0.91492607  0.33551531  0.04363208  1
  Te2-  Te199  1  0.92188470  0.84284241  0.04568466  1
  Te2-  Te200  1  0.41878925  0.07967887  0.04447447  1
  Te2-  Te201  1  0.41689474  0.57652789  0.04008267  1
  Te2-  Te202  1  0.91759689  0.07870704  0.04700074  1
  Te2-  Te203  1  0.91929274  0.57971867  0.04245469  1
  Te2-  Te204  1  0.49499195  0.24656481  0.37708181  1
  Te2-  Te205  1  0.49417612  0.74631527  0.37568304  1
  Te2-  Te206  1  0.99584059  0.24518298  0.37841671  1
  Te2-  Te207  1  0.99422104  0.74190200  0.37318378  1
  Te2-  Te208  1  0.25696001  0.00496375  0.37758346  1
  Te2-  Te209  1  0.25390309  0.50319483  0.37650399  1
  Te2-  Te210  1  0.75673347  0.00862774  0.37716794  1
  Te2-  Te211  1  0.75559831  0.50597017  0.37398574  1
  Te2-  Te212  1  0.25405513  0.24525205  0.37748126  1
  Te2-  Te213  1  0.25879100  0.74834394  0.37481564  1
  Te2-  Te214  1  0.75504279  0.24976583  0.37876962  1
  Te2-  Te215  1  0.75075496  0.74334164  0.37496798  1
