# generated using pymatgen
data_Ti(CuTe)4
_symmetry_space_group_name_H-M   'P 1'
_cell_length_a   16.88128521
_cell_length_b   16.87652603
_cell_length_c   20.69142766
_cell_angle_alpha   89.95517733
_cell_angle_beta   89.99952285
_cell_angle_gamma   120.01131061
_symmetry_Int_Tables_number   1
_chemical_formula_structural   Ti(CuTe)4
_chemical_formula_sum   'Ti24 Cu96 Te96'
_cell_volume   5104.57937387
_cell_formula_units_Z   24
loop_
 _symmetry_equiv_pos_site_id
 _symmetry_equiv_pos_as_xyz
  1  'x, y, z'
loop_
 _atom_type_symbol
 _atom_type_oxidation_number
  Ti4+  4.0
  Cu+  1.0
  Te2-  -2.0
loop_
 _atom_site_type_symbol
 _atom_site_label
 _atom_site_symmetry_multiplicity
 _atom_site_fract_x
 _atom_site_fract_y
 _atom_site_fract_z
 _atom_site_occupancy
  Ti4+  Ti0  1  0.00073022  -0.00232272  0.25671982  1
  Ti4+  Ti1  1  -0.00107733  0.49752289  0.26233203  1
  Ti4+  Ti2  1  0.49856599  0.00045863  0.25903490  1
  Ti4+  Ti3  1  0.49834342  0.49779570  0.25611109  1
  Ti4+  Ti4  1  0.33393583  0.16699504  0.59314286  1
  Ti4+  Ti5  1  0.33391538  0.66950601  0.59132641  1
  Ti4+  Ti6  1  0.83276727  0.16768448  0.59152132  1
  Ti4+  Ti7  1  0.83499483  0.67000959  0.58899609  1
  Ti4+  Ti8  1  0.16769357  0.33797537  0.92261239  1
  Ti4+  Ti9  1  0.16735552  0.83541149  0.92520835  1
  Ti4+  Ti10  1  0.66758076  0.32986534  0.92630467  1
  Ti4+  Ti11  1  0.66736371  0.83336970  0.92215667  1
  Ti4+  Ti12  1  -0.00036774  -0.00008581  0.75421694  1
  Ti4+  Ti13  1  0.00022039  0.49819258  0.75559399  1
  Ti4+  Ti14  1  0.49945069  0.00098581  0.75532341  1
  Ti4+  Ti15  1  0.49980423  0.50120199  0.75361864  1
  Ti4+  Ti16  1  0.33240493  0.16469481  0.08599174  1
  Ti4+  Ti17  1  0.33367941  0.66652255  0.09085549  1
  Ti4+  Ti18  1  0.83333057  0.16701247  0.09147082  1
  Ti4+  Ti19  1  0.83254366  0.66544919  0.08782112  1
  Ti4+  Ti20  1  0.16567178  0.33226014  0.42256284  1
  Ti4+  Ti21  1  0.16551622  0.83115072  0.42227015  1
  Ti4+  Ti22  1  0.66592180  0.33116325  0.42367193  1
  Ti4+  Ti23  1  0.66674859  0.83372929  0.42187529  1
  Cu+  Cu24  1  0.18312705  0.59745303  0.80983844  1
  Cu+  Cu25  1  0.40623876  0.09693469  0.80946799  1
  Cu+  Cu26  1  0.74578814  0.26120702  0.14905885  1
  Cu+  Cu27  1  0.68138599  0.08876953  0.81102054  1
  Cu+  Cu28  1  0.41177109  0.60027428  0.80427384  1
  Cu+  Cu29  1  0.91274169  0.31734409  0.81167353  1
  Cu+  Cu30  1  0.84908548  0.42709908  0.48042777  1
  Cu+  Cu31  1  0.85769965  0.93235157  0.47153894  1
  Cu+  Cu32  1  0.08001801  0.43115076  0.47763016  1
  Cu+  Cu33  1  0.57280007  0.93047694  0.47454680  1
  Cu+  Cu34  1  0.23911066  0.97560161  0.14054904  1
  Cu+  Cu35  1  0.51172985  0.25735200  0.14415302  1
  Cu+  Cu36  1  0.16195979  0.07466190  0.16757868  1
  Cu+  Cu37  1  0.16489172  0.57923386  0.17581761  1
  Cu+  Cu38  1  0.66438437  0.08453021  0.17307091  1
  Cu+  Cu39  1  0.66240894  0.57957376  0.16844753  1
  Cu+  Cu40  1  0.41965268  0.33863607  0.16770245  1
  Cu+  Cu41  1  0.41892445  0.83505191  0.17314674  1
  Cu+  Cu42  1  0.91828053  0.33747852  0.17580990  1
  Cu+  Cu43  1  0.91681122  0.83513194  0.17001983  1
  Cu+  Cu44  1  0.41589201  0.07876603  0.16825098  1
  Cu+  Cu45  1  0.41647728  0.57916898  0.17153988  1
  Cu+  Cu46  1  0.91882743  0.08070624  0.17269214  1
  Cu+  Cu47  1  0.91501962  0.57992873  0.17280199  1
  Cu+  Cu48  1  0.49478991  0.24536239  0.50749954  1
  Cu+  Cu49  1  0.49755642  0.75391158  0.50385578  1
  Cu+  Cu50  1  0.99830977  0.25491299  0.50221364  1
  Cu+  Cu51  1  0.99560732  0.74938371  0.50204905  1
  Cu+  Cu52  1  0.25295391  0.00121930  0.50686895  1
  Cu+  Cu53  1  0.25127529  0.50360193  0.50647217  1
  Cu+  Cu54  1  0.74948454  0.00147507  0.50391059  1
  Cu+  Cu55  1  0.75276528  0.50324703  0.50474339  1
  Cu+  Cu56  1  0.25260898  0.24835537  0.50567135  1
  Cu+  Cu57  1  0.25073133  0.74781101  0.50379300  1
  Cu+  Cu58  1  0.75382654  0.25023607  0.50467732  1
  Cu+  Cu59  1  0.75752503  0.75458159  0.50171514  1
  Cu+  Cu60  1  0.33235840  0.42373652  0.83380506  1
  Cu+  Cu61  1  0.32982308  0.92082614  0.83734083  1
  Cu+  Cu62  1  0.83014702  0.40847994  0.83743607  1
  Cu+  Cu63  1  0.83058706  0.91480185  0.83511007  1
  Cu+  Cu64  1  0.08406103  0.16953489  0.83566581  1
  Cu+  Cu65  1  0.08627871  0.67033781  0.83918064  1
  Cu+  Cu66  1  0.58482399  0.16905753  0.83768681  1
  Cu+  Cu67  1  0.58255386  0.66918826  0.83550119  1
  Cu+  Cu68  1  0.08835507  0.41648838  0.83429212  1
  Cu+  Cu69  1  0.08453329  0.91620642  0.83810898  1
  Cu+  Cu70  1  0.58485036  0.41444534  0.83747768  1
  Cu+  Cu71  1  0.58926992  0.91542367  0.83411624  1
  Cu+  Cu72  1  0.16957513  0.08367568  0.67457374  1
  Cu+  Cu73  1  0.16770338  0.58295434  0.68109617  1
  Cu+  Cu74  1  0.66732913  0.08438869  0.68021680  1
  Cu+  Cu75  1  0.67075028  0.58488490  0.67056361  1
  Cu+  Cu76  1  0.41707898  0.33140921  0.67445244  1
  Cu+  Cu77  1  0.41574919  0.83530601  0.67457481  1
  Cu+  Cu78  1  0.91438219  0.33153780  0.68286619  1
  Cu+  Cu79  1  0.91630841  0.83244536  0.67337907  1
  Cu+  Cu80  1  0.41358502  0.08615810  0.68109732  1
  Cu+  Cu81  1  0.41464637  0.58690795  0.67611425  1
  Cu+  Cu82  1  0.91536334  0.08366653  0.67308888  1
  Cu+  Cu83  1  0.91398780  0.58446104  0.67501542  1
  Cu+  Cu84  1  0.00219663  0.25297172  0.00948552  1
  Cu+  Cu85  1  0.00114900  0.75001627  0.00884458  1
  Cu+  Cu86  1  0.50181054  0.24882087  0.01435199  1
  Cu+  Cu87  1  0.50298136  0.75134972  0.00728947  1
  Cu+  Cu88  1  0.24857567  0.50072690  0.00895949  1
  Cu+  Cu89  1  0.24694519  0.99717981  0.01256444  1
  Cu+  Cu90  1  0.75058945  0.49675599  0.00788998  1
  Cu+  Cu91  1  0.74984259  0.99714952  0.00753252  1
  Cu+  Cu92  1  0.24827141  0.25330581  0.00416255  1
  Cu+  Cu93  1  0.25016955  0.75130106  0.01012848  1
  Cu+  Cu94  1  0.74946634  0.24873480  0.01815073  1
  Cu+  Cu95  1  0.74825631  0.74932226  0.00452779  1
  Cu+  Cu96  1  0.33567047  0.41622354  0.33953619  1
  Cu+  Cu97  1  0.33263434  0.91472369  0.34317010  1
  Cu+  Cu98  1  0.83410259  0.41309105  0.35052853  1
  Cu+  Cu99  1  0.83783367  0.91759632  0.34368134  1
  Cu+  Cu100  1  0.08362623  0.16274742  0.33941536  1
  Cu+  Cu101  1  0.08161032  0.66292914  0.34337314  1
  Cu+  Cu102  1  0.57984111  0.16467694  0.34447176  1
  Cu+  Cu103  1  0.58003997  0.66148438  0.33859313  1
  Cu+  Cu104  1  0.08026089  0.41578762  0.34846586  1
  Cu+  Cu105  1  0.08350991  0.91567475  0.34087889  1
  Cu+  Cu106  1  0.57848764  0.41448864  0.34109059  1
  Cu+  Cu107  1  0.57959643  0.91776999  0.34613503  1
  Cu+  Cu108  1  -0.00323353  -0.00064723  0.11284986  1
  Cu+  Cu109  1  0.00388494  0.50605625  0.11979838  1
  Cu+  Cu110  1  0.50135386  -0.00393770  0.11536218  1
  Cu+  Cu111  1  0.50194928  0.50516964  0.11124788  1
  Cu+  Cu112  1  0.32948521  0.16327892  0.45053525  1
  Cu+  Cu113  1  0.33523595  0.66518823  0.44746781  1
  Cu+  Cu114  1  0.83421894  0.16363048  0.44682865  1
  Cu+  Cu115  1  0.82925573  0.66403063  0.44430429  1
  Cu+  Cu116  1  0.17101941  0.32836728  0.77787782  1
  Cu+  Cu117  1  0.16287358  0.83212938  0.78189117  1
  Cu+  Cu118  1  0.66654936  0.33663216  0.78135095  1
  Cu+  Cu119  1  0.67033177  0.83000360  0.77713278  1
  Te2-  Te120  1  0.00390712  0.00009066  0.38736582  1
  Te2-  Te121  1  0.00004205  0.50074065  0.39429806  1
  Te2-  Te122  1  0.49649316  0.00048206  0.38958039  1
  Te2-  Te123  1  0.49884678  0.49880768  0.38549831  1
  Te2-  Te124  1  0.33146206  0.16980754  0.72418935  1
  Te2-  Te125  1  0.33439396  0.67189014  0.72296771  1
  Te2-  Te126  1  0.83362758  0.16463151  0.72310996  1
  Te2-  Te127  1  0.83320024  0.66814729  0.71793515  1
  Te2-  Te128  1  0.16760357  0.33552277  0.05130235  1
  Te2-  Te129  1  0.16500839  0.83043666  0.05533307  1
  Te2-  Te130  1  0.66783247  0.33407287  0.05803149  1
  Te2-  Te131  1  0.66751991  0.83222316  0.05075680  1
  Te2-  Te132  1  0.49505928  0.24814398  0.88593608  1
  Te2-  Te133  1  0.49338484  0.75022645  0.88146451  1
  Te2-  Te134  1  0.99392704  0.24614594  0.88298125  1
  Te2-  Te135  1  0.99671187  0.74822667  0.88272717  1
  Te2-  Te136  1  0.25096496  0.00951052  0.88510554  1
  Te2-  Te137  1  0.25579243  0.51446763  0.88251621  1
  Te2-  Te138  1  0.75761182  0.00798821  0.88168876  1
  Te2-  Te139  1  0.75319439  0.49928390  0.88192469  1
  Te2-  Te140  1  0.25330402  0.25421209  0.87782452  1
  Te2-  Te141  1  0.25780112  0.75282506  0.88388969  1
  Te2-  Te142  1  0.75492265  0.24157269  0.88801448  1
  Te2-  Te143  1  0.75094984  0.74674128  0.87839362  1
  Te2-  Te144  1  0.32657371  0.41115371  0.21401321  1
  Te2-  Te145  1  0.32611004  0.91033243  0.21698272  1
  Te2-  Te146  1  0.82505869  0.41422841  0.22225675  1
  Te2-  Te147  1  0.82883663  0.91327201  0.21660597  1
  Te2-  Te148  1  0.08810981  0.16839030  0.21366111  1
  Te2-  Te149  1  0.08308499  0.66689789  0.21742897  1
  Te2-  Te150  1  0.58540811  0.17587267  0.21802641  1
  Te2-  Te151  1  0.58492279  0.66916243  0.21293709  1
  Te2-  Te152  1  0.08470291  0.41237669  0.22130451  1
  Te2-  Te153  1  0.08414221  0.90694580  0.21507758  1
  Te2-  Te154  1  0.58824031  0.41316357  0.21523449  1
  Te2-  Te155  1  0.58597729  0.91690814  0.21857641  1
  Te2-  Te156  1  0.16328138  0.08045807  0.54891679  1
  Te2-  Te157  1  0.16015835  0.58305747  0.55326780  1
  Te2-  Te158  1  0.66061745  0.08324589  0.55179143  1
  Te2-  Te159  1  0.66494479  0.58490306  0.54477283  1
  Te2-  Te160  1  0.42003955  0.33850407  0.54921322  1
  Te2-  Te161  1  0.41731551  0.84286367  0.54900480  1
  Te2-  Te162  1  0.92167020  0.34393427  0.55416741  1
  Te2-  Te163  1  0.92515642  0.84472555  0.54766208  1
  Te2-  Te164  1  0.41929330  0.07972801  0.55388518  1
  Te2-  Te165  1  0.41995367  0.58531443  0.54897125  1
  Te2-  Te166  1  0.92175069  0.08600961  0.54712214  1
  Te2-  Te167  1  0.92370823  0.58396363  0.54954687  1
  Te2-  Te168  1  -0.00081379  0.00069808  0.88056732  1
  Te2-  Te169  1  0.00055781  0.49931480  0.88341267  1
  Te2-  Te170  1  0.50081779  -0.00237210  0.88272995  1
  Te2-  Te171  1  0.50069740  0.49999651  0.88075270  1
  Te2-  Te172  1  0.33227210  0.16652667  0.21348100  1
  Te2-  Te173  1  0.33472679  0.66555778  0.21698696  1
  Te2-  Te174  1  0.83430310  0.16534410  0.21839906  1
  Te2-  Te175  1  0.83061110  0.66544670  0.21424657  1
  Te2-  Te176  1  0.16757932  0.33285264  0.54971943  1
  Te2-  Te177  1  0.16488735  0.83162785  0.54856335  1
  Te2-  Te178  1  0.66597402  0.33320460  0.55053120  1
  Te2-  Te179  1  0.66662660  0.83210862  0.54952448  1
  Te2-  Te180  1  0.32774158  0.41386859  0.70669576  1
  Te2-  Te181  1  0.32519070  0.91345257  0.71118566  1
  Te2-  Te182  1  0.82591505  0.41519159  0.71095212  1
  Te2-  Te183  1  0.82786210  0.91414983  0.70830330  1
  Te2-  Te184  1  0.08574870  0.17136965  0.70850352  1
  Te2-  Te185  1  0.08386125  0.67184179  0.71168048  1
  Te2-  Te186  1  0.58660062  0.17566562  0.71054353  1
  Te2-  Te187  1  0.58784523  0.67270468  0.70707807  1
  Te2-  Te188  1  0.08771822  0.41042675  0.70815440  1
  Te2-  Te189  1  0.08598702  0.91386683  0.71135470  1
  Te2-  Te190  1  0.58696604  0.41577919  0.71047361  1
  Te2-  Te191  1  0.58493567  0.91210784  0.70843522  1
  Te2-  Te192  1  0.15946668  0.08310170  0.04088482  1
  Te2-  Te193  1  0.16106112  0.58163907  0.04782462  1
  Te2-  Te194  1  0.66027117  0.07609762  0.04595045  1
  Te2-  Te195  1  0.66148437  0.57890867  0.04143116  1
  Te2-  Te196  1  0.41783617  0.33877459  0.04104982  1
  Te2-  Te197  1  0.42042093  0.83820382  0.04606755  1
  Te2-  Te198  1  0.92212438  0.34137832  0.04832168  1
  Te2-  Te199  1  0.91786928  0.83744427  0.04340334  1
  Te2-  Te200  1  0.41977926  0.07612321  0.04165116  1
  Te2-  Te201  1  0.41895630  0.58141474  0.04408447  1
  Te2-  Te202  1  0.91920751  0.08233597  0.04549285  1
  Te2-  Te203  1  0.91991923  0.57948427  0.04554947  1
  Te2-  Te204  1  0.49260088  0.24632552  0.38103891  1
  Te2-  Te205  1  0.49409174  0.74500507  0.37641473  1
  Te2-  Te206  1  0.99307477  0.24232273  0.37591489  1
  Te2-  Te207  1  0.99316445  0.74547254  0.37668578  1
  Te2-  Te208  1  0.25239548  0.00399940  0.37934401  1
  Te2-  Te209  1  0.25415671  0.50469642  0.37806213  1
  Te2-  Te210  1  0.75333826  0.00613575  0.37535007  1
  Te2-  Te211  1  0.74922963  0.50277005  0.37704355  1
  Te2-  Te212  1  0.25241628  0.24712605  0.37870194  1
  Te2-  Te213  1  0.25207198  0.74444517  0.37816836  1
  Te2-  Te214  1  0.74978728  0.24069509  0.37858143  1
  Te2-  Te215  1  0.74996485  0.74511142  0.37489129  1
