# generated using pymatgen
data_Ti(CuTe)4
_symmetry_space_group_name_H-M   'P 1'
_cell_length_a   16.89086385
_cell_length_b   16.89001469
_cell_length_c   20.71112287
_cell_angle_alpha   89.93803294
_cell_angle_beta   90.03236739
_cell_angle_gamma   120.01599131
_symmetry_Int_Tables_number   1
_chemical_formula_structural   Ti(CuTe)4
_chemical_formula_sum   'Ti24 Cu96 Te96'
_cell_volume   5116.18107514
_cell_formula_units_Z   24
loop_
 _symmetry_equiv_pos_site_id
 _symmetry_equiv_pos_as_xyz
  1  'x, y, z'
loop_
 _atom_type_symbol
 _atom_type_oxidation_number
  Ti4+  4.0
  Cu+  1.0
  Te2-  -2.0
loop_
 _atom_site_type_symbol
 _atom_site_label
 _atom_site_symmetry_multiplicity
 _atom_site_fract_x
 _atom_site_fract_y
 _atom_site_fract_z
 _atom_site_occupancy
  Ti4+  Ti0  1  0.00095996  -0.00054292  0.25632212  1
  Ti4+  Ti1  1  -0.00003078  0.49934629  0.26183447  1
  Ti4+  Ti2  1  0.50160399  -0.00199133  0.25787721  1
  Ti4+  Ti3  1  0.49872007  0.49984531  0.25733235  1
  Ti4+  Ti4  1  0.33453341  0.16897449  0.58975072  1
  Ti4+  Ti5  1  0.33083693  0.66373594  0.59325564  1
  Ti4+  Ti6  1  0.82984248  0.16307647  0.59094905  1
  Ti4+  Ti7  1  0.83289688  0.66537593  0.58980412  1
  Ti4+  Ti8  1  0.16888175  0.33939695  0.92772476  1
  Ti4+  Ti9  1  0.16635784  0.83616378  0.92151851  1
  Ti4+  Ti10  1  0.66808121  0.33435913  0.92179894  1
  Ti4+  Ti11  1  0.66743841  0.83621090  0.92373828  1
  Ti4+  Ti12  1  0.00040369  -0.00049708  0.75409269  1
  Ti4+  Ti13  1  -0.00101594  0.49944848  0.75510124  1
  Ti4+  Ti14  1  0.50009032  -0.00059213  0.75406214  1
  Ti4+  Ti15  1  0.49869709  0.49970558  0.75651306  1
  Ti4+  Ti16  1  0.33278391  0.16736576  0.08777911  1
  Ti4+  Ti17  1  0.33576533  0.66934422  0.09011859  1
  Ti4+  Ti18  1  0.83385035  0.16735897  0.08904788  1
  Ti4+  Ti19  1  0.83384476  0.66677100  0.08903448  1
  Ti4+  Ti20  1  0.16903543  0.33281496  0.42310303  1
  Ti4+  Ti21  1  0.16538940  0.83037877  0.42196986  1
  Ti4+  Ti22  1  0.66633042  0.33159122  0.42131677  1
  Ti4+  Ti23  1  0.66582551  0.83305953  0.42295955  1
  Cu+  Cu24  1  0.68764323  0.09471142  0.80814370  1
  Cu+  Cu25  1  0.56821108  0.92531386  0.47557230  1
  Cu+  Cu26  1  0.52542356  0.76143352  0.14010507  1
  Cu+  Cu27  1  0.17923792  0.59418741  0.81398738  1
  Cu+  Cu28  1  0.90500559  0.59586050  0.80562558  1
  Cu+  Cu29  1  0.24246515  0.49124592  0.15189987  1
  Cu+  Cu30  1  0.40797384  0.09720382  0.80458207  1
  Cu+  Cu31  1  0.06913081  0.64580153  0.47716713  1
  Cu+  Cu32  1  0.23697645  0.25560572  0.14252811  1
  Cu+  Cu33  1  0.07442480  0.41817997  0.48154193  1
  Cu+  Cu34  1  0.41022797  0.59728593  0.81188044  1
  Cu+  Cu35  1  0.35869853  0.42984459  0.47481803  1
  Cu+  Cu36  1  0.16220678  0.08307938  0.16961360  1
  Cu+  Cu37  1  0.15963980  0.58031330  0.17486433  1
  Cu+  Cu38  1  0.66428473  0.07898840  0.17113767  1
  Cu+  Cu39  1  0.66460983  0.58116284  0.17058903  1
  Cu+  Cu40  1  0.41215066  0.33400066  0.16967203  1
  Cu+  Cu41  1  0.42610330  0.83721993  0.17112069  1
  Cu+  Cu42  1  0.91863725  0.33431854  0.17346342  1
  Cu+  Cu43  1  0.91924046  0.83566613  0.17079274  1
  Cu+  Cu44  1  0.41755330  0.07993598  0.17145674  1
  Cu+  Cu45  1  0.42013222  0.58262446  0.16999565  1
  Cu+  Cu46  1  0.91839829  0.08096331  0.16946446  1
  Cu+  Cu47  1  0.91922556  0.58416832  0.17431637  1
  Cu+  Cu48  1  0.49673899  0.24847658  0.50344919  1
  Cu+  Cu49  1  0.49713503  0.74975282  0.50600739  1
  Cu+  Cu50  1  0.99523109  0.24586758  0.50551096  1
  Cu+  Cu51  1  0.99475382  0.74354580  0.50392675  1
  Cu+  Cu52  1  0.25056462  0.00239235  0.50446074  1
  Cu+  Cu53  1  0.25269538  0.50112552  0.50534962  1
  Cu+  Cu54  1  0.74444284  0.00009819  0.50465496  1
  Cu+  Cu55  1  0.75020468  0.50137113  0.50324080  1
  Cu+  Cu56  1  0.25923702  0.25417705  0.50304017  1
  Cu+  Cu57  1  0.24361548  0.74089582  0.50416044  1
  Cu+  Cu58  1  0.74877949  0.24426317  0.50339837  1
  Cu+  Cu59  1  0.75219798  0.74838331  0.50427571  1
  Cu+  Cu60  1  0.33133132  0.42285045  0.84001650  1
  Cu+  Cu61  1  0.33073001  0.92103310  0.83447696  1
  Cu+  Cu62  1  0.82980073  0.41914721  0.83485062  1
  Cu+  Cu63  1  0.83209508  0.91681477  0.83632078  1
  Cu+  Cu64  1  0.08513192  0.16897504  0.83973756  1
  Cu+  Cu65  1  0.08258602  0.67168416  0.83540826  1
  Cu+  Cu66  1  0.58579182  0.16940295  0.83500208  1
  Cu+  Cu67  1  0.58148607  0.67027089  0.83843860  1
  Cu+  Cu68  1  0.09089212  0.42044556  0.83834160  1
  Cu+  Cu69  1  0.08570134  0.91578635  0.83353572  1
  Cu+  Cu70  1  0.58668853  0.41595522  0.83615933  1
  Cu+  Cu71  1  0.58991333  0.91841621  0.83552937  1
  Cu+  Cu72  1  0.16877403  0.08549860  0.67200437  1
  Cu+  Cu73  1  0.16630294  0.57938139  0.68296365  1
  Cu+  Cu74  1  0.66761700  0.08020409  0.67899116  1
  Cu+  Cu75  1  0.66847724  0.58290757  0.67341762  1
  Cu+  Cu76  1  0.41557409  0.33220798  0.67546952  1
  Cu+  Cu77  1  0.41438233  0.82956787  0.67546595  1
  Cu+  Cu78  1  0.91373458  0.32789323  0.67596389  1
  Cu+  Cu79  1  0.91695731  0.83063012  0.67275169  1
  Cu+  Cu80  1  0.41355534  0.08474897  0.67637968  1
  Cu+  Cu81  1  0.41293836  0.58201766  0.68189758  1
  Cu+  Cu82  1  0.91489384  0.08269541  0.67360865  1
  Cu+  Cu83  1  0.91368751  0.58329197  0.67786802  1
  Cu+  Cu84  1  0.00298732  0.25414801  0.00966900  1
  Cu+  Cu85  1  0.00158266  0.75001511  0.00661663  1
  Cu+  Cu86  1  0.50304618  0.24996619  0.00655945  1
  Cu+  Cu87  1  0.50459486  0.75518779  0.01217514  1
  Cu+  Cu88  1  0.25050226  0.50276058  0.01880336  1
  Cu+  Cu89  1  0.24956927  1.00051849  0.00624973  1
  Cu+  Cu90  1  0.75182053  0.49882612  0.00842139  1
  Cu+  Cu91  1  0.75011148  1.00136727  0.00815544  1
  Cu+  Cu92  1  0.24950256  0.25543480  0.01342926  1
  Cu+  Cu93  1  0.24863197  0.75409650  0.00750632  1
  Cu+  Cu94  1  0.74972187  0.25169414  0.00678712  1
  Cu+  Cu95  1  0.74816830  0.75080265  0.00691660  1
  Cu+  Cu96  1  0.33672879  0.41684282  0.34650880  1
  Cu+  Cu97  1  0.33638742  0.91532222  0.34058629  1
  Cu+  Cu98  1  0.83444880  0.41579619  0.34318908  1
  Cu+  Cu99  1  0.83765288  0.91818601  0.33996731  1
  Cu+  Cu100  1  0.08376577  0.16187233  0.34152656  1
  Cu+  Cu101  1  0.08112665  0.66087829  0.34838507  1
  Cu+  Cu102  1  0.58295544  0.16318379  0.34077915  1
  Cu+  Cu103  1  0.58249174  0.66555290  0.34182480  1
  Cu+  Cu104  1  0.08340628  0.41716970  0.35026659  1
  Cu+  Cu105  1  0.08266922  0.91700008  0.33883728  1
  Cu+  Cu106  1  0.58073708  0.41525851  0.34075051  1
  Cu+  Cu107  1  0.58189770  0.91689997  0.34661250  1
  Cu+  Cu108  1  -0.00266967  -0.00304753  0.11238891  1
  Cu+  Cu109  1  -0.00653822  0.49729539  0.11918248  1
  Cu+  Cu110  1  0.50102024  0.00397824  0.11444606  1
  Cu+  Cu111  1  0.50383519  0.49725474  0.11372431  1
  Cu+  Cu112  1  0.33313944  0.16131915  0.44624984  1
  Cu+  Cu113  1  0.33499627  0.66817265  0.44961304  1
  Cu+  Cu114  1  0.83407886  0.16380316  0.44757603  1
  Cu+  Cu115  1  0.82997584  0.66557669  0.44606781  1
  Cu+  Cu116  1  0.16565400  0.32815785  0.78491347  1
  Cu+  Cu117  1  0.16742210  0.83478850  0.77625925  1
  Cu+  Cu118  1  0.66542198  0.33300032  0.77685429  1
  Cu+  Cu119  1  0.67032547  0.83077593  0.78013596  1
  Te2-  Te120  1  0.00095328  -0.00206393  0.38561504  1
  Te2-  Te121  1  -0.00359926  0.49567854  0.39412817  1
  Te2-  Te122  1  0.49873421  0.00022450  0.38871854  1
  Te2-  Te123  1  0.50377607  0.50168225  0.38769909  1
  Te2-  Te124  1  0.33123394  0.16831702  0.72039678  1
  Te2-  Te125  1  0.33249539  0.66776135  0.72501154  1
  Te2-  Te126  1  0.83402150  0.16444993  0.72139458  1
  Te2-  Te127  1  0.83164258  0.66790936  0.72043932  1
  Te2-  Te128  1  0.16519442  0.33621620  0.05962699  1
  Te2-  Te129  1  0.16602552  0.83605689  0.05021906  1
  Te2-  Te130  1  0.66730461  0.33354632  0.05037909  1
  Te2-  Te131  1  0.67145821  0.83723134  0.05399286  1
  Te2-  Te132  1  0.49458518  0.24856646  0.88070256  1
  Te2-  Te133  1  0.49360360  0.75287476  0.88498839  1
  Te2-  Te134  1  0.99984294  0.25329340  0.88353865  1
  Te2-  Te135  1  0.99257037  0.74966331  0.88073512  1
  Te2-  Te136  1  0.25197708  0.01024198  0.88044058  1
  Te2-  Te137  1  0.25746856  0.51685285  0.88941519  1
  Te2-  Te138  1  0.75784751  0.00982578  0.88230607  1
  Te2-  Te139  1  0.75284892  0.50928135  0.88254850  1
  Te2-  Te140  1  0.25351376  0.25475199  0.88552199  1
  Te2-  Te141  1  0.25575444  0.75264905  0.88130409  1
  Te2-  Te142  1  0.75736343  0.25086220  0.88064856  1
  Te2-  Te143  1  0.75006242  0.74874823  0.88076066  1
  Te2-  Te144  1  0.32261649  0.41220956  0.21902434  1
  Te2-  Te145  1  0.33107142  0.91098945  0.21473978  1
  Te2-  Te146  1  0.83053233  0.41469239  0.21709389  1
  Te2-  Te147  1  0.82949260  0.91389736  0.21426378  1
  Te2-  Te148  1  0.08458791  0.17473160  0.21621650  1
  Te2-  Te149  1  0.08562070  0.67104346  0.22152291  1
  Te2-  Te150  1  0.58600165  0.16879966  0.21497567  1
  Te2-  Te151  1  0.58859285  0.67274531  0.21599919  1
  Te2-  Te152  1  0.08491930  0.41049301  0.22204913  1
  Te2-  Te153  1  0.08791965  0.91546396  0.21313824  1
  Te2-  Te154  1  0.58074109  0.41237534  0.21432956  1
  Te2-  Te155  1  0.59236448  0.91349732  0.21934880  1
  Te2-  Te156  1  0.16417185  0.08530295  0.54630070  1
  Te2-  Te157  1  0.15517208  0.57377824  0.55432174  1
  Te2-  Te158  1  0.65552734  0.07888820  0.55180121  1
  Te2-  Te159  1  0.66164654  0.58032559  0.54780321  1
  Te2-  Te160  1  0.42633841  0.34444687  0.55000262  1
  Te2-  Te161  1  0.41203614  0.83516280  0.54950519  1
  Te2-  Te162  1  0.91533131  0.33691484  0.55035342  1
  Te2-  Te163  1  0.92025723  0.83647066  0.54720814  1
  Te2-  Te164  1  0.41833644  0.08130689  0.54945415  1
  Te2-  Te165  1  0.42090344  0.58176700  0.55359751  1
  Te2-  Te166  1  0.91453622  0.07779215  0.54765301  1
  Te2-  Te167  1  0.91616734  0.57417514  0.55112536  1
  Te2-  Te168  1  0.00102015  -0.00044185  0.88046821  1
  Te2-  Te169  1  -0.00035925  0.50085544  0.88247649  1
  Te2-  Te170  1  0.50029149  -0.00066149  0.88129489  1
  Te2-  Te171  1  0.50211645  0.50054325  0.88331650  1
  Te2-  Te172  1  0.33246630  0.16435191  0.21469811  1
  Te2-  Te173  1  0.33287475  0.66654226  0.21748745  1
  Te2-  Te174  1  0.83353256  0.16446379  0.21529837  1
  Te2-  Te175  1  0.83289143  0.66695716  0.21542693  1
  Te2-  Te176  1  0.16561574  0.33006354  0.55058033  1
  Te2-  Te177  1  0.16527159  0.83272440  0.54883369  1
  Te2-  Te178  1  0.66599240  0.33164361  0.54746040  1
  Te2-  Te179  1  0.66659271  0.83117698  0.54979460  1
  Te2-  Te180  1  0.32473526  0.41034899  0.71302838  1
  Te2-  Te181  1  0.32682166  0.91239051  0.70793975  1
  Te2-  Te182  1  0.82605673  0.41072314  0.70880589  1
  Te2-  Te183  1  0.82891736  0.91276623  0.70967531  1
  Te2-  Te184  1  0.08510967  0.17125024  0.71151576  1
  Te2-  Te185  1  0.08625490  0.67302011  0.70783446  1
  Te2-  Te186  1  0.58613144  0.17222887  0.70748650  1
  Te2-  Te187  1  0.58671137  0.67148206  0.71038458  1
  Te2-  Te188  1  0.08293092  0.40779131  0.71230011  1
  Te2-  Te189  1  0.08696015  0.91515168  0.70764388  1
  Te2-  Te190  1  0.58525724  0.41430745  0.71058215  1
  Te2-  Te191  1  0.58379194  0.90819764  0.70968618  1
  Te2-  Te192  1  0.16028256  0.08149317  0.04223008  1
  Te2-  Te193  1  0.16082538  0.58560951  0.04778923  1
  Te2-  Te194  1  0.66189029  0.08220447  0.04467424  1
  Te2-  Te195  1  0.66287416  0.58086769  0.04379376  1
  Te2-  Te196  1  0.42251812  0.34008409  0.04254264  1
  Te2-  Te197  1  0.41891984  0.84176771  0.04447463  1
  Te2-  Te198  1  0.91931455  0.34007763  0.04642103  1
  Te2-  Te199  1  0.91860329  0.83734041  0.04353298  1
  Te2-  Te200  1  0.41860063  0.08111169  0.04430549  1
  Te2-  Te201  1  0.42376146  0.58286358  0.04355903  1
  Te2-  Te202  1  0.92086143  0.08290590  0.04333474  1
  Te2-  Te203  1  0.92086866  0.58167011  0.04672157  1
  Te2-  Te204  1  0.49450122  0.24523708  0.37699165  1
  Te2-  Te205  1  0.49278409  0.74459559  0.37852533  1
  Te2-  Te206  1  0.99571710  0.24366575  0.37834315  1
  Te2-  Te207  1  0.99320811  0.74685677  0.37669341  1
  Te2-  Te208  1  0.25216530  0.00156525  0.37719695  1
  Te2-  Te209  1  0.25596080  0.50786082  0.37833411  1
  Te2-  Te210  1  0.75482562  0.00489200  0.37744458  1
  Te2-  Te211  1  0.75145459  0.50384611  0.37690288  1
  Te2-  Te212  1  0.25330209  0.24436245  0.37679605  1
  Te2-  Te213  1  0.25417918  0.74573929  0.37767232  1
  Te2-  Te214  1  0.75265015  0.24510876  0.37768599  1
  Te2-  Te215  1  0.75251825  0.74859208  0.37765045  1
