# generated using pymatgen
data_Ti(CuTe)4
_symmetry_space_group_name_H-M   'P 1'
_cell_length_a   16.86854026
_cell_length_b   16.86589637
_cell_length_c   20.68148573
_cell_angle_alpha   90.03493452
_cell_angle_beta   89.96357548
_cell_angle_gamma   119.99593340
_symmetry_Int_Tables_number   1
_chemical_formula_structural   Ti(CuTe)4
_chemical_formula_sum   'Ti24 Cu96 Te96'
_cell_volume   5095.85401985
_cell_formula_units_Z   24
loop_
 _symmetry_equiv_pos_site_id
 _symmetry_equiv_pos_as_xyz
  1  'x, y, z'
loop_
 _atom_type_symbol
 _atom_type_oxidation_number
  Ti4+  4.0
  Cu+  1.0
  Te2-  -2.0
loop_
 _atom_site_type_symbol
 _atom_site_label
 _atom_site_symmetry_multiplicity
 _atom_site_fract_x
 _atom_site_fract_y
 _atom_site_fract_z
 _atom_site_occupancy
  Ti4+  Ti0  1  -0.00027018  0.00036415  0.25838869  1
  Ti4+  Ti1  1  -0.00014841  0.50163257  0.25709240  1
  Ti4+  Ti2  1  0.49943983  -0.00069116  0.25999027  1
  Ti4+  Ti3  1  0.49822004  0.49812885  0.25618306  1
  Ti4+  Ti4  1  0.32991782  0.16144051  0.59162583  1
  Ti4+  Ti5  1  0.33148572  0.66470215  0.59538228  1
  Ti4+  Ti6  1  0.83225858  0.16580301  0.58815924  1
  Ti4+  Ti7  1  0.83401433  0.66372266  0.59176666  1
  Ti4+  Ti8  1  0.17127453  0.33678488  0.92312600  1
  Ti4+  Ti9  1  0.16740531  0.83376647  0.92895062  1
  Ti4+  Ti10  1  0.66607561  0.33296835  0.92272185  1
  Ti4+  Ti11  1  0.67129548  0.83716117  0.92111355  1
  Ti4+  Ti12  1  -0.00181996  -0.00108072  0.75597080  1
  Ti4+  Ti13  1  0.00076447  0.50067505  0.75741748  1
  Ti4+  Ti14  1  0.50125733  0.00030026  0.75601472  1
  Ti4+  Ti15  1  0.49914373  0.49804942  0.75242965  1
  Ti4+  Ti16  1  0.33435234  0.16851642  0.08874004  1
  Ti4+  Ti17  1  0.33382842  0.66692720  0.08780744  1
  Ti4+  Ti18  1  0.83429201  0.16864518  0.09042407  1
  Ti4+  Ti19  1  0.83310056  0.66628126  0.08783668  1
  Ti4+  Ti20  1  0.16513214  0.33239817  0.42406168  1
  Ti4+  Ti21  1  0.16564447  0.83321949  0.42345055  1
  Ti4+  Ti22  1  0.66702818  0.33365387  0.42314399  1
  Ti4+  Ti23  1  0.66476327  0.83248574  0.42224397  1
  Cu+  Cu24  1  0.18674614  0.60020663  0.81216802  1
  Cu+  Cu25  1  0.41620534  0.59337465  0.81156156  1
  Cu+  Cu26  1  0.40573042  0.31098017  0.80425940  1
  Cu+  Cu27  1  0.07072140  0.13972973  0.47348659  1
  Cu+  Cu28  1  0.24707949  0.76127592  0.14588271  1
  Cu+  Cu29  1  0.23720716  0.47707392  0.13940212  1
  Cu+  Cu30  1  0.73756125  0.47526393  0.13909981  1
  Cu+  Cu31  1  0.68770995  0.59306702  0.80580732  1
  Cu+  Cu32  1  0.57047551  0.14335289  0.47481783  1
  Cu+  Cu33  1  0.01453700  0.76181673  0.14465553  1
  Cu+  Cu34  1  0.85611753  0.42751691  0.47420332  1
  Cu+  Cu35  1  0.69529014  0.09979940  0.80360108  1
  Cu+  Cu36  1  0.16459166  0.08435197  0.17132993  1
  Cu+  Cu37  1  0.16477935  0.58211557  0.16807834  1
  Cu+  Cu38  1  0.66404798  0.08212901  0.17460643  1
  Cu+  Cu39  1  0.66267856  0.57700513  0.16868521  1
  Cu+  Cu40  1  0.41826670  0.33890997  0.16912762  1
  Cu+  Cu41  1  0.41886367  0.83955477  0.17119205  1
  Cu+  Cu42  1  0.91741255  0.33815392  0.17118665  1
  Cu+  Cu43  1  0.92040716  0.84014543  0.17061059  1
  Cu+  Cu44  1  0.41803404  0.08331719  0.17255846  1
  Cu+  Cu45  1  0.41396301  0.57714849  0.16835884  1
  Cu+  Cu46  1  0.91875232  0.08415333  0.17338405  1
  Cu+  Cu47  1  0.91564347  0.58169154  0.16864195  1
  Cu+  Cu48  1  0.49566140  0.24226072  0.50595179  1
  Cu+  Cu49  1  0.49583758  0.74537074  0.50755271  1
  Cu+  Cu50  1  0.99672137  0.24349035  0.50233332  1
  Cu+  Cu51  1  0.99656463  0.74638531  0.50473899  1
  Cu+  Cu52  1  0.25007647  0.00181428  0.50412091  1
  Cu+  Cu53  1  0.24975726  0.50390982  0.50931189  1
  Cu+  Cu54  1  0.74881349  0.00212531  0.50198500  1
  Cu+  Cu55  1  0.75758388  0.50442403  0.50500595  1
  Cu+  Cu56  1  0.24458620  0.24266723  0.50665572  1
  Cu+  Cu57  1  0.24673137  0.74539022  0.50831118  1
  Cu+  Cu58  1  0.75016655  0.24820564  0.50263693  1
  Cu+  Cu59  1  0.74826753  0.74646445  0.50567073  1
  Cu+  Cu60  1  0.32839748  0.41313246  0.83225612  1
  Cu+  Cu61  1  0.33107894  0.91570391  0.84090522  1
  Cu+  Cu62  1  0.82906039  0.41591316  0.83714791  1
  Cu+  Cu63  1  0.83001030  0.91663601  0.83474567  1
  Cu+  Cu64  1  0.08531546  0.16950597  0.83713191  1
  Cu+  Cu65  1  0.08701445  0.67098186  0.84310694  1
  Cu+  Cu66  1  0.58916415  0.16862037  0.83576420  1
  Cu+  Cu67  1  0.59062144  0.67296370  0.83287993  1
  Cu+  Cu68  1  0.08941578  0.42246933  0.83714100  1
  Cu+  Cu69  1  0.08268353  0.91533165  0.84227227  1
  Cu+  Cu70  1  0.58390486  0.41403013  0.83357050  1
  Cu+  Cu71  1  0.59300813  0.92422812  0.83430733  1
  Cu+  Cu72  1  0.16508199  0.08097566  0.67666055  1
  Cu+  Cu73  1  0.17035107  0.58556759  0.68304981  1
  Cu+  Cu74  1  0.66923075  0.08628715  0.67651506  1
  Cu+  Cu75  1  0.67161361  0.58303255  0.67664094  1
  Cu+  Cu76  1  0.41187244  0.32473246  0.67573838  1
  Cu+  Cu77  1  0.41402568  0.83073567  0.67604473  1
  Cu+  Cu78  1  0.91495391  0.33263792  0.67272264  1
  Cu+  Cu79  1  0.91391744  0.82888421  0.67479152  1
  Cu+  Cu80  1  0.41343920  0.08039946  0.67660553  1
  Cu+  Cu81  1  0.41296403  0.58247368  0.68109661  1
  Cu+  Cu82  1  0.91519929  0.08223896  0.67295517  1
  Cu+  Cu83  1  0.91707330  0.58300605  0.67662894  1
  Cu+  Cu84  1  0.00393526  0.25457654  0.00740374  1
  Cu+  Cu85  1  0.00347243  0.75128472  0.01523721  1
  Cu+  Cu86  1  0.50061559  0.25058019  0.00632021  1
  Cu+  Cu87  1  0.50587447  0.75482991  0.00473777  1
  Cu+  Cu88  1  0.25278338  0.49948382  0.01185727  1
  Cu+  Cu89  1  0.24970282  0.99955368  0.01077052  1
  Cu+  Cu90  1  0.74554162  0.49636484  0.01085600  1
  Cu+  Cu91  1  0.75140834  1.00148015  0.00780992  1
  Cu+  Cu92  1  0.25236876  0.25260143  0.00743759  1
  Cu+  Cu93  1  0.25012246  0.75203964  0.01711768  1
  Cu+  Cu94  1  0.74988592  0.25001248  0.00844409  1
  Cu+  Cu95  1  0.75031067  0.75241990  0.00536594  1
  Cu+  Cu96  1  0.33381520  0.41956629  0.34227553  1
  Cu+  Cu97  1  0.33392442  0.91649275  0.34477749  1
  Cu+  Cu98  1  0.83587691  0.42165926  0.34624968  1
  Cu+  Cu99  1  0.83360415  0.91687351  0.34083780  1
  Cu+  Cu100  1  0.08063668  0.16264242  0.34554969  1
  Cu+  Cu101  1  0.08314982  0.66779120  0.34289601  1
  Cu+  Cu102  1  0.57959735  0.16218593  0.34645423  1
  Cu+  Cu103  1  0.57967869  0.66243077  0.33788998  1
  Cu+  Cu104  1  0.08528533  0.42060411  0.34253281  1
  Cu+  Cu105  1  0.08258516  0.91748941  0.34265261  1
  Cu+  Cu106  1  0.58206987  0.41848974  0.34130351  1
  Cu+  Cu107  1  0.57958591  0.91493961  0.34236777  1
  Cu+  Cu108  1  0.00096717  0.00572024  0.11507055  1
  Cu+  Cu109  1  -0.00054074  0.49917927  0.11182445  1
  Cu+  Cu110  1  0.50396502  0.00584045  0.11675856  1
  Cu+  Cu111  1  0.50133990  0.50263652  0.11056755  1
  Cu+  Cu112  1  0.33371233  0.16988787  0.44873635  1
  Cu+  Cu113  1  0.33398760  0.67008836  0.45320281  1
  Cu+  Cu114  1  0.83382117  0.16728523  0.44327552  1
  Cu+  Cu115  1  0.83369412  0.67264661  0.44883189  1
  Cu+  Cu116  1  0.15797776  0.32832437  0.77929277  1
  Cu+  Cu117  1  0.16548356  0.83667556  0.78692894  1
  Cu+  Cu118  1  0.66588118  0.33155898  0.77765009  1
  Cu+  Cu119  1  0.66559348  0.83398580  0.77496537  1
  Te2-  Te120  1  -0.00319680  -0.00428714  0.38874801  1
  Te2-  Te121  1  0.00295106  0.50294807  0.38724408  1
  Te2-  Te122  1  0.49778039  -0.00389222  0.39058894  1
  Te2-  Te123  1  0.49871320  0.49954914  0.38537734  1
  Te2-  Te124  1  0.32921295  0.16018754  0.72227027  1
  Te2-  Te125  1  0.33595536  0.66969391  0.72790745  1
  Te2-  Te126  1  0.83682651  0.16850753  0.71812143  1
  Te2-  Te127  1  0.83627092  0.66607007  0.72259326  1
  Te2-  Te128  1  0.16796170  0.33257579  0.05328693  1
  Te2-  Te129  1  0.16876840  0.83676121  0.06100688  1
  Te2-  Te130  1  0.66463565  0.32976521  0.05298640  1
  Te2-  Te131  1  0.66957759  0.83588456  0.05000042  1
  Te2-  Te132  1  0.49413567  0.24359605  0.87996652  1
  Te2-  Te133  1  0.49932736  0.75427489  0.87868408  1
  Te2-  Te134  1  1.00099185  0.25364309  0.88112541  1
  Te2-  Te135  1  0.99648371  0.74773504  0.88780491  1
  Te2-  Te136  1  0.25164587  0.00387498  0.88497690  1
  Te2-  Te137  1  0.25923599  0.51245806  0.88389849  1
  Te2-  Te138  1  0.75996610  0.01196625  0.88166971  1
  Te2-  Te139  1  0.75278059  0.50638422  0.88305780  1
  Te2-  Te140  1  0.25344724  0.24573813  0.88148509  1
  Te2-  Te141  1  0.25790252  0.75059713  0.88938991  1
  Te2-  Te142  1  0.75701568  0.24970794  0.88261865  1
  Te2-  Te143  1  0.75827667  0.74993727  0.87977654  1
  Te2-  Te144  1  0.32333038  0.40995408  0.21607536  1
  Te2-  Te145  1  0.32593288  0.91598588  0.21866236  1
  Te2-  Te146  1  0.82628459  0.41373704  0.21815140  1
  Te2-  Te147  1  0.82872757  0.91507199  0.21508227  1
  Te2-  Te148  1  0.08618975  0.17212475  0.21822719  1
  Te2-  Te149  1  0.08733393  0.67582777  0.21608825  1
  Te2-  Te150  1  0.58459497  0.17071281  0.21897150  1
  Te2-  Te151  1  0.58354712  0.66791863  0.21166132  1
  Te2-  Te152  1  0.08516881  0.41373785  0.21624934  1
  Te2-  Te153  1  0.09019101  0.91709285  0.21693835  1
  Te2-  Te154  1  0.58428259  0.40924840  0.21546508  1
  Te2-  Te155  1  0.58449663  0.91319682  0.21673102  1
  Te2-  Te156  1  0.15574027  0.07286915  0.55092817  1
  Te2-  Te157  1  0.15946547  0.57967909  0.55581706  1
  Te2-  Te158  1  0.65876094  0.07803286  0.54927385  1
  Te2-  Te159  1  0.66311735  0.57778023  0.54948018  1
  Te2-  Te160  1  0.41509597  0.33146609  0.54839072  1
  Te2-  Te161  1  0.41582664  0.83443065  0.55037487  1
  Te2-  Te162  1  0.92201699  0.33824764  0.54669475  1
  Te2-  Te163  1  0.91708122  0.83447822  0.54881110  1
  Te2-  Te164  1  0.41560959  0.07283684  0.55085559  1
  Te2-  Te165  1  0.41669561  0.57861123  0.55365431  1
  Te2-  Te166  1  0.91523772  0.07500855  0.54745593  1
  Te2-  Te167  1  0.92565871  0.58056320  0.55090761  1
  Te2-  Te168  1  -0.00145885  0.00153404  0.88255928  1
  Te2-  Te169  1  -0.00184237  0.49936595  0.88456675  1
  Te2-  Te170  1  0.50161483  0.00076024  0.88309066  1
  Te2-  Te171  1  0.50012460  0.50171306  0.88065204  1
  Te2-  Te172  1  0.33398632  0.16944004  0.21506445  1
  Te2-  Te173  1  0.33466852  0.66773116  0.21535967  1
  Te2-  Te174  1  0.83387087  0.16869007  0.21687137  1
  Te2-  Te175  1  0.83237995  0.66880415  0.21534352  1
  Te2-  Te176  1  0.16443475  0.33232445  0.55101495  1
  Te2-  Te177  1  0.16465624  0.83265253  0.54988422  1
  Te2-  Te178  1  0.66625004  0.33334377  0.55050424  1
  Te2-  Te179  1  0.66573786  0.83289254  0.54880607  1
  Te2-  Te180  1  0.32373615  0.40908418  0.70656398  1
  Te2-  Te181  1  0.32667440  0.91176836  0.71475165  1
  Te2-  Te182  1  0.82817927  0.41362142  0.71155303  1
  Te2-  Te183  1  0.82672752  0.91254413  0.70893667  1
  Te2-  Te184  1  0.08441131  0.17072358  0.71012335  1
  Te2-  Te185  1  0.08661127  0.67464798  0.71508483  1
  Te2-  Te186  1  0.58419142  0.17261267  0.70891352  1
  Te2-  Te187  1  0.58744416  0.67221061  0.70534478  1
  Te2-  Te188  1  0.08419390  0.41206670  0.71009113  1
  Te2-  Te189  1  0.08349030  0.91128584  0.71429021  1
  Te2-  Te190  1  0.58492077  0.41013776  0.70606192  1
  Te2-  Te191  1  0.58557771  0.91328814  0.70740830  1
  Te2-  Te192  1  0.16168202  0.08247038  0.04459288  1
  Te2-  Te193  1  0.15891957  0.57825993  0.04115462  1
  Te2-  Te194  1  0.66217439  0.08120703  0.04666876  1
  Te2-  Te195  1  0.66071319  0.58313956  0.04136128  1
  Te2-  Te196  1  0.42156442  0.34089513  0.04301497  1
  Te2-  Te197  1  0.42393743  0.84152537  0.04434055  1
  Te2-  Te198  1  0.91992478  0.34014830  0.04440989  1
  Te2-  Te199  1  0.91919669  0.84051937  0.04372303  1
  Te2-  Te200  1  0.42017836  0.08129019  0.04549692  1
  Te2-  Te201  1  0.42475207  0.58536065  0.04117714  1
  Te2-  Te202  1  0.92144656  0.08456709  0.04540493  1
  Te2-  Te203  1  0.91844713  0.57750973  0.04146845  1
  Te2-  Te204  1  0.49397720  0.24865270  0.37844655  1
  Te2-  Te205  1  0.49266605  0.74455722  0.37937033  1
  Te2-  Te206  1  0.99398127  0.24937448  0.37547604  1
  Te2-  Te207  1  0.99315269  0.74734600  0.37815309  1
  Te2-  Te208  1  0.25262407  0.00619001  0.37882615  1
  Te2-  Te209  1  0.25267653  0.50641798  0.38240385  1
  Te2-  Te210  1  0.75078435  0.00455866  0.37623302  1
  Te2-  Te211  1  0.75087112  0.50769590  0.37854570  1
  Te2-  Te212  1  0.25312665  0.24856878  0.37859066  1
  Te2-  Te213  1  0.25206034  0.74638313  0.38064817  1
  Te2-  Te214  1  0.75334019  0.24770340  0.37480159  1
  Te2-  Te215  1  0.74964582  0.74628610  0.37738036  1
