# generated using pymatgen
data_Ti(CuTe)4
_symmetry_space_group_name_H-M   'P 1'
_cell_length_a   16.89047499
_cell_length_b   16.89467862
_cell_length_c   20.71661112
_cell_angle_alpha   90.02321953
_cell_angle_beta   90.01542295
_cell_angle_gamma   119.99733684
_symmetry_Int_Tables_number   1
_chemical_formula_structural   Ti(CuTe)4
_chemical_formula_sum   'Ti24 Cu96 Te96'
_cell_volume   5119.79647518
_cell_formula_units_Z   24
loop_
 _symmetry_equiv_pos_site_id
 _symmetry_equiv_pos_as_xyz
  1  'x, y, z'
loop_
 _atom_type_symbol
 _atom_type_oxidation_number
  Ti4+  4.0
  Cu+  1.0
  Te2-  -2.0
loop_
 _atom_site_type_symbol
 _atom_site_label
 _atom_site_symmetry_multiplicity
 _atom_site_fract_x
 _atom_site_fract_y
 _atom_site_fract_z
 _atom_site_occupancy
  Ti4+  Ti0  1  -0.00434086  -0.00282281  0.25935355  1
  Ti4+  Ti1  1  0.00033151  0.49961522  0.25769027  1
  Ti4+  Ti2  1  0.49716399  0.00003285  0.25480397  1
  Ti4+  Ti3  1  0.50158007  0.49895234  0.25654960  1
  Ti4+  Ti4  1  0.33325996  0.16922801  0.59077110  1
  Ti4+  Ti5  1  0.33152599  0.66799368  0.59224922  1
  Ti4+  Ti6  1  0.83565857  0.16731959  0.59021368  1
  Ti4+  Ti7  1  0.83100971  0.66772329  0.59143796  1
  Ti4+  Ti8  1  0.16890259  0.33174155  0.92446715  1
  Ti4+  Ti9  1  0.16762757  0.83176596  0.92651020  1
  Ti4+  Ti10  1  0.66824730  0.33190909  0.92206010  1
  Ti4+  Ti11  1  0.66756199  0.83501520  0.92636277  1
  Ti4+  Ti12  1  0.00024510  0.00163977  0.75756685  1
  Ti4+  Ti13  1  0.00043358  0.50174149  0.75475863  1
  Ti4+  Ti14  1  0.50162704  0.00070731  0.75567003  1
  Ti4+  Ti15  1  0.49866032  0.49845541  0.75610110  1
  Ti4+  Ti16  1  0.33633124  0.16707656  0.08876649  1
  Ti4+  Ti17  1  0.33320628  0.66658902  0.08729273  1
  Ti4+  Ti18  1  0.83413773  0.16603131  0.08915791  1
  Ti4+  Ti19  1  0.83312520  0.66680850  0.08772414  1
  Ti4+  Ti20  1  0.16556563  0.33381239  0.41974804  1
  Ti4+  Ti21  1  0.16730136  0.83349319  0.42258389  1
  Ti4+  Ti22  1  0.66491764  0.33359980  0.42271008  1
  Ti4+  Ti23  1  0.66695562  0.83354972  0.42283210  1
  Cu+  Cu24  1  0.52730199  0.26318463  0.13643623  1
  Cu+  Cu25  1  0.07907771  0.15320884  0.47654530  1
  Cu+  Cu26  1  0.73711168  0.75435942  0.14312961  1
  Cu+  Cu27  1  0.84905089  0.92226510  0.48057006  1
  Cu+  Cu28  1  0.73749740  0.98178241  0.14436767  1
  Cu+  Cu29  1  0.69132665  0.09407359  0.80697543  1
  Cu+  Cu30  1  0.57091171  0.43111125  0.47406027  1
  Cu+  Cu31  1  0.40789628  0.81346327  0.81008684  1
  Cu+  Cu32  1  0.40457069  0.30765299  0.80804318  1
  Cu+  Cu33  1  0.07319336  0.42890958  0.47377651  1
  Cu+  Cu34  1  0.23637883  0.98423924  0.14252643  1
  Cu+  Cu35  1  0.23650776  0.75339720  0.14254262  1
  Cu+  Cu36  1  0.16195735  0.08020143  0.17338484  1
  Cu+  Cu37  1  0.16223447  0.58137816  0.17062185  1
  Cu+  Cu38  1  0.66169408  0.07935318  0.16975212  1
  Cu+  Cu39  1  0.66185963  0.58057656  0.16975230  1
  Cu+  Cu40  1  0.42631593  0.33559497  0.17013133  1
  Cu+  Cu41  1  0.41252204  0.83624536  0.16693271  1
  Cu+  Cu42  1  0.92053493  0.33630807  0.17234857  1
  Cu+  Cu43  1  0.91171864  0.83530252  0.16950419  1
  Cu+  Cu44  1  0.41827534  0.08332047  0.16768469  1
  Cu+  Cu45  1  0.41714326  0.58007405  0.16970239  1
  Cu+  Cu46  1  0.91263582  0.07668736  0.17204255  1
  Cu+  Cu47  1  0.91791047  0.58010853  0.16997557  1
  Cu+  Cu48  1  0.49805719  0.25626895  0.50501847  1
  Cu+  Cu49  1  0.49697266  0.75102488  0.50699587  1
  Cu+  Cu50  1  0.99694440  0.24926729  0.50041543  1
  Cu+  Cu51  1  0.99840283  0.74997083  0.50507789  1
  Cu+  Cu52  1  0.25084950  0.00264233  0.50448383  1
  Cu+  Cu53  1  0.24735386  0.50515251  0.50271322  1
  Cu+  Cu54  1  0.75483287  0.00375699  0.50376066  1
  Cu+  Cu55  1  0.74436265  0.50193063  0.50502350  1
  Cu+  Cu56  1  0.25263853  0.24729424  0.50199212  1
  Cu+  Cu57  1  0.25392498  0.75136010  0.50516358  1
  Cu+  Cu58  1  0.74987249  0.24700977  0.50431902  1
  Cu+  Cu59  1  0.75485694  0.74947997  0.50456324  1
  Cu+  Cu60  1  0.33092828  0.40884619  0.83770459  1
  Cu+  Cu61  1  0.32992658  0.91033928  0.83921384  1
  Cu+  Cu62  1  0.83203715  0.41616830  0.83570957  1
  Cu+  Cu63  1  0.83131783  0.91645058  0.84055620  1
  Cu+  Cu64  1  0.08658090  0.17080550  0.83882167  1
  Cu+  Cu65  1  0.08605174  0.66932723  0.83786662  1
  Cu+  Cu66  1  0.59142142  0.17111584  0.83546912  1
  Cu+  Cu67  1  0.58681673  0.66904196  0.83915859  1
  Cu+  Cu68  1  0.08525441  0.41586722  0.83814101  1
  Cu+  Cu69  1  0.08610573  0.91778169  0.84115840  1
  Cu+  Cu70  1  0.57919500  0.40931026  0.83686557  1
  Cu+  Cu71  1  0.58747351  0.91764292  0.83784428  1
  Cu+  Cu72  1  0.16727881  0.08539281  0.67631800  1
  Cu+  Cu73  1  0.16729190  0.58665396  0.67522903  1
  Cu+  Cu74  1  0.67174312  0.08576987  0.67826678  1
  Cu+  Cu75  1  0.66789358  0.58558001  0.67530927  1
  Cu+  Cu76  1  0.41407063  0.33069332  0.67876210  1
  Cu+  Cu77  1  0.41492784  0.83104946  0.68070514  1
  Cu+  Cu78  1  0.91732324  0.33360978  0.67421734  1
  Cu+  Cu79  1  0.91458938  0.83195108  0.67772210  1
  Cu+  Cu80  1  0.41676526  0.08612478  0.67346933  1
  Cu+  Cu81  1  0.41406630  0.58616839  0.67518724  1
  Cu+  Cu82  1  0.91734347  0.08430759  0.67638872  1
  Cu+  Cu83  1  0.91460090  0.58693256  0.67426502  1
  Cu+  Cu84  1  0.00629799  0.25215601  0.00864167  1
  Cu+  Cu85  1  0.00187108  0.75019126  0.00907881  1
  Cu+  Cu86  1  0.50642065  0.25303411  0.00911354  1
  Cu+  Cu87  1  0.50200133  0.75080865  0.00859429  1
  Cu+  Cu88  1  0.24974482  0.49534410  0.00613958  1
  Cu+  Cu89  1  0.24983074  0.99599430  0.01316852  1
  Cu+  Cu90  1  0.74948490  0.49879817  0.00500418  1
  Cu+  Cu91  1  0.75094606  0.99854265  0.01403871  1
  Cu+  Cu92  1  0.25174883  0.25159447  0.00881391  1
  Cu+  Cu93  1  0.24803386  0.74916209  0.01320929  1
  Cu+  Cu94  1  0.75310270  0.25201477  0.00699977  1
  Cu+  Cu95  1  0.74931073  0.75234656  0.01410703  1
  Cu+  Cu96  1  0.33514401  0.41656745  0.33822189  1
  Cu+  Cu97  1  0.33247829  0.91707419  0.34089899  1
  Cu+  Cu98  1  0.83563468  0.41655607  0.34126030  1
  Cu+  Cu99  1  0.83300625  0.91715615  0.34955871  1
  Cu+  Cu100  1  0.07978302  0.16262502  0.34603632  1
  Cu+  Cu101  1  0.08526820  0.66462120  0.34290126  1
  Cu+  Cu102  1  0.58025575  0.16426810  0.33993966  1
  Cu+  Cu103  1  0.58267988  0.66528835  0.34256162  1
  Cu+  Cu104  1  0.08302211  0.42009225  0.34424877  1
  Cu+  Cu105  1  0.08092875  0.91592073  0.34273013  1
  Cu+  Cu106  1  0.58150625  0.41818871  0.34503892  1
  Cu+  Cu107  1  0.57937548  0.91703971  0.34053580  1
  Cu+  Cu108  1  0.00200137  0.00151918  0.11538203  1
  Cu+  Cu109  1  -0.00293395  0.49733138  0.11381462  1
  Cu+  Cu110  1  0.50150765  0.00005369  0.11039320  1
  Cu+  Cu111  1  0.49701050  0.49866311  0.11273297  1
  Cu+  Cu112  1  0.33603405  0.16378206  0.44810139  1
  Cu+  Cu113  1  0.33704990  0.66836975  0.44878681  1
  Cu+  Cu114  1  0.82997320  0.16716058  0.44555417  1
  Cu+  Cu115  1  0.83737441  0.66341290  0.44911706  1
  Cu+  Cu116  1  0.16597605  0.33683400  0.78156723  1
  Cu+  Cu117  1  0.16422854  0.83496740  0.78403088  1
  Cu+  Cu118  1  0.66952296  0.33783332  0.77853829  1
  Cu+  Cu119  1  0.66769496  0.83087197  0.78281766  1
  Te2-  Te120  1  -0.00027765  -0.00242067  0.39098153  1
  Te2-  Te121  1  -0.00142134  0.50108309  0.38838552  1
  Te2-  Te122  1  0.49751760  -0.00005166  0.38335941  1
  Te2-  Te123  1  0.49728022  0.50082621  0.38694951  1
  Te2-  Te124  1  0.33199007  0.16400710  0.72101706  1
  Te2-  Te125  1  0.33033225  0.66489141  0.72299667  1
  Te2-  Te126  1  0.83851474  0.16985251  0.72050923  1
  Te2-  Te127  1  0.83156419  0.66704382  0.72040651  1
  Te2-  Te128  1  0.16976136  0.33317252  0.05393766  1
  Te2-  Te129  1  0.16362122  0.83066300  0.05877351  1
  Te2-  Te130  1  0.67298986  0.33611270  0.05252676  1
  Te2-  Te131  1  0.66383999  0.83268385  0.05853797  1
  Te2-  Te132  1  0.49421917  0.24074877  0.88279396  1
  Te2-  Te133  1  0.49545578  0.74646865  0.88263772  1
  Te2-  Te134  1  0.99690269  0.24809700  0.88311789  1
  Te2-  Te135  1  0.99733872  0.74821984  0.88322329  1
  Te2-  Te136  1  0.25462225  0.00274102  0.88575048  1
  Te2-  Te137  1  0.25482088  0.50214528  0.88044562  1
  Te2-  Te138  1  0.75626051  0.00836297  0.88631109  1
  Te2-  Te139  1  0.74908121  0.50181624  0.87915836  1
  Te2-  Te140  1  0.25333372  0.24041616  0.88377431  1
  Te2-  Te141  1  0.25205536  0.74229393  0.88599684  1
  Te2-  Te142  1  0.75951271  0.24903095  0.88144236  1
  Te2-  Te143  1  0.75303585  0.74931493  0.88668215  1
  Te2-  Te144  1  0.33168812  0.41125020  0.21238685  1
  Te2-  Te145  1  0.32110278  0.91287535  0.21499029  1
  Te2-  Te146  1  0.82885196  0.41300801  0.21543377  1
  Te2-  Te147  1  0.81884671  0.90892675  0.22086400  1
  Te2-  Te148  1  0.08088763  0.16677289  0.21807456  1
  Te2-  Te149  1  0.08425506  0.67339466  0.21706126  1
  Te2-  Te150  1  0.58759681  0.17307575  0.21408146  1
  Te2-  Te151  1  0.58373627  0.67254893  0.21659585  1
  Te2-  Te152  1  0.08797049  0.41537394  0.21752097  1
  Te2-  Te153  1  0.07895340  0.90866608  0.21657527  1
  Te2-  Te154  1  0.59282854  0.41552110  0.21811048  1
  Te2-  Te155  1  0.57919534  0.90875631  0.21476325  1
  Te2-  Te156  1  0.15962620  0.07880865  0.55028112  1
  Te2-  Te157  1  0.15778818  0.58378753  0.54950950  1
  Te2-  Te158  1  0.66467812  0.08025591  0.55085797  1
  Te2-  Te159  1  0.65667255  0.58386152  0.54988076  1
  Te2-  Te160  1  0.41676578  0.34335147  0.55143702  1
  Te2-  Te161  1  0.41958598  0.84037959  0.55354404  1
  Te2-  Te162  1  0.91862517  0.33949859  0.54804633  1
  Te2-  Te163  1  0.92386314  0.84212070  0.55183642  1
  Te2-  Te164  1  0.41995650  0.08599927  0.54732568  1
  Te2-  Te165  1  0.41540494  0.58139611  0.54882444  1
  Te2-  Te166  1  0.92453404  0.08023823  0.55026765  1
  Te2-  Te167  1  0.91427353  0.58095824  0.54788294  1
  Te2-  Te168  1  0.00107510  0.00159210  0.88415876  1
  Te2-  Te169  1  0.00037905  0.49993903  0.88119292  1
  Te2-  Te170  1  0.50092088  0.00153578  0.88282215  1
  Te2-  Te171  1  0.50069749  0.49947073  0.88285481  1
  Te2-  Te172  1  0.33259370  0.16623583  0.21615110  1
  Te2-  Te173  1  0.33349853  0.66648098  0.21410883  1
  Te2-  Te174  1  0.83151307  0.16614756  0.21589708  1
  Te2-  Te175  1  0.83229432  0.66471260  0.21454861  1
  Te2-  Te176  1  0.16769465  0.33418144  0.54706665  1
  Te2-  Te177  1  0.16726913  0.83446571  0.54907498  1
  Te2-  Te178  1  0.66703993  0.33278840  0.54948707  1
  Te2-  Te179  1  0.66734988  0.83377558  0.54964932  1
  Te2-  Te180  1  0.32647598  0.41550783  0.71066949  1
  Te2-  Te181  1  0.32772150  0.91666665  0.71218589  1
  Te2-  Te182  1  0.82933380  0.41611508  0.70929006  1
  Te2-  Te183  1  0.82804752  0.91504940  0.71402726  1
  Te2-  Te184  1  0.08671162  0.17364958  0.71286981  1
  Te2-  Te185  1  0.08489054  0.67405544  0.71169000  1
  Te2-  Te186  1  0.58656916  0.17357457  0.70925698  1
  Te2-  Te187  1  0.58402648  0.67103256  0.71275352  1
  Te2-  Te188  1  0.08685793  0.41636595  0.71085259  1
  Te2-  Te189  1  0.08540420  0.91554324  0.71398131  1
  Te2-  Te190  1  0.58671451  0.41491673  0.70964799  1
  Te2-  Te191  1  0.58820476  0.91349928  0.71041256  1
  Te2-  Te192  1  0.16255741  0.08133190  0.04555885  1
  Te2-  Te193  1  0.16024607  0.57617563  0.04345570  1
  Te2-  Te194  1  0.66200774  0.08262271  0.04252802  1
  Te2-  Te195  1  0.66006022  0.57856851  0.04286137  1
  Te2-  Te196  1  0.42183797  0.33974374  0.04326763  1
  Te2-  Te197  1  0.42127957  0.84013915  0.04084724  1
  Te2-  Te198  1  0.92207153  0.33778634  0.04556251  1
  Te2-  Te199  1  0.92244467  0.84101648  0.04338793  1
  Te2-  Te200  1  0.42285264  0.08081839  0.04093423  1
  Te2-  Te201  1  0.41938701  0.58042804  0.04331823  1
  Te2-  Te202  1  0.92333009  0.08226745  0.04519145  1
  Te2-  Te203  1  0.91888581  0.57991826  0.04365775  1
  Te2-  Te204  1  0.49294921  0.24627585  0.37726819  1
  Te2-  Te205  1  0.49503380  0.74799359  0.37942527  1
  Te2-  Te206  1  0.99118030  0.24698032  0.37375204  1
  Te2-  Te207  1  0.99546819  0.74601504  0.37833109  1
  Te2-  Te208  1  0.25099118  0.00510927  0.37769481  1
  Te2-  Te209  1  0.25567797  0.50707120  0.37555719  1
  Te2-  Te210  1  0.74901561  0.00618877  0.37692869  1
  Te2-  Te211  1  0.75386285  0.50537017  0.37748016  1
  Te2-  Te212  1  0.25328256  0.24722513  0.37557627  1
  Te2-  Te213  1  0.25448545  0.74825237  0.37905918  1
  Te2-  Te214  1  0.74978972  0.24693066  0.37767989  1
  Te2-  Te215  1  0.75196272  0.74444016  0.37834341  1
