# generated using pymatgen
data_Ti(CuTe)4
_symmetry_space_group_name_H-M   'P 1'
_cell_length_a   16.88926278
_cell_length_b   16.88951192
_cell_length_c   20.70204999
_cell_angle_alpha   89.99980560
_cell_angle_beta   89.99922161
_cell_angle_gamma   120.00212242
_symmetry_Int_Tables_number   1
_chemical_formula_structural   Ti(CuTe)4
_chemical_formula_sum   'Ti24 Cu96 Te96'
_cell_volume   5114.02077835
_cell_formula_units_Z   24
loop_
 _symmetry_equiv_pos_site_id
 _symmetry_equiv_pos_as_xyz
  1  'x, y, z'
loop_
 _atom_type_symbol
 _atom_type_oxidation_number
  Ti4+  4.0
  Cu+  1.0
  Te2-  -2.0
loop_
 _atom_site_type_symbol
 _atom_site_label
 _atom_site_symmetry_multiplicity
 _atom_site_fract_x
 _atom_site_fract_y
 _atom_site_fract_z
 _atom_site_occupancy
  Ti4+  Ti0  1  -0.00188999  -0.00022667  0.25511094  1
  Ti4+  Ti1  1  0.00006796  0.49981354  0.25937232  1
  Ti4+  Ti2  1  0.49935503  0.00098333  0.25706270  1
  Ti4+  Ti3  1  0.50163425  0.50407214  0.26501116  1
  Ti4+  Ti4  1  0.33239124  0.16700484  0.58847746  1
  Ti4+  Ti5  1  0.33088811  0.66503465  0.59519917  1
  Ti4+  Ti6  1  0.83230531  0.16418633  0.58909271  1
  Ti4+  Ti7  1  0.83332176  0.66460970  0.59230503  1
  Ti4+  Ti8  1  0.16964179  0.33282586  0.92312499  1
  Ti4+  Ti9  1  0.16700210  0.83219020  0.92195230  1
  Ti4+  Ti10  1  0.66785307  0.33434236  0.92097530  1
  Ti4+  Ti11  1  0.66672804  0.83367077  0.92420364  1
  Ti4+  Ti12  1  -0.00046989  -0.00138665  0.75345863  1
  Ti4+  Ti13  1  -0.00035286  0.50076942  0.75302140  1
  Ti4+  Ti14  1  0.50145347  0.00076317  0.75283169  1
  Ti4+  Ti15  1  0.49871669  0.49720260  0.75412104  1
  Ti4+  Ti16  1  0.33485194  0.16667855  0.08889520  1
  Ti4+  Ti17  1  0.33367642  0.66675557  0.09090031  1
  Ti4+  Ti18  1  0.83435994  0.16743994  0.08669527  1
  Ti4+  Ti19  1  0.83301502  0.66790939  0.09081891  1
  Ti4+  Ti20  1  0.16677217  0.33319870  0.42091355  1
  Ti4+  Ti21  1  0.16507436  0.83140863  0.42272987  1
  Ti4+  Ti22  1  0.66624327  0.33396145  0.42062807  1
  Ti4+  Ti23  1  0.66706042  0.83535479  0.42350372  1
  Cu+  Cu24  1  0.57750088  0.65778174  0.48582229  1
  Cu+  Cu25  1  0.69149830  0.09664844  0.80461239  1
  Cu+  Cu26  1  0.41533064  0.58360100  0.82183136  1
  Cu+  Cu27  1  0.73530957  0.76148124  0.14378623  1
  Cu+  Cu28  1  0.34256648  0.42283706  0.48322797  1
  Cu+  Cu29  1  0.57846779  0.42278480  0.48223935  1
  Cu+  Cu30  1  0.40585056  0.31006100  0.80616263  1
  Cu+  Cu31  1  0.91136844  0.59402575  0.80967915  1
  Cu+  Cu32  1  0.67649407  0.58913198  0.81471030  1
  Cu+  Cu33  1  0.17638064  0.58712754  0.81434375  1
  Cu+  Cu34  1  0.41311829  0.82257192  0.81176723  1
  Cu+  Cu35  1  0.07116160  0.64067149  0.47541918  1
  Cu+  Cu36  1  0.16406112  0.08073604  0.17009407  1
  Cu+  Cu37  1  0.16389840  0.58369133  0.17381256  1
  Cu+  Cu38  1  0.66404761  0.08256278  0.17004503  1
  Cu+  Cu39  1  0.66462875  0.58839624  0.17638030  1
  Cu+  Cu40  1  0.41858607  0.33541150  0.17682670  1
  Cu+  Cu41  1  0.41823525  0.83774680  0.17250975  1
  Cu+  Cu42  1  0.91837495  0.33650914  0.17134972  1
  Cu+  Cu43  1  0.91213738  0.83698457  0.17017831  1
  Cu+  Cu44  1  0.41829488  0.08118222  0.17070750  1
  Cu+  Cu45  1  0.41887252  0.58372655  0.17632682  1
  Cu+  Cu46  1  0.91787544  0.08200218  0.16797511  1
  Cu+  Cu47  1  0.92041673  0.58351818  0.17427475  1
  Cu+  Cu48  1  0.49489734  0.24979953  0.50127937  1
  Cu+  Cu49  1  0.49599709  0.74871201  0.50783960  1
  Cu+  Cu50  1  0.99531932  0.24490760  0.50274394  1
  Cu+  Cu51  1  0.99823874  0.74259402  0.50497409  1
  Cu+  Cu52  1  0.24937230  0.00260994  0.50291880  1
  Cu+  Cu53  1  0.25155655  0.50434007  0.50570564  1
  Cu+  Cu54  1  0.75120676  0.00487430  0.50419009  1
  Cu+  Cu55  1  0.75201471  0.50484917  0.50413979  1
  Cu+  Cu56  1  0.25320786  0.24895900  0.50126818  1
  Cu+  Cu57  1  0.24518655  0.74421137  0.50749139  1
  Cu+  Cu58  1  0.74925355  0.24484940  0.50352511  1
  Cu+  Cu59  1  0.75061917  0.74787665  0.50546362  1
  Cu+  Cu60  1  0.32648281  0.40826596  0.83434879  1
  Cu+  Cu61  1  0.33064604  0.91316645  0.83376885  1
  Cu+  Cu62  1  0.82910972  0.41879998  0.83277575  1
  Cu+  Cu63  1  0.83120111  0.91305513  0.83588877  1
  Cu+  Cu64  1  0.08645178  0.16795510  0.83617393  1
  Cu+  Cu65  1  0.08674318  0.67343030  0.83359450  1
  Cu+  Cu66  1  0.58970073  0.17078948  0.83327941  1
  Cu+  Cu67  1  0.58881366  0.67493430  0.83616982  1
  Cu+  Cu68  1  0.08682035  0.41552516  0.83519883  1
  Cu+  Cu69  1  0.08524596  0.91477711  0.83498919  1
  Cu+  Cu70  1  0.58494113  0.41134645  0.83275289  1
  Cu+  Cu71  1  0.58719961  0.91827883  0.83438516  1
  Cu+  Cu72  1  0.16782503  0.08464443  0.67178597  1
  Cu+  Cu73  1  0.16745137  0.58401093  0.68201288  1
  Cu+  Cu74  1  0.67073707  0.08460788  0.67639043  1
  Cu+  Cu75  1  0.66820561  0.58287606  0.68334438  1
  Cu+  Cu76  1  0.41332027  0.32903944  0.67831572  1
  Cu+  Cu77  1  0.41389499  0.82970300  0.68010590  1
  Cu+  Cu78  1  0.91360252  0.32746131  0.67128031  1
  Cu+  Cu79  1  0.91565034  0.83006255  0.67343974  1
  Cu+  Cu80  1  0.41633287  0.08652100  0.67012064  1
  Cu+  Cu81  1  0.41405010  0.58263646  0.68693960  1
  Cu+  Cu82  1  0.91399797  0.08154727  0.67264619  1
  Cu+  Cu83  1  0.91419413  0.58290373  0.67971500  1
  Cu+  Cu84  1  0.00486004  0.25303019  0.00670975  1
  Cu+  Cu85  1  0.00226431  0.74990403  0.00809334  1
  Cu+  Cu86  1  0.50288644  0.25226961  0.00687543  1
  Cu+  Cu87  1  0.50037137  0.74903609  0.01124438  1
  Cu+  Cu88  1  0.25096384  0.49829002  0.01115520  1
  Cu+  Cu89  1  0.25073189  0.99716811  0.00552667  1
  Cu+  Cu90  1  0.74982018  0.50023063  0.00963843  1
  Cu+  Cu91  1  0.75008765  1.00001073  0.00728695  1
  Cu+  Cu92  1  0.25354317  0.25275052  0.00854675  1
  Cu+  Cu93  1  0.24890980  0.74938462  0.00899983  1
  Cu+  Cu94  1  0.75136206  0.25230907  0.00588651  1
  Cu+  Cu95  1  0.74696487  0.74970361  0.01444680  1
  Cu+  Cu96  1  0.33723229  0.41985755  0.35085632  1
  Cu+  Cu97  1  0.33555734  0.91767197  0.34086141  1
  Cu+  Cu98  1  0.83569547  0.41759178  0.34172423  1
  Cu+  Cu99  1  0.83522350  0.92028083  0.34076414  1
  Cu+  Cu100  1  0.08158707  0.16351506  0.33801862  1
  Cu+  Cu101  1  0.08133269  0.66138650  0.34728127  1
  Cu+  Cu102  1  0.58105380  0.16404089  0.33922614  1
  Cu+  Cu103  1  0.58270250  0.66766857  0.35198117  1
  Cu+  Cu104  1  0.08293750  0.41790746  0.34169179  1
  Cu+  Cu105  1  0.07933588  0.91691325  0.33830791  1
  Cu+  Cu106  1  0.58331302  0.42151588  0.34998354  1
  Cu+  Cu107  1  0.58175274  0.92101919  0.34122023  1
  Cu+  Cu108  1  0.00325259  0.00175799  0.11168083  1
  Cu+  Cu109  1  0.00053862  0.50035465  0.11711408  1
  Cu+  Cu110  1  0.50133744  0.00056723  0.11392912  1
  Cu+  Cu111  1  0.49814730  0.49713571  0.12264694  1
  Cu+  Cu112  1  0.33074440  0.16178761  0.44344946  1
  Cu+  Cu113  1  0.33377290  0.67100221  0.45155382  1
  Cu+  Cu114  1  0.83429568  0.16881026  0.44499592  1
  Cu+  Cu115  1  0.83691440  0.67252417  0.44860859  1
  Cu+  Cu116  1  0.15815596  0.32671693  0.77823725  1
  Cu+  Cu117  1  0.16993102  0.83975912  0.77667752  1
  Cu+  Cu118  1  0.66716815  0.33030841  0.77444062  1
  Cu+  Cu119  1  0.67064151  0.83829218  0.77879184  1
  Te2-  Te120  1  -0.00040134  0.00037600  0.38429589  1
  Te2-  Te121  1  -0.00194480  0.49526651  0.39081149  1
  Te2-  Te122  1  0.49885945  0.00155284  0.38673832  1
  Te2-  Te123  1  0.50118988  0.50318073  0.39889964  1
  Te2-  Te124  1  0.33071115  0.16237738  0.71909779  1
  Te2-  Te125  1  0.33189102  0.66612677  0.72804609  1
  Te2-  Te126  1  0.83639120  0.16620347  0.72052743  1
  Te2-  Te127  1  0.83450432  0.66867908  0.72416545  1
  Te2-  Te128  1  0.16871316  0.33266998  0.05166868  1
  Te2-  Te129  1  0.16735412  0.83319201  0.05050268  1
  Te2-  Te130  1  0.66810084  0.33396558  0.04926193  1
  Te2-  Te131  1  0.66543346  0.83595958  0.05403211  1
  Te2-  Te132  1  0.49481242  0.24382385  0.88047149  1
  Te2-  Te133  1  0.49112620  0.74613480  0.88481639  1
  Te2-  Te134  1  0.99929216  0.24959616  0.88015857  1
  Te2-  Te135  1  0.99359801  0.74838288  0.88193881  1
  Te2-  Te136  1  0.25344930  0.00244739  0.87905809  1
  Te2-  Te137  1  0.25681749  0.50975285  0.88490909  1
  Te2-  Te138  1  0.75500240  0.00522618  0.88069792  1
  Te2-  Te139  1  0.75491379  0.51152954  0.88330332  1
  Te2-  Te140  1  0.25363232  0.24291132  0.88245728  1
  Te2-  Te141  1  0.25559653  0.74399012  0.88300081  1
  Te2-  Te142  1  0.75871453  0.25214802  0.87967893  1
  Te2-  Te143  1  0.75476259  0.74799537  0.88614428  1
  Te2-  Te144  1  0.33158825  0.41676491  0.22262963  1
  Te2-  Te145  1  0.32684904  0.91398505  0.21533243  1
  Te2-  Te146  1  0.82891226  0.41489252  0.21606945  1
  Te2-  Te147  1  0.82269304  0.91643908  0.21529425  1
  Te2-  Te148  1  0.08535205  0.17098678  0.21231641  1
  Te2-  Te149  1  0.08663837  0.67251930  0.22041497  1
  Te2-  Te150  1  0.58623224  0.17272698  0.21373825  1
  Te2-  Te151  1  0.58494347  0.67716950  0.22355472  1
  Te2-  Te152  1  0.08627954  0.41509972  0.21605105  1
  Te2-  Te153  1  0.08131751  0.91189248  0.21248929  1
  Te2-  Te154  1  0.58715456  0.42005377  0.22187307  1
  Te2-  Te155  1  0.58610527  0.91535414  0.21555982  1
  Te2-  Te156  1  0.16166140  0.08281424  0.54613845  1
  Te2-  Te157  1  0.15827230  0.57565304  0.55420770  1
  Te2-  Te158  1  0.65922102  0.07885298  0.55011955  1
  Te2-  Te159  1  0.65709198  0.57825313  0.55472638  1
  Te2-  Te160  1  0.42129530  0.34430475  0.55175619  1
  Te2-  Te161  1  0.41408022  0.83382834  0.55239231  1
  Te2-  Te162  1  0.91779294  0.33556152  0.54603319  1
  Te2-  Te163  1  0.91884766  0.83318022  0.54744003  1
  Te2-  Te164  1  0.41848808  0.08278783  0.54455875  1
  Te2-  Te165  1  0.42011036  0.57840407  0.55668902  1
  Te2-  Te166  1  0.91837232  0.07803341  0.54747466  1
  Te2-  Te167  1  0.91658480  0.57475038  0.55243480  1
  Te2-  Te168  1  0.00075756  -0.00099539  0.87969612  1
  Te2-  Te169  1  0.00011472  0.50072349  0.88076551  1
  Te2-  Te170  1  0.50036173  0.00181916  0.88067002  1
  Te2-  Te171  1  0.50125137  0.49922929  0.88276837  1
  Te2-  Te172  1  0.33248963  0.16442882  0.21535577  1
  Te2-  Te173  1  0.33318847  0.66878155  0.21734456  1
  Te2-  Te174  1  0.83347048  0.16667194  0.21306216  1
  Te2-  Te175  1  0.83558620  0.66878111  0.21757683  1
  Te2-  Te176  1  0.16492218  0.33131081  0.54807693  1
  Te2-  Te177  1  0.16657746  0.83523779  0.54968516  1
  Te2-  Te178  1  0.66598379  0.33211188  0.54764398  1
  Te2-  Te179  1  0.66757403  0.83549042  0.55075984  1
  Te2-  Te180  1  0.32211160  0.40960144  0.70853660  1
  Te2-  Te181  1  0.32821559  0.91692139  0.70684790  1
  Te2-  Te182  1  0.82655758  0.40991173  0.70678999  1
  Te2-  Te183  1  0.82764302  0.91190997  0.70918637  1
  Te2-  Te184  1  0.08404182  0.16979749  0.70907538  1
  Te2-  Te185  1  0.08707581  0.67640870  0.70702024  1
  Te2-  Te186  1  0.58568206  0.17260304  0.70616757  1
  Te2-  Te187  1  0.58723736  0.67462876  0.70968657  1
  Te2-  Te188  1  0.08323144  0.41057243  0.70834211  1
  Te2-  Te189  1  0.08611758  0.91438131  0.70803217  1
  Te2-  Te190  1  0.58587136  0.40984836  0.70658980  1
  Te2-  Te191  1  0.58679932  0.91189556  0.70714826  1
  Te2-  Te192  1  0.16447045  0.08118005  0.04293746  1
  Te2-  Te193  1  0.16187764  0.58010485  0.04679319  1
  Te2-  Te194  1  0.66210300  0.08222203  0.04281395  1
  Te2-  Te195  1  0.65893891  0.57841240  0.04848988  1
  Te2-  Te196  1  0.42203742  0.33973787  0.04844513  1
  Te2-  Te197  1  0.41887175  0.83827986  0.04569619  1
  Te2-  Te198  1  0.92123653  0.33973517  0.04407115  1
  Te2-  Te199  1  0.92070619  0.83914816  0.04310303  1
  Te2-  Te200  1  0.42049024  0.08146408  0.04360213  1
  Te2-  Te201  1  0.42043570  0.57992284  0.04947762  1
  Te2-  Te202  1  0.92088885  0.08196585  0.04179353  1
  Te2-  Te203  1  0.91930005  0.58157151  0.04736275  1
  Te2-  Te204  1  0.49350016  0.24694754  0.37469652  1
  Te2-  Te205  1  0.49353525  0.75149920  0.38046026  1
  Te2-  Te206  1  0.99544677  0.24690588  0.37615108  1
  Te2-  Te207  1  0.99375292  0.74752518  0.37715902  1
  Te2-  Te208  1  0.24912278  0.00175402  0.37614383  1
  Te2-  Te209  1  0.25243499  0.50847448  0.37924581  1
  Te2-  Te210  1  0.75164547  0.00633410  0.37806481  1
  Te2-  Te211  1  0.75663690  0.50873552  0.37799855  1
  Te2-  Te212  1  0.25152249  0.24527555  0.37475585  1
  Te2-  Te213  1  0.25411034  0.74800196  0.37944812  1
  Te2-  Te214  1  0.75086250  0.24680596  0.37690022  1
  Te2-  Te215  1  0.75575277  0.75098025  0.37836195  1
