# generated using pymatgen
data_Ti(CuTe)4
_symmetry_space_group_name_H-M   'P 1'
_cell_length_a   16.88840144
_cell_length_b   16.89084786
_cell_length_c   20.70932601
_cell_angle_alpha   89.98557899
_cell_angle_beta   90.03865670
_cell_angle_gamma   120.00921105
_symmetry_Int_Tables_number   1
_chemical_formula_structural   Ti(CuTe)4
_chemical_formula_sum   'Ti24 Cu96 Te96'
_cell_volume   5115.59521286
_cell_formula_units_Z   24
loop_
 _symmetry_equiv_pos_site_id
 _symmetry_equiv_pos_as_xyz
  1  'x, y, z'
loop_
 _atom_type_symbol
 _atom_type_oxidation_number
  Ti4+  4.0
  Cu+  1.0
  Te2-  -2.0
loop_
 _atom_site_type_symbol
 _atom_site_label
 _atom_site_symmetry_multiplicity
 _atom_site_fract_x
 _atom_site_fract_y
 _atom_site_fract_z
 _atom_site_occupancy
  Ti4+  Ti0  1  -0.00090648  0.00181322  0.26208126  1
  Ti4+  Ti1  1  0.00376151  0.49985424  0.25505745  1
  Ti4+  Ti2  1  0.50279448  0.00360183  0.25841901  1
  Ti4+  Ti3  1  0.50342112  0.50223510  0.25609609  1
  Ti4+  Ti4  1  0.33532255  0.16785815  0.58950481  1
  Ti4+  Ti5  1  0.33468481  0.66727617  0.59059818  1
  Ti4+  Ti6  1  0.83244181  0.16512697  0.59352295  1
  Ti4+  Ti7  1  0.83257074  0.66655482  0.58777165  1
  Ti4+  Ti8  1  0.16404838  0.33035886  0.92316282  1
  Ti4+  Ti9  1  0.16385320  0.83258442  0.92379265  1
  Ti4+  Ti10  1  0.66359758  0.33070687  0.92351317  1
  Ti4+  Ti11  1  0.66306641  0.83167620  0.92606565  1
  Ti4+  Ti12  1  0.00055912  -0.00042246  0.75633816  1
  Ti4+  Ti13  1  -0.00097531  0.49885659  0.75331084  1
  Ti4+  Ti14  1  0.49985695  -0.00007839  0.75565961  1
  Ti4+  Ti15  1  0.49891721  0.49907402  0.75609475  1
  Ti4+  Ti16  1  0.33462707  0.16660041  0.09102818  1
  Ti4+  Ti17  1  0.33081581  0.66506333  0.08703299  1
  Ti4+  Ti18  1  0.83477623  0.16721458  0.09063523  1
  Ti4+  Ti19  1  0.83011379  0.66634642  0.08859875  1
  Ti4+  Ti20  1  0.16943516  0.33560653  0.42290735  1
  Ti4+  Ti21  1  0.16809808  0.83386183  0.41843666  1
  Ti4+  Ti22  1  0.66725895  0.33390097  0.42197958  1
  Ti4+  Ti23  1  0.66820354  0.83432585  0.42143495  1
  Cu+  Cu24  1  0.84454070  0.92292337  0.48237006  1
  Cu+  Cu25  1  0.52655537  0.26326231  0.14160026  1
  Cu+  Cu26  1  0.90434250  0.08473680  0.81521230  1
  Cu+  Cu27  1  0.07953676  0.16014523  0.48662283  1
  Cu+  Cu28  1  0.07885516  0.92157812  0.47845214  1
  Cu+  Cu29  1  0.57461315  0.14588383  0.47538381  1
  Cu+  Cu30  1  0.02553980  0.26096490  0.14313305  1
  Cu+  Cu31  1  0.40423816  0.59293245  0.80747683  1
  Cu+  Cu32  1  0.73938660  0.76485965  0.14244471  1
  Cu+  Cu33  1  0.40211676  0.30887694  0.80711270  1
  Cu+  Cu34  1  0.57179230  0.42747257  0.47159207  1
  Cu+  Cu35  1  0.90223708  0.31463392  0.80961032  1
  Cu+  Cu36  1  0.16481589  0.08381155  0.17553261  1
  Cu+  Cu37  1  0.16362394  0.58000072  0.16775778  1
  Cu+  Cu38  1  0.66452967  0.08387074  0.17336668  1
  Cu+  Cu39  1  0.66350166  0.58693204  0.16928327  1
  Cu+  Cu40  1  0.42488139  0.33611965  0.17152872  1
  Cu+  Cu41  1  0.41801608  0.83523346  0.17129132  1
  Cu+  Cu42  1  0.92606659  0.33697833  0.17008521  1
  Cu+  Cu43  1  0.91180491  0.83542643  0.17389956  1
  Cu+  Cu44  1  0.42594697  0.08963018  0.17240532  1
  Cu+  Cu45  1  0.41701445  0.58168730  0.16896329  1
  Cu+  Cu46  1  0.92323550  0.08615833  0.17391765  1
  Cu+  Cu47  1  0.91790919  0.58101261  0.16992650  1
  Cu+  Cu48  1  0.49920365  0.25039470  0.50252360  1
  Cu+  Cu49  1  0.49732014  0.74762323  0.50468734  1
  Cu+  Cu50  1  0.99736583  0.24938881  0.50726671  1
  Cu+  Cu51  1  0.99707249  0.74862057  0.49987781  1
  Cu+  Cu52  1  0.25273143  0.00414044  0.50005805  1
  Cu+  Cu53  1  0.25612281  0.50642096  0.50495355  1
  Cu+  Cu54  1  0.75432169  0.00526571  0.50477707  1
  Cu+  Cu55  1  0.74664465  0.50288037  0.50170198  1
  Cu+  Cu56  1  0.25431781  0.24916516  0.50344483  1
  Cu+  Cu57  1  0.25405034  0.74895232  0.50212144  1
  Cu+  Cu58  1  0.74809421  0.24529506  0.50609579  1
  Cu+  Cu59  1  0.75471260  0.74832341  0.50080503  1
  Cu+  Cu60  1  0.33003189  0.41359126  0.83648337  1
  Cu+  Cu61  1  0.32899137  0.91610552  0.83795737  1
  Cu+  Cu62  1  0.82809280  0.41228726  0.83683244  1
  Cu+  Cu63  1  0.82786445  0.91318736  0.84093952  1
  Cu+  Cu64  1  0.08070125  0.16882960  0.83658758  1
  Cu+  Cu65  1  0.08195546  0.67017834  0.83630940  1
  Cu+  Cu66  1  0.58155526  0.16901931  0.83694852  1
  Cu+  Cu67  1  0.57977290  0.66811948  0.83926374  1
  Cu+  Cu68  1  0.07759298  0.40910356  0.83429118  1
  Cu+  Cu69  1  0.08520746  0.91379300  0.83862119  1
  Cu+  Cu70  1  0.57684461  0.40811219  0.83714881  1
  Cu+  Cu71  1  0.58301585  0.91439257  0.83813084  1
  Cu+  Cu72  1  0.16857736  0.08244315  0.67674105  1
  Cu+  Cu73  1  0.16952836  0.58523936  0.67311843  1
  Cu+  Cu74  1  0.66749698  0.08300470  0.67763138  1
  Cu+  Cu75  1  0.67014297  0.58551244  0.67302999  1
  Cu+  Cu76  1  0.41692879  0.33047515  0.67787458  1
  Cu+  Cu77  1  0.41628844  0.83114991  0.67446548  1
  Cu+  Cu78  1  0.91435957  0.32886354  0.67982687  1
  Cu+  Cu79  1  0.91750281  0.83134925  0.67557598  1
  Cu+  Cu80  1  0.41772672  0.08453641  0.67390575  1
  Cu+  Cu81  1  0.41639560  0.58672190  0.67891494  1
  Cu+  Cu82  1  0.91622783  0.08338304  0.68420250  1
  Cu+  Cu83  1  0.91558258  0.58487170  0.67036938  1
  Cu+  Cu84  1  0.00071091  0.24831057  0.01410539  1
  Cu+  Cu85  1  0.00022793  0.75162558  0.00715489  1
  Cu+  Cu86  1  0.50187244  0.24988388  0.01277336  1
  Cu+  Cu87  1  0.49824505  0.74862541  0.00917228  1
  Cu+  Cu88  1  0.24562130  0.49628931  0.00653369  1
  Cu+  Cu89  1  0.24678963  0.99508640  0.00922701  1
  Cu+  Cu90  1  0.74585941  0.49669568  0.00574350  1
  Cu+  Cu91  1  0.74827205  0.99729564  0.01208091  1
  Cu+  Cu92  1  0.24707468  0.24712043  0.00883975  1
  Cu+  Cu93  1  0.24575872  0.75066213  0.00623198  1
  Cu+  Cu94  1  0.74812522  0.24929161  0.00882333  1
  Cu+  Cu95  1  0.74521541  0.75152267  0.01330966  1
  Cu+  Cu96  1  0.33861612  0.42013179  0.33975251  1
  Cu+  Cu97  1  0.33743045  0.91944020  0.33947649  1
  Cu+  Cu98  1  0.84167288  0.41865897  0.33843197  1
  Cu+  Cu99  1  0.83583694  0.91982547  0.34926353  1
  Cu+  Cu100  1  0.08307751  0.16660817  0.35209489  1
  Cu+  Cu101  1  0.08598696  0.66441612  0.33730118  1
  Cu+  Cu102  1  0.58411191  0.16542083  0.34700347  1
  Cu+  Cu103  1  0.58451771  0.66752853  0.34089259  1
  Cu+  Cu104  1  0.08676650  0.42002645  0.34092726  1
  Cu+  Cu105  1  0.08095972  0.91823014  0.34701929  1
  Cu+  Cu106  1  0.58534476  0.42113299  0.34318679  1
  Cu+  Cu107  1  0.58246843  0.91928506  0.34254738  1
  Cu+  Cu108  1  0.00367499  -0.00211055  0.11929768  1
  Cu+  Cu109  1  -0.00272431  0.50151628  0.11139082  1
  Cu+  Cu110  1  0.49831374  -0.00312641  0.11633777  1
  Cu+  Cu111  1  0.49535513  0.49766502  0.11305553  1
  Cu+  Cu112  1  0.33544370  0.16707158  0.44468669  1
  Cu+  Cu113  1  0.33545036  0.66851992  0.44642351  1
  Cu+  Cu114  1  0.83551509  0.17122858  0.44971838  1
  Cu+  Cu115  1  0.83549643  0.66374719  0.44292715  1
  Cu+  Cu116  1  0.16665026  0.33483787  0.77905313  1
  Cu+  Cu117  1  0.16760815  0.83173509  0.78023564  1
  Cu+  Cu118  1  0.66655048  0.33570956  0.78019794  1
  Cu+  Cu119  1  0.66570400  0.83114377  0.78321976  1
  Te2-  Te120  1  0.00031825  0.00128525  0.39582364  1
  Te2-  Te121  1  0.00459000  0.50196593  0.38437279  1
  Te2-  Te122  1  0.49902126  -0.00117234  0.38942453  1
  Te2-  Te123  1  0.50153308  0.50374369  0.38674168  1
  Te2-  Te124  1  0.33331572  0.16366261  0.71957284  1
  Te2-  Te125  1  0.33155559  0.66817067  0.72195810  1
  Te2-  Te126  1  0.83015369  0.16377895  0.72550137  1
  Te2-  Te127  1  0.83404372  0.66617343  0.71651809  1
  Te2-  Te128  1  0.16859571  0.33291938  0.05307982  1
  Te2-  Te129  1  0.16347609  0.83110618  0.05331159  1
  Te2-  Te130  1  0.66917855  0.33439327  0.05390993  1
  Te2-  Te131  1  0.66136460  0.83352718  0.05664540  1
  Te2-  Te132  1  0.48866512  0.24116737  0.88545703  1
  Te2-  Te133  1  0.48967681  0.74731801  0.88356006  1
  Te2-  Te134  1  0.98674892  0.24253385  0.88610104  1
  Te2-  Te135  1  0.99110148  0.74642823  0.88179528  1
  Te2-  Te136  1  0.25173523  0.00579958  0.88367428  1
  Te2-  Te137  1  0.24626037  0.50137075  0.88009054  1
  Te2-  Te138  1  0.74885746  0.00556276  0.88614890  1
  Te2-  Te139  1  0.74708809  0.50019781  0.87945752  1
  Te2-  Te140  1  0.24827680  0.24229780  0.88246218  1
  Te2-  Te141  1  0.24987592  0.74717550  0.88046592  1
  Te2-  Te142  1  0.74823448  0.24167710  0.88313429  1
  Te2-  Te143  1  0.74802197  0.74599845  0.88569311  1
  Te2-  Te144  1  0.33312262  0.41400687  0.21389791  1
  Te2-  Te145  1  0.33321279  0.91980053  0.21378421  1
  Te2-  Te146  1  0.83237184  0.41219417  0.21282764  1
  Te2-  Te147  1  0.82650956  0.91896532  0.22116998  1
  Te2-  Te148  1  0.09014461  0.17529950  0.22320532  1
  Te2-  Te149  1  0.08707800  0.67088130  0.21191754  1
  Te2-  Te150  1  0.59376453  0.17885955  0.22019379  1
  Te2-  Te151  1  0.58433238  0.67600402  0.21540513  1
  Te2-  Te152  1  0.09499702  0.41519271  0.21567975  1
  Te2-  Te153  1  0.08086833  0.91481412  0.21901161  1
  Te2-  Te154  1  0.59438672  0.41966464  0.21635361  1
  Te2-  Te155  1  0.58625040  0.91596643  0.21677600  1
  Te2-  Te156  1  0.15881013  0.07860623  0.55069813  1
  Te2-  Te157  1  0.16333500  0.58184165  0.54758004  1
  Te2-  Te158  1  0.65996126  0.07608897  0.55166990  1
  Te2-  Te159  1  0.65853534  0.58326076  0.54755372  1
  Te2-  Te160  1  0.42005619  0.34068613  0.55049084  1
  Te2-  Te161  1  0.42072123  0.83884860  0.54881069  1
  Te2-  Te162  1  0.91599724  0.33478662  0.55219223  1
  Te2-  Te163  1  0.92359607  0.84433662  0.54999191  1
  Te2-  Te164  1  0.41855361  0.07937143  0.54772932  1
  Te2-  Te165  1  0.42209371  0.58165043  0.55225115  1
  Te2-  Te166  1  0.92222117  0.07838557  0.55583292  1
  Te2-  Te167  1  0.91666793  0.58118123  0.54418585  1
  Te2-  Te168  1  -0.00015971  -0.00126456  0.88311882  1
  Te2-  Te169  1  -0.00126327  0.49999363  0.88021125  1
  Te2-  Te170  1  0.49809781  -0.00055937  0.88180690  1
  Te2-  Te171  1  0.49882649  0.49861017  0.88351290  1
  Te2-  Te172  1  0.33474525  0.16773091  0.21780509  1
  Te2-  Te173  1  0.33260776  0.66581301  0.21323283  1
  Te2-  Te174  1  0.83475483  0.16832585  0.21725638  1
  Te2-  Te175  1  0.83298843  0.66473873  0.21531264  1
  Te2-  Te176  1  0.17019478  0.33595648  0.54998068  1
  Te2-  Te177  1  0.16790710  0.83340361  0.54558444  1
  Te2-  Te178  1  0.66810645  0.33489669  0.54939640  1
  Te2-  Te179  1  0.66806344  0.83261568  0.54840458  1
  Te2-  Te180  1  0.32671651  0.41301076  0.70876945  1
  Te2-  Te181  1  0.32873089  0.91425235  0.71073721  1
  Te2-  Te182  1  0.82674562  0.41496064  0.70876391  1
  Te2-  Te183  1  0.82695388  0.91019102  0.71302994  1
  Te2-  Te184  1  0.08942776  0.17321668  0.71032845  1
  Te2-  Te185  1  0.08466181  0.67055241  0.70941104  1
  Te2-  Te186  1  0.58656000  0.17265925  0.71112587  1
  Te2-  Te187  1  0.58832959  0.67209387  0.71201924  1
  Te2-  Te188  1  0.08764729  0.41463240  0.70775629  1
  Te2-  Te189  1  0.08659907  0.91316229  0.71222468  1
  Te2-  Te190  1  0.58823970  0.41625492  0.71000043  1
  Te2-  Te191  1  0.58564128  0.91278836  0.71220634  1
  Te2-  Te192  1  0.16185984  0.07920323  0.04846885  1
  Te2-  Te193  1  0.15920322  0.57992210  0.04169473  1
  Te2-  Te194  1  0.66161403  0.08085936  0.04733917  1
  Te2-  Te195  1  0.65775918  0.57792265  0.04275279  1
  Te2-  Te196  1  0.41743046  0.33782653  0.04388685  1
  Te2-  Te197  1  0.41608199  0.83711446  0.04426070  1
  Te2-  Te198  1  0.91837905  0.33903637  0.04310376  1
  Te2-  Te199  1  0.91822277  0.83928207  0.04587967  1
  Te2-  Te200  1  0.41746318  0.07784526  0.04542426  1
  Te2-  Te201  1  0.41594029  0.57815455  0.04246947  1
  Te2-  Te202  1  0.91830771  0.07669459  0.04735519  1
  Te2-  Te203  1  0.91577114  0.58120427  0.04290561  1
  Te2-  Te204  1  0.49445302  0.24907441  0.37501921  1
  Te2-  Te205  1  0.49610491  0.74876392  0.37802389  1
  Te2-  Te206  1  0.99550472  0.25142358  0.37996440  1
  Te2-  Te207  1  0.99551343  0.74456667  0.37288221  1
  Te2-  Te208  1  0.25504182  0.00746853  0.37352763  1
  Te2-  Te209  1  0.25636283  0.50678016  0.37828663  1
  Te2-  Te210  1  0.75241855  0.00898045  0.37843574  1
  Te2-  Te211  1  0.75751316  0.50485198  0.37453055  1
  Te2-  Te212  1  0.25719472  0.25084364  0.37685417  1
  Te2-  Te213  1  0.25536076  0.74921193  0.37544619  1
  Te2-  Te214  1  0.75676405  0.25039615  0.37858018  1
  Te2-  Te215  1  0.75398330  0.74650860  0.37488428  1
