# generated using pymatgen
data_Ti(CuTe)4
_symmetry_space_group_name_H-M   'P 1'
_cell_length_a   16.83481125
_cell_length_b   16.83633716
_cell_length_c   20.63389973
_cell_angle_alpha   90.01786448
_cell_angle_beta   89.99212379
_cell_angle_gamma   119.99535672
_symmetry_Int_Tables_number   1
_chemical_formula_structural   Ti(CuTe)4
_chemical_formula_sum   'Ti24 Cu96 Te96'
_cell_volume   5065.10100652
_cell_formula_units_Z   24
loop_
 _symmetry_equiv_pos_site_id
 _symmetry_equiv_pos_as_xyz
  1  'x, y, z'
loop_
 _atom_type_symbol
 _atom_type_oxidation_number
  Ti4+  4.0
  Cu+  1.0
  Te2-  -2.0
loop_
 _atom_site_type_symbol
 _atom_site_label
 _atom_site_symmetry_multiplicity
 _atom_site_fract_x
 _atom_site_fract_y
 _atom_site_fract_z
 _atom_site_occupancy
  Ti4+  Ti0  1  0.00116380  -0.00329971  0.25668683  1
  Ti4+  Ti1  1  -0.00110400  0.49761944  0.25907044  1
  Ti4+  Ti2  1  0.50411314  0.00228347  0.25486461  1
  Ti4+  Ti3  1  0.49799641  0.50150432  0.25737855  1
  Ti4+  Ti4  1  0.33563342  0.17019227  0.59206314  1
  Ti4+  Ti5  1  0.33049084  0.66428760  0.59074951  1
  Ti4+  Ti6  1  0.83362748  0.16732461  0.59174344  1
  Ti4+  Ti7  1  0.83386684  0.66651935  0.59287415  1
  Ti4+  Ti8  1  0.16517917  0.33082098  0.92496897  1
  Ti4+  Ti9  1  0.16509694  0.83407740  0.92430720  1
  Ti4+  Ti10  1  0.66738547  0.33329998  0.92540001  1
  Ti4+  Ti11  1  0.66528984  0.83269312  0.92112866  1
  Ti4+  Ti12  1  0.00095773  0.00151075  0.75438175  1
  Ti4+  Ti13  1  -0.00035437  0.50019029  0.75824063  1
  Ti4+  Ti14  1  0.49944099  -0.00109008  0.75621133  1
  Ti4+  Ti15  1  0.50019887  0.50083829  0.75636716  1
  Ti4+  Ti16  1  0.33138882  0.16525016  0.08744870  1
  Ti4+  Ti17  1  0.33361270  0.66531772  0.09010689  1
  Ti4+  Ti18  1  0.83171981  0.16752928  0.08927929  1
  Ti4+  Ti19  1  0.83514482  0.66896862  0.08850215  1
  Ti4+  Ti20  1  0.16768696  0.33344533  0.42117387  1
  Ti4+  Ti21  1  0.16641134  0.83275039  0.42415643  1
  Ti4+  Ti22  1  0.66678528  0.33378067  0.42176506  1
  Ti4+  Ti23  1  0.66764387  0.83434938  0.42389003  1
  Cu+  Cu24  1  0.52506815  0.76018851  0.13997002  1
  Cu+  Cu25  1  0.40047388  0.80483019  0.80694142  1
  Cu+  Cu26  1  0.02187666  0.75464856  0.14370595  1
  Cu+  Cu27  1  0.73762385  0.26685670  0.13963147  1
  Cu+  Cu28  1  0.07328245  0.42064595  0.47735116  1
  Cu+  Cu29  1  0.24523582  0.97988675  0.14161352  1
  Cu+  Cu30  1  0.23587742  0.47300408  0.14296923  1
  Cu+  Cu31  1  0.35776692  0.42896659  0.47380470  1
  Cu+  Cu32  1  0.90811255  0.81287036  0.80641949  1
  Cu+  Cu33  1  0.90567698  0.09450355  0.80578177  1
  Cu+  Cu34  1  0.18968988  0.09277573  0.80680832  1
  Cu+  Cu35  1  0.07018508  0.64811821  0.47800717  1
  Cu+  Cu36  1  0.16293282  0.07524280  0.16803601  1
  Cu+  Cu37  1  0.16352356  0.57596834  0.17258148  1
  Cu+  Cu38  1  0.66558262  0.08834057  0.16818777  1
  Cu+  Cu39  1  0.66468148  0.58336052  0.16997856  1
  Cu+  Cu40  1  0.41522448  0.33595474  0.17034961  1
  Cu+  Cu41  1  0.42574765  0.83732019  0.16809386  1
  Cu+  Cu42  1  0.91362940  0.33449201  0.17174717  1
  Cu+  Cu43  1  0.92430180  0.83652900  0.16838796  1
  Cu+  Cu44  1  0.41853290  0.08190604  0.16820139  1
  Cu+  Cu45  1  0.41695346  0.58116238  0.17085728  1
  Cu+  Cu46  1  0.91621330  0.08073157  0.17068329  1
  Cu+  Cu47  1  0.92026027  0.58332517  0.17154145  1
  Cu+  Cu48  1  0.49876650  0.25028775  0.50426378  1
  Cu+  Cu49  1  0.49832838  0.75244607  0.50541117  1
  Cu+  Cu50  1  0.99376047  0.24737154  0.50414106  1
  Cu+  Cu51  1  0.99470021  0.74548303  0.50715541  1
  Cu+  Cu52  1  0.25054129  0.00385189  0.50644266  1
  Cu+  Cu53  1  0.25220083  0.50386094  0.50069440  1
  Cu+  Cu54  1  0.75266716  0.00185258  0.50651677  1
  Cu+  Cu55  1  0.75000438  0.50171635  0.50478798  1
  Cu+  Cu56  1  0.25798599  0.25365940  0.50364921  1
  Cu+  Cu57  1  0.24708937  0.74624229  0.50485134  1
  Cu+  Cu58  1  0.75096584  0.24887691  0.50387426  1
  Cu+  Cu59  1  0.75206228  0.75104123  0.50755598  1
  Cu+  Cu60  1  0.33166998  0.41767414  0.83919400  1
  Cu+  Cu61  1  0.33213836  0.91296530  0.83774922  1
  Cu+  Cu62  1  0.83136580  0.41346226  0.84144809  1
  Cu+  Cu63  1  0.83034620  0.91466549  0.83317554  1
  Cu+  Cu64  1  0.08564506  0.17023236  0.83480592  1
  Cu+  Cu65  1  0.08023317  0.66929900  0.83872641  1
  Cu+  Cu66  1  0.58739732  0.17003108  0.83955540  1
  Cu+  Cu67  1  0.58189922  0.66963820  0.83616496  1
  Cu+  Cu68  1  0.08464438  0.41688746  0.84031269  1
  Cu+  Cu69  1  0.08524343  0.91559778  0.83634611  1
  Cu+  Cu70  1  0.58442647  0.41675631  0.83998852  1
  Cu+  Cu71  1  0.57744399  0.90895876  0.83532199  1
  Cu+  Cu72  1  0.17296341  0.08826557  0.67856895  1
  Cu+  Cu73  1  0.16616526  0.58402667  0.67683837  1
  Cu+  Cu74  1  0.66801392  0.08426092  0.67410552  1
  Cu+  Cu75  1  0.66918698  0.58576245  0.67558607  1
  Cu+  Cu76  1  0.41592483  0.33363109  0.67671373  1
  Cu+  Cu77  1  0.41114933  0.82680854  0.67904415  1
  Cu+  Cu78  1  0.91751420  0.33305138  0.67634508  1
  Cu+  Cu79  1  0.91618512  0.82879884  0.67923495  1
  Cu+  Cu80  1  0.41819207  0.08663285  0.67501509  1
  Cu+  Cu81  1  0.41571380  0.58366669  0.67360910  1
  Cu+  Cu82  1  0.91500701  0.08775477  0.67853030  1
  Cu+  Cu83  1  0.91634243  0.58343930  0.67733261  1
  Cu+  Cu84  1  0.00040176  0.24980558  0.00817542  1
  Cu+  Cu85  1  0.00272161  0.75416844  0.01350799  1
  Cu+  Cu86  1  0.50084755  0.25228014  0.00763086  1
  Cu+  Cu87  1  0.50276127  0.75171768  0.01170633  1
  Cu+  Cu88  1  0.24505640  0.49385245  0.01423330  1
  Cu+  Cu89  1  0.24638119  0.99664820  0.01163721  1
  Cu+  Cu90  1  0.75054080  0.50029954  0.00819094  1
  Cu+  Cu91  1  0.74810692  0.99827745  0.00432686  1
  Cu+  Cu92  1  0.24895164  0.25111784  0.00731729  1
  Cu+  Cu93  1  0.24826033  0.74868029  0.00850187  1
  Cu+  Cu94  1  0.74790118  0.25418785  0.01293930  1
  Cu+  Cu95  1  0.74825887  0.75061321  0.00517126  1
  Cu+  Cu96  1  0.33650321  0.41788000  0.34584106  1
  Cu+  Cu97  1  0.33744226  0.92083430  0.34036610  1
  Cu+  Cu98  1  0.83370525  0.41744877  0.34297188  1
  Cu+  Cu99  1  0.83705737  0.91653265  0.33965420  1
  Cu+  Cu100  1  0.08334930  0.16230425  0.33982043  1
  Cu+  Cu101  1  0.08292623  0.66372073  0.34824016  1
  Cu+  Cu102  1  0.58347034  0.16582305  0.34064328  1
  Cu+  Cu103  1  0.58166627  0.66744983  0.34294826  1
  Cu+  Cu104  1  0.07968241  0.41476213  0.34723331  1
  Cu+  Cu105  1  0.08366291  0.91678046  0.34421080  1
  Cu+  Cu106  1  0.58142445  0.41806142  0.34069282  1
  Cu+  Cu107  1  0.58605635  0.92037515  0.33953203  1
  Cu+  Cu108  1  -0.00249535  0.00299670  0.11199506  1
  Cu+  Cu109  1  -0.00184268  0.49836860  0.11460950  1
  Cu+  Cu110  1  0.50127090  0.00153996  0.10912583  1
  Cu+  Cu111  1  0.50193753  0.49977293  0.11364755  1
  Cu+  Cu112  1  0.33655854  0.16521932  0.44901569  1
  Cu+  Cu113  1  0.33715231  0.67157872  0.44702001  1
  Cu+  Cu114  1  0.82573332  0.16173589  0.44857327  1
  Cu+  Cu115  1  0.82745785  0.66506955  0.44995740  1
  Cu+  Cu116  1  0.16944371  0.33859861  0.78270822  1
  Cu+  Cu117  1  0.16891745  0.83356575  0.78101664  1
  Cu+  Cu118  1  0.66656057  0.33597922  0.78377421  1
  Cu+  Cu119  1  0.66632221  0.83401109  0.77704207  1
  Te2-  Te120  1  0.00045935  -0.00101458  0.38625965  1
  Te2-  Te121  1  -0.00395212  0.49710813  0.39105655  1
  Te2-  Te122  1  0.50227450  0.00111333  0.38386740  1
  Te2-  Te123  1  0.50369473  0.50325332  0.38810941  1
  Te2-  Te124  1  0.33901748  0.17001105  0.72335884  1
  Te2-  Te125  1  0.33000058  0.66034255  0.72178182  1
  Te2-  Te126  1  0.83037646  0.16931445  0.72293548  1
  Te2-  Te127  1  0.83186128  0.66266313  0.72404048  1
  Te2-  Te128  1  0.16287403  0.32713104  0.05620491  1
  Te2-  Te129  1  0.16875878  0.83092914  0.05672882  1
  Te2-  Te130  1  0.66377675  0.33748298  0.05665168  1
  Te2-  Te131  1  0.67027284  0.83553494  0.05192427  1
  Te2-  Te132  1  0.49566861  0.24748520  0.88197260  1
  Te2-  Te133  1  0.48934923  0.74225554  0.88498904  1
  Te2-  Te134  1  0.99217049  0.24651847  0.88219822  1
  Te2-  Te135  1  0.99096131  0.74693938  0.88580476  1
  Te2-  Te136  1  0.25573236  0.00660827  0.88355690  1
  Te2-  Te137  1  0.25144010  0.50402254  0.88738306  1
  Te2-  Te138  1  0.74874123  0.00463542  0.87805148  1
  Te2-  Te139  1  0.75350530  0.50521165  0.88261326  1
  Te2-  Te140  1  0.25473989  0.24731354  0.88150009  1
  Te2-  Te141  1  0.24833096  0.74351003  0.88297508  1
  Te2-  Te142  1  0.75400012  0.24611398  0.88669455  1
  Te2-  Te143  1  0.75119848  0.74523550  0.87954362  1
  Te2-  Te144  1  0.32357574  0.41072389  0.21851187  1
  Te2-  Te145  1  0.33050790  0.91040868  0.21420618  1
  Te2-  Te146  1  0.82579951  0.41708181  0.21675219  1
  Te2-  Te147  1  0.83013887  0.91093362  0.21343375  1
  Te2-  Te148  1  0.08659442  0.16750762  0.21344313  1
  Te2-  Te149  1  0.09064885  0.67091918  0.22004805  1
  Te2-  Te150  1  0.58459315  0.17659927  0.21446634  1
  Te2-  Te151  1  0.58869925  0.67503262  0.21625233  1
  Te2-  Te152  1  0.08155465  0.40657001  0.21938758  1
  Te2-  Te153  1  0.09157487  0.90825083  0.21790912  1
  Te2-  Te154  1  0.58333604  0.41560047  0.21476405  1
  Te2-  Te155  1  0.59491774  0.91914660  0.21328482  1
  Te2-  Te156  1  0.16392213  0.08632506  0.55129862  1
  Te2-  Te157  1  0.15464048  0.57588722  0.55031738  1
  Te2-  Te158  1  0.66239405  0.08108600  0.54828245  1
  Te2-  Te159  1  0.66265240  0.58189645  0.54971806  1
  Te2-  Te160  1  0.42612092  0.34498645  0.55060041  1
  Te2-  Te161  1  0.41437048  0.83648352  0.55175809  1
  Te2-  Te162  1  0.91818996  0.34165683  0.55036563  1
  Te2-  Te163  1  0.92133945  0.83879135  0.55247446  1
  Te2-  Te164  1  0.41946278  0.08256078  0.54919008  1
  Te2-  Te165  1  0.42092944  0.58244915  0.54772169  1
  Te2-  Te166  1  0.92153761  0.08265342  0.55185807  1
  Te2-  Te167  1  0.91676360  0.57477146  0.55152134  1
  Te2-  Te168  1  -0.00095999  0.00048448  0.88297902  1
  Te2-  Te169  1  0.00036194  0.50120765  0.88534807  1
  Te2-  Te170  1  0.50078289  0.00025006  0.88360201  1
  Te2-  Te171  1  0.50032184  0.50164902  0.88352683  1
  Te2-  Te172  1  0.33275568  0.16613670  0.21478524  1
  Te2-  Te173  1  0.33455760  0.66846927  0.21776209  1
  Te2-  Te174  1  0.83330054  0.16532052  0.21672252  1
  Te2-  Te175  1  0.83350242  0.66718698  0.21591328  1
  Te2-  Te176  1  0.16666866  0.33394519  0.54898044  1
  Te2-  Te177  1  0.16626709  0.83478397  0.55154183  1
  Te2-  Te178  1  0.66694261  0.33303698  0.54901476  1
  Te2-  Te179  1  0.66628969  0.83405181  0.55113278  1
  Te2-  Te180  1  0.32754743  0.41507815  0.71205894  1
  Te2-  Te181  1  0.32698941  0.91588873  0.71024281  1
  Te2-  Te182  1  0.82761310  0.41312646  0.71395409  1
  Te2-  Te183  1  0.82695871  0.91384977  0.70635937  1
  Te2-  Te184  1  0.08813597  0.17660615  0.70835366  1
  Te2-  Te185  1  0.08567533  0.67289231  0.71244477  1
  Te2-  Te186  1  0.58727054  0.17235656  0.71294160  1
  Te2-  Te187  1  0.58528515  0.67247506  0.70972335  1
  Te2-  Te188  1  0.08644025  0.41456665  0.71323462  1
  Te2-  Te189  1  0.08943350  0.91482933  0.70919234  1
  Te2-  Te190  1  0.58687986  0.41532033  0.71242990  1
  Te2-  Te191  1  0.58548738  0.91334857  0.70816832  1
  Te2-  Te192  1  0.15774248  0.08065774  0.04111871  1
  Te2-  Te193  1  0.15893688  0.58020565  0.04557074  1
  Te2-  Te194  1  0.66020956  0.07974013  0.04095844  1
  Te2-  Te195  1  0.66229456  0.58221587  0.04345501  1
  Te2-  Te196  1  0.41807295  0.33904437  0.04394958  1
  Te2-  Te197  1  0.41761808  0.83885488  0.04185253  1
  Te2-  Te198  1  0.92130630  0.34055418  0.04422272  1
  Te2-  Te199  1  0.91776647  0.84198721  0.04162273  1
  Te2-  Te200  1  0.42045171  0.08138470  0.04073422  1
  Te2-  Te201  1  0.41958044  0.57831623  0.04315641  1
  Te2-  Te202  1  0.91641479  0.08028900  0.04337537  1
  Te2-  Te203  1  0.92056761  0.58054515  0.04382691  1
  Te2-  Te204  1  0.49486693  0.24784320  0.37698648  1
  Te2-  Te205  1  0.49608171  0.75145311  0.37825744  1
  Te2-  Te206  1  0.99297849  0.24172216  0.37726291  1
  Te2-  Te207  1  0.99246036  0.74650315  0.37955707  1
  Te2-  Te208  1  0.25366996  0.00532313  0.37946097  1
  Te2-  Te209  1  0.25338201  0.50841036  0.37406222  1
  Te2-  Te210  1  0.75527679  0.00481458  0.37825511  1
  Te2-  Te211  1  0.75196943  0.50649860  0.37752111  1
  Te2-  Te212  1  0.25283392  0.24442599  0.37683636  1
  Te2-  Te213  1  0.25664146  0.75059098  0.37718380  1
  Te2-  Te214  1  0.75311981  0.24717888  0.37704474  1
  Te2-  Te215  1  0.75253313  0.74776504  0.37945069  1
