# generated using pymatgen
data_Ti(CuTe)4
_symmetry_space_group_name_H-M   'P 1'
_cell_length_a   16.89937116
_cell_length_b   16.90248468
_cell_length_c   20.72295380
_cell_angle_alpha   90.02090956
_cell_angle_beta   90.01258295
_cell_angle_gamma   119.99353123
_symmetry_Int_Tables_number   1
_chemical_formula_structural   Ti(CuTe)4
_chemical_formula_sum   'Ti24 Cu96 Te96'
_cell_volume   5126.62575979
_cell_formula_units_Z   24
loop_
 _symmetry_equiv_pos_site_id
 _symmetry_equiv_pos_as_xyz
  1  'x, y, z'
loop_
 _atom_type_symbol
 _atom_type_oxidation_number
  Ti4+  4.0
  Cu+  1.0
  Te2-  -2.0
loop_
 _atom_site_type_symbol
 _atom_site_label
 _atom_site_symmetry_multiplicity
 _atom_site_fract_x
 _atom_site_fract_y
 _atom_site_fract_z
 _atom_site_occupancy
  Ti4+  Ti0  1  -0.00199035  -0.00368811  0.25364170  1
  Ti4+  Ti1  1  0.00095006  0.49947205  0.25882145  1
  Ti4+  Ti2  1  0.49812056  -0.00390349  0.26018463  1
  Ti4+  Ti3  1  0.50196471  0.49719142  0.25771598  1
  Ti4+  Ti4  1  0.33599122  0.16830111  0.58854023  1
  Ti4+  Ti5  1  0.33581084  0.66911181  0.59046847  1
  Ti4+  Ti6  1  0.83405983  0.16812417  0.58827087  1
  Ti4+  Ti7  1  0.83343041  0.66485008  0.59385724  1
  Ti4+  Ti8  1  0.16681035  0.33729395  0.92097324  1
  Ti4+  Ti9  1  0.16280179  0.83324870  0.92441123  1
  Ti4+  Ti10  1  0.66602767  0.33372515  0.92919363  1
  Ti4+  Ti11  1  0.66433746  0.83372830  0.92460878  1
  Ti4+  Ti12  1  0.00101321  0.00088505  0.75376964  1
  Ti4+  Ti13  1  0.00018637  0.50079388  0.75501706  1
  Ti4+  Ti14  1  0.50120300  0.00247756  0.75781072  1
  Ti4+  Ti15  1  0.49963426  0.50214249  0.75617956  1
  Ti4+  Ti16  1  0.33195051  0.16603278  0.08807772  1
  Ti4+  Ti17  1  0.33257391  0.66703566  0.08992072  1
  Ti4+  Ti18  1  0.83244697  0.16527108  0.08920375  1
  Ti4+  Ti19  1  0.83222108  0.66636877  0.08849332  1
  Ti4+  Ti20  1  0.16729597  0.33173094  0.41915697  1
  Ti4+  Ti21  1  0.16671436  0.83218083  0.42242081  1
  Ti4+  Ti22  1  0.66831200  0.33390129  0.42033223  1
  Ti4+  Ti23  1  0.66689073  0.83193623  0.42220526  1
  Cu+  Cu24  1  0.90617452  0.82051385  0.81267709  1
  Cu+  Cu25  1  0.74633958  0.48448876  0.14635376  1
  Cu+  Cu26  1  0.40472246  0.59793774  0.80677488  1
  Cu+  Cu27  1  0.34650411  0.92276608  0.47994597  1
  Cu+  Cu28  1  0.51247239  0.25114135  0.14703761  1
  Cu+  Cu29  1  0.57891786  0.92296411  0.48073575  1
  Cu+  Cu30  1  0.57798991  0.42784678  0.47696142  1
  Cu+  Cu31  1  0.58176000  0.16225323  0.48299016  1
  Cu+  Cu32  1  0.90451063  0.58734153  0.81270789  1
  Cu+  Cu33  1  0.73603024  0.97450860  0.14098059  1
  Cu+  Cu34  1  0.23963818  0.97683221  0.14036380  1
  Cu+  Cu35  1  0.85460603  0.42912149  0.47516480  1
  Cu+  Cu36  1  0.16221767  0.07511566  0.16716578  1
  Cu+  Cu37  1  0.16479318  0.58276535  0.17268868  1
  Cu+  Cu38  1  0.66390614  0.07619903  0.17306736  1
  Cu+  Cu39  1  0.66340447  0.57680032  0.17074079  1
  Cu+  Cu40  1  0.42324030  0.33676624  0.16961785  1
  Cu+  Cu41  1  0.41702639  0.83500101  0.17267855  1
  Cu+  Cu42  1  0.91920748  0.33594740  0.17182557  1
  Cu+  Cu43  1  0.91834670  0.83745082  0.16723021  1
  Cu+  Cu44  1  0.41488845  0.07736246  0.17258587  1
  Cu+  Cu45  1  0.41851194  0.58205962  0.17230986  1
  Cu+  Cu46  1  0.91219108  0.07539205  0.16834330  1
  Cu+  Cu47  1  0.91791955  0.57917642  0.17284157  1
  Cu+  Cu48  1  0.49370350  0.24946661  0.49971878  1
  Cu+  Cu49  1  0.49694553  0.74928164  0.50394866  1
  Cu+  Cu50  1  0.99901570  0.24957436  0.50088485  1
  Cu+  Cu51  1  0.99687148  0.74736947  0.50640114  1
  Cu+  Cu52  1  0.25444999  0.00314864  0.50244275  1
  Cu+  Cu53  1  0.25350991  0.50180386  0.50368815  1
  Cu+  Cu54  1  0.75097751  0.00405868  0.50220598  1
  Cu+  Cu55  1  0.75547725  0.50672557  0.50307883  1
  Cu+  Cu56  1  0.25267199  0.24934046  0.50081620  1
  Cu+  Cu57  1  0.25511305  0.75021082  0.50389959  1
  Cu+  Cu58  1  0.75699157  0.25004604  0.50010423  1
  Cu+  Cu59  1  0.75305650  0.74847456  0.50597612  1
  Cu+  Cu60  1  0.33036382  0.42287739  0.83560974  1
  Cu+  Cu61  1  0.33051527  0.91737134  0.83983512  1
  Cu+  Cu62  1  0.82876998  0.41658660  0.84102623  1
  Cu+  Cu63  1  0.82925961  0.91561608  0.83811815  1
  Cu+  Cu64  1  0.08510266  0.17258690  0.83482256  1
  Cu+  Cu65  1  0.08059225  0.67020317  0.83640057  1
  Cu+  Cu66  1  0.58353000  0.17048386  0.84233985  1
  Cu+  Cu67  1  0.57919065  0.67120497  0.83695174  1
  Cu+  Cu68  1  0.08633154  0.41638744  0.83445971  1
  Cu+  Cu69  1  0.08209778  0.91360488  0.83659767  1
  Cu+  Cu70  1  0.58349383  0.41487063  0.84177209  1
  Cu+  Cu71  1  0.58503023  0.91804517  0.83909611  1
  Cu+  Cu72  1  0.17120025  0.08634400  0.67158276  1
  Cu+  Cu73  1  0.17022766  0.58480817  0.67319607  1
  Cu+  Cu74  1  0.66961039  0.08763544  0.67638978  1
  Cu+  Cu75  1  0.66807876  0.58210595  0.67755615  1
  Cu+  Cu76  1  0.41863616  0.33311570  0.67366404  1
  Cu+  Cu77  1  0.41882592  0.83522959  0.67748878  1
  Cu+  Cu78  1  0.91620641  0.33249434  0.67346599  1
  Cu+  Cu79  1  0.91671029  0.83018914  0.68209674  1
  Cu+  Cu80  1  0.41862644  0.08722179  0.67605170  1
  Cu+  Cu81  1  0.41674702  0.58752149  0.67771999  1
  Cu+  Cu82  1  0.91665921  0.08592920  0.67106786  1
  Cu+  Cu83  1  0.91495740  0.58353389  0.68189235  1
  Cu+  Cu84  1  0.00265204  0.25386661  0.00485589  1
  Cu+  Cu85  1  -0.00098534  0.75152074  0.00953849  1
  Cu+  Cu86  1  0.50227129  0.25248026  0.01631339  1
  Cu+  Cu87  1  0.49893123  0.75167318  0.00929838  1
  Cu+  Cu88  1  0.24928488  0.50053688  0.00710833  1
  Cu+  Cu89  1  0.24553098  0.99673331  0.01118595  1
  Cu+  Cu90  1  0.74778014  0.49669771  0.01661193  1
  Cu+  Cu91  1  0.74695534  0.99641016  0.01193584  1
  Cu+  Cu92  1  0.24812205  0.25498739  0.00346309  1
  Cu+  Cu93  1  0.24759183  0.75206991  0.00850176  1
  Cu+  Cu94  1  0.74920041  0.25177210  0.01108106  1
  Cu+  Cu95  1  0.74788474  0.75228148  0.00840627  1
  Cu+  Cu96  1  0.33663503  0.41503220  0.33984309  1
  Cu+  Cu97  1  0.33407500  0.91560912  0.34795921  1
  Cu+  Cu98  1  0.83841947  0.41914661  0.34657464  1
  Cu+  Cu99  1  0.83482967  0.91459323  0.33962790  1
  Cu+  Cu100  1  0.08120559  0.16122304  0.33546419  1
  Cu+  Cu101  1  0.07959083  0.66276834  0.34233392  1
  Cu+  Cu102  1  0.58209728  0.16180979  0.34899529  1
  Cu+  Cu103  1  0.58526300  0.66159803  0.34193555  1
  Cu+  Cu104  1  0.08309335  0.41673548  0.34100339  1
  Cu+  Cu105  1  0.07956794  0.91435164  0.33951245  1
  Cu+  Cu106  1  0.58394673  0.41732276  0.34700823  1
  Cu+  Cu107  1  0.58121031  0.91386389  0.34861441  1
  Cu+  Cu108  1  0.00169752  0.00480000  0.10903645  1
  Cu+  Cu109  1  0.00306725  0.49962068  0.11600614  1
  Cu+  Cu110  1  0.50034909  -0.00109809  0.11714820  1
  Cu+  Cu111  1  0.49731517  0.50139869  0.11442907  1
  Cu+  Cu112  1  0.32738413  0.16374817  0.44366211  1
  Cu+  Cu113  1  0.33128573  0.66153687  0.44697772  1
  Cu+  Cu114  1  0.83854057  0.16472965  0.44328988  1
  Cu+  Cu115  1  0.83775721  0.67333524  0.44922039  1
  Cu+  Cu116  1  0.16710895  0.33255231  0.77658080  1
  Cu+  Cu117  1  0.17052314  0.83516613  0.78156826  1
  Cu+  Cu118  1  0.66461795  0.33279837  0.78662271  1
  Cu+  Cu119  1  0.66806071  0.83726291  0.78126809  1
  Te2-  Te120  1  -0.00067529  -0.00149134  0.38228704  1
  Te2-  Te121  1  0.00411945  0.50026928  0.38954924  1
  Te2-  Te122  1  0.49925717  -0.00280576  0.39350485  1
  Te2-  Te123  1  0.49919874  0.49858012  0.38824689  1
  Te2-  Te124  1  0.33470826  0.16873649  0.71693487  1
  Te2-  Te125  1  0.33312821  0.67050261  0.72075582  1
  Te2-  Te126  1  0.83530566  0.16807360  0.71663655  1
  Te2-  Te127  1  0.83058442  0.66471441  0.72591267  1
  Te2-  Te128  1  0.16628946  0.33585528  0.04991831  1
  Te2-  Te129  1  0.16303876  0.83082379  0.05485016  1
  Te2-  Te130  1  0.66724813  0.33121163  0.06171335  1
  Te2-  Te131  1  0.66260357  0.83024298  0.05487316  1
  Te2-  Te132  1  0.49508678  0.24865027  0.88903188  1
  Te2-  Te133  1  0.49077553  0.75084463  0.88354537  1
  Te2-  Te134  1  0.99497422  0.24983283  0.87934982  1
  Te2-  Te135  1  0.98613585  0.74439787  0.88388288  1
  Te2-  Te136  1  0.24832933  0.00377584  0.88405931  1
  Te2-  Te137  1  0.25137505  0.51240633  0.88155450  1
  Te2-  Te138  1  0.75230690  0.00494315  0.88463974  1
  Te2-  Te139  1  0.75018494  0.50709785  0.88889891  1
  Te2-  Te140  1  0.25393896  0.25369847  0.87775614  1
  Te2-  Te141  1  0.24761143  0.74808226  0.88227568  1
  Te2-  Te142  1  0.75208884  0.25000780  0.88535889  1
  Te2-  Te143  1  0.74690116  0.74397065  0.88249176  1
  Te2-  Te144  1  0.33217505  0.41256106  0.21402843  1
  Te2-  Te145  1  0.32595192  0.91011905  0.22015641  1
  Te2-  Te146  1  0.82654580  0.40940136  0.21972863  1
  Te2-  Te147  1  0.82281355  0.90665081  0.21438149  1
  Te2-  Te148  1  0.08305632  0.16572271  0.20927431  1
  Te2-  Te149  1  0.08439054  0.67028221  0.21678455  1
  Te2-  Te150  1  0.58622209  0.16718844  0.21988920  1
  Te2-  Te151  1  0.58719660  0.66740823  0.21605681  1
  Te2-  Te152  1  0.08651949  0.41469376  0.21544624  1
  Te2-  Te153  1  0.08372236  0.90701785  0.21401135  1
  Te2-  Te154  1  0.59051754  0.40853686  0.21963250  1
  Te2-  Te155  1  0.58275931  0.90839558  0.22064584  1
  Te2-  Te156  1  0.16571144  0.08158830  0.54571674  1
  Te2-  Te157  1  0.16599272  0.58348075  0.54743465  1
  Te2-  Te158  1  0.65791854  0.08105604  0.55028592  1
  Te2-  Te159  1  0.66120060  0.58081781  0.55145099  1
  Te2-  Te160  1  0.42027281  0.34231973  0.54775695  1
  Te2-  Te161  1  0.42405783  0.84566627  0.55183966  1
  Te2-  Te162  1  0.92355171  0.34202665  0.54758709  1
  Te2-  Te163  1  0.91901888  0.83597393  0.55414846  1
  Te2-  Te164  1  0.42437244  0.08066600  0.55010805  1
  Te2-  Te165  1  0.42123163  0.58368897  0.55055007  1
  Te2-  Te166  1  0.91792851  0.08163774  0.54532932  1
  Te2-  Te167  1  0.92176506  0.58037218  0.55377097  1
  Te2-  Te168  1  0.00067425  0.00330957  0.88061904  1
  Te2-  Te169  1  0.00097323  0.50035622  0.88179393  1
  Te2-  Te170  1  0.49907260  0.00084482  0.88381118  1
  Te2-  Te171  1  0.49895144  0.50154235  0.88281075  1
  Te2-  Te172  1  0.33148130  0.16595076  0.21559306  1
  Te2-  Te173  1  0.33360514  0.66569345  0.21643843  1
  Te2-  Te174  1  0.83470326  0.16600308  0.21587588  1
  Te2-  Te175  1  0.83427621  0.66762201  0.21510692  1
  Te2-  Te176  1  0.16755566  0.33259507  0.54587778  1
  Te2-  Te177  1  0.16742901  0.83356642  0.54945357  1
  Te2-  Te178  1  0.66699104  0.33358173  0.54823497  1
  Te2-  Te179  1  0.66824564  0.83412346  0.54926078  1
  Te2-  Te180  1  0.32910936  0.41447564  0.70828332  1
  Te2-  Te181  1  0.32991409  0.91697631  0.71246618  1
  Te2-  Te182  1  0.82624830  0.41115987  0.71320671  1
  Te2-  Te183  1  0.82840495  0.91660176  0.70999737  1
  Te2-  Te184  1  0.08636909  0.17158224  0.70782858  1
  Te2-  Te185  1  0.08887104  0.67342000  0.70963601  1
  Te2-  Te186  1  0.58739427  0.17468895  0.71479556  1
  Te2-  Te187  1  0.58903937  0.67447304  0.71033776  1
  Te2-  Te188  1  0.08647456  0.41545845  0.70857587  1
  Te2-  Te189  1  0.09043948  0.91702943  0.70987345  1
  Te2-  Te190  1  0.58572996  0.41384963  0.71502355  1
  Te2-  Te191  1  0.58853350  0.91766425  0.71262869  1
  Te2-  Te192  1  0.16119589  0.08516546  0.04015204  1
  Te2-  Te193  1  0.16135608  0.58211658  0.04547794  1
  Te2-  Te194  1  0.65931600  0.08107158  0.04568113  1
  Te2-  Te195  1  0.65897523  0.58189178  0.04401777  1
  Te2-  Te196  1  0.41625978  0.33950810  0.04337945  1
  Te2-  Te197  1  0.41717815  0.83948234  0.04614516  1
  Te2-  Te198  1  0.91916313  0.33828201  0.04565843  1
  Te2-  Te199  1  0.91728132  0.83945357  0.04251560  1
  Te2-  Te200  1  0.41830662  0.07829156  0.04464313  1
  Te2-  Te201  1  0.41849442  0.58172854  0.04512033  1
  Te2-  Te202  1  0.92047435  0.08343774  0.04086767  1
  Te2-  Te203  1  0.92125341  0.58143686  0.04550143  1
  Te2-  Te204  1  0.49211037  0.24419339  0.37391966  1
  Te2-  Te205  1  0.49397601  0.74111985  0.37719949  1
  Te2-  Te206  1  0.99607782  0.24570279  0.37405299  1
  Te2-  Te207  1  0.99439968  0.74643652  0.37941918  1
  Te2-  Te208  1  0.24950087  0.00384084  0.37538110  1
  Te2-  Te209  1  0.25432106  0.50357976  0.37622604  1
  Te2-  Te210  1  0.75439556  0.00387109  0.37527795  1
  Te2-  Te211  1  0.75639318  0.50932952  0.37658368  1
  Te2-  Te212  1  0.25112897  0.24455123  0.37386701  1
  Te2-  Te213  1  0.25043191  0.74305197  0.37709915  1
  Te2-  Te214  1  0.75506424  0.24527299  0.37393426  1
  Te2-  Te215  1  0.75393267  0.74658891  0.37924058  1
