# generated using pymatgen
data_Ti(CuTe)4
_symmetry_space_group_name_H-M   'P 1'
_cell_length_a   16.85032744
_cell_length_b   16.85196521
_cell_length_c   20.65546007
_cell_angle_alpha   90.01197477
_cell_angle_beta   90.01030833
_cell_angle_gamma   119.99843613
_symmetry_Int_Tables_number   1
_chemical_formula_structural   Ti(CuTe)4
_chemical_formula_sum   'Ti24 Cu96 Te96'
_cell_volume   5079.61987231
_cell_formula_units_Z   24
loop_
 _symmetry_equiv_pos_site_id
 _symmetry_equiv_pos_as_xyz
  1  'x, y, z'
loop_
 _atom_type_symbol
 _atom_type_oxidation_number
  Ti4+  4.0
  Cu+  1.0
  Te2-  -2.0
loop_
 _atom_site_type_symbol
 _atom_site_label
 _atom_site_symmetry_multiplicity
 _atom_site_fract_x
 _atom_site_fract_y
 _atom_site_fract_z
 _atom_site_occupancy
  Ti4+  Ti0  1  -0.00086875  0.00286805  0.25858480  1
  Ti4+  Ti1  1  0.00024494  0.50164120  0.25761865  1
  Ti4+  Ti2  1  0.49563288  0.00021508  0.25886474  1
  Ti4+  Ti3  1  0.49905726  0.50227040  0.25645014  1
  Ti4+  Ti4  1  0.33077078  0.16669929  0.59307630  1
  Ti4+  Ti5  1  0.33345340  0.66715707  0.59132784  1
  Ti4+  Ti6  1  0.83048293  0.16175513  0.58939734  1
  Ti4+  Ti7  1  0.83108793  0.66359584  0.58836576  1
  Ti4+  Ti8  1  0.16884270  0.33108594  0.92590429  1
  Ti4+  Ti9  1  0.17131079  0.83455029  0.92632003  1
  Ti4+  Ti10  1  0.67151559  0.33305364  0.92247561  1
  Ti4+  Ti11  1  0.66706702  0.83354547  0.92506991  1
  Ti4+  Ti12  1  0.00259137  0.00136416  0.75821178  1
  Ti4+  Ti13  1  -0.00105855  0.49907387  0.75565763  1
  Ti4+  Ti14  1  0.50036222  -0.00147257  0.75527441  1
  Ti4+  Ti15  1  0.49920058  0.49984127  0.75564369  1
  Ti4+  Ti16  1  0.33475276  0.16739580  0.08839988  1
  Ti4+  Ti17  1  0.33422398  0.66778719  0.08904372  1
  Ti4+  Ti18  1  0.83507559  0.16616720  0.09053788  1
  Ti4+  Ti19  1  0.83405844  0.66878570  0.08929265  1
  Ti4+  Ti20  1  0.16659707  0.33228405  0.42239409  1
  Ti4+  Ti21  1  0.16525893  0.83305796  0.42332597  1
  Ti4+  Ti22  1  0.66612490  0.33435762  0.42039275  1
  Ti4+  Ti23  1  0.66516242  0.83491749  0.42106095  1
  Cu+  Cu24  1  0.69090077  0.09185630  0.80613930  1
  Cu+  Cu25  1  0.40571214  0.80974738  0.80830688  1
  Cu+  Cu26  1  0.07677956  0.14577796  0.47648487  1
  Cu+  Cu27  1  0.56865273  0.92721223  0.47381640  1
  Cu+  Cu28  1  0.23829562  0.75665107  0.14472696  1
  Cu+  Cu29  1  0.19719868  0.09698197  0.81092099  1
  Cu+  Cu30  1  0.07263077  0.64081587  0.47389289  1
  Cu+  Cu31  1  0.23693175  0.26200338  0.14149402  1
  Cu+  Cu32  1  0.57115729  0.64711045  0.47419074  1
  Cu+  Cu33  1  0.73585096  0.76525558  0.14202091  1
  Cu+  Cu34  1  0.23600385  0.98606385  0.14304713  1
  Cu+  Cu35  1  0.84196631  0.91686502  0.47935507  1
  Cu+  Cu36  1  0.16341597  0.08677956  0.17139947  1
  Cu+  Cu37  1  0.16306239  0.58382744  0.17127251  1
  Cu+  Cu38  1  0.66456969  0.08268504  0.17377419  1
  Cu+  Cu39  1  0.66556233  0.58886871  0.17055412  1
  Cu+  Cu40  1  0.41278009  0.33738790  0.16847354  1
  Cu+  Cu41  1  0.41348881  0.83725856  0.17131906  1
  Cu+  Cu42  1  0.91700543  0.33531647  0.17228515  1
  Cu+  Cu43  1  0.90994125  0.83527292  0.17097444  1
  Cu+  Cu44  1  0.41453766  0.07825847  0.16868522  1
  Cu+  Cu45  1  0.41967589  0.58258358  0.16978988  1
  Cu+  Cu46  1  0.91903864  0.08336613  0.17262350  1
  Cu+  Cu47  1  0.91966230  0.58277736  0.17049511  1
  Cu+  Cu48  1  0.49803180  0.24979612  0.50530613  1
  Cu+  Cu49  1  0.49572404  0.74960054  0.50271778  1
  Cu+  Cu50  1  0.99833730  0.24372311  0.50262049  1
  Cu+  Cu51  1  0.99734268  0.74249238  0.50215552  1
  Cu+  Cu52  1  0.24897726  0.00388010  0.50629063  1
  Cu+  Cu53  1  0.25196412  0.50294981  0.50385166  1
  Cu+  Cu54  1  0.74939179  0.00485504  0.49989208  1
  Cu+  Cu55  1  0.75120481  0.50287724  0.50044786  1
  Cu+  Cu56  1  0.24871979  0.24539003  0.50547597  1
  Cu+  Cu57  1  0.24661329  0.74536026  0.50511294  1
  Cu+  Cu58  1  0.74788926  0.24611720  0.50274343  1
  Cu+  Cu59  1  0.74916795  0.74245330  0.50034194  1
  Cu+  Cu60  1  0.33093806  0.41407704  0.83901076  1
  Cu+  Cu61  1  0.33014537  0.90973083  0.83798074  1
  Cu+  Cu62  1  0.83038085  0.41339930  0.83590637  1
  Cu+  Cu63  1  0.83138076  0.91327441  0.83953577  1
  Cu+  Cu64  1  0.09220905  0.16942617  0.83952577  1
  Cu+  Cu65  1  0.08750388  0.66818315  0.83964345  1
  Cu+  Cu66  1  0.59357506  0.17116567  0.83491603  1
  Cu+  Cu67  1  0.58765887  0.66869063  0.83856692  1
  Cu+  Cu68  1  0.08363945  0.41463453  0.83994385  1
  Cu+  Cu69  1  0.09159213  0.92278872  0.84070682  1
  Cu+  Cu70  1  0.58660283  0.41624678  0.83748578  1
  Cu+  Cu71  1  0.58502669  0.91458640  0.83632467  1
  Cu+  Cu72  1  0.16980655  0.08625159  0.68246067  1
  Cu+  Cu73  1  0.16640049  0.58414332  0.67648824  1
  Cu+  Cu74  1  0.66826146  0.08253862  0.67768746  1
  Cu+  Cu75  1  0.66740178  0.58456395  0.67273306  1
  Cu+  Cu76  1  0.41247372  0.33175521  0.67528170  1
  Cu+  Cu77  1  0.41278335  0.83008793  0.67932440  1
  Cu+  Cu78  1  0.91418122  0.32913056  0.67238808  1
  Cu+  Cu79  1  0.91519485  0.83021445  0.67363585  1
  Cu+  Cu80  1  0.41366705  0.08277267  0.67564092  1
  Cu+  Cu81  1  0.41699619  0.58540256  0.67647858  1
  Cu+  Cu82  1  0.91511649  0.08027078  0.67692618  1
  Cu+  Cu83  1  0.91586083  0.58364165  0.67410361  1
  Cu+  Cu84  1  0.00371941  0.24795725  0.00841003  1
  Cu+  Cu85  1  0.00339968  0.75220344  0.00836207  1
  Cu+  Cu86  1  0.50777354  0.25239911  0.00476369  1
  Cu+  Cu87  1  0.50207955  0.75023450  0.00849139  1
  Cu+  Cu88  1  0.25152062  0.49732618  0.00927195  1
  Cu+  Cu89  1  0.25350105  0.99847290  0.01436795  1
  Cu+  Cu90  1  0.75253356  0.49823831  0.00566917  1
  Cu+  Cu91  1  0.75181129  0.99994878  0.00904057  1
  Cu+  Cu92  1  0.25076388  0.25170798  0.01368045  1
  Cu+  Cu93  1  0.25187264  0.75260397  0.01531478  1
  Cu+  Cu94  1  0.75109114  0.25028738  0.00733660  1
  Cu+  Cu95  1  0.74865302  0.75355557  0.01309184  1
  Cu+  Cu96  1  0.33448330  0.41763440  0.34145406  1
  Cu+  Cu97  1  0.33209018  0.91943009  0.34514214  1
  Cu+  Cu98  1  0.83476177  0.41828596  0.33952000  1
  Cu+  Cu99  1  0.83457332  0.92131524  0.34829059  1
  Cu+  Cu100  1  0.08343581  0.16527778  0.34765846  1
  Cu+  Cu101  1  0.08269811  0.66418007  0.34593382  1
  Cu+  Cu102  1  0.58091433  0.16583120  0.33966506  1
  Cu+  Cu103  1  0.58126855  0.66530350  0.34525756  1
  Cu+  Cu104  1  0.08435889  0.42040639  0.34070415  1
  Cu+  Cu105  1  0.08377159  0.91977568  0.34156854  1
  Cu+  Cu106  1  0.58182196  0.41964991  0.33744969  1
  Cu+  Cu107  1  0.57826983  0.92011119  0.34527879  1
  Cu+  Cu108  1  0.00057642  -0.00218253  0.11475132  1
  Cu+  Cu109  1  -0.00205039  0.49567135  0.11390924  1
  Cu+  Cu110  1  0.50622296  0.00201196  0.11550286  1
  Cu+  Cu111  1  0.50524391  0.49811944  0.11258430  1
  Cu+  Cu112  1  0.33857358  0.16972644  0.44946194  1
  Cu+  Cu113  1  0.33120963  0.66622800  0.44708614  1
  Cu+  Cu114  1  0.83705877  0.17598652  0.44530917  1
  Cu+  Cu115  1  0.83514985  0.66601329  0.44215056  1
  Cu+  Cu116  1  0.16464059  0.33623234  0.78313816  1
  Cu+  Cu117  1  0.15876144  0.82960617  0.78412441  1
  Cu+  Cu118  1  0.66632562  0.33721145  0.77824150  1
  Cu+  Cu119  1  0.66766996  0.83140023  0.78136760  1
  Te2-  Te120  1  0.00050230  -0.00121701  0.39098537  1
  Te2-  Te121  1  -0.00243218  0.49664681  0.38837758  1
  Te2-  Te122  1  0.49638706  0.00403061  0.38943138  1
  Te2-  Te123  1  0.49843458  0.49844791  0.38718279  1
  Te2-  Te124  1  0.33758010  0.16917589  0.72395737  1
  Te2-  Te125  1  0.33057378  0.66320766  0.72186515  1
  Te2-  Te126  1  0.83552784  0.16596501  0.71951443  1
  Te2-  Te127  1  0.83212813  0.66513158  0.71727202  1
  Te2-  Te128  1  0.16625330  0.33429342  0.05671476  1
  Te2-  Te129  1  0.16505790  0.83252404  0.05899969  1
  Te2-  Te130  1  0.67077180  0.33457392  0.05183578  1
  Te2-  Te131  1  0.66525561  0.83664890  0.05593366  1
  Te2-  Te132  1  0.50038668  0.24611391  0.87893506  1
  Te2-  Te133  1  0.49434013  0.74457552  0.88229167  1
  Te2-  Te134  1  0.99838299  0.24478492  0.88228328  1
  Te2-  Te135  1  1.00202654  0.75258178  0.88229366  1
  Te2-  Te136  1  0.26194535  0.00777178  0.88654812  1
  Te2-  Te137  1  0.25207007  0.50252135  0.88352641  1
  Te2-  Te138  1  0.75580634  0.00619637  0.88265054  1
  Te2-  Te139  1  0.75502562  0.50511649  0.88008304  1
  Te2-  Te140  1  0.26067749  0.24817113  0.88671874  1
  Te2-  Te141  1  0.25392952  0.74314522  0.88766366  1
  Te2-  Te142  1  0.76094799  0.24710726  0.88164087  1
  Te2-  Te143  1  0.75345265  0.74762459  0.88632467  1
  Te2-  Te144  1  0.32441356  0.41659724  0.21606025  1
  Te2-  Te145  1  0.31855127  0.91231980  0.21855784  1
  Te2-  Te146  1  0.82872515  0.41551219  0.21398923  1
  Te2-  Te147  1  0.82518847  0.91763590  0.22060867  1
  Te2-  Te148  1  0.08590236  0.17637569  0.22005728  1
  Te2-  Te149  1  0.08499722  0.67584585  0.21873826  1
  Te2-  Te150  1  0.58152240  0.17026943  0.21397498  1
  Te2-  Te151  1  0.58462248  0.67724238  0.21814658  1
  Te2-  Te152  1  0.08638987  0.41655350  0.21476371  1
  Te2-  Te153  1  0.08042665  0.91351713  0.21532024  1
  Te2-  Te154  1  0.58282133  0.41717871  0.21094836  1
  Te2-  Te155  1  0.58049833  0.91352437  0.21827693  1
  Te2-  Te156  1  0.15618667  0.07620332  0.55479260  1
  Te2-  Te157  1  0.15953112  0.57625844  0.55077158  1
  Te2-  Te158  1  0.65639115  0.07856361  0.55041296  1
  Te2-  Te159  1  0.65689668  0.57556167  0.54691418  1
  Te2-  Te160  1  0.41601892  0.33714484  0.54902318  1
  Te2-  Te161  1  0.41595504  0.83977651  0.55086402  1
  Te2-  Te162  1  0.91723266  0.33138375  0.54625966  1
  Te2-  Te163  1  0.92086968  0.83600743  0.54704034  1
  Te2-  Te164  1  0.41674469  0.08138428  0.54989960  1
  Te2-  Te165  1  0.41910574  0.57970821  0.54994266  1
  Te2-  Te166  1  0.91874174  0.07373716  0.54984558  1
  Te2-  Te167  1  0.91682569  0.57469696  0.54826141  1
  Te2-  Te168  1  0.00035713  0.00003725  0.88540068  1
  Te2-  Te169  1  -0.00092918  0.49882702  0.88253580  1
  Te2-  Te170  1  0.50240345  0.00132377  0.88263513  1
  Te2-  Te171  1  0.50138434  0.49933455  0.88237471  1
  Te2-  Te172  1  0.33464569  0.16841387  0.21610738  1
  Te2-  Te173  1  0.33347154  0.66677540  0.21621010  1
  Te2-  Te174  1  0.83314427  0.16742886  0.21744569  1
  Te2-  Te175  1  0.83384876  0.66624784  0.21657162  1
  Te2-  Te176  1  0.16642682  0.33378439  0.54973369  1
  Te2-  Te177  1  0.16539345  0.83378538  0.55049762  1
  Te2-  Te178  1  0.66716554  0.33403958  0.54719208  1
  Te2-  Te179  1  0.66778496  0.83287740  0.54924041  1
  Te2-  Te180  1  0.32603112  0.41465204  0.71217183  1
  Te2-  Te181  1  0.32501110  0.91405065  0.71179346  1
  Te2-  Te182  1  0.82761732  0.41256519  0.70904517  1
  Te2-  Te183  1  0.82934617  0.91190158  0.71318268  1
  Te2-  Te184  1  0.08506679  0.17429120  0.71234658  1
  Te2-  Te185  1  0.08511334  0.67199030  0.71237999  1
  Te2-  Te186  1  0.58448867  0.17153672  0.70842363  1
  Te2-  Te187  1  0.58693925  0.67249334  0.71152895  1
  Te2-  Te188  1  0.08420848  0.41287431  0.71131410  1
  Te2-  Te189  1  0.08487258  0.91210040  0.71199149  1
  Te2-  Te190  1  0.58432976  0.41434490  0.70947779  1
  Te2-  Te191  1  0.58627089  0.91022006  0.70866020  1
  Te2-  Te192  1  0.15983644  0.07851378  0.04320923  1
  Te2-  Te193  1  0.16097421  0.57818324  0.04375662  1
  Te2-  Te194  1  0.66361615  0.08126456  0.04580887  1
  Te2-  Te195  1  0.66312714  0.57987096  0.04248249  1
  Te2-  Te196  1  0.42468248  0.33918723  0.04138921  1
  Te2-  Te197  1  0.42439580  0.84209864  0.04433451  1
  Te2-  Te198  1  0.92133750  0.33678069  0.04452509  1
  Te2-  Te199  1  0.92202473  0.84120551  0.04326599  1
  Te2-  Te200  1  0.42577509  0.08407417  0.04294622  1
  Te2-  Te201  1  0.42110795  0.58106351  0.04444850  1
  Te2-  Te202  1  0.92098177  0.07921231  0.04615642  1
  Te2-  Te203  1  0.92111975  0.58291511  0.04436951  1
  Te2-  Te204  1  0.49442497  0.24956652  0.37665797  1
  Te2-  Te205  1  0.49061449  0.74749070  0.37536981  1
  Te2-  Te206  1  0.99432827  0.24979070  0.37510891  1
  Te2-  Te207  1  0.99377227  0.74916005  0.37462224  1
  Te2-  Te208  1  0.25105292  0.00756970  0.38000072  1
  Te2-  Te209  1  0.25289185  0.50531552  0.37791520  1
  Te2-  Te210  1  0.75113056  0.01049868  0.37401288  1
  Te2-  Te211  1  0.75189930  0.50594840  0.37395888  1
  Te2-  Te212  1  0.25612896  0.24805537  0.37780733  1
  Te2-  Te213  1  0.25471511  0.74903802  0.37783328  1
  Te2-  Te214  1  0.75121737  0.24774342  0.37526684  1
  Te2-  Te215  1  0.75375040  0.74809921  0.37360363  1
