# generated using pymatgen
data_Ti(CuTe)4
_symmetry_space_group_name_H-M   'P 1'
_cell_length_a   16.87488711
_cell_length_b   16.87476864
_cell_length_c   20.68822498
_cell_angle_alpha   90.02761162
_cell_angle_beta   89.98439384
_cell_angle_gamma   119.99384953
_symmetry_Int_Tables_number   1
_chemical_formula_structural   Ti(CuTe)4
_chemical_formula_sum   'Ti24 Cu96 Te96'
_cell_volume   5102.22289563
_cell_formula_units_Z   24
loop_
 _symmetry_equiv_pos_site_id
 _symmetry_equiv_pos_as_xyz
  1  'x, y, z'
loop_
 _atom_type_symbol
 _atom_type_oxidation_number
  Ti4+  4.0
  Cu+  1.0
  Te2-  -2.0
loop_
 _atom_site_type_symbol
 _atom_site_label
 _atom_site_symmetry_multiplicity
 _atom_site_fract_x
 _atom_site_fract_y
 _atom_site_fract_z
 _atom_site_occupancy
  Ti4+  Ti0  1  0.00104704  -0.00222806  0.25894449  1
  Ti4+  Ti1  1  -0.00187641  0.49891211  0.25625784  1
  Ti4+  Ti2  1  0.49534853  -0.00212217  0.25983868  1
  Ti4+  Ti3  1  0.50200847  0.50331271  0.25915652  1
  Ti4+  Ti4  1  0.33374396  0.17053999  0.59156026  1
  Ti4+  Ti5  1  0.33877302  0.67175097  0.59039638  1
  Ti4+  Ti6  1  0.83474647  0.16627259  0.58800706  1
  Ti4+  Ti7  1  0.83525049  0.66827133  0.59506133  1
  Ti4+  Ti8  1  0.16762989  0.33017988  0.92151797  1
  Ti4+  Ti9  1  0.16443962  0.83060640  0.92356643  1
  Ti4+  Ti10  1  0.66681970  0.33162210  0.92359828  1
  Ti4+  Ti11  1  0.66326907  0.83099885  0.92849302  1
  Ti4+  Ti12  1  0.00152586  0.00171247  0.75530620  1
  Ti4+  Ti13  1  0.00042851  0.50181863  0.75160809  1
  Ti4+  Ti14  1  0.49905192  -0.00139416  0.75770249  1
  Ti4+  Ti15  1  0.50041550  0.50016323  0.75496307  1
  Ti4+  Ti16  1  0.33126625  0.16349090  0.09211858  1
  Ti4+  Ti17  1  0.33358318  0.66649433  0.08889334  1
  Ti4+  Ti18  1  0.83351316  0.16665788  0.08751612  1
  Ti4+  Ti19  1  0.83243807  0.66721017  0.08801448  1
  Ti4+  Ti20  1  0.16803042  0.33231288  0.42124586  1
  Ti4+  Ti21  1  0.16655110  0.83354120  0.42468397  1
  Ti4+  Ti22  1  0.66657141  0.33430441  0.42111994  1
  Ti4+  Ti23  1  0.66561956  0.83545316  0.42293790  1
  Cu+  Cu24  1  0.40239481  0.80563701  0.80985024  1
  Cu+  Cu25  1  0.57739959  0.93154762  0.47620123  1
  Cu+  Cu26  1  0.74482100  0.76252205  0.14565008  1
  Cu+  Cu27  1  0.07380362  0.14182601  0.47233093  1
  Cu+  Cu28  1  0.35162307  0.93301100  0.47804854  1
  Cu+  Cu29  1  0.41216951  0.31516625  0.80940512  1
  Cu+  Cu30  1  0.23365236  0.96883635  0.13921419  1
  Cu+  Cu31  1  0.90380783  0.81740881  0.81249862  1
  Cu+  Cu32  1  0.51371244  0.76118642  0.14888056  1
  Cu+  Cu33  1  0.35859742  0.42911339  0.47334786  1
  Cu+  Cu34  1  0.18433292  0.08607348  0.80833140  1
  Cu+  Cu35  1  0.90323030  0.58698475  0.80858654  1
  Cu+  Cu36  1  0.16490415  0.07483386  0.17375273  1
  Cu+  Cu37  1  0.16044375  0.58098621  0.17025162  1
  Cu+  Cu38  1  0.66463788  0.08265219  0.17167977  1
  Cu+  Cu39  1  0.66398614  0.58598925  0.17039358  1
  Cu+  Cu40  1  0.41808029  0.33730881  0.17504032  1
  Cu+  Cu41  1  0.41686311  0.83827087  0.17194388  1
  Cu+  Cu42  1  0.91743242  0.33730851  0.16896024  1
  Cu+  Cu43  1  0.91830842  0.83788227  0.17031438  1
  Cu+  Cu44  1  0.40851310  0.07509026  0.17339847  1
  Cu+  Cu45  1  0.42134011  0.58524475  0.17177203  1
  Cu+  Cu46  1  0.92039968  0.08454450  0.17091261  1
  Cu+  Cu47  1  0.91860715  0.58059642  0.17003571  1
  Cu+  Cu48  1  0.49860561  0.25395278  0.50281393  1
  Cu+  Cu49  1  0.49773355  0.75561983  0.50304005  1
  Cu+  Cu50  1  0.99786478  0.24189478  0.50081460  1
  Cu+  Cu51  1  0.99640928  0.74855227  0.50929904  1
  Cu+  Cu52  1  0.25192806  0.00515245  0.50608260  1
  Cu+  Cu53  1  0.25931121  0.50412927  0.50292699  1
  Cu+  Cu54  1  0.75121699  0.00604178  0.50183480  1
  Cu+  Cu55  1  0.75352571  0.50317879  0.50703647  1
  Cu+  Cu56  1  0.25191859  0.25044127  0.50386619  1
  Cu+  Cu57  1  0.25714868  0.75605386  0.50397539  1
  Cu+  Cu58  1  0.75251881  0.24979206  0.50088526  1
  Cu+  Cu59  1  0.75439665  0.75247825  0.50898676  1
  Cu+  Cu60  1  0.33028927  0.41065456  0.83418368  1
  Cu+  Cu61  1  0.33019418  0.91046466  0.83774219  1
  Cu+  Cu62  1  0.83003009  0.41447339  0.83472089  1
  Cu+  Cu63  1  0.82906886  0.91408916  0.84038629  1
  Cu+  Cu64  1  0.09165935  0.17160199  0.83363780  1
  Cu+  Cu65  1  0.08072037  0.66868818  0.83315568  1
  Cu+  Cu66  1  0.58590137  0.16967359  0.83784788  1
  Cu+  Cu67  1  0.58334786  0.66971533  0.84012919  1
  Cu+  Cu68  1  0.08434304  0.41300648  0.83369743  1
  Cu+  Cu69  1  0.08345966  0.91339117  0.83616013  1
  Cu+  Cu70  1  0.58408446  0.41118274  0.83547653  1
  Cu+  Cu71  1  0.57635991  0.90882854  0.84120446  1
  Cu+  Cu72  1  0.16951477  0.08862120  0.67936715  1
  Cu+  Cu73  1  0.17235540  0.58773097  0.67104024  1
  Cu+  Cu74  1  0.66969666  0.08413452  0.67465370  1
  Cu+  Cu75  1  0.66902310  0.58624467  0.67645804  1
  Cu+  Cu76  1  0.41513364  0.33414181  0.67974347  1
  Cu+  Cu77  1  0.41684187  0.83358063  0.68171296  1
  Cu+  Cu78  1  0.91685174  0.33113968  0.66813697  1
  Cu+  Cu79  1  0.91692261  0.83226804  0.68195517  1
  Cu+  Cu80  1  0.41738096  0.08580440  0.67568695  1
  Cu+  Cu81  1  0.42128719  0.58890378  0.67405475  1
  Cu+  Cu82  1  0.91474851  0.08397151  0.67286536  1
  Cu+  Cu83  1  0.91637923  0.58726942  0.68006346  1
  Cu+  Cu84  1  0.00254326  0.24949640  0.00327183  1
  Cu+  Cu85  1  -0.00170504  0.74978296  0.00970947  1
  Cu+  Cu86  1  0.50121994  0.25010241  0.00975715  1
  Cu+  Cu87  1  0.50019799  0.75005484  0.01745155  1
  Cu+  Cu88  1  0.24874258  0.49491260  0.00494196  1
  Cu+  Cu89  1  0.24639533  0.99445657  0.01240026  1
  Cu+  Cu90  1  0.74790569  0.49635682  0.00805172  1
  Cu+  Cu91  1  0.74836076  0.99754094  0.00970792  1
  Cu+  Cu92  1  0.24969051  0.24879502  0.00911892  1
  Cu+  Cu93  1  0.24951770  0.74848559  0.00801221  1
  Cu+  Cu94  1  0.74896145  0.25029970  0.00600014  1
  Cu+  Cu95  1  0.74812236  0.75083373  0.01593586  1
  Cu+  Cu96  1  0.33889153  0.42012701  0.34473853  1
  Cu+  Cu97  1  0.33217980  0.91639156  0.34833169  1
  Cu+  Cu98  1  0.83510053  0.41807987  0.33844376  1
  Cu+  Cu99  1  0.83420806  0.91711937  0.34336239  1
  Cu+  Cu100  1  0.08293243  0.16054924  0.34370345  1
  Cu+  Cu101  1  0.07825473  0.66104502  0.34089883  1
  Cu+  Cu102  1  0.57885619  0.16528973  0.34087275  1
  Cu+  Cu103  1  0.58391384  0.66752180  0.34629215  1
  Cu+  Cu104  1  0.08029874  0.41742900  0.33833340  1
  Cu+  Cu105  1  0.08064801  0.91312955  0.34423852  1
  Cu+  Cu106  1  0.58503115  0.42018622  0.34133942  1
  Cu+  Cu107  1  0.57967827  0.91680521  0.34786987  1
  Cu+  Cu108  1  0.00204752  0.00540965  0.11520405  1
  Cu+  Cu109  1  -0.00011372  0.49821174  0.11125359  1
  Cu+  Cu110  1  0.50294869  0.00718531  0.11654040  1
  Cu+  Cu111  1  0.49785497  0.49544973  0.11575473  1
  Cu+  Cu112  1  0.33475508  0.16810341  0.44678646  1
  Cu+  Cu113  1  0.32630268  0.66310361  0.44651212  1
  Cu+  Cu114  1  0.83661555  0.17353366  0.44244263  1
  Cu+  Cu115  1  0.83053860  0.66566314  0.45324573  1
  Cu+  Cu116  1  0.16727325  0.33892880  0.77549171  1
  Cu+  Cu117  1  0.16865802  0.83317914  0.77808613  1
  Cu+  Cu118  1  0.66895514  0.33099616  0.77700458  1
  Cu+  Cu119  1  0.66751494  0.83786163  0.78511005  1
  Te2-  Te120  1  -0.00175917  -0.00495604  0.38941177  1
  Te2-  Te121  1  -0.00214283  0.49729404  0.38582069  1
  Te2-  Te122  1  0.49892935  0.00318217  0.39147000  1
  Te2-  Te123  1  0.50466378  0.50269997  0.38983406  1
  Te2-  Te124  1  0.33560897  0.16742826  0.72310927  1
  Te2-  Te125  1  0.33427270  0.66568768  0.72070805  1
  Te2-  Te126  1  0.83499213  0.16870820  0.71682681  1
  Te2-  Te127  1  0.83098052  0.66677866  0.72727598  1
  Te2-  Te128  1  0.16595775  0.33079053  0.05038205  1
  Te2-  Te129  1  0.16312677  0.82658509  0.05360365  1
  Te2-  Te130  1  0.66652959  0.33179865  0.05227329  1
  Te2-  Te131  1  0.66654812  0.83552304  0.06034010  1
  Te2-  Te132  1  0.49240904  0.24217082  0.88367167  1
  Te2-  Te133  1  0.48931169  0.74075797  0.88899260  1
  Te2-  Te134  1  0.99711907  0.24482187  0.87747241  1
  Te2-  Te135  1  0.98919581  0.74462817  0.88333497  1
  Te2-  Te136  1  0.25415683  0.00294191  0.88458212  1
  Te2-  Te137  1  0.25241720  0.50085540  0.87874826  1
  Te2-  Te138  1  0.74656600  -0.00031356  0.88353244  1
  Te2-  Te139  1  0.74981233  0.50489617  0.88199252  1
  Te2-  Te140  1  0.25729392  0.24211955  0.88288046  1
  Te2-  Te141  1  0.24691941  0.74045847  0.88197462  1
  Te2-  Te142  1  0.75359748  0.24790627  0.88002865  1
  Te2-  Te143  1  0.74943092  0.74392034  0.88809487  1
  Te2-  Te144  1  0.33115276  0.41862012  0.21778490  1
  Te2-  Te145  1  0.32151290  0.90740378  0.22047935  1
  Te2-  Te146  1  0.82630961  0.41360813  0.21297310  1
  Te2-  Te147  1  0.82820380  0.91743857  0.21740229  1
  Te2-  Te148  1  0.08806507  0.16757050  0.21630790  1
  Te2-  Te149  1  0.08462674  0.67182128  0.21528859  1
  Te2-  Te150  1  0.57900945  0.16624228  0.21469021  1
  Te2-  Te151  1  0.59017255  0.68004170  0.21982238  1
  Te2-  Te152  1  0.08473629  0.41357381  0.21294647  1
  Te2-  Te153  1  0.08301763  0.90570602  0.21822861  1
  Te2-  Te154  1  0.58769903  0.41895432  0.21558802  1
  Te2-  Te155  1  0.58700406  0.91642539  0.22010028  1
  Te2-  Te156  1  0.16106524  0.08073144  0.55175196  1
  Te2-  Te157  1  0.17047454  0.58569881  0.54497277  1
  Te2-  Te158  1  0.66029142  0.08421569  0.54885945  1
  Te2-  Te159  1  0.66497677  0.58346061  0.55067668  1
  Te2-  Te160  1  0.42206991  0.34295920  0.55150409  1
  Te2-  Te161  1  0.42420243  0.84865213  0.55353267  1
  Te2-  Te162  1  0.92157963  0.33541113  0.54220808  1
  Te2-  Te163  1  0.92123258  0.84027553  0.55468364  1
  Te2-  Te164  1  0.42348572  0.08773450  0.55010826  1
  Te2-  Te165  1  0.42856379  0.58835092  0.54836079  1
  Te2-  Te166  1  0.91735560  0.07418994  0.54740490  1
  Te2-  Te167  1  0.92008264  0.58161050  0.55325581  1
  Te2-  Te168  1  0.00060795  0.00175573  0.88306790  1
  Te2-  Te169  1  0.00043029  0.49827525  0.87868774  1
  Te2-  Te170  1  0.49886452  0.00069710  0.88456204  1
  Te2-  Te171  1  0.49910094  0.49724712  0.88186459  1
  Te2-  Te172  1  0.33373099  0.16841662  0.21905196  1
  Te2-  Te173  1  0.33052132  0.66603436  0.21574074  1
  Te2-  Te174  1  0.83466333  0.16869770  0.21431459  1
  Te2-  Te175  1  0.83432176  0.66676844  0.21478945  1
  Te2-  Te176  1  0.16660046  0.33535381  0.54877142  1
  Te2-  Te177  1  0.16748757  0.83484198  0.55175955  1
  Te2-  Te178  1  0.66796411  0.33338655  0.54792785  1
  Te2-  Te179  1  0.66783316  0.83666997  0.54991763  1
  Te2-  Te180  1  0.32777581  0.41874235  0.70754281  1
  Te2-  Te181  1  0.32697700  0.91655553  0.71038507  1
  Te2-  Te182  1  0.82804142  0.41213128  0.70658176  1
  Te2-  Te183  1  0.82763801  0.91564378  0.71251689  1
  Te2-  Te184  1  0.08424648  0.17485320  0.70795896  1
  Te2-  Te185  1  0.09048982  0.67564633  0.70677873  1
  Te2-  Te186  1  0.58633404  0.17034297  0.71157657  1
  Te2-  Te187  1  0.58866628  0.67487606  0.71416441  1
  Te2-  Te188  1  0.08647812  0.41697225  0.70598122  1
  Te2-  Te189  1  0.09011068  0.91593719  0.70886680  1
  Te2-  Te190  1  0.58849869  0.41504643  0.70871271  1
  Te2-  Te191  1  0.58876856  0.91560286  0.71321115  1
  Te2-  Te192  1  0.15955807  0.07928066  0.04561482  1
  Te2-  Te193  1  0.16242316  0.57838654  0.04317765  1
  Te2-  Te194  1  0.66083487  0.08058351  0.04448333  1
  Te2-  Te195  1  0.65872233  0.57730617  0.04374810  1
  Te2-  Te196  1  0.41795207  0.33546286  0.04763762  1
  Te2-  Te197  1  0.41798228  0.84129354  0.04522044  1
  Te2-  Te198  1  0.91970583  0.33690794  0.04152239  1
  Te2-  Te199  1  0.92138998  0.84221158  0.04378922  1
  Te2-  Te200  1  0.41879928  0.07964920  0.04531851  1
  Te2-  Te201  1  0.41719504  0.57642820  0.04483629  1
  Te2-  Te202  1  0.91940333  0.08053547  0.04347418  1
  Te2-  Te203  1  0.91768107  0.57965486  0.04358276  1
  Te2-  Te204  1  0.49381035  0.24982153  0.37654930  1
  Te2-  Te205  1  0.49077120  0.74491947  0.37758760  1
  Te2-  Te206  1  0.99645846  0.24734194  0.37355269  1
  Te2-  Te207  1  0.99373890  0.74457106  0.38246463  1
  Te2-  Te208  1  0.25037845  0.00678853  0.37877959  1
  Te2-  Te209  1  0.25030861  0.50426253  0.37535286  1
  Te2-  Te210  1  0.75392718  0.00794911  0.37545779  1
  Te2-  Te211  1  0.75450825  0.50656363  0.37928681  1
  Te2-  Te212  1  0.25547216  0.24682868  0.37554966  1
  Te2-  Te213  1  0.24831766  0.74386093  0.37712488  1
  Te2-  Te214  1  0.75020368  0.24737386  0.37414905  1
  Te2-  Te215  1  0.75342118  0.74898897  0.38189414  1
