# generated using pymatgen
data_Ti(CuTe)4
_symmetry_space_group_name_H-M   'P 1'
_cell_length_a   16.89212552
_cell_length_b   16.89572349
_cell_length_c   20.71567625
_cell_angle_alpha   90.03416639
_cell_angle_beta   89.98318974
_cell_angle_gamma   119.98945076
_symmetry_Int_Tables_number   1
_chemical_formula_structural   Ti(CuTe)4
_chemical_formula_sum   'Ti24 Cu96 Te96'
_cell_volume   5120.78944290
_cell_formula_units_Z   24
loop_
 _symmetry_equiv_pos_site_id
 _symmetry_equiv_pos_as_xyz
  1  'x, y, z'
loop_
 _atom_type_symbol
 _atom_type_oxidation_number
  Ti4+  4.0
  Cu+  1.0
  Te2-  -2.0
loop_
 _atom_site_type_symbol
 _atom_site_label
 _atom_site_symmetry_multiplicity
 _atom_site_fract_x
 _atom_site_fract_y
 _atom_site_fract_z
 _atom_site_occupancy
  Ti4+  Ti0  1  0.00432163  0.00003746  0.25859828  1
  Ti4+  Ti1  1  0.00353678  0.49919290  0.25452626  1
  Ti4+  Ti2  1  0.50040883  -0.00059223  0.25896407  1
  Ti4+  Ti3  1  0.50431300  0.50469932  0.25487982  1
  Ti4+  Ti4  1  0.32927788  0.16570111  0.58872014  1
  Ti4+  Ti5  1  0.33246070  0.66737380  0.59420796  1
  Ti4+  Ti6  1  0.82900278  0.16396177  0.58853957  1
  Ti4+  Ti7  1  0.83239551  0.66662886  0.59217137  1
  Ti4+  Ti8  1  0.16655068  0.33512140  0.92502362  1
  Ti4+  Ti9  1  0.16547306  0.83257170  0.92689018  1
  Ti4+  Ti10  1  0.66396466  0.33060559  0.92143097  1
  Ti4+  Ti11  1  0.66810498  0.83264529  0.92752526  1
  Ti4+  Ti12  1  -0.00311092  -0.00211980  0.75877052  1
  Ti4+  Ti13  1  0.00022430  0.49975381  0.75492734  1
  Ti4+  Ti14  1  0.49867289  0.00143073  0.75649465  1
  Ti4+  Ti15  1  0.49824511  0.49961445  0.75504086  1
  Ti4+  Ti16  1  0.33261830  0.16640550  0.08861365  1
  Ti4+  Ti17  1  0.33481627  0.66792405  0.08663265  1
  Ti4+  Ti18  1  0.83456046  0.16734364  0.08859852  1
  Ti4+  Ti19  1  0.83408138  0.66642359  0.08705621  1
  Ti4+  Ti20  1  0.16764801  0.33388844  0.42176003  1
  Ti4+  Ti21  1  0.16726641  0.83359460  0.42312533  1
  Ti4+  Ti22  1  0.66724574  0.33373121  0.41896299  1
  Ti4+  Ti23  1  0.66841597  0.83497331  0.42271243  1
  Cu+  Cu24  1  0.01727207  0.75408714  0.14280883  1
  Cu+  Cu25  1  0.18786698  0.59490799  0.81114389  1
  Cu+  Cu26  1  0.56945507  0.15004177  0.47444156  1
  Cu+  Cu27  1  0.02194208  0.25633014  0.14025275  1
  Cu+  Cu28  1  0.24907605  0.48813341  0.14249284  1
  Cu+  Cu29  1  0.74911645  0.76261858  0.14348943  1
  Cu+  Cu30  1  0.07105723  0.92068917  0.47995876  1
  Cu+  Cu31  1  0.56966596  0.91970596  0.47780585  1
  Cu+  Cu32  1  0.90315495  0.80711649  0.81058941  1
  Cu+  Cu33  1  0.51760676  0.76236573  0.14317552  1
  Cu+  Cu34  1  0.06923905  0.14850020  0.47592722  1
  Cu+  Cu35  1  0.24581071  0.98142970  0.14308729  1
  Cu+  Cu36  1  0.16601310  0.07783650  0.17057147  1
  Cu+  Cu37  1  0.16272673  0.57757774  0.16650678  1
  Cu+  Cu38  1  0.66488273  0.08204861  0.17187142  1
  Cu+  Cu39  1  0.66517160  0.58767224  0.16739373  1
  Cu+  Cu40  1  0.42078325  0.33856393  0.16882600  1
  Cu+  Cu41  1  0.42327638  0.84016052  0.17008514  1
  Cu+  Cu42  1  0.92433569  0.33540389  0.16815452  1
  Cu+  Cu43  1  0.92390111  0.83725462  0.16969528  1
  Cu+  Cu44  1  0.41637580  0.07985577  0.17267919  1
  Cu+  Cu45  1  0.42452916  0.58531672  0.16730395  1
  Cu+  Cu46  1  0.92344428  0.08559329  0.17158373  1
  Cu+  Cu47  1  0.92269972  0.58265335  0.16858181  1
  Cu+  Cu48  1  0.49519026  0.24725564  0.50140415  1
  Cu+  Cu49  1  0.49564127  0.74943971  0.50728974  1
  Cu+  Cu50  1  0.99492846  0.24480824  0.50324801  1
  Cu+  Cu51  1  0.99482031  0.74974276  0.50574642  1
  Cu+  Cu52  1  0.24657975  0.00440833  0.50220175  1
  Cu+  Cu53  1  0.25003729  0.50344470  0.50749407  1
  Cu+  Cu54  1  0.74680511  0.00394844  0.50141006  1
  Cu+  Cu55  1  0.75110481  0.50345082  0.50370698  1
  Cu+  Cu56  1  0.24542273  0.24463993  0.50199823  1
  Cu+  Cu57  1  0.24979109  0.74649272  0.50711614  1
  Cu+  Cu58  1  0.74535819  0.24445065  0.50028920  1
  Cu+  Cu59  1  0.75347938  0.74986827  0.50567927  1
  Cu+  Cu60  1  0.32924858  0.41586909  0.83755268  1
  Cu+  Cu61  1  0.33044143  0.92004585  0.83966224  1
  Cu+  Cu62  1  0.82795901  0.41163854  0.83611696  1
  Cu+  Cu63  1  0.82998336  0.90903622  0.84094726  1
  Cu+  Cu64  1  0.08089105  0.16941940  0.84044825  1
  Cu+  Cu65  1  0.08694405  0.66930291  0.83853206  1
  Cu+  Cu66  1  0.58388338  0.17083477  0.83629775  1
  Cu+  Cu67  1  0.58467262  0.66916231  0.83980351  1
  Cu+  Cu68  1  0.08802267  0.41870498  0.83786507  1
  Cu+  Cu69  1  0.07853120  0.91104825  0.84199074  1
  Cu+  Cu70  1  0.58180034  0.41245969  0.83589246  1
  Cu+  Cu71  1  0.58365405  0.91681224  0.84177703  1
  Cu+  Cu72  1  0.16491465  0.08375777  0.67705726  1
  Cu+  Cu73  1  0.16981368  0.58443241  0.68182753  1
  Cu+  Cu74  1  0.66526666  0.08328313  0.67536025  1
  Cu+  Cu75  1  0.66728152  0.58503584  0.67518185  1
  Cu+  Cu76  1  0.41231006  0.33064661  0.67181407  1
  Cu+  Cu77  1  0.41399935  0.83228145  0.67866908  1
  Cu+  Cu78  1  0.91385112  0.32888944  0.67127049  1
  Cu+  Cu79  1  0.91400834  0.82897627  0.68209947  1
  Cu+  Cu80  1  0.41344779  0.08528484  0.67397247  1
  Cu+  Cu81  1  0.41465051  0.58535587  0.67690413  1
  Cu+  Cu82  1  0.91188058  0.08215417  0.67507200  1
  Cu+  Cu83  1  0.91564083  0.58486325  0.67453779  1
  Cu+  Cu84  1  0.00355720  0.25382356  0.01182189  1
  Cu+  Cu85  1  0.00204003  0.74974579  0.01334462  1
  Cu+  Cu86  1  0.50088375  0.24971019  0.00504130  1
  Cu+  Cu87  1  0.50488495  0.75314862  0.01404435  1
  Cu+  Cu88  1  0.24803420  0.49929983  0.01257650  1
  Cu+  Cu89  1  0.24629437  0.99689184  0.01422255  1
  Cu+  Cu90  1  0.74551221  0.49264061  0.00367577  1
  Cu+  Cu91  1  0.74955456  0.99843846  0.00933065  1
  Cu+  Cu92  1  0.24907806  0.25195600  0.00768782  1
  Cu+  Cu93  1  0.25083343  0.75260043  0.00957700  1
  Cu+  Cu94  1  0.74567033  0.24937627  0.00557036  1
  Cu+  Cu95  1  0.74834675  0.75008595  0.01435830  1
  Cu+  Cu96  1  0.33999827  0.42423843  0.34094827  1
  Cu+  Cu97  1  0.33559354  0.91515086  0.34388905  1
  Cu+  Cu98  1  0.83893696  0.41993226  0.33739270  1
  Cu+  Cu99  1  0.83791577  0.91717615  0.34316651  1
  Cu+  Cu100  1  0.08616255  0.16565654  0.34608785  1
  Cu+  Cu101  1  0.08396987  0.66318054  0.34103139  1
  Cu+  Cu102  1  0.58219590  0.16393740  0.34442100  1
  Cu+  Cu103  1  0.58582281  0.66803470  0.34191302  1
  Cu+  Cu104  1  0.08651398  0.41885014  0.34078638  1
  Cu+  Cu105  1  0.08452248  0.91627842  0.34825570  1
  Cu+  Cu106  1  0.58631870  0.42210694  0.33750175  1
  Cu+  Cu107  1  0.58406104  0.91797360  0.34803309  1
  Cu+  Cu108  1  0.00065962  0.00191282  0.11478319  1
  Cu+  Cu109  1  -0.00387132  0.49697711  0.10990501  1
  Cu+  Cu110  1  0.50433048  0.00674781  0.11520275  1
  Cu+  Cu111  1  0.50184953  0.49665953  0.10973076  1
  Cu+  Cu112  1  0.33573952  0.17131747  0.44444652  1
  Cu+  Cu113  1  0.33200841  0.66456152  0.45157750  1
  Cu+  Cu114  1  0.83510314  0.17125960  0.44448022  1
  Cu+  Cu115  1  0.83161330  0.66421555  0.44816312  1
  Cu+  Cu116  1  0.16444757  0.32968629  0.78172709  1
  Cu+  Cu117  1  0.16685390  0.83572267  0.78431778  1
  Cu+  Cu118  1  0.66672755  0.33550476  0.77725838  1
  Cu+  Cu119  1  0.66400309  0.83518087  0.78579922  1
  Te2-  Te120  1  0.00061345  -0.00089316  0.39014144  1
  Te2-  Te121  1  0.00171175  0.49864388  0.38333207  1
  Te2-  Te122  1  0.49837196  -0.00110113  0.39081125  1
  Te2-  Te123  1  0.50440157  0.50326706  0.38365296  1
  Te2-  Te124  1  0.33073838  0.16717835  0.71733957  1
  Te2-  Te125  1  0.33570331  0.66881555  0.72485478  1
  Te2-  Te126  1  0.83044045  0.16581018  0.71719761  1
  Te2-  Te127  1  0.83031334  0.66196628  0.72287919  1
  Te2-  Te128  1  0.16941378  0.33379089  0.05740833  1
  Te2-  Te129  1  0.16754207  0.83125697  0.05915866  1
  Te2-  Te130  1  0.66387995  0.33062772  0.05124091  1
  Te2-  Te131  1  0.67019911  0.83732752  0.06005224  1
  Te2-  Te132  1  0.49112481  0.24516819  0.88005582  1
  Te2-  Te133  1  0.49719642  0.74862436  0.88691607  1
  Te2-  Te134  1  0.99545475  0.25155530  0.88498397  1
  Te2-  Te135  1  0.99227136  0.74152824  0.88624558  1
  Te2-  Te136  1  0.24699315  0.00269467  0.88697166  1
  Te2-  Te137  1  0.25619584  0.50891251  0.88543441  1
  Te2-  Te138  1  0.75350740  0.00221790  0.88348389  1
  Te2-  Te139  1  0.75050772  0.50264088  0.87852117  1
  Te2-  Te140  1  0.25005134  0.24811297  0.88197267  1
  Te2-  Te141  1  0.25677102  0.75140682  0.88379696  1
  Te2-  Te142  1  0.75101686  0.24464118  0.88040116  1
  Te2-  Te143  1  0.75077911  0.74118020  0.88738132  1
  Te2-  Te144  1  0.33116277  0.41606470  0.21503305  1
  Te2-  Te145  1  0.32706021  0.90870346  0.21781992  1
  Te2-  Te146  1  0.83371912  0.41470933  0.21120926  1
  Te2-  Te147  1  0.83299485  0.91730827  0.21673339  1
  Te2-  Te148  1  0.09286738  0.17193008  0.21822112  1
  Te2-  Te149  1  0.09296613  0.67313293  0.21533234  1
  Te2-  Te150  1  0.58407661  0.16904072  0.21689984  1
  Te2-  Te151  1  0.59225124  0.68215146  0.21646921  1
  Te2-  Te152  1  0.09277206  0.41067573  0.21543896  1
  Te2-  Te153  1  0.09058170  0.91036646  0.21997841  1
  Te2-  Te154  1  0.58980055  0.42002912  0.21161269  1
  Te2-  Te155  1  0.59066465  0.91595151  0.22020899  1
  Te2-  Te156  1  0.15136588  0.07698579  0.55091309  1
  Te2-  Te157  1  0.16048770  0.58057078  0.55446290  1
  Te2-  Te158  1  0.65174694  0.07669149  0.54931626  1
  Te2-  Te159  1  0.66168670  0.58196299  0.54908989  1
  Te2-  Te160  1  0.41457369  0.33504904  0.54538096  1
  Te2-  Te161  1  0.41631769  0.84104334  0.55269230  1
  Te2-  Te162  1  0.91444302  0.33334992  0.54480865  1
  Te2-  Te163  1  0.91783439  0.84157560  0.55473870  1
  Te2-  Te164  1  0.41338767  0.07677485  0.54798012  1
  Te2-  Te165  1  0.41850734  0.58248798  0.55095790  1
  Te2-  Te166  1  0.91288476  0.07417040  0.54900340  1
  Te2-  Te167  1  0.91890092  0.58243268  0.54865582  1
  Te2-  Te168  1  -0.00094479  0.00117295  0.88553983  1
  Te2-  Te169  1  -0.00244810  0.49840625  0.88161716  1
  Te2-  Te170  1  0.49956369  0.00282331  0.88289428  1
  Te2-  Te171  1  0.49887204  0.49833655  0.88121699  1
  Te2-  Te172  1  0.33611647  0.17029223  0.21542674  1
  Te2-  Te173  1  0.33452410  0.66744172  0.21390874  1
  Te2-  Te174  1  0.83477691  0.16716208  0.21549499  1
  Te2-  Te175  1  0.83543613  0.66574918  0.21456166  1
  Te2-  Te176  1  0.16465391  0.33285745  0.54861318  1
  Te2-  Te177  1  0.16603296  0.83406509  0.54981436  1
  Te2-  Te178  1  0.66496496  0.33339592  0.54599820  1
  Te2-  Te179  1  0.66745664  0.83471628  0.54945065  1
  Te2-  Te180  1  0.32638567  0.41410948  0.71116256  1
  Te2-  Te181  1  0.32666290  0.91602355  0.71314862  1
  Te2-  Te182  1  0.82906705  0.41383954  0.70936987  1
  Te2-  Te183  1  0.82480645  0.91292776  0.71371056  1
  Te2-  Te184  1  0.08088051  0.16919128  0.71352318  1
  Te2-  Te185  1  0.08504496  0.67341425  0.71182369  1
  Te2-  Te186  1  0.58355304  0.17202706  0.71001695  1
  Te2-  Te187  1  0.58511346  0.67260966  0.71347282  1
  Te2-  Te188  1  0.08330081  0.41033229  0.71048869  1
  Te2-  Te189  1  0.08612517  0.91447447  0.71439488  1
  Te2-  Te190  1  0.58271440  0.41351100  0.70901132  1
  Te2-  Te191  1  0.58425142  0.91444278  0.71449519  1
  Te2-  Te192  1  0.15937607  0.08251054  0.04410026  1
  Te2-  Te193  1  0.15947839  0.58268628  0.04120368  1
  Te2-  Te194  1  0.66225407  0.08089564  0.04524154  1
  Te2-  Te195  1  0.66108282  0.57715025  0.04114412  1
  Te2-  Te196  1  0.41893221  0.33715462  0.04228613  1
  Te2-  Te197  1  0.42122789  0.84291960  0.04378049  1
  Te2-  Te198  1  0.91578383  0.33821213  0.04150753  1
  Te2-  Te199  1  0.92141220  0.84173231  0.04265482  1
  Te2-  Te200  1  0.41950104  0.08093426  0.04465465  1
  Te2-  Te201  1  0.42123650  0.57972725  0.04072267  1
  Te2-  Te202  1  0.92048478  0.08071183  0.04397487  1
  Te2-  Te203  1  0.91577442  0.57615583  0.04114460  1
  Te2-  Te204  1  0.49558972  0.25092946  0.37338872  1
  Te2-  Te205  1  0.49457426  0.74594607  0.37965494  1
  Te2-  Te206  1  0.99578627  0.24835505  0.37539947  1
  Te2-  Te207  1  0.99460741  0.74384135  0.37818976  1
  Te2-  Te208  1  0.25700616  0.00705449  0.37643175  1
  Te2-  Te209  1  0.25451507  0.50685611  0.38020852  1
  Te2-  Te210  1  0.75756712  0.00785400  0.37550867  1
  Te2-  Te211  1  0.75525189  0.50569698  0.37635112  1
  Te2-  Te212  1  0.25852544  0.25298347  0.37527092  1
  Te2-  Te213  1  0.25272371  0.74577338  0.38068252  1
  Te2-  Te214  1  0.75539173  0.24972419  0.37326237  1
  Te2-  Te215  1  0.75510072  0.74837517  0.37933177  1
