# generated using pymatgen
data_Ti(CuTe)4
_symmetry_space_group_name_H-M   'P 1'
_cell_length_a   16.86430169
_cell_length_b   16.86762877
_cell_length_c   20.67910589
_cell_angle_alpha   90.05321002
_cell_angle_beta   89.97041416
_cell_angle_gamma   119.99162483
_symmetry_Int_Tables_number   1
_chemical_formula_structural   Ti(CuTe)4
_chemical_formula_sum   'Ti24 Cu96 Te96'
_cell_volume   5094.73082430
_cell_formula_units_Z   24
loop_
 _symmetry_equiv_pos_site_id
 _symmetry_equiv_pos_as_xyz
  1  'x, y, z'
loop_
 _atom_type_symbol
 _atom_type_oxidation_number
  Ti4+  4.0
  Cu+  1.0
  Te2-  -2.0
loop_
 _atom_site_type_symbol
 _atom_site_label
 _atom_site_symmetry_multiplicity
 _atom_site_fract_x
 _atom_site_fract_y
 _atom_site_fract_z
 _atom_site_occupancy
  Ti4+  Ti0  1  0.00245334  0.00247749  0.25855650  1
  Ti4+  Ti1  1  0.00166323  0.50130898  0.25744998  1
  Ti4+  Ti2  1  0.50301218  -0.00024856  0.25814682  1
  Ti4+  Ti3  1  0.50242742  0.49870434  0.25735001  1
  Ti4+  Ti4  1  0.33099712  0.16503654  0.59311056  1
  Ti4+  Ti5  1  0.33189677  0.66629127  0.59061443  1
  Ti4+  Ti6  1  0.83361743  0.16380676  0.59406995  1
  Ti4+  Ti7  1  0.83341436  0.66410510  0.59189502  1
  Ti4+  Ti8  1  0.16545328  0.33218907  0.92213524  1
  Ti4+  Ti9  1  0.16537124  0.83161146  0.92408396  1
  Ti4+  Ti10  1  0.66709823  0.33651561  0.92341115  1
  Ti4+  Ti11  1  0.66640550  0.83546985  0.92465190  1
  Ti4+  Ti12  1  -0.00176203  0.00002044  0.75517952  1
  Ti4+  Ti13  1  -0.00003463  0.50159876  0.75548592  1
  Ti4+  Ti14  1  0.50012520  0.00006633  0.75416018  1
  Ti4+  Ti15  1  0.49890558  0.49850768  0.75401356  1
  Ti4+  Ti16  1  0.33274765  0.16875123  0.08923939  1
  Ti4+  Ti17  1  0.33259009  0.66795314  0.08778248  1
  Ti4+  Ti18  1  0.83380283  0.16712244  0.08902447  1
  Ti4+  Ti19  1  0.83369636  0.66663105  0.08842000  1
  Ti4+  Ti20  1  0.16592152  0.33170521  0.42494894  1
  Ti4+  Ti21  1  0.16559990  0.83120906  0.42325862  1
  Ti4+  Ti22  1  0.66846044  0.33530454  0.42362521  1
  Ti4+  Ti23  1  0.66836295  0.83504481  0.42183736  1
  Cu+  Cu24  1  0.90560950  0.08968220  0.81200446  1
  Cu+  Cu25  1  0.18689955  0.59303985  0.80698350  1
  Cu+  Cu26  1  0.74142776  0.97738931  0.14163170  1
  Cu+  Cu27  1  0.02427234  0.26177768  0.14112660  1
  Cu+  Cu28  1  0.02442935  0.76206564  0.14115020  1
  Cu+  Cu29  1  0.17798777  0.08565894  0.81215845  1
  Cu+  Cu30  1  0.74134598  0.47670776  0.14003315  1
  Cu+  Cu31  1  0.07000702  0.13968585  0.47761695  1
  Cu+  Cu32  1  0.41133639  0.31459426  0.80696009  1
  Cu+  Cu33  1  0.90620633  0.59696089  0.80797689  1
  Cu+  Cu34  1  0.06910564  0.63824283  0.47496534  1
  Cu+  Cu35  1  0.90579044  0.32144063  0.81092811  1
  Cu+  Cu36  1  0.16415244  0.08499577  0.17200877  1
  Cu+  Cu37  1  0.16381661  0.58333870  0.17018874  1
  Cu+  Cu38  1  0.66291726  0.07648592  0.17000608  1
  Cu+  Cu39  1  0.66255578  0.57495216  0.16897207  1
  Cu+  Cu40  1  0.42080084  0.33902579  0.17084737  1
  Cu+  Cu41  1  0.42062574  0.83842985  0.17051630  1
  Cu+  Cu42  1  0.92421781  0.33751711  0.16956036  1
  Cu+  Cu43  1  0.92419359  0.83691425  0.16968714  1
  Cu+  Cu44  1  0.41977561  0.08485874  0.17296562  1
  Cu+  Cu45  1  0.41802518  0.58307217  0.17104483  1
  Cu+  Cu46  1  0.91988541  0.08442826  0.17111912  1
  Cu+  Cu47  1  0.91892999  0.58340850  0.17033206  1
  Cu+  Cu48  1  0.49847073  0.25100625  0.50695902  1
  Cu+  Cu49  1  0.49827001  0.74982065  0.50404095  1
  Cu+  Cu50  1  0.99683641  0.24205818  0.50830628  1
  Cu+  Cu51  1  0.99692251  0.74147409  0.50551718  1
  Cu+  Cu52  1  0.25017422  0.00276995  0.50584554  1
  Cu+  Cu53  1  0.25135167  0.50386390  0.50557533  1
  Cu+  Cu54  1  0.75339596  0.00299629  0.50537342  1
  Cu+  Cu55  1  0.75350371  0.50421074  0.50525337  1
  Cu+  Cu56  1  0.24593510  0.24304918  0.50741093  1
  Cu+  Cu57  1  0.24533351  0.74275861  0.50431509  1
  Cu+  Cu58  1  0.75201555  0.25038016  0.50807416  1
  Cu+  Cu59  1  0.75093253  0.74888762  0.50529039  1
  Cu+  Cu60  1  0.33094272  0.41168482  0.83337340  1
  Cu+  Cu61  1  0.33149348  0.91517694  0.83555184  1
  Cu+  Cu62  1  0.82863315  0.41989405  0.83611899  1
  Cu+  Cu63  1  0.82653927  0.91701162  0.83714348  1
  Cu+  Cu64  1  0.08324271  0.17029336  0.83400331  1
  Cu+  Cu65  1  0.08392174  0.67062407  0.83570597  1
  Cu+  Cu66  1  0.58421446  0.16944071  0.83490341  1
  Cu+  Cu67  1  0.58421352  0.67002452  0.83748034  1
  Cu+  Cu68  1  0.08524123  0.41602852  0.83430048  1
  Cu+  Cu69  1  0.08479132  0.91346183  0.83707442  1
  Cu+  Cu70  1  0.58405856  0.41499372  0.83595759  1
  Cu+  Cu71  1  0.58504731  0.91703442  0.83656554  1
  Cu+  Cu72  1  0.16728712  0.08362324  0.68198961  1
  Cu+  Cu73  1  0.17037894  0.58755648  0.67901108  1
  Cu+  Cu74  1  0.66787084  0.08300695  0.67463069  1
  Cu+  Cu75  1  0.66850677  0.58350661  0.67380019  1
  Cu+  Cu76  1  0.41288526  0.32838667  0.67853238  1
  Cu+  Cu77  1  0.41511502  0.83119349  0.67192022  1
  Cu+  Cu78  1  0.91496801  0.32859373  0.68053822  1
  Cu+  Cu79  1  0.91378197  0.82890193  0.67380776  1
  Cu+  Cu80  1  0.41611104  0.08411926  0.67385014  1
  Cu+  Cu81  1  0.41585831  0.58596810  0.67284857  1
  Cu+  Cu82  1  0.91334169  0.08247932  0.68244819  1
  Cu+  Cu83  1  0.91447978  0.58500753  0.68030268  1
  Cu+  Cu84  1  0.00108989  0.25247163  0.01289782  1
  Cu+  Cu85  1  0.00273139  0.75231987  0.01240796  1
  Cu+  Cu86  1  0.50018882  0.25348740  0.00887299  1
  Cu+  Cu87  1  0.50139484  0.75314767  0.00693514  1
  Cu+  Cu88  1  0.24747043  0.49927736  0.00656548  1
  Cu+  Cu89  1  0.24712823  0.99955484  0.00973655  1
  Cu+  Cu90  1  0.74829283  0.49871246  0.01112303  1
  Cu+  Cu91  1  0.74816748  0.99806832  0.01338500  1
  Cu+  Cu92  1  0.24845874  0.24975914  0.00871779  1
  Cu+  Cu93  1  0.24785344  0.74917097  0.00763407  1
  Cu+  Cu94  1  0.74939938  0.25249770  0.00803096  1
  Cu+  Cu95  1  0.74873972  0.75305745  0.00721713  1
  Cu+  Cu96  1  0.33760128  0.41882900  0.34207500  1
  Cu+  Cu97  1  0.33793963  0.91945988  0.34205447  1
  Cu+  Cu98  1  0.83460399  0.41850929  0.34128012  1
  Cu+  Cu99  1  0.83568904  0.91967468  0.34143149  1
  Cu+  Cu100  1  0.08153245  0.16492527  0.34877557  1
  Cu+  Cu101  1  0.08088340  0.66388509  0.34648505  1
  Cu+  Cu102  1  0.58387165  0.16426297  0.34142669  1
  Cu+  Cu103  1  0.58343218  0.66335750  0.33889690  1
  Cu+  Cu104  1  0.08412129  0.41703685  0.34329544  1
  Cu+  Cu105  1  0.08408699  0.91786107  0.34345827  1
  Cu+  Cu106  1  0.58502199  0.41899242  0.34218734  1
  Cu+  Cu107  1  0.58544823  0.91988301  0.34226972  1
  Cu+  Cu108  1  -0.00005341  0.00006659  0.11404601  1
  Cu+  Cu109  1  0.00056617  0.50077694  0.11261796  1
  Cu+  Cu110  1  0.49517004  0.00130236  0.11444001  1
  Cu+  Cu111  1  0.49619322  0.50251234  0.11318141  1
  Cu+  Cu112  1  0.33778782  0.16925119  0.45060141  1
  Cu+  Cu113  1  0.33808861  0.67068390  0.44744250  1
  Cu+  Cu114  1  0.83094573  0.16898266  0.45181828  1
  Cu+  Cu115  1  0.83196822  0.67003866  0.44867895  1
  Cu+  Cu116  1  0.16899182  0.33615883  0.77636911  1
  Cu+  Cu117  1  0.17035657  0.83554591  0.77906011  1
  Cu+  Cu118  1  0.66439215  0.33122075  0.77815462  1
  Cu+  Cu119  1  0.66035800  0.82895334  0.78042408  1
  Te2-  Te120  1  -0.00095246  -0.00262891  0.38895911  1
  Te2-  Te121  1  -0.00141223  0.49664682  0.38765115  1
  Te2-  Te122  1  0.50200466  0.00057103  0.38732282  1
  Te2-  Te123  1  0.50212386  0.50063339  0.38653676  1
  Te2-  Te124  1  0.33324104  0.16326894  0.72538460  1
  Te2-  Te125  1  0.33630754  0.66893919  0.72133564  1
  Te2-  Te126  1  0.82937666  0.16429100  0.72653008  1
  Te2-  Te127  1  0.83047172  0.66701194  0.72278707  1
  Te2-  Te128  1  0.16844215  0.33507186  0.05226336  1
  Te2-  Te129  1  0.16921920  0.83470664  0.05445930  1
  Te2-  Te130  1  0.66507325  0.33223652  0.05363992  1
  Te2-  Te131  1  0.66451528  0.83147903  0.05520211  1
  Te2-  Te132  1  0.49408729  0.24552575  0.88273317  1
  Te2-  Te133  1  0.49578247  0.74963410  0.88111866  1
  Te2-  Te134  1  0.99030964  0.24698982  0.88431909  1
  Te2-  Te135  1  0.99179811  0.74805207  0.88475247  1
  Te2-  Te136  1  0.25444929  0.00475543  0.88346584  1
  Te2-  Te137  1  0.25542439  0.50459502  0.88031717  1
  Te2-  Te138  1  0.75064475  0.00968937  0.88558707  1
  Te2-  Te139  1  0.75050622  0.50993375  0.88354830  1
  Te2-  Te140  1  0.25289318  0.24400361  0.88245605  1
  Te2-  Te141  1  0.25412821  0.74756976  0.88141323  1
  Te2-  Te142  1  0.75092278  0.24764950  0.88201691  1
  Te2-  Te143  1  0.75225467  0.75002193  0.88162811  1
  Te2-  Te144  1  0.33030095  0.41539077  0.21592335  1
  Te2-  Te145  1  0.33132104  0.91619427  0.21584592  1
  Te2-  Te146  1  0.82944680  0.41152021  0.21499414  1
  Te2-  Te147  1  0.83066593  0.91236508  0.21512425  1
  Te2-  Te148  1  0.08912404  0.17615006  0.22002112  1
  Te2-  Te149  1  0.08868771  0.67463916  0.21808498  1
  Te2-  Te150  1  0.58917749  0.17081583  0.21513582  1
  Te2-  Te151  1  0.58785554  0.66905581  0.21275167  1
  Te2-  Te152  1  0.09150997  0.41702241  0.21706822  1
  Te2-  Te153  1  0.09151388  0.91785285  0.21737563  1
  Te2-  Te154  1  0.58702343  0.40840667  0.21634503  1
  Te2-  Te155  1  0.58696344  0.90923005  0.21647658  1
  Te2-  Te156  1  0.15663341  0.07409014  0.55396414  1
  Te2-  Te157  1  0.15675512  0.57492785  0.55176820  1
  Te2-  Te158  1  0.66399839  0.08105197  0.54926128  1
  Te2-  Te159  1  0.66257588  0.58079722  0.54833998  1
  Te2-  Te160  1  0.41481103  0.33527722  0.55122642  1
  Te2-  Te161  1  0.41538575  0.83612172  0.54606486  1
  Te2-  Te162  1  0.92005454  0.33420534  0.55271127  1
  Te2-  Te163  1  0.91983236  0.83421971  0.54801585  1
  Te2-  Te164  1  0.41799431  0.08186750  0.54861973  1
  Te2-  Te165  1  0.41917395  0.58203881  0.54756228  1
  Te2-  Te166  1  0.91731645  0.07327817  0.55456787  1
  Te2-  Te167  1  0.91812940  0.57370277  0.55286264  1
  Te2-  Te168  1  -0.00140576  -0.00008381  0.88292724  1
  Te2-  Te169  1  -0.00013509  0.50062991  0.88346385  1
  Te2-  Te170  1  0.49994232  0.00109022  0.88088865  1
  Te2-  Te171  1  0.49944713  0.50085399  0.88144830  1
  Te2-  Te172  1  0.33481210  0.16942592  0.21589781  1
  Te2-  Te173  1  0.33417514  0.66831654  0.21440920  1
  Te2-  Te174  1  0.83317542  0.16786401  0.21646974  1
  Te2-  Te175  1  0.83259389  0.66711678  0.21590637  1
  Te2-  Te176  1  0.16726928  0.33424019  0.55186093  1
  Te2-  Te177  1  0.16656407  0.83291641  0.55024602  1
  Te2-  Te178  1  0.66718033  0.33484682  0.55071773  1
  Te2-  Te179  1  0.66633857  0.83307428  0.54882893  1
  Te2-  Te180  1  0.32652868  0.41539918  0.70704575  1
  Te2-  Te181  1  0.32797105  0.91391355  0.70912307  1
  Te2-  Te182  1  0.82534922  0.41189469  0.70877267  1
  Te2-  Te183  1  0.82454443  0.90936219  0.71035235  1
  Te2-  Te184  1  0.08631806  0.17533686  0.70796378  1
  Te2-  Te185  1  0.08694610  0.67599401  0.70863643  1
  Te2-  Te186  1  0.58640319  0.17247047  0.70874885  1
  Te2-  Te187  1  0.58531018  0.67066867  0.71007799  1
  Te2-  Te188  1  0.08755609  0.41463253  0.70778257  1
  Te2-  Te189  1  0.08307116  0.91063223  0.71060205  1
  Te2-  Te190  1  0.58666769  0.41311797  0.70865792  1
  Te2-  Te191  1  0.58520546  0.91272835  0.70967514  1
  Te2-  Te192  1  0.15920814  0.08088693  0.04563497  1
  Te2-  Te193  1  0.15927535  0.57989957  0.04365117  1
  Te2-  Te194  1  0.66017720  0.08286006  0.04364099  1
  Te2-  Te195  1  0.66055525  0.58307158  0.04244374  1
  Te2-  Te196  1  0.41865749  0.34142033  0.04425364  1
  Te2-  Te197  1  0.41871741  0.84044524  0.04365970  1
  Te2-  Te198  1  0.91829434  0.34111392  0.04310802  1
  Te2-  Te199  1  0.91830919  0.84015319  0.04308968  1
  Te2-  Te200  1  0.41828574  0.08276775  0.04491685  1
  Te2-  Te201  1  0.41806909  0.58215501  0.04284849  1
  Te2-  Te202  1  0.92092005  0.08025752  0.04299598  1
  Te2-  Te203  1  0.92052854  0.57979378  0.04206941  1
  Te2-  Te204  1  0.49725398  0.24829796  0.37930167  1
  Te2-  Te205  1  0.49739170  0.74798621  0.37661397  1
  Te2-  Te206  1  0.99259332  0.24800187  0.38068013  1
  Te2-  Te207  1  0.99256683  0.74765118  0.37799369  1
  Te2-  Te208  1  0.25355323  0.00477471  0.37999843  1
  Te2-  Te209  1  0.25353145  0.50447645  0.37983715  1
  Te2-  Te210  1  0.75535594  0.00848080  0.37892217  1
  Te2-  Te211  1  0.75487538  0.50780512  0.37886077  1
  Te2-  Te212  1  0.25499747  0.24859743  0.37975420  1
  Te2-  Te213  1  0.25440091  0.74819181  0.37687738  1
  Te2-  Te214  1  0.75363488  0.24885340  0.37986104  1
  Te2-  Te215  1  0.75330390  0.74864195  0.37724114  1
