# generated using pymatgen
data_Ti(CuTe)4
_symmetry_space_group_name_H-M   'P 1'
_cell_length_a   16.89028447
_cell_length_b   16.88849306
_cell_length_c   20.71283410
_cell_angle_alpha   89.99827113
_cell_angle_beta   89.99974813
_cell_angle_gamma   120.00445069
_symmetry_Int_Tables_number   1
_chemical_formula_structural   Ti(CuTe)4
_chemical_formula_sum   'Ti24 Cu96 Te96'
_cell_volume   5116.56555662
_cell_formula_units_Z   24
loop_
 _symmetry_equiv_pos_site_id
 _symmetry_equiv_pos_as_xyz
  1  'x, y, z'
loop_
 _atom_type_symbol
 _atom_type_oxidation_number
  Ti4+  4.0
  Cu+  1.0
  Te2-  -2.0
loop_
 _atom_site_type_symbol
 _atom_site_label
 _atom_site_symmetry_multiplicity
 _atom_site_fract_x
 _atom_site_fract_y
 _atom_site_fract_z
 _atom_site_occupancy
  Ti4+  Ti0  1  0.00028623  0.00027512  0.25929949  1
  Ti4+  Ti1  1  -0.00123568  0.49972151  0.25802368  1
  Ti4+  Ti2  1  0.49945778  0.00286355  0.25550161  1
  Ti4+  Ti3  1  0.50232522  0.50378477  0.25403585  1
  Ti4+  Ti4  1  0.33301557  0.16532850  0.59075326  1
  Ti4+  Ti5  1  0.33231505  0.66976777  0.58870074  1
  Ti4+  Ti6  1  0.83388244  0.16723817  0.59094693  1
  Ti4+  Ti7  1  0.83265697  0.66700989  0.59490145  1
  Ti4+  Ti8  1  0.16503729  0.32857974  0.92071955  1
  Ti4+  Ti9  1  0.16690089  0.83141691  0.92834306  1
  Ti4+  Ti10  1  0.66704742  0.33093846  0.92485632  1
  Ti4+  Ti11  1  0.66785810  0.83089048  0.92567632  1
  Ti4+  Ti12  1  0.00070692  0.00071681  0.75589633  1
  Ti4+  Ti13  1  -0.00025763  0.49826653  0.75592548  1
  Ti4+  Ti14  1  0.49956299  -0.00006184  0.75836905  1
  Ti4+  Ti15  1  0.50013929  0.49986897  0.75453773  1
  Ti4+  Ti16  1  0.33375525  0.16577710  0.08791813  1
  Ti4+  Ti17  1  0.33304803  0.66532000  0.08625407  1
  Ti4+  Ti18  1  0.83334949  0.16606891  0.08931404  1
  Ti4+  Ti19  1  0.83224869  0.66506443  0.08750698  1
  Ti4+  Ti20  1  0.16469233  0.33331825  0.42108237  1
  Ti4+  Ti21  1  0.16949704  0.83541344  0.42264068  1
  Ti4+  Ti22  1  0.66632655  0.33525416  0.42400213  1
  Ti4+  Ti23  1  0.66628084  0.83378140  0.42243184  1
  Cu+  Cu24  1  0.23709387  0.98412794  0.14363205  1
  Cu+  Cu25  1  0.07123288  0.42785962  0.47427055  1
  Cu+  Cu26  1  0.23892089  0.75282790  0.14465091  1
  Cu+  Cu27  1  0.68612314  0.59130378  0.81070686  1
  Cu+  Cu28  1  0.07180337  0.14561491  0.47599443  1
  Cu+  Cu29  1  0.36027834  0.93194693  0.47322510  1
  Cu+  Cu30  1  0.90403636  0.30668837  0.80665213  1
  Cu+  Cu31  1  0.51695600  0.26308490  0.14193213  1
  Cu+  Cu32  1  0.74668387  0.76268096  0.14248817  1
  Cu+  Cu33  1  0.40762271  0.31014810  0.80574349  1
  Cu+  Cu34  1  0.74494843  0.26364108  0.14268989  1
  Cu+  Cu35  1  0.51647960  0.76387572  0.13930759  1
  Cu+  Cu36  1  0.16237157  0.08026199  0.17295783  1
  Cu+  Cu37  1  0.16067744  0.58016121  0.17051906  1
  Cu+  Cu38  1  0.66412041  0.08745065  0.16839864  1
  Cu+  Cu39  1  0.66266021  0.58536049  0.16612459  1
  Cu+  Cu40  1  0.42213619  0.33956822  0.16880694  1
  Cu+  Cu41  1  0.41634149  0.83781260  0.16784724  1
  Cu+  Cu42  1  0.91628985  0.33663489  0.17224839  1
  Cu+  Cu43  1  0.91823747  0.83739906  0.17091433  1
  Cu+  Cu44  1  0.41763876  0.08284564  0.16755521  1
  Cu+  Cu45  1  0.42341025  0.58693266  0.16601427  1
  Cu+  Cu46  1  0.92015210  0.08342144  0.17268457  1
  Cu+  Cu47  1  0.91726979  0.58030967  0.16955324  1
  Cu+  Cu48  1  0.49686307  0.24918857  0.50566910  1
  Cu+  Cu49  1  0.49641974  0.75109409  0.50300323  1
  Cu+  Cu50  1  0.99620785  0.24914131  0.50287047  1
  Cu+  Cu51  1  0.99797987  0.74937081  0.50826326  1
  Cu+  Cu52  1  0.25721751  0.00383572  0.50345287  1
  Cu+  Cu53  1  0.24554489  0.50423217  0.50225328  1
  Cu+  Cu54  1  0.75047890  0.00258438  0.50454154  1
  Cu+  Cu55  1  0.75035659  0.50443109  0.50874616  1
  Cu+  Cu56  1  0.24686561  0.24476514  0.50365309  1
  Cu+  Cu57  1  0.25778185  0.75524955  0.50156898  1
  Cu+  Cu58  1  0.75045338  0.24966766  0.50594411  1
  Cu+  Cu59  1  0.75029475  0.74847052  0.50775842  1
  Cu+  Cu60  1  0.33024110  0.40866158  0.83437879  1
  Cu+  Cu61  1  0.33010855  0.91354079  0.84318196  1
  Cu+  Cu62  1  0.83151239  0.40828416  0.83724166  1
  Cu+  Cu63  1  0.83205101  0.91321793  0.83847255  1
  Cu+  Cu64  1  0.08567324  0.17001588  0.83462932  1
  Cu+  Cu65  1  0.08692048  0.66857626  0.84128231  1
  Cu+  Cu66  1  0.58549023  0.16850796  0.83948261  1
  Cu+  Cu67  1  0.59020856  0.67032205  0.83780071  1
  Cu+  Cu68  1  0.07901067  0.40793771  0.83510640  1
  Cu+  Cu69  1  0.08595799  0.91599869  0.84093702  1
  Cu+  Cu70  1  0.58358371  0.41373118  0.83701236  1
  Cu+  Cu71  1  0.58336499  0.91340837  0.84094470  1
  Cu+  Cu72  1  0.16755345  0.08297186  0.67465339  1
  Cu+  Cu73  1  0.16829621  0.58695645  0.67253542  1
  Cu+  Cu74  1  0.66792775  0.08433495  0.67644441  1
  Cu+  Cu75  1  0.66988053  0.58646852  0.68110487  1
  Cu+  Cu76  1  0.41333772  0.32906204  0.67665437  1
  Cu+  Cu77  1  0.41452452  0.83318883  0.67583365  1
  Cu+  Cu78  1  0.91598205  0.33014193  0.67786127  1
  Cu+  Cu79  1  0.91531146  0.83078613  0.67771017  1
  Cu+  Cu80  1  0.41576972  0.08277349  0.67752378  1
  Cu+  Cu81  1  0.41461956  0.58772330  0.67115431  1
  Cu+  Cu82  1  0.91760626  0.08470751  0.67531048  1
  Cu+  Cu83  1  0.91512049  0.58528288  0.67830688  1
  Cu+  Cu84  1  0.00143222  0.24871881  0.00679884  1
  Cu+  Cu85  1  0.00218051  0.74926771  0.00990383  1
  Cu+  Cu86  1  0.50228881  0.25035442  0.01221193  1
  Cu+  Cu87  1  0.50358260  0.74748256  0.01066694  1
  Cu+  Cu88  1  0.24517157  0.49182910  0.00218397  1
  Cu+  Cu89  1  0.24722459  0.99437121  0.01491578  1
  Cu+  Cu90  1  0.75036855  0.49685962  0.00750142  1
  Cu+  Cu91  1  0.75123787  0.99592805  0.00909996  1
  Cu+  Cu92  1  0.24770758  0.24829284  0.00534470  1
  Cu+  Cu93  1  0.24755448  0.74893044  0.01465661  1
  Cu+  Cu94  1  0.75024971  0.24988928  0.01381005  1
  Cu+  Cu95  1  0.74876730  0.74851392  0.01315640  1
  Cu+  Cu96  1  0.33808682  0.42052046  0.33670365  1
  Cu+  Cu97  1  0.33563473  0.91939988  0.34481401  1
  Cu+  Cu98  1  0.83374026  0.41866839  0.34407066  1
  Cu+  Cu99  1  0.83487867  0.91705092  0.34428595  1
  Cu+  Cu100  1  0.08218374  0.16380703  0.34589123  1
  Cu+  Cu101  1  0.08303358  0.66583814  0.34311429  1
  Cu+  Cu102  1  0.58244648  0.16981147  0.34286408  1
  Cu+  Cu103  1  0.58475006  0.66828834  0.34066998  1
  Cu+  Cu104  1  0.07994438  0.41849991  0.34422920  1
  Cu+  Cu105  1  0.08263167  0.91828669  0.34443106  1
  Cu+  Cu106  1  0.58385225  0.42102391  0.34065795  1
  Cu+  Cu107  1  0.58247584  0.91851457  0.34103837  1
  Cu+  Cu108  1  0.00029252  0.00196670  0.11556788  1
  Cu+  Cu109  1  -0.00048634  0.49858678  0.11324515  1
  Cu+  Cu110  1  0.50188258  -0.00002369  0.11052602  1
  Cu+  Cu111  1  0.49693489  0.49825054  0.10831101  1
  Cu+  Cu112  1  0.33505352  0.17172742  0.44721751  1
  Cu+  Cu113  1  0.33520414  0.66454317  0.44447550  1
  Cu+  Cu114  1  0.82833976  0.16527611  0.44789880  1
  Cu+  Cu115  1  0.83599719  0.66890358  0.45338350  1
  Cu+  Cu116  1  0.16963101  0.33770537  0.77617317  1
  Cu+  Cu117  1  0.16559872  0.83254198  0.78636090  1
  Cu+  Cu118  1  0.66723916  0.33357756  0.78082253  1
  Cu+  Cu119  1  0.66739903  0.83706784  0.78311624  1
  Te2-  Te120  1  -0.00122957  -0.00186926  0.38960226  1
  Te2-  Te121  1  -0.00197931  0.50195625  0.38829003  1
  Te2-  Te122  1  0.50348398  0.00423725  0.38509008  1
  Te2-  Te123  1  0.50091952  0.50322368  0.38258034  1
  Te2-  Te124  1  0.33139752  0.16314567  0.72105607  1
  Te2-  Te125  1  0.33205613  0.66782849  0.71760274  1
  Te2-  Te126  1  0.83226171  0.16332848  0.72119628  1
  Te2-  Te127  1  0.83511939  0.66796785  0.72618352  1
  Te2-  Te128  1  0.16574016  0.33007877  0.04996524  1
  Te2-  Te129  1  0.16343574  0.82959609  0.06156863  1
  Te2-  Te130  1  0.66832476  0.33501758  0.05665411  1
  Te2-  Te131  1  0.66842600  0.83409809  0.05806262  1
  Te2-  Te132  1  0.49418799  0.24457762  0.88469970  1
  Te2-  Te133  1  0.49712177  0.74439611  0.88397993  1
  Te2-  Te134  1  0.98990903  0.23956570  0.88159278  1
  Te2-  Te135  1  0.99677096  0.74706784  0.88435885  1
  Te2-  Te136  1  0.25227232  0.00306619  0.88823574  1
  Te2-  Te137  1  0.24961049  0.49847481  0.87631569  1
  Te2-  Te138  1  0.75275489  0.00148727  0.88328763  1
  Te2-  Te139  1  0.75548735  0.50202674  0.88135879  1
  Te2-  Te140  1  0.25190666  0.24026401  0.88037590  1
  Te2-  Te141  1  0.25320635  0.74593368  0.88796556  1
  Te2-  Te142  1  0.75171534  0.24168348  0.88641044  1
  Te2-  Te143  1  0.75763053  0.74668421  0.88615773  1
  Te2-  Te144  1  0.33201212  0.41828794  0.21070365  1
  Te2-  Te145  1  0.32410791  0.91392579  0.21721694  1
  Te2-  Te146  1  0.82482593  0.41574586  0.21800738  1
  Te2-  Te147  1  0.82733289  0.91620647  0.21812549  1
  Te2-  Te148  1  0.08722527  0.17162242  0.21852526  1
  Te2-  Te149  1  0.08333237  0.67319253  0.21718979  1
  Te2-  Te150  1  0.58678856  0.17846536  0.21637571  1
  Te2-  Te151  1  0.59037373  0.68118640  0.21478034  1
  Te2-  Te152  1  0.08390616  0.41387502  0.21704041  1
  Te2-  Te153  1  0.08347842  0.90988354  0.21858824  1
  Te2-  Te154  1  0.59218024  0.41965789  0.21478868  1
  Te2-  Te155  1  0.58720491  0.91902097  0.21446256  1
  Te2-  Te156  1  0.16010120  0.07513352  0.54876024  1
  Te2-  Te157  1  0.15859889  0.58677776  0.54693638  1
  Te2-  Te158  1  0.66255920  0.08180642  0.55029814  1
  Te2-  Te159  1  0.66073261  0.58182266  0.55437508  1
  Te2-  Te160  1  0.41514852  0.33596053  0.54937818  1
  Te2-  Te161  1  0.42438940  0.84495786  0.54997894  1
  Te2-  Te162  1  0.91862698  0.34047474  0.55069567  1
  Te2-  Te163  1  0.91853412  0.83811144  0.55194111  1
  Te2-  Te164  1  0.42437577  0.08238520  0.55137086  1
  Te2-  Te165  1  0.41494379  0.58188441  0.54512879  1
  Te2-  Te166  1  0.91847722  0.07886322  0.54936697  1
  Te2-  Te167  1  0.91857182  0.58147656  0.55250285  1
  Te2-  Te168  1  0.00131395  0.00118261  0.88212470  1
  Te2-  Te169  1  0.00088022  0.49775082  0.88268483  1
  Te2-  Te170  1  0.50053204  -0.00087134  0.88459591  1
  Te2-  Te171  1  0.49891978  0.49945351  0.88185267  1
  Te2-  Te172  1  0.33435371  0.16959619  0.21536829  1
  Te2-  Te173  1  0.33269202  0.66632870  0.21374809  1
  Te2-  Te174  1  0.83282982  0.16631339  0.21612677  1
  Te2-  Te175  1  0.83218607  0.66583482  0.21431353  1
  Te2-  Te176  1  0.16683132  0.33462175  0.54831128  1
  Te2-  Te177  1  0.16827100  0.83432365  0.54934284  1
  Te2-  Te178  1  0.66563595  0.33397320  0.55027795  1
  Te2-  Te179  1  0.66474928  0.83362224  0.54864240  1
  Te2-  Te180  1  0.32891320  0.41728092  0.70713943  1
  Te2-  Te181  1  0.32724005  0.91384873  0.71621653  1
  Te2-  Te182  1  0.82710407  0.41378210  0.71061650  1
  Te2-  Te183  1  0.82824353  0.91425104  0.71232962  1
  Te2-  Te184  1  0.08743440  0.17272372  0.70934476  1
  Te2-  Te185  1  0.08531345  0.67150116  0.71461732  1
  Te2-  Te186  1  0.58586220  0.17166367  0.71342662  1
  Te2-  Te187  1  0.58369417  0.67353394  0.71108311  1
  Te2-  Te188  1  0.08855600  0.41651801  0.70774059  1
  Te2-  Te189  1  0.08600956  0.91344211  0.71388959  1
  Te2-  Te190  1  0.58592606  0.41227843  0.70916399  1
  Te2-  Te191  1  0.58450352  0.91419760  0.71365290  1
  Te2-  Te192  1  0.15983957  0.07982833  0.04532377  1
  Te2-  Te193  1  0.15972088  0.57513628  0.04293784  1
  Te2-  Te194  1  0.66128821  0.07676242  0.04203049  1
  Te2-  Te195  1  0.65899723  0.57552510  0.04029653  1
  Te2-  Te196  1  0.41725273  0.33784968  0.04133946  1
  Te2-  Te197  1  0.42190151  0.83927304  0.04062861  1
  Te2-  Te198  1  0.92228591  0.33852920  0.04465134  1
  Te2-  Te199  1  0.92176307  0.83933699  0.04421682  1
  Te2-  Te200  1  0.42050480  0.07799037  0.04120745  1
  Te2-  Te201  1  0.41481742  0.57504629  0.03950097  1
  Te2-  Te202  1  0.91998894  0.08023767  0.04610935  1
  Te2-  Te203  1  0.91969140  0.57892103  0.04382061  1
  Te2-  Te204  1  0.49509662  0.25160615  0.37874378  1
  Te2-  Te205  1  0.49520666  0.74890152  0.37620363  1
  Te2-  Te206  1  0.99113895  0.24607966  0.37559207  1
  Te2-  Te207  1  0.99600643  0.74839272  0.38123337  1
  Te2-  Te208  1  0.25314716  0.00887214  0.37717799  1
  Te2-  Te209  1  0.25304719  0.50510677  0.37463554  1
  Te2-  Te210  1  0.75232735  0.00567564  0.37795259  1
  Te2-  Te211  1  0.75249004  0.50727519  0.38162341  1
  Te2-  Te212  1  0.25519753  0.25127504  0.37609308  1
  Te2-  Te213  1  0.25356181  0.74675896  0.37543396  1
  Te2-  Te214  1  0.75192839  0.24891442  0.37932404  1
  Te2-  Te215  1  0.75303790  0.74752910  0.38090309  1
