# generated using pymatgen
data_Ti(CuTe)4
_symmetry_space_group_name_H-M   'P 1'
_cell_length_a   16.83912060
_cell_length_b   16.84086020
_cell_length_c   20.63967998
_cell_angle_alpha   90.01126533
_cell_angle_beta   90.00880351
_cell_angle_gamma   119.99655190
_symmetry_Int_Tables_number   1
_chemical_formula_structural   Ti(CuTe)4
_chemical_formula_sum   'Ti24 Cu96 Te96'
_cell_volume   5069.11718278
_cell_formula_units_Z   24
loop_
 _symmetry_equiv_pos_site_id
 _symmetry_equiv_pos_as_xyz
  1  'x, y, z'
loop_
 _atom_type_symbol
 _atom_type_oxidation_number
  Ti4+  4.0
  Cu+  1.0
  Te2-  -2.0
loop_
 _atom_site_type_symbol
 _atom_site_label
 _atom_site_symmetry_multiplicity
 _atom_site_fract_x
 _atom_site_fract_y
 _atom_site_fract_z
 _atom_site_occupancy
  Ti4+  Ti0  1  -0.00030528  0.00111944  0.26119162  1
  Ti4+  Ti1  1  -0.00327024  0.50227258  0.25601081  1
  Ti4+  Ti2  1  0.49581996  -0.00130652  0.25763869  1
  Ti4+  Ti3  1  0.49927477  0.49722634  0.25969233  1
  Ti4+  Ti4  1  0.33382025  0.16727024  0.59398467  1
  Ti4+  Ti5  1  0.33924599  0.66835421  0.58725355  1
  Ti4+  Ti6  1  0.83544231  0.16636077  0.58783533  1
  Ti4+  Ti7  1  0.83641727  0.66648241  0.59113599  1
  Ti4+  Ti8  1  0.16334539  0.33126086  0.92427734  1
  Ti4+  Ti9  1  0.16468553  0.83243202  0.92468298  1
  Ti4+  Ti10  1  0.66612226  0.33349583  0.92285620  1
  Ti4+  Ti11  1  0.66639725  0.83345416  0.92612964  1
  Ti4+  Ti12  1  0.00106196  0.00072145  0.75512003  1
  Ti4+  Ti13  1  0.00058638  0.50006531  0.75629495  1
  Ti4+  Ti14  1  0.50154510  0.00092684  0.75501797  1
  Ti4+  Ti15  1  0.50164851  0.50067984  0.75551382  1
  Ti4+  Ti16  1  0.33320517  0.16735159  0.09114353  1
  Ti4+  Ti17  1  0.33269974  0.66830685  0.08940730  1
  Ti4+  Ti18  1  0.83335485  0.16618269  0.09084946  1
  Ti4+  Ti19  1  0.83196924  0.66440818  0.09063820  1
  Ti4+  Ti20  1  0.16692925  0.33394542  0.42033284  1
  Ti4+  Ti21  1  0.16575762  0.83336763  0.42323962  1
  Ti4+  Ti22  1  0.66892939  0.33506659  0.42506966  1
  Ti4+  Ti23  1  0.66445602  0.83372471  0.41797827  1
  Cu+  Cu24  1  0.58180467  0.65284239  0.47434767  1
  Cu+  Cu25  1  0.86521980  0.43147812  0.47541328  1
  Cu+  Cu26  1  0.90153046  0.30901971  0.80649207  1
  Cu+  Cu27  1  0.57329380  0.93015515  0.47003554  1
  Cu+  Cu28  1  0.40270034  0.08667210  0.81071369  1
  Cu+  Cu29  1  0.23615434  0.76544654  0.13844830  1
  Cu+  Cu30  1  0.84647533  0.91924907  0.47582792  1
  Cu+  Cu31  1  0.08128911  0.15169656  0.47717076  1
  Cu+  Cu32  1  0.90354899  0.59395410  0.80995447  1
  Cu+  Cu33  1  0.40593570  0.31667379  0.81145159  1
  Cu+  Cu34  1  0.35246867  0.41891475  0.47609956  1
  Cu+  Cu35  1  0.73400698  0.47131777  0.13987781  1
  Cu+  Cu36  1  0.16466690  0.08433861  0.17567841  1
  Cu+  Cu37  1  0.16510591  0.59021817  0.16975388  1
  Cu+  Cu38  1  0.66459101  0.08155894  0.17331981  1
  Cu+  Cu39  1  0.66395196  0.57548220  0.17310010  1
  Cu+  Cu40  1  0.41516207  0.33598562  0.17311970  1
  Cu+  Cu41  1  0.41121695  0.83628053  0.17098561  1
  Cu+  Cu42  1  0.91363968  0.33545390  0.17101654  1
  Cu+  Cu43  1  0.91659679  0.83578239  0.17495218  1
  Cu+  Cu44  1  0.41699625  0.08199453  0.17175536  1
  Cu+  Cu45  1  0.41731748  0.58136744  0.17361028  1
  Cu+  Cu46  1  0.91860762  0.08297380  0.17604484  1
  Cu+  Cu47  1  0.91126720  0.57538225  0.16908766  1
  Cu+  Cu48  1  0.49867434  0.24849936  0.50850573  1
  Cu+  Cu49  1  0.49551286  0.74851279  0.49622538  1
  Cu+  Cu50  1  0.99617043  0.24503491  0.49924554  1
  Cu+  Cu51  1  0.99907947  0.74724321  0.50476460  1
  Cu+  Cu52  1  0.25341802  0.00059627  0.50723348  1
  Cu+  Cu53  1  0.25856345  0.50313155  0.49904812  1
  Cu+  Cu54  1  0.75191373  0.00398607  0.49725799  1
  Cu+  Cu55  1  0.76000328  0.50201073  0.50495962  1
  Cu+  Cu56  1  0.25402350  0.24745153  0.50582025  1
  Cu+  Cu57  1  0.25287277  0.75009224  0.50238554  1
  Cu+  Cu58  1  0.75779112  0.25595251  0.50361160  1
  Cu+  Cu59  1  0.75462156  0.74670242  0.50223711  1
  Cu+  Cu60  1  0.32961246  0.41359259  0.83788886  1
  Cu+  Cu61  1  0.32967497  0.91438419  0.83930072  1
  Cu+  Cu62  1  0.83060845  0.41596287  0.83710235  1
  Cu+  Cu63  1  0.83182439  0.91631276  0.83881984  1
  Cu+  Cu64  1  0.08315880  0.17056986  0.83605759  1
  Cu+  Cu65  1  0.08052788  0.67012669  0.83779622  1
  Cu+  Cu66  1  0.58009289  0.16907040  0.83445756  1
  Cu+  Cu67  1  0.58564046  0.67129232  0.83809444  1
  Cu+  Cu68  1  0.07836417  0.40851698  0.83628108  1
  Cu+  Cu69  1  0.08395776  0.91427973  0.83713098  1
  Cu+  Cu70  1  0.58258574  0.41271867  0.83618100  1
  Cu+  Cu71  1  0.58568230  0.91443560  0.83746601  1
  Cu+  Cu72  1  0.16792361  0.08500486  0.67711900  1
  Cu+  Cu73  1  0.17324775  0.58604480  0.67119585  1
  Cu+  Cu74  1  0.66977947  0.08363670  0.67182470  1
  Cu+  Cu75  1  0.67064059  0.58591076  0.67439537  1
  Cu+  Cu76  1  0.41736905  0.33206008  0.68209383  1
  Cu+  Cu77  1  0.42040636  0.83292250  0.67211594  1
  Cu+  Cu78  1  0.91775880  0.33021469  0.67780283  1
  Cu+  Cu79  1  0.91763120  0.83199363  0.67571818  1
  Cu+  Cu80  1  0.41622390  0.08558156  0.68136506  1
  Cu+  Cu81  1  0.42090443  0.58742552  0.67338522  1
  Cu+  Cu82  1  0.91728758  0.08362535  0.67352507  1
  Cu+  Cu83  1  0.91900510  0.58685330  0.68089699  1
  Cu+  Cu84  1  0.00076236  0.24959033  0.00966399  1
  Cu+  Cu85  1  -0.00091925  0.75006089  0.01017638  1
  Cu+  Cu86  1  0.49992586  0.25168952  0.01084252  1
  Cu+  Cu87  1  0.50291265  0.75034094  0.00897323  1
  Cu+  Cu88  1  0.24960313  0.49643137  0.00693619  1
  Cu+  Cu89  1  0.25002327  1.00060680  0.01041008  1
  Cu+  Cu90  1  0.74787046  0.49666279  0.01172059  1
  Cu+  Cu91  1  0.75009705  0.99672793  0.00935852  1
  Cu+  Cu92  1  0.24894108  0.25146637  0.00948138  1
  Cu+  Cu93  1  0.24803602  0.75366597  0.01083633  1
  Cu+  Cu94  1  0.74933625  0.24994245  0.00743321  1
  Cu+  Cu95  1  0.74913976  0.75239010  0.00959604  1
  Cu+  Cu96  1  0.33687962  0.41943936  0.34658851  1
  Cu+  Cu97  1  0.33177537  0.91649264  0.34177221  1
  Cu+  Cu98  1  0.83641095  0.41997342  0.34608039  1
  Cu+  Cu99  1  0.83603660  0.92051352  0.34667822  1
  Cu+  Cu100  1  0.07940680  0.16400071  0.34789928  1
  Cu+  Cu101  1  0.07959083  0.66681147  0.33931409  1
  Cu+  Cu102  1  0.58059660  0.16527877  0.34136019  1
  Cu+  Cu103  1  0.57977872  0.66170778  0.34494400  1
  Cu+  Cu104  1  0.08077815  0.41941886  0.33748870  1
  Cu+  Cu105  1  0.08245619  0.91818883  0.34307244  1
  Cu+  Cu106  1  0.58257324  0.41491839  0.34355556  1
  Cu+  Cu107  1  0.57632279  0.91799348  0.34235402  1
  Cu+  Cu108  1  0.00149726  0.00077713  0.12003678  1
  Cu+  Cu109  1  0.00413109  0.49756729  0.11270555  1
  Cu+  Cu110  1  0.50393873  0.00206981  0.11515406  1
  Cu+  Cu111  1  0.49997050  0.50179687  0.11725386  1
  Cu+  Cu112  1  0.33445830  0.16330051  0.45043621  1
  Cu+  Cu113  1  0.32645925  0.66537682  0.44259859  1
  Cu+  Cu114  1  0.83058602  0.16780568  0.44297535  1
  Cu+  Cu115  1  0.83417698  0.66519909  0.44633648  1
  Cu+  Cu116  1  0.16900312  0.33631768  0.77861862  1
  Cu+  Cu117  1  0.16858862  0.83338287  0.78025227  1
  Cu+  Cu118  1  0.66910691  0.33336922  0.77758145  1
  Cu+  Cu119  1  0.67041256  0.83550622  0.78206709  1
  Te2-  Te120  1  0.00105770  -0.00148931  0.39419835  1
  Te2-  Te121  1  0.00403972  0.50393513  0.38708873  1
  Te2-  Te122  1  0.49526477  0.00227523  0.38877408  1
  Te2-  Te123  1  0.50238980  0.49705788  0.39242504  1
  Te2-  Te124  1  0.33035590  0.16561363  0.72620691  1
  Te2-  Te125  1  0.33696329  0.66856882  0.71620705  1
  Te2-  Te126  1  0.83265577  0.16286313  0.71844263  1
  Te2-  Te127  1  0.83346850  0.66861750  0.72186720  1
  Te2-  Te128  1  0.16563978  0.33298836  0.05345237  1
  Te2-  Te129  1  0.16327838  0.83624065  0.05500636  1
  Te2-  Te130  1  0.66477292  0.32897336  0.05326537  1
  Te2-  Te131  1  0.66623424  0.83307205  0.05620266  1
  Te2-  Te132  1  0.48898874  0.24456548  0.88470650  1
  Te2-  Te133  1  0.49388945  0.74699956  0.88287997  1
  Te2-  Te134  1  0.98784014  0.24112126  0.88351270  1
  Te2-  Te135  1  0.99001891  0.74817989  0.88431017  1
  Te2-  Te136  1  0.25008304  0.00624012  0.88444604  1
  Te2-  Te137  1  0.24858680  0.50152127  0.88005901  1
  Te2-  Te138  1  0.75295914  0.00565219  0.88313066  1
  Te2-  Te139  1  0.74986614  0.50654810  0.88391650  1
  Te2-  Te140  1  0.24975561  0.24322117  0.88348132  1
  Te2-  Te141  1  0.24990377  0.74635258  0.88334100  1
  Te2-  Te142  1  0.74832627  0.24371126  0.88074487  1
  Te2-  Te143  1  0.75297426  0.74774787  0.88345397  1
  Te2-  Te144  1  0.32691205  0.41402919  0.22008288  1
  Te2-  Te145  1  0.32093123  0.91516958  0.21630149  1
  Te2-  Te146  1  0.82128208  0.40909557  0.21897809  1
  Te2-  Te147  1  0.82736552  0.91422968  0.22023063  1
  Te2-  Te148  1  0.08654207  0.17381411  0.22131712  1
  Te2-  Te149  1  0.07978732  0.67529256  0.21333393  1
  Te2-  Te150  1  0.58431389  0.17041028  0.21588325  1
  Te2-  Te151  1  0.58710503  0.66797576  0.21773595  1
  Te2-  Te152  1  0.08454369  0.41981744  0.21161376  1
  Te2-  Te153  1  0.08504927  0.91520893  0.21736319  1
  Te2-  Te154  1  0.58264526  0.40624197  0.21773326  1
  Te2-  Te155  1  0.57986783  0.91127005  0.21582133  1
  Te2-  Te156  1  0.16115432  0.07778914  0.55108153  1
  Te2-  Te157  1  0.16809561  0.58027442  0.54527778  1
  Te2-  Te158  1  0.66365789  0.08432752  0.54559718  1
  Te2-  Te159  1  0.66431534  0.57761089  0.54809949  1
  Te2-  Te160  1  0.42293555  0.34076572  0.55429752  1
  Te2-  Te161  1  0.42241321  0.84224524  0.54633250  1
  Te2-  Te162  1  0.92730616  0.34064376  0.55040679  1
  Te2-  Te163  1  0.92288024  0.83965895  0.54973823  1
  Te2-  Te164  1  0.42006130  0.08130366  0.55450262  1
  Te2-  Te165  1  0.42750588  0.57989591  0.54717151  1
  Te2-  Te166  1  0.92097768  0.07630143  0.54737770  1
  Te2-  Te167  1  0.92727369  0.58203839  0.55379393  1
  Te2-  Te168  1  0.00108033  0.00106369  0.88172752  1
  Te2-  Te169  1  0.00009259  0.49989771  0.88382478  1
  Te2-  Te170  1  0.50115883  -0.00012065  0.88232952  1
  Te2-  Te171  1  0.50029814  0.50106441  0.88273847  1
  Te2-  Te172  1  0.33382597  0.16729839  0.21791979  1
  Te2-  Te173  1  0.33273180  0.66676015  0.21661364  1
  Te2-  Te174  1  0.83296960  0.16774798  0.21756663  1
  Te2-  Te175  1  0.83328144  0.66606382  0.21784856  1
  Te2-  Te176  1  0.16665728  0.33387131  0.54838235  1
  Te2-  Te177  1  0.16808310  0.83166059  0.55020186  1
  Te2-  Te178  1  0.66834893  0.33370025  0.55243651  1
  Te2-  Te179  1  0.66698541  0.83332544  0.54671375  1
  Te2-  Te180  1  0.32877668  0.41738573  0.70960424  1
  Te2-  Te181  1  0.32880173  0.91149249  0.71061391  1
  Te2-  Te182  1  0.82783279  0.41307357  0.70879464  1
  Te2-  Te183  1  0.82867992  0.91381696  0.71073213  1
  Te2-  Te184  1  0.08662090  0.17417186  0.70966246  1
  Te2-  Te185  1  0.09187527  0.67305271  0.71057840  1
  Te2-  Te186  1  0.59028531  0.17376950  0.70760722  1
  Te2-  Te187  1  0.58950987  0.67383643  0.71128022  1
  Te2-  Te188  1  0.09002182  0.41722692  0.70908509  1
  Te2-  Te189  1  0.08787141  0.91403236  0.71057687  1
  Te2-  Te190  1  0.59111676  0.41630160  0.70916282  1
  Te2-  Te191  1  0.58872761  0.91530571  0.71067407  1
  Te2-  Te192  1  0.16078461  0.08166855  0.04772208  1
  Te2-  Te193  1  0.16163701  0.57981874  0.04178195  1
  Te2-  Te194  1  0.66234495  0.08019231  0.04529283  1
  Te2-  Te195  1  0.65954241  0.58109427  0.04520623  1
  Te2-  Te196  1  0.41858375  0.34005658  0.04638853  1
  Te2-  Te197  1  0.42130715  0.84049849  0.04358807  1
  Te2-  Te198  1  0.91816123  0.33761994  0.04421020  1
  Te2-  Te199  1  0.91800671  0.83806894  0.04818695  1
  Te2-  Te200  1  0.41978332  0.08123217  0.04539580  1
  Te2-  Te201  1  0.41825969  0.58073714  0.04660092  1
  Te2-  Te202  1  0.91983374  0.07999617  0.04853463  1
  Te2-  Te203  1  0.92042902  0.57977840  0.04293945  1
  Te2-  Te204  1  0.49503920  0.24697416  0.38181915  1
  Te2-  Te205  1  0.48920941  0.74492942  0.37032456  1
  Te2-  Te206  1  0.99252432  0.25103377  0.37350527  1
  Te2-  Te207  1  0.99328030  0.74819925  0.37812715  1
  Te2-  Te208  1  0.25221818  0.00603049  0.37980979  1
  Te2-  Te209  1  0.25035450  0.50675194  0.37254370  1
  Te2-  Te210  1  0.74994713  0.00856907  0.37079104  1
  Te2-  Te211  1  0.75226595  0.50739395  0.37779114  1
  Te2-  Te212  1  0.25431288  0.24571859  0.37771648  1
  Te2-  Te213  1  0.24948994  0.74679874  0.37523230  1
  Te2-  Te214  1  0.75093641  0.24681330  0.37594527  1
  Te2-  Te215  1  0.75334304  0.74633292  0.37461277  1
