# generated using pymatgen
data_Ti(CuTe)4
_symmetry_space_group_name_H-M   'P 1'
_cell_length_a   16.85274420
_cell_length_b   16.85313039
_cell_length_c   20.65680391
_cell_angle_alpha   89.96742694
_cell_angle_beta   90.03454490
_cell_angle_gamma   120.00944024
_symmetry_Int_Tables_number   1
_chemical_formula_structural   Ti(CuTe)4
_chemical_formula_sum   'Ti24 Cu96 Te96'
_cell_volume   5080.46599037
_cell_formula_units_Z   24
loop_
 _symmetry_equiv_pos_site_id
 _symmetry_equiv_pos_as_xyz
  1  'x, y, z'
loop_
 _atom_type_symbol
 _atom_type_oxidation_number
  Ti4+  4.0
  Cu+  1.0
  Te2-  -2.0
loop_
 _atom_site_type_symbol
 _atom_site_label
 _atom_site_symmetry_multiplicity
 _atom_site_fract_x
 _atom_site_fract_y
 _atom_site_fract_z
 _atom_site_occupancy
  Ti4+  Ti0  1  -0.00104872  0.00056482  0.25858690  1
  Ti4+  Ti1  1  0.00115088  0.50242896  0.25869886  1
  Ti4+  Ti2  1  0.49719463  -0.00105155  0.25772610  1
  Ti4+  Ti3  1  0.49680666  0.49751096  0.25926871  1
  Ti4+  Ti4  1  0.33584437  0.16962268  0.59392325  1
  Ti4+  Ti5  1  0.32908472  0.66310541  0.59404340  1
  Ti4+  Ti6  1  0.83412630  0.16316854  0.59015422  1
  Ti4+  Ti7  1  0.83441775  0.66700208  0.58778234  1
  Ti4+  Ti8  1  0.17095977  0.33833454  0.92733280  1
  Ti4+  Ti9  1  0.16363882  0.83199557  0.92426908  1
  Ti4+  Ti10  1  0.66648531  0.33328956  0.91977033  1
  Ti4+  Ti11  1  0.66912162  0.83644719  0.92246383  1
  Ti4+  Ti12  1  0.00126666  -0.00090526  0.75590359  1
  Ti4+  Ti13  1  0.00026235  0.50078910  0.75600736  1
  Ti4+  Ti14  1  0.50249693  -0.00032406  0.75249753  1
  Ti4+  Ti15  1  0.49927142  0.49916169  0.75451930  1
  Ti4+  Ti16  1  0.33416056  0.16764524  0.08873102  1
  Ti4+  Ti17  1  0.33320159  0.66815911  0.08819833  1
  Ti4+  Ti18  1  0.83474689  0.16667058  0.08822096  1
  Ti4+  Ti19  1  0.83329327  0.66609962  0.09038762  1
  Ti4+  Ti20  1  0.16706765  0.33381213  0.42460918  1
  Ti4+  Ti21  1  0.16543915  0.82961166  0.42462270  1
  Ti4+  Ti22  1  0.66410477  0.33324073  0.42310488  1
  Ti4+  Ti23  1  0.66899783  0.83468178  0.42190654  1
  Cu+  Cu24  1  0.40333865  0.31879663  0.81154814  1
  Cu+  Cu25  1  0.06825586  0.63584743  0.47572203  1
  Cu+  Cu26  1  0.41082848  0.59491244  0.81153368  1
  Cu+  Cu27  1  0.23575065  0.76213281  0.14048399  1
  Cu+  Cu28  1  0.18332907  0.59724431  0.81169310  1
  Cu+  Cu29  1  0.23843876  0.25557129  0.14499254  1
  Cu+  Cu30  1  0.86106984  0.93070555  0.47255093  1
  Cu+  Cu31  1  0.40631116  0.08563905  0.80924160  1
  Cu+  Cu32  1  0.56910875  0.42908753  0.47518406  1
  Cu+  Cu33  1  0.90410849  0.59702955  0.80402659  1
  Cu+  Cu34  1  0.69280499  0.09792340  0.80353010  1
  Cu+  Cu35  1  0.23893254  0.48897966  0.14721916  1
  Cu+  Cu36  1  0.16243261  0.08252196  0.17196424  1
  Cu+  Cu37  1  0.16066635  0.58494659  0.17087416  1
  Cu+  Cu38  1  0.66383728  0.08168364  0.17084322  1
  Cu+  Cu39  1  0.66398004  0.57926792  0.17362283  1
  Cu+  Cu40  1  0.41536089  0.33614087  0.17110166  1
  Cu+  Cu41  1  0.41205005  0.83776747  0.16899993  1
  Cu+  Cu42  1  0.91622893  0.33420697  0.17106644  1
  Cu+  Cu43  1  0.91513637  0.83533165  0.17400261  1
  Cu+  Cu44  1  0.41838192  0.08045896  0.17026518  1
  Cu+  Cu45  1  0.41572244  0.57759902  0.16913859  1
  Cu+  Cu46  1  0.91721053  0.08040035  0.17133530  1
  Cu+  Cu47  1  0.91913563  0.58327405  0.17241813  1
  Cu+  Cu48  1  0.49704993  0.25352148  0.50704717  1
  Cu+  Cu49  1  0.49787917  0.74661228  0.50713093  1
  Cu+  Cu50  1  0.99761991  0.24744766  0.50488796  1
  Cu+  Cu51  1  0.99791570  0.74220272  0.50291329  1
  Cu+  Cu52  1  0.25265511  0.00143298  0.50850067  1
  Cu+  Cu53  1  0.25067434  0.50208642  0.50825288  1
  Cu+  Cu54  1  0.75735760  0.00223701  0.50343998  1
  Cu+  Cu55  1  0.74664801  0.50130716  0.50232863  1
  Cu+  Cu56  1  0.25311694  0.25056289  0.50737270  1
  Cu+  Cu57  1  0.24266296  0.73966736  0.50707753  1
  Cu+  Cu58  1  0.74889579  0.24479469  0.50536382  1
  Cu+  Cu59  1  0.75766932  0.75463665  0.50070428  1
  Cu+  Cu60  1  0.32905054  0.41745291  0.83862077  1
  Cu+  Cu61  1  0.32861688  0.91418176  0.83563211  1
  Cu+  Cu62  1  0.83005708  0.42049373  0.83335040  1
  Cu+  Cu63  1  0.83186652  0.91582585  0.83603240  1
  Cu+  Cu64  1  0.08567880  0.16781814  0.84031281  1
  Cu+  Cu65  1  0.08068395  0.66935160  0.83728247  1
  Cu+  Cu66  1  0.58629224  0.16824095  0.83146292  1
  Cu+  Cu67  1  0.58486372  0.67076677  0.83562746  1
  Cu+  Cu68  1  0.09053913  0.42185774  0.83861676  1
  Cu+  Cu69  1  0.08405468  0.91417288  0.83684548  1
  Cu+  Cu70  1  0.58269921  0.41100288  0.83179358  1
  Cu+  Cu71  1  0.59329243  0.92083104  0.83241268  1
  Cu+  Cu72  1  0.16958471  0.08404856  0.67582902  1
  Cu+  Cu73  1  0.16773211  0.58279572  0.68269780  1
  Cu+  Cu74  1  0.67316641  0.08085458  0.67503785  1
  Cu+  Cu75  1  0.66868178  0.58519725  0.67147451  1
  Cu+  Cu76  1  0.41739365  0.33133892  0.68215885  1
  Cu+  Cu77  1  0.41447885  0.83009665  0.67391534  1
  Cu+  Cu78  1  0.91680017  0.32955960  0.67333725  1
  Cu+  Cu79  1  0.91903875  0.83230196  0.67196161  1
  Cu+  Cu80  1  0.41647403  0.08562476  0.67942589  1
  Cu+  Cu81  1  0.41229295  0.58281727  0.68161086  1
  Cu+  Cu82  1  0.91817141  0.08201984  0.67526327  1
  Cu+  Cu83  1  0.91421232  0.58371279  0.67629863  1
  Cu+  Cu84  1  0.00439966  0.25178828  0.00925962  1
  Cu+  Cu85  1  -0.00078782  0.74873929  0.00967991  1
  Cu+  Cu86  1  0.50225667  0.24881668  0.00644348  1
  Cu+  Cu87  1  0.50444131  0.75425834  0.00639281  1
  Cu+  Cu88  1  0.25340222  0.50144408  0.01748500  1
  Cu+  Cu89  1  0.25058196  0.99901866  0.00923705  1
  Cu+  Cu90  1  0.75020187  0.49893281  0.00571367  1
  Cu+  Cu91  1  0.75198268  1.00021256  0.00663325  1
  Cu+  Cu92  1  0.25338025  0.25527521  0.01654899  1
  Cu+  Cu93  1  0.24801630  0.75209558  0.01259322  1
  Cu+  Cu94  1  0.75099815  0.25133330  0.00442007  1
  Cu+  Cu95  1  0.74827243  0.75076262  0.00688310  1
  Cu+  Cu96  1  0.33240023  0.41665233  0.34527431  1
  Cu+  Cu97  1  0.33493900  0.91606021  0.34315194  1
  Cu+  Cu98  1  0.83405214  0.41650091  0.34162540  1
  Cu+  Cu99  1  0.83810429  0.92067315  0.34481446  1
  Cu+  Cu100  1  0.08439292  0.16723498  0.34326241  1
  Cu+  Cu101  1  0.08279838  0.66284896  0.34717478  1
  Cu+  Cu102  1  0.58002743  0.16307148  0.34078523  1
  Cu+  Cu103  1  0.58101990  0.66429816  0.34087090  1
  Cu+  Cu104  1  0.08544761  0.41969070  0.34400161  1
  Cu+  Cu105  1  0.08351941  0.91792163  0.34230801  1
  Cu+  Cu106  1  0.57804349  0.41683370  0.34624570  1
  Cu+  Cu107  1  0.57959080  0.91675256  0.33976354  1
  Cu+  Cu108  1  -0.00175725  -0.00353394  0.11518463  1
  Cu+  Cu109  1  -0.00814194  0.49443348  0.11474228  1
  Cu+  Cu110  1  0.50544777  0.00281028  0.11309253  1
  Cu+  Cu111  1  0.50577224  0.50173366  0.11537353  1
  Cu+  Cu112  1  0.33090429  0.16269356  0.45186253  1
  Cu+  Cu113  1  0.33748681  0.66994760  0.45204541  1
  Cu+  Cu114  1  0.83253289  0.16839011  0.44695571  1
  Cu+  Cu115  1  0.83185805  0.66583993  0.44305034  1
  Cu+  Cu116  1  0.16021142  0.32825153  0.78410670  1
  Cu+  Cu117  1  0.16605677  0.83325202  0.77876667  1
  Cu+  Cu118  1  0.66777712  0.33150193  0.77320819  1
  Cu+  Cu119  1  0.67029021  0.83183595  0.77688808  1
  Te2-  Te120  1  0.00506540  0.00298021  0.38902775  1
  Te2-  Te121  1  -0.00291366  0.49539283  0.38920075  1
  Te2-  Te122  1  0.49944593  -0.00045565  0.38727851  1
  Te2-  Te123  1  0.49685898  0.50210408  0.38976312  1
  Te2-  Te124  1  0.33113634  0.16520872  0.72679314  1
  Te2-  Te125  1  0.33372803  0.66982235  0.72702809  1
  Te2-  Te126  1  0.83905578  0.16686177  0.72090924  1
  Te2-  Te127  1  0.83194778  0.66878959  0.71823127  1
  Te2-  Te128  1  0.16611232  0.33468151  0.05936393  1
  Te2-  Te129  1  0.16350425  0.83505492  0.05469866  1
  Te2-  Te130  1  0.66806778  0.33327132  0.04830729  1
  Te2-  Te131  1  0.66864545  0.83577897  0.05164309  1
  Te2-  Te132  1  0.49013484  0.24271293  0.88009297  1
  Te2-  Te133  1  0.49599596  0.75374838  0.88045656  1
  Te2-  Te134  1  1.00172197  0.25339846  0.88308718  1
  Te2-  Te135  1  0.98993722  0.74723409  0.88323832  1
  Te2-  Te136  1  0.25051821  0.00529501  0.88350826  1
  Te2-  Te137  1  0.25834515  0.51431286  0.88841384  1
  Te2-  Te138  1  0.75974772  0.01093536  0.88080803  1
  Te2-  Te139  1  0.74886983  0.50729077  0.87973795  1
  Te2-  Te140  1  0.25318716  0.24737160  0.88852817  1
  Te2-  Te141  1  0.25393840  0.74949334  0.88467595  1
  Te2-  Te142  1  0.75690153  0.25147988  0.87803459  1
  Te2-  Te143  1  0.75165380  0.74753557  0.88056595  1
  Te2-  Te144  1  0.32009339  0.41054977  0.21861857  1
  Te2-  Te145  1  0.32186836  0.91463568  0.21714807  1
  Te2-  Te146  1  0.83030102  0.41532164  0.21587801  1
  Te2-  Te147  1  0.82651151  0.91449577  0.21816708  1
  Te2-  Te148  1  0.08387837  0.17433700  0.21752071  1
  Te2-  Te149  1  0.08605571  0.67672786  0.21945982  1
  Te2-  Te150  1  0.58483466  0.17094861  0.21500498  1
  Te2-  Te151  1  0.58219931  0.66785972  0.21495632  1
  Te2-  Te152  1  0.08435905  0.41303057  0.21753988  1
  Te2-  Te153  1  0.08503240  0.91544169  0.21608241  1
  Te2-  Te154  1  0.58154167  0.41080627  0.21888656  1
  Te2-  Te155  1  0.58028086  0.91153048  0.21327794  1
  Te2-  Te156  1  0.16508169  0.08244023  0.55041914  1
  Te2-  Te157  1  0.15471698  0.57231066  0.55543497  1
  Te2-  Te158  1  0.66279000  0.07557032  0.54820598  1
  Te2-  Te159  1  0.66143988  0.58660224  0.54601551  1
  Te2-  Te160  1  0.41892033  0.34381256  0.55466231  1
  Te2-  Te161  1  0.41304668  0.83236069  0.54808191  1
  Te2-  Te162  1  0.91760067  0.33496806  0.54797973  1
  Te2-  Te163  1  0.92693909  0.83994929  0.54634534  1
  Te2-  Te164  1  0.42148010  0.08461089  0.55196684  1
  Te2-  Te165  1  0.41756192  0.57979979  0.55450975  1
  Te2-  Te166  1  0.92624988  0.08093660  0.54962970  1
  Te2-  Te167  1  0.91436615  0.57320893  0.54937004  1
  Te2-  Te168  1  -0.00014786  -0.00137615  0.88276842  1
  Te2-  Te169  1  -0.00149984  0.49935519  0.88381730  1
  Te2-  Te170  1  0.50121246  -0.00068405  0.88023594  1
  Te2-  Te171  1  0.50264076  0.50019671  0.88230432  1
  Te2-  Te172  1  0.33331941  0.16548920  0.21581004  1
  Te2-  Te173  1  0.33391111  0.66658868  0.21563851  1
  Te2-  Te174  1  0.83228116  0.16555845  0.21497510  1
  Te2-  Te175  1  0.83267885  0.66571379  0.21721740  1
  Te2-  Te176  1  0.16567588  0.33208982  0.55140820  1
  Te2-  Te177  1  0.16609552  0.83224911  0.55186074  1
  Te2-  Te178  1  0.66768504  0.33261439  0.55021201  1
  Te2-  Te179  1  0.66779512  0.83249783  0.54915795  1
  Te2-  Te180  1  0.32276118  0.41014931  0.71143101  1
  Te2-  Te181  1  0.32717078  0.91225990  0.70852663  1
  Te2-  Te182  1  0.82885972  0.41140381  0.70686913  1
  Te2-  Te183  1  0.82978827  0.91223834  0.70921861  1
  Te2-  Te184  1  0.08792311  0.17174872  0.71271664  1
  Te2-  Te185  1  0.08598218  0.67473331  0.70919464  1
  Te2-  Te186  1  0.59069860  0.17249337  0.70405125  1
  Te2-  Te187  1  0.58680056  0.67205304  0.70812341  1
  Te2-  Te188  1  0.08465918  0.41046492  0.71172059  1
  Te2-  Te189  1  0.08775628  0.91371436  0.71010486  1
  Te2-  Te190  1  0.59060076  0.41660445  0.70626886  1
  Te2-  Te191  1  0.58509456  0.90884961  0.70629445  1
  Te2-  Te192  1  0.16062350  0.07989512  0.04398204  1
  Te2-  Te193  1  0.15724335  0.57950318  0.04333728  1
  Te2-  Te194  1  0.66365660  0.08213850  0.04281748  1
  Te2-  Te195  1  0.66284219  0.58076197  0.04502656  1
  Te2-  Te196  1  0.42624425  0.34176897  0.04401390  1
  Te2-  Te197  1  0.42150285  0.84110871  0.04197832  1
  Te2-  Te198  1  0.92025147  0.33856665  0.04327247  1
  Te2-  Te199  1  0.91768020  0.83761498  0.04592625  1
  Te2-  Te200  1  0.41989551  0.08024547  0.04400763  1
  Te2-  Te201  1  0.42603415  0.58561228  0.04310615  1
  Te2-  Te202  1  0.92188894  0.08120520  0.04422059  1
  Te2-  Te203  1  0.91856293  0.57939477  0.04513705  1
  Te2-  Te204  1  0.49123633  0.24402068  0.37933161  1
  Te2-  Te205  1  0.49588908  0.74779995  0.37950174  1
  Te2-  Te206  1  0.99530581  0.24847285  0.37833964  1
  Te2-  Te207  1  0.99386345  0.74747218  0.37607534  1
  Te2-  Te208  1  0.25209970  0.00246240  0.38124672  1
  Te2-  Te209  1  0.25385916  0.50764244  0.38159831  1
  Te2-  Te210  1  0.75078257  0.00667198  0.37605975  1
  Te2-  Te211  1  0.75231189  0.50498792  0.37521763  1
  Te2-  Te212  1  0.25352627  0.24709944  0.38064221  1
  Te2-  Te213  1  0.25476282  0.74620952  0.37957118  1
  Te2-  Te214  1  0.74976452  0.24692117  0.37814032  1
  Te2-  Te215  1  0.75207552  0.74638739  0.37369700  1
