# generated using pymatgen
data_Ti(CuTe)4
_symmetry_space_group_name_H-M   'P 1'
_cell_length_a   16.88765264
_cell_length_b   16.89157506
_cell_length_c   20.71261474
_cell_angle_alpha   90.01121887
_cell_angle_beta   90.01802203
_cell_angle_gamma   120.00218201
_symmetry_Int_Tables_number   1
_chemical_formula_structural   Ti(CuTe)4
_chemical_formula_sum   'Ti24 Cu96 Te96'
_cell_volume   5116.76400404
_cell_formula_units_Z   24
loop_
 _symmetry_equiv_pos_site_id
 _symmetry_equiv_pos_as_xyz
  1  'x, y, z'
loop_
 _atom_type_symbol
 _atom_type_oxidation_number
  Ti4+  4.0
  Cu+  1.0
  Te2-  -2.0
loop_
 _atom_site_type_symbol
 _atom_site_label
 _atom_site_symmetry_multiplicity
 _atom_site_fract_x
 _atom_site_fract_y
 _atom_site_fract_z
 _atom_site_occupancy
  Ti4+  Ti0  1  0.00310844  0.00498296  0.25720176  1
  Ti4+  Ti1  1  0.00171019  0.50478102  0.26174744  1
  Ti4+  Ti2  1  0.50050952  -0.00052114  0.25513665  1
  Ti4+  Ti3  1  0.50419334  0.50245935  0.25412867  1
  Ti4+  Ti4  1  0.33301614  0.16416854  0.58854037  1
  Ti4+  Ti5  1  0.32949624  0.66292895  0.59102366  1
  Ti4+  Ti6  1  0.83059470  0.16368496  0.58900068  1
  Ti4+  Ti7  1  0.83180798  0.66564543  0.59497926  1
  Ti4+  Ti8  1  0.16681016  0.33489791  0.92382054  1
  Ti4+  Ti9  1  0.16395510  0.83033586  0.92478402  1
  Ti4+  Ti10  1  0.66730061  0.33297223  0.92721336  1
  Ti4+  Ti11  1  0.66718383  0.83398837  0.92381596  1
  Ti4+  Ti12  1  -0.00150775  -0.00106649  0.75514512  1
  Ti4+  Ti13  1  0.00050447  0.49930874  0.75569074  1
  Ti4+  Ti14  1  0.49880585  -0.00131647  0.75647454  1
  Ti4+  Ti15  1  0.49857428  0.49809825  0.75558832  1
  Ti4+  Ti16  1  0.33242507  0.16730782  0.08634602  1
  Ti4+  Ti17  1  0.33488078  0.66879100  0.08945083  1
  Ti4+  Ti18  1  0.83431163  0.16731404  0.08908059  1
  Ti4+  Ti19  1  0.83364211  0.66627740  0.08915335  1
  Ti4+  Ti20  1  0.16839665  0.33515677  0.41995387  1
  Ti4+  Ti21  1  0.16780882  0.83469336  0.42276672  1
  Ti4+  Ti22  1  0.66650579  0.33281165  0.42291776  1
  Ti4+  Ti23  1  0.66783363  0.83448288  0.42205005  1
  Cu+  Cu24  1  0.18838568  0.59371884  0.80890708  1
  Cu+  Cu25  1  0.51378575  0.25538872  0.14343368  1
  Cu+  Cu26  1  0.23842805  0.76239967  0.14131104  1
  Cu+  Cu27  1  0.74782229  0.48421105  0.14500985  1
  Cu+  Cu28  1  0.90696435  0.58571467  0.81401100  1
  Cu+  Cu29  1  0.90340304  0.81546496  0.81018345  1
  Cu+  Cu30  1  0.07091737  0.65167806  0.48130272  1
  Cu+  Cu31  1  0.52562060  0.76408357  0.13821965  1
  Cu+  Cu32  1  0.07135836  0.41915962  0.47738133  1
  Cu+  Cu33  1  0.56848863  0.13869556  0.47148258  1
  Cu+  Cu34  1  0.07370638  0.14667536  0.47431505  1
  Cu+  Cu35  1  0.24001872  0.26312271  0.13921339  1
  Cu+  Cu36  1  0.16354982  0.08850101  0.16950558  1
  Cu+  Cu37  1  0.16613757  0.59060454  0.17481391  1
  Cu+  Cu38  1  0.66488158  0.08231895  0.16918575  1
  Cu+  Cu39  1  0.66527206  0.57907598  0.16762693  1
  Cu+  Cu40  1  0.41878284  0.33767769  0.16649647  1
  Cu+  Cu41  1  0.41818613  0.83619199  0.16867298  1
  Cu+  Cu42  1  0.92083670  0.33678253  0.17390048  1
  Cu+  Cu43  1  0.92070389  0.83825611  0.17196257  1
  Cu+  Cu44  1  0.42106011  0.08229654  0.16797653  1
  Cu+  Cu45  1  0.42683716  0.58984522  0.16815351  1
  Cu+  Cu46  1  0.92109262  0.08484698  0.17049675  1
  Cu+  Cu47  1  0.92050043  0.58318557  0.17376204  1
  Cu+  Cu48  1  0.49766030  0.24285066  0.50313044  1
  Cu+  Cu49  1  0.49707664  0.74654863  0.50496406  1
  Cu+  Cu50  1  0.99572540  0.24561571  0.50193896  1
  Cu+  Cu51  1  0.99508058  0.74706742  0.50805826  1
  Cu+  Cu52  1  0.25357221  0.00526398  0.50231646  1
  Cu+  Cu53  1  0.24706086  0.50376710  0.50210540  1
  Cu+  Cu54  1  0.75016931  0.00252584  0.50200444  1
  Cu+  Cu55  1  0.75085105  0.50291592  0.50772247  1
  Cu+  Cu56  1  0.24938514  0.24480052  0.50144599  1
  Cu+  Cu57  1  0.24579736  0.74298771  0.50399957  1
  Cu+  Cu58  1  0.74417340  0.24212125  0.50239161  1
  Cu+  Cu59  1  0.75091924  0.74989025  0.50729821  1
  Cu+  Cu60  1  0.32933125  0.41313156  0.83755318  1
  Cu+  Cu61  1  0.32994686  0.91253963  0.83903880  1
  Cu+  Cu62  1  0.82748253  0.41412892  0.83945410  1
  Cu+  Cu63  1  0.82839314  0.91264146  0.83745725  1
  Cu+  Cu64  1  0.08370043  0.17020619  0.83796126  1
  Cu+  Cu65  1  0.08587193  0.66920487  0.83664114  1
  Cu+  Cu66  1  0.58421726  0.16766695  0.84113787  1
  Cu+  Cu67  1  0.58213453  0.66871902  0.83727667  1
  Cu+  Cu68  1  0.08988505  0.41856556  0.83671321  1
  Cu+  Cu69  1  0.07755937  0.91042238  0.83692182  1
  Cu+  Cu70  1  0.58496787  0.41532145  0.83963606  1
  Cu+  Cu71  1  0.58479409  0.91566050  0.83856846  1
  Cu+  Cu72  1  0.16886803  0.08511468  0.67354152  1
  Cu+  Cu73  1  0.16746876  0.58138934  0.68007082  1
  Cu+  Cu74  1  0.66640153  0.08298610  0.67529148  1
  Cu+  Cu75  1  0.66658893  0.58262117  0.67752498  1
  Cu+  Cu76  1  0.41533770  0.32837194  0.67192833  1
  Cu+  Cu77  1  0.41295883  0.82873209  0.67434063  1
  Cu+  Cu78  1  0.91352299  0.32784319  0.67365107  1
  Cu+  Cu79  1  0.91409630  0.82870339  0.68101748  1
  Cu+  Cu80  1  0.41625465  0.08354793  0.67501977  1
  Cu+  Cu81  1  0.41212368  0.57993579  0.67439915  1
  Cu+  Cu82  1  0.91574738  0.08407757  0.67334412  1
  Cu+  Cu83  1  0.91543675  0.58409516  0.68354620  1
  Cu+  Cu84  1  0.00216967  0.25222483  0.00706237  1
  Cu+  Cu85  1  -0.00033670  0.74817381  0.01014599  1
  Cu+  Cu86  1  0.50310069  0.25120419  0.01324398  1
  Cu+  Cu87  1  0.50527728  0.75345321  0.01042125  1
  Cu+  Cu88  1  0.24887470  0.49911976  0.00795388  1
  Cu+  Cu89  1  0.24607310  0.99608248  0.00667813  1
  Cu+  Cu90  1  0.74974648  0.49677193  0.01548745  1
  Cu+  Cu91  1  0.75085139  0.99939488  0.00693084  1
  Cu+  Cu92  1  0.24561149  0.25104626  0.01088953  1
  Cu+  Cu93  1  0.24614109  0.74977417  0.01319367  1
  Cu+  Cu94  1  0.75109540  0.25222915  0.00987996  1
  Cu+  Cu95  1  0.75021106  0.75210560  0.00835719  1
  Cu+  Cu96  1  0.34020475  0.42143807  0.33783886  1
  Cu+  Cu97  1  0.33557014  0.91854552  0.34040206  1
  Cu+  Cu98  1  0.83595439  0.42082635  0.34556361  1
  Cu+  Cu99  1  0.83787605  0.92021373  0.34165776  1
  Cu+  Cu100  1  0.08519446  0.16774166  0.34446672  1
  Cu+  Cu101  1  0.08234386  0.66733960  0.34954430  1
  Cu+  Cu102  1  0.58212692  0.16375589  0.34388825  1
  Cu+  Cu103  1  0.58692432  0.66733754  0.33997463  1
  Cu+  Cu104  1  0.08583683  0.42460865  0.34748176  1
  Cu+  Cu105  1  0.08518652  0.92212854  0.34102780  1
  Cu+  Cu106  1  0.58557938  0.41916383  0.34110249  1
  Cu+  Cu107  1  0.58392998  0.91636453  0.34001948  1
  Cu+  Cu108  1  -0.00269000  -0.00211029  0.11401164  1
  Cu+  Cu109  1  0.00292013  0.49782139  0.11941927  1
  Cu+  Cu110  1  0.50194249  0.00126499  0.11052316  1
  Cu+  Cu111  1  0.49983027  0.50140019  0.10915829  1
  Cu+  Cu112  1  0.33618569  0.17088964  0.44418141  1
  Cu+  Cu113  1  0.33800407  0.67101282  0.44740278  1
  Cu+  Cu114  1  0.83289523  0.16664372  0.44448099  1
  Cu+  Cu115  1  0.83064108  0.66774722  0.45246528  1
  Cu+  Cu116  1  0.16622171  0.32985404  0.77981101  1
  Cu+  Cu117  1  0.16964505  0.83954974  0.78182062  1
  Cu+  Cu118  1  0.66164479  0.32901552  0.78431952  1
  Cu+  Cu119  1  0.66299702  0.83219284  0.78060084  1
  Te2-  Te120  1  0.00148844  0.00166055  0.38777708  1
  Te2-  Te121  1  -0.00142624  0.50193594  0.39389592  1
  Te2-  Te122  1  0.49940681  -0.00393486  0.38516898  1
  Te2-  Te123  1  0.50367990  0.50238379  0.38263979  1
  Te2-  Te124  1  0.33300483  0.16513564  0.71742531  1
  Te2-  Te125  1  0.33426988  0.66548270  0.72125564  1
  Te2-  Te126  1  0.83151129  0.16388908  0.71779138  1
  Te2-  Te127  1  0.82911934  0.66349848  0.72722486  1
  Te2-  Te128  1  0.16494909  0.33613185  0.05469480  1
  Te2-  Te129  1  0.16362379  0.83402775  0.05536201  1
  Te2-  Te130  1  0.66794686  0.33099636  0.05970999  1
  Te2-  Te131  1  0.67151771  0.83680232  0.05449234  1
  Te2-  Te132  1  0.49662984  0.24817586  0.88577231  1
  Te2-  Te133  1  0.49526253  0.74838070  0.88383360  1
  Te2-  Te134  1  0.99582112  0.25073429  0.88140415  1
  Te2-  Te135  1  0.98814112  0.74168057  0.88435354  1
  Te2-  Te136  1  0.24662539  -0.00077221  0.88051675  1
  Te2-  Te137  1  0.25827186  0.50935678  0.88260881  1
  Te2-  Te138  1  0.75347652  0.00491052  0.88124377  1
  Te2-  Te139  1  0.75127300  0.50646356  0.88781256  1
  Te2-  Te140  1  0.25057996  0.24675602  0.88407917  1
  Te2-  Te141  1  0.25300960  0.74599997  0.88597171  1
  Te2-  Te142  1  0.75319749  0.24820877  0.88412709  1
  Te2-  Te143  1  0.74952569  0.74257691  0.88296359  1
  Te2-  Te144  1  0.33194805  0.42040720  0.21198784  1
  Te2-  Te145  1  0.32724472  0.91603615  0.21457746  1
  Te2-  Te146  1  0.82919455  0.41323356  0.21953527  1
  Te2-  Te147  1  0.83174420  0.91736530  0.21569218  1
  Te2-  Te148  1  0.08760356  0.17968504  0.21736317  1
  Te2-  Te149  1  0.08580372  0.67847291  0.22193940  1
  Te2-  Te150  1  0.58945954  0.17315054  0.21674249  1
  Te2-  Te151  1  0.59503441  0.67582338  0.21408702  1
  Te2-  Te152  1  0.08863132  0.42212972  0.21963816  1
  Te2-  Te153  1  0.08946281  0.92023319  0.21517963  1
  Te2-  Te154  1  0.58951634  0.41101277  0.21535603  1
  Te2-  Te155  1  0.58889442  0.91508908  0.21412423  1
  Te2-  Te156  1  0.15809083  0.07598910  0.54808394  1
  Te2-  Te157  1  0.15184067  0.57469206  0.55286284  1
  Te2-  Te158  1  0.65634531  0.07447421  0.54915591  1
  Te2-  Te159  1  0.66150346  0.58128977  0.55155362  1
  Te2-  Te160  1  0.41857791  0.33429872  0.54557297  1
  Te2-  Te161  1  0.41397486  0.83281248  0.54803564  1
  Te2-  Te162  1  0.91370837  0.33605060  0.54757347  1
  Te2-  Te163  1  0.91798249  0.83632247  0.55384667  1
  Te2-  Te164  1  0.41844973  0.07426624  0.54932539  1
  Te2-  Te165  1  0.41407219  0.57732339  0.54826950  1
  Te2-  Te166  1  0.91733949  0.07700731  0.54754882  1
  Te2-  Te167  1  0.91690873  0.57724443  0.55565987  1
  Te2-  Te168  1  -0.00120114  0.00089810  0.88213227  1
  Te2-  Te169  1  -0.00039805  0.49843133  0.88308498  1
  Te2-  Te170  1  0.49875960  -0.00175767  0.88305230  1
  Te2-  Te171  1  0.49876614  0.49928151  0.88191179  1
  Te2-  Te172  1  0.33520054  0.16732761  0.21376764  1
  Te2-  Te173  1  0.33696400  0.66782987  0.21676649  1
  Te2-  Te174  1  0.83417664  0.16700674  0.21536317  1
  Te2-  Te175  1  0.83440213  0.66859730  0.21603144  1
  Te2-  Te176  1  0.16714447  0.33253326  0.54738268  1
  Te2-  Te177  1  0.16738160  0.83490307  0.54957594  1
  Te2-  Te178  1  0.66592590  0.33214566  0.54967644  1
  Te2-  Te179  1  0.66553813  0.83390751  0.54850937  1
  Te2-  Te180  1  0.32732752  0.41018824  0.71090378  1
  Te2-  Te181  1  0.32782749  0.91312387  0.71193738  1
  Te2-  Te182  1  0.82635600  0.41039909  0.71247476  1
  Te2-  Te183  1  0.82572294  0.91378941  0.71027988  1
  Te2-  Te184  1  0.08501398  0.17058170  0.71095174  1
  Te2-  Te185  1  0.08835748  0.67453498  0.71039897  1
  Te2-  Te186  1  0.58510090  0.17054407  0.71386019  1
  Te2-  Te187  1  0.58280671  0.66999011  0.71109346  1
  Te2-  Te188  1  0.08314716  0.40898331  0.71011105  1
  Te2-  Te189  1  0.08713353  0.91481347  0.71004245  1
  Te2-  Te190  1  0.58466426  0.41191249  0.71275429  1
  Te2-  Te191  1  0.58331389  0.91255033  0.71151962  1
  Te2-  Te192  1  0.15861270  0.07865327  0.04276754  1
  Te2-  Te193  1  0.16036697  0.57902870  0.04726817  1
  Te2-  Te194  1  0.66286280  0.08143691  0.04332186  1
  Te2-  Te195  1  0.66098781  0.58188428  0.04179230  1
  Te2-  Te196  1  0.41912732  0.34073307  0.03962795  1
  Te2-  Te197  1  0.41987750  0.84083009  0.04149634  1
  Te2-  Te198  1  0.92078012  0.33971384  0.04684755  1
  Te2-  Te199  1  0.91962434  0.83842720  0.04509224  1
  Te2-  Te200  1  0.41676617  0.07783904  0.04139593  1
  Te2-  Te201  1  0.41929617  0.58123031  0.04176640  1
  Te2-  Te202  1  0.92061772  0.08244639  0.04416887  1
  Te2-  Te203  1  0.92211394  0.57964347  0.04710416  1
  Te2-  Te204  1  0.49519748  0.24888103  0.37572520  1
  Te2-  Te205  1  0.49686631  0.74705141  0.37738848  1
  Te2-  Te206  1  0.99458798  0.25037892  0.37418741  1
  Te2-  Te207  1  0.99413437  0.75196618  0.38023706  1
  Te2-  Te208  1  0.25463884  0.00691212  0.37703307  1
  Te2-  Te209  1  0.25855299  0.50921918  0.37598007  1
  Te2-  Te210  1  0.75348642  0.00597596  0.37621020  1
  Te2-  Te211  1  0.75334193  0.50705511  0.38152895  1
  Te2-  Te212  1  0.25773902  0.25184470  0.37428503  1
  Te2-  Te213  1  0.25543204  0.74920354  0.37729317  1
  Te2-  Te214  1  0.75472222  0.24885727  0.37604459  1
  Te2-  Te215  1  0.75568108  0.75036120  0.37987947  1
