# generated using pymatgen
data_Ti(CuTe)4
_symmetry_space_group_name_H-M   'P 1'
_cell_length_a   16.89316692
_cell_length_b   16.89065549
_cell_length_c   20.71220359
_cell_angle_alpha   89.96800960
_cell_angle_beta   90.01269172
_cell_angle_gamma   120.00662790
_symmetry_Int_Tables_number   1
_chemical_formula_structural   Ti(CuTe)4
_chemical_formula_sum   'Ti24 Cu96 Te96'
_cell_volume   5117.82507368
_cell_formula_units_Z   24
loop_
 _symmetry_equiv_pos_site_id
 _symmetry_equiv_pos_as_xyz
  1  'x, y, z'
loop_
 _atom_type_symbol
 _atom_type_oxidation_number
  Ti4+  4.0
  Cu+  1.0
  Te2-  -2.0
loop_
 _atom_site_type_symbol
 _atom_site_label
 _atom_site_symmetry_multiplicity
 _atom_site_fract_x
 _atom_site_fract_y
 _atom_site_fract_z
 _atom_site_occupancy
  Ti4+  Ti0  1  -0.00086252  0.00306213  0.25971144  1
  Ti4+  Ti1  1  -0.00114630  0.50135412  0.25852325  1
  Ti4+  Ti2  1  0.49738252  -0.00126598  0.25711756  1
  Ti4+  Ti3  1  0.49858815  0.49823164  0.25425878  1
  Ti4+  Ti4  1  0.33542570  0.16602790  0.59130735  1
  Ti4+  Ti5  1  0.33213316  0.66690719  0.58926579  1
  Ti4+  Ti6  1  0.83446988  0.16797217  0.59291013  1
  Ti4+  Ti7  1  0.83612637  0.66909549  0.59007198  1
  Ti4+  Ti8  1  0.16870638  0.33535293  0.92378704  1
  Ti4+  Ti9  1  0.16298342  0.83144145  0.92565696  1
  Ti4+  Ti10  1  0.66904466  0.33093811  0.92917782  1
  Ti4+  Ti11  1  0.66674349  0.83214930  0.92048541  1
  Ti4+  Ti12  1  0.00047945  -0.00277855  0.75507090  1
  Ti4+  Ti13  1  0.00080335  0.50042531  0.75691385  1
  Ti4+  Ti14  1  0.50296939  0.00109660  0.75677268  1
  Ti4+  Ti15  1  0.49908686  0.50047372  0.75530638  1
  Ti4+  Ti16  1  0.33242341  0.16726961  0.08628400  1
  Ti4+  Ti17  1  0.33263083  0.66802566  0.08858374  1
  Ti4+  Ti18  1  0.83372596  0.16432319  0.08866037  1
  Ti4+  Ti19  1  0.83288918  0.66554130  0.08905229  1
  Ti4+  Ti20  1  0.16608322  0.33398581  0.42200815  1
  Ti4+  Ti21  1  0.16675278  0.83328158  0.41946799  1
  Ti4+  Ti22  1  0.66536010  0.33298896  0.42320075  1
  Ti4+  Ti23  1  0.66695747  0.83388998  0.42187933  1
  Cu+  Cu24  1  0.74486675  0.25376991  0.14773328  1
  Cu+  Cu25  1  0.74399341  0.48787445  0.14809944  1
  Cu+  Cu26  1  0.90528424  0.80675479  0.80726317  1
  Cu+  Cu27  1  0.69321841  0.09733022  0.80912543  1
  Cu+  Cu28  1  0.08237968  0.92667514  0.47784882  1
  Cu+  Cu29  1  0.07434195  0.64852161  0.47567229  1
  Cu+  Cu30  1  0.85064157  0.93037817  0.47762094  1
  Cu+  Cu31  1  0.40264934  0.59502270  0.80527994  1
  Cu+  Cu32  1  0.23572721  0.25994288  0.13855670  1
  Cu+  Cu33  1  0.50685428  0.25304275  0.14754324  1
  Cu+  Cu34  1  0.35250845  0.92619389  0.47536704  1
  Cu+  Cu35  1  0.23575763  0.76235608  0.14103116  1
  Cu+  Cu36  1  0.16177505  0.08645925  0.17045100  1
  Cu+  Cu37  1  0.16496778  0.58869262  0.17217657  1
  Cu+  Cu38  1  0.66281326  0.08036767  0.16973237  1
  Cu+  Cu39  1  0.66203662  0.57907210  0.16843465  1
  Cu+  Cu40  1  0.41524391  0.33783855  0.16537367  1
  Cu+  Cu41  1  0.41124773  0.83483179  0.17092281  1
  Cu+  Cu42  1  0.91759445  0.33514442  0.17104484  1
  Cu+  Cu43  1  0.91603113  0.83724074  0.17412700  1
  Cu+  Cu44  1  0.41865617  0.07916058  0.16773555  1
  Cu+  Cu45  1  0.41851932  0.58192244  0.16872737  1
  Cu+  Cu46  1  0.91721020  0.07938504  0.17113844  1
  Cu+  Cu47  1  0.91735050  0.57971281  0.17128221  1
  Cu+  Cu48  1  0.49765849  0.24758716  0.50508010  1
  Cu+  Cu49  1  0.49657633  0.74751352  0.50333722  1
  Cu+  Cu50  1  0.99734707  0.25168211  0.50492452  1
  Cu+  Cu51  1  0.99530220  0.74788918  0.50043061  1
  Cu+  Cu52  1  0.25725514  0.00716301  0.50203158  1
  Cu+  Cu53  1  0.25093444  0.50280258  0.50299820  1
  Cu+  Cu54  1  0.75301873  0.00507947  0.50626998  1
  Cu+  Cu55  1  0.75217863  0.50250902  0.50469916  1
  Cu+  Cu56  1  0.25158709  0.25010188  0.50444878  1
  Cu+  Cu57  1  0.25223658  0.74705485  0.50003995  1
  Cu+  Cu58  1  0.74976758  0.24845775  0.50704882  1
  Cu+  Cu59  1  0.75614223  0.75474612  0.50315942  1
  Cu+  Cu60  1  0.33085896  0.41972075  0.83732532  1
  Cu+  Cu61  1  0.33083789  0.91433637  0.84093333  1
  Cu+  Cu62  1  0.83149398  0.41431125  0.84094445  1
  Cu+  Cu63  1  0.83092393  0.90843690  0.83411480  1
  Cu+  Cu64  1  0.08742888  0.16836671  0.83879479  1
  Cu+  Cu65  1  0.08514167  0.66920336  0.83966320  1
  Cu+  Cu66  1  0.59124265  0.16877287  0.84138428  1
  Cu+  Cu67  1  0.57933794  0.66895713  0.83433902  1
  Cu+  Cu68  1  0.08554694  0.41459811  0.83749012  1
  Cu+  Cu69  1  0.07875086  0.90770628  0.83776891  1
  Cu+  Cu70  1  0.58507250  0.41463539  0.84190788  1
  Cu+  Cu71  1  0.59144365  0.92047202  0.83489267  1
  Cu+  Cu72  1  0.17212224  0.08332675  0.67539880  1
  Cu+  Cu73  1  0.16689756  0.58419953  0.67418743  1
  Cu+  Cu74  1  0.67253989  0.08709908  0.67999982  1
  Cu+  Cu75  1  0.66869508  0.58367434  0.67391421  1
  Cu+  Cu76  1  0.41659585  0.33052077  0.67537738  1
  Cu+  Cu77  1  0.41533058  0.83254446  0.67349138  1
  Cu+  Cu78  1  0.91534147  0.33276503  0.67662017  1
  Cu+  Cu79  1  0.91840626  0.83110377  0.67834894  1
  Cu+  Cu80  1  0.41763522  0.08459660  0.67639607  1
  Cu+  Cu81  1  0.41275152  0.58378291  0.67720739  1
  Cu+  Cu82  1  0.91748344  0.08508543  0.67628671  1
  Cu+  Cu83  1  0.91848714  0.58504540  0.67641467  1
  Cu+  Cu84  1  0.00378178  0.24806329  0.00789259  1
  Cu+  Cu85  1  -0.00103742  0.75017269  0.00981984  1
  Cu+  Cu86  1  0.50336641  0.24848925  0.01453901  1
  Cu+  Cu87  1  0.50217341  0.75204123  0.00469915  1
  Cu+  Cu88  1  0.25031854  0.49994638  0.00808794  1
  Cu+  Cu89  1  0.24546632  0.99695067  0.00660769  1
  Cu+  Cu90  1  0.74973101  0.49506356  0.01647020  1
  Cu+  Cu91  1  0.75175661  0.99628448  0.00564338  1
  Cu+  Cu92  1  0.24903316  0.25310910  0.00978623  1
  Cu+  Cu93  1  0.24641577  0.75340189  0.01348497  1
  Cu+  Cu94  1  0.74998864  0.24819108  0.01620425  1
  Cu+  Cu95  1  0.74927381  0.75076947  0.00527385  1
  Cu+  Cu96  1  0.33410621  0.41608859  0.33912087  1
  Cu+  Cu97  1  0.33492763  0.91763736  0.34515693  1
  Cu+  Cu98  1  0.83326844  0.41671955  0.34528343  1
  Cu+  Cu99  1  0.83584847  0.91961443  0.34804476  1
  Cu+  Cu100  1  0.08171326  0.16763241  0.34288254  1
  Cu+  Cu101  1  0.08069808  0.66413612  0.34589386  1
  Cu+  Cu102  1  0.58102006  0.16447777  0.34383771  1
  Cu+  Cu103  1  0.58125373  0.66212973  0.33850399  1
  Cu+  Cu104  1  0.08211327  0.41957851  0.34138637  1
  Cu+  Cu105  1  0.08083677  0.92020803  0.34596443  1
  Cu+  Cu106  1  0.58079623  0.41562445  0.34118546  1
  Cu+  Cu107  1  0.58021296  0.91607613  0.34030639  1
  Cu+  Cu108  1  -0.00169191  -0.00415473  0.11524851  1
  Cu+  Cu109  1  0.00355896  0.49688259  0.11576773  1
  Cu+  Cu110  1  0.50166230  -0.00401984  0.11299983  1
  Cu+  Cu111  1  0.50058525  0.50434249  0.10879169  1
  Cu+  Cu112  1  0.33572092  0.17396507  0.44777435  1
  Cu+  Cu113  1  0.33645630  0.66423711  0.44454652  1
  Cu+  Cu114  1  0.83242182  0.16914183  0.45028363  1
  Cu+  Cu115  1  0.82553172  0.66288123  0.44674193  1
  Cu+  Cu116  1  0.16433473  0.32911392  0.78101877  1
  Cu+  Cu117  1  0.17158384  0.83428012  0.78322571  1
  Cu+  Cu118  1  0.66593241  0.33540260  0.78624622  1
  Cu+  Cu119  1  0.66641760  0.83208276  0.77582415  1
  Te2-  Te120  1  0.00158578  0.00512700  0.39206315  1
  Te2-  Te121  1  -0.00195163  0.49822595  0.38866528  1
  Te2-  Te122  1  0.50111123  -0.00015650  0.38735236  1
  Te2-  Te123  1  0.49841589  0.49834458  0.38291719  1
  Te2-  Te124  1  0.33575172  0.16682871  0.72039533  1
  Te2-  Te125  1  0.33090211  0.66886762  0.71951567  1
  Te2-  Te126  1  0.83866259  0.16947197  0.72349096  1
  Te2-  Te127  1  0.83246037  0.66384841  0.71999655  1
  Te2-  Te128  1  0.16660167  0.33640042  0.05445753  1
  Te2-  Te129  1  0.16217462  0.83560681  0.05668762  1
  Te2-  Te130  1  0.66697294  0.33011378  0.06262698  1
  Te2-  Te131  1  0.66619562  0.83191441  0.04922384  1
  Te2-  Te132  1  0.49938177  0.24563999  0.88639164  1
  Te2-  Te133  1  0.49337988  0.75190711  0.87906540  1
  Te2-  Te134  1  0.99743718  0.24676156  0.88211671  1
  Te2-  Te135  1  0.98858583  0.73954463  0.88447357  1
  Te2-  Te136  1  0.24768305  0.00152866  0.88105482  1
  Te2-  Te137  1  0.25213330  0.50972340  0.88263266  1
  Te2-  Te138  1  0.76022929  0.00573606  0.88002640  1
  Te2-  Te139  1  0.75256783  0.50169407  0.88846924  1
  Te2-  Te140  1  0.25560092  0.25116925  0.88293497  1
  Te2-  Te141  1  0.25109506  0.74741275  0.88673591  1
  Te2-  Te142  1  0.75929578  0.24777577  0.88837893  1
  Te2-  Te143  1  0.74797522  0.73986271  0.87969871  1
  Te2-  Te144  1  0.32531842  0.41437770  0.21334962  1
  Te2-  Te145  1  0.32363416  0.91581530  0.21773216  1
  Te2-  Te146  1  0.82254449  0.41038622  0.21911712  1
  Te2-  Te147  1  0.82713465  0.91504772  0.22072390  1
  Te2-  Te148  1  0.08358799  0.17655980  0.21703269  1
  Te2-  Te149  1  0.08239113  0.67491889  0.21875499  1
  Te2-  Te150  1  0.58690223  0.17482571  0.21758086  1
  Te2-  Te151  1  0.58611194  0.66950053  0.21270748  1
  Te2-  Te152  1  0.08513617  0.41862213  0.21500643  1
  Te2-  Te153  1  0.08518662  0.91874161  0.21769150  1
  Te2-  Te154  1  0.58597546  0.40883703  0.21563646  1
  Te2-  Te155  1  0.58109566  0.91315167  0.21406474  1
  Te2-  Te156  1  0.16220702  0.08190502  0.54953851  1
  Te2-  Te157  1  0.15873674  0.57811901  0.54827630  1
  Te2-  Te158  1  0.66289254  0.08136608  0.55286379  1
  Te2-  Te159  1  0.66644640  0.58571447  0.54751992  1
  Te2-  Te160  1  0.41948378  0.33711225  0.54922530  1
  Te2-  Te161  1  0.42139772  0.84020159  0.54768653  1
  Te2-  Te162  1  0.91790802  0.33909319  0.55076282  1
  Te2-  Te163  1  0.92520771  0.84542363  0.55090814  1
  Te2-  Te164  1  0.42426822  0.08060262  0.55040618  1
  Te2-  Te165  1  0.41740897  0.58088590  0.54986827  1
  Te2-  Te166  1  0.92418151  0.08440848  0.55046908  1
  Te2-  Te167  1  0.92017509  0.58003772  0.54991102  1
  Te2-  Te168  1  -0.00040864  -0.00151165  0.88173430  1
  Te2-  Te169  1  0.00160753  0.49936380  0.88316920  1
  Te2-  Te170  1  0.50072678  -0.00218620  0.88351234  1
  Te2-  Te171  1  0.50056714  0.50074287  0.88213464  1
  Te2-  Te172  1  0.33358503  0.16657063  0.21392418  1
  Te2-  Te173  1  0.33442133  0.66604277  0.21533638  1
  Te2-  Te174  1  0.83251650  0.16468705  0.21596353  1
  Te2-  Te175  1  0.83188212  0.66620819  0.21608273  1
  Te2-  Te176  1  0.16712794  0.33454106  0.54840360  1
  Te2-  Te177  1  0.16769226  0.83388736  0.54749827  1
  Te2-  Te178  1  0.66634902  0.33416519  0.54967781  1
  Te2-  Te179  1  0.66586993  0.83352987  0.54886151  1
  Te2-  Te180  1  0.32681192  0.41151649  0.71032754  1
  Te2-  Te181  1  0.33053629  0.91530441  0.71356236  1
  Te2-  Te182  1  0.82809001  0.41497727  0.71442436  1
  Te2-  Te183  1  0.82825213  0.91409104  0.70778840  1
  Te2-  Te184  1  0.08791259  0.16967547  0.71191659  1
  Te2-  Te185  1  0.08752724  0.67309665  0.71322235  1
  Te2-  Te186  1  0.58766245  0.17435372  0.71392462  1
  Te2-  Te187  1  0.58617432  0.67179692  0.70742533  1
  Te2-  Te188  1  0.08608600  0.41434274  0.71141124  1
  Te2-  Te189  1  0.09002067  0.91353586  0.71088712  1
  Te2-  Te190  1  0.58619039  0.41469024  0.71403864  1
  Te2-  Te191  1  0.58588243  0.91323747  0.70823170  1
  Te2-  Te192  1  0.15897386  0.08041398  0.04311894  1
  Te2-  Te193  1  0.16040228  0.58014543  0.04446017  1
  Te2-  Te194  1  0.66101391  0.07516124  0.04270787  1
  Te2-  Te195  1  0.66129109  0.58081911  0.04156454  1
  Te2-  Te196  1  0.42206377  0.34115310  0.03901261  1
  Te2-  Te197  1  0.41991978  0.83930492  0.04303099  1
  Te2-  Te198  1  0.92312134  0.33775538  0.04409430  1
  Te2-  Te199  1  0.91705400  0.83778086  0.04643421  1
  Te2-  Te200  1  0.41555801  0.07559186  0.04199114  1
  Te2-  Te201  1  0.41948313  0.58338133  0.04243951  1
  Te2-  Te202  1  0.92025396  0.07868521  0.04504763  1
  Te2-  Te203  1  0.92221392  0.58036510  0.04540345  1
  Te2-  Te204  1  0.49353937  0.24664451  0.37843811  1
  Te2-  Te205  1  0.49575348  0.74623955  0.37656095  1
  Te2-  Te206  1  0.99358783  0.24957746  0.37858605  1
  Te2-  Te207  1  0.99117902  0.74739405  0.37439594  1
  Te2-  Te208  1  0.25356471  0.00874114  0.37512822  1
  Te2-  Te209  1  0.25260873  0.50475679  0.37627959  1
  Te2-  Te210  1  0.75004777  0.00708292  0.37845216  1
  Te2-  Te211  1  0.75056939  0.50447509  0.37800869  1
  Te2-  Te212  1  0.25168315  0.24759785  0.37762292  1
  Te2-  Te213  1  0.25354293  0.74516497  0.37358932  1
  Te2-  Te214  1  0.75094722  0.24635019  0.38007636  1
  Te2-  Te215  1  0.75092292  0.74583257  0.37592890  1
