# generated using pymatgen
data_Ti(CuTe)4
_symmetry_space_group_name_H-M   'P 1'
_cell_length_a   16.86705477
_cell_length_b   16.87008535
_cell_length_c   20.68256531
_cell_angle_alpha   90.01386093
_cell_angle_beta   90.01283516
_cell_angle_gamma   119.99840183
_symmetry_Int_Tables_number   1
_chemical_formula_structural   Ti(CuTe)4
_chemical_formula_sum   'Ti24 Cu96 Te96'
_cell_volume   5096.81086108
_cell_formula_units_Z   24
loop_
 _symmetry_equiv_pos_site_id
 _symmetry_equiv_pos_as_xyz
  1  'x, y, z'
loop_
 _atom_type_symbol
 _atom_type_oxidation_number
  Ti4+  4.0
  Cu+  1.0
  Te2-  -2.0
loop_
 _atom_site_type_symbol
 _atom_site_label
 _atom_site_symmetry_multiplicity
 _atom_site_fract_x
 _atom_site_fract_y
 _atom_site_fract_z
 _atom_site_occupancy
  Ti4+  Ti0  1  -0.00239935  -0.00200163  0.25789186  1
  Ti4+  Ti1  1  -0.00166433  0.49619669  0.25792189  1
  Ti4+  Ti2  1  0.49980651  0.00052302  0.25601551  1
  Ti4+  Ti3  1  0.49556201  0.49821109  0.26168138  1
  Ti4+  Ti4  1  0.33551725  0.16814094  0.59132421  1
  Ti4+  Ti5  1  0.33493316  0.66811462  0.59416732  1
  Ti4+  Ti6  1  0.83752096  0.16830905  0.59088297  1
  Ti4+  Ti7  1  0.83212350  0.66561955  0.58851987  1
  Ti4+  Ti8  1  0.16715298  0.33283601  0.92509609  1
  Ti4+  Ti9  1  0.16576833  0.82977573  0.92053592  1
  Ti4+  Ti10  1  0.66591377  0.33645325  0.92461313  1
  Ti4+  Ti11  1  0.66920597  0.83750532  0.92570208  1
  Ti4+  Ti12  1  -0.00084616  0.00182865  0.75552344  1
  Ti4+  Ti13  1  0.00156966  0.50359402  0.75546210  1
  Ti4+  Ti14  1  0.50211269  -0.00068875  0.75363755  1
  Ti4+  Ti15  1  0.50051281  0.49777727  0.75691659  1
  Ti4+  Ti16  1  0.33401688  0.16710366  0.08855544  1
  Ti4+  Ti17  1  0.33266869  0.66403900  0.08997749  1
  Ti4+  Ti18  1  0.83169270  0.16722052  0.08841136  1
  Ti4+  Ti19  1  0.83382249  0.66827305  0.09080628  1
  Ti4+  Ti20  1  0.16517159  0.33218715  0.42343855  1
  Ti4+  Ti21  1  0.16631332  0.83200867  0.42222521  1
  Ti4+  Ti22  1  0.66708588  0.33446717  0.42195626  1
  Ti4+  Ti23  1  0.66746473  0.83376564  0.42229689  1
  Cu+  Cu24  1  0.57078816  0.65243307  0.47729779  1
  Cu+  Cu25  1  0.73622817  0.26146812  0.14006901  1
  Cu+  Cu26  1  0.18341049  0.58749695  0.81055575  1
  Cu+  Cu27  1  0.41527765  0.81704876  0.81034792  1
  Cu+  Cu28  1  0.40282524  0.30669242  0.80760965  1
  Cu+  Cu29  1  0.85851381  0.92872794  0.47290578  1
  Cu+  Cu30  1  0.90413880  0.09862397  0.80799001  1
  Cu+  Cu31  1  0.90309564  0.59587014  0.80501612  1
  Cu+  Cu32  1  0.85784537  0.42822307  0.47358136  1
  Cu+  Cu33  1  0.23583981  0.47125238  0.14085333  1
  Cu+  Cu34  1  0.57248026  0.42182609  0.47709970  1
  Cu+  Cu35  1  0.73812521  0.97921426  0.14258787  1
  Cu+  Cu36  1  0.16446126  0.08124529  0.17155659  1
  Cu+  Cu37  1  0.16473514  0.57513860  0.17144077  1
  Cu+  Cu38  1  0.66258989  0.08224983  0.16860714  1
  Cu+  Cu39  1  0.66379039  0.58378871  0.17659328  1
  Cu+  Cu40  1  0.41745253  0.33601779  0.17337859  1
  Cu+  Cu41  1  0.41713712  0.83678352  0.17047180  1
  Cu+  Cu42  1  0.91345011  0.33673277  0.16966429  1
  Cu+  Cu43  1  0.91736540  0.83653623  0.17192061  1
  Cu+  Cu44  1  0.41643112  0.07984897  0.16922570  1
  Cu+  Cu45  1  0.41109214  0.57599581  0.17384599  1
  Cu+  Cu46  1  0.91399365  0.07618639  0.17074917  1
  Cu+  Cu47  1  0.91619055  0.58079340  0.17235784  1
  Cu+  Cu48  1  0.49471592  0.24995891  0.50366468  1
  Cu+  Cu49  1  0.49507343  0.74790839  0.50614857  1
  Cu+  Cu50  1  0.99763933  0.24627804  0.50455309  1
  Cu+  Cu51  1  0.99655839  0.74546101  0.50197509  1
  Cu+  Cu52  1  0.25247269  0.00213654  0.50518732  1
  Cu+  Cu53  1  0.24911196  0.50191435  0.50683714  1
  Cu+  Cu54  1  0.75882895  0.00417375  0.50374850  1
  Cu+  Cu55  1  0.75173747  0.50171891  0.50148171  1
  Cu+  Cu56  1  0.25307089  0.25076189  0.50487789  1
  Cu+  Cu57  1  0.25332670  0.75071389  0.50761669  1
  Cu+  Cu58  1  0.75804351  0.25440408  0.50392377  1
  Cu+  Cu59  1  0.75206398  0.75103908  0.50056111  1
  Cu+  Cu60  1  0.33293179  0.41136002  0.83837901  1
  Cu+  Cu61  1  0.33225360  0.91207450  0.83320113  1
  Cu+  Cu62  1  0.83063325  0.42227209  0.83818103  1
  Cu+  Cu63  1  0.83239073  0.92262778  0.83851773  1
  Cu+  Cu64  1  0.07955565  0.16880910  0.83740644  1
  Cu+  Cu65  1  0.08428759  0.67074598  0.83295190  1
  Cu+  Cu66  1  0.58720872  0.17164201  0.83684398  1
  Cu+  Cu67  1  0.58768751  0.66994772  0.83907045  1
  Cu+  Cu68  1  0.08867990  0.41734567  0.83816693  1
  Cu+  Cu69  1  0.08366139  0.91280498  0.83482627  1
  Cu+  Cu70  1  0.58020743  0.41120724  0.83674762  1
  Cu+  Cu71  1  0.58731581  0.91486580  0.83678101  1
  Cu+  Cu72  1  0.16996601  0.08586602  0.67348363  1
  Cu+  Cu73  1  0.17132391  0.58750279  0.68094271  1
  Cu+  Cu74  1  0.67146967  0.08493568  0.67148646  1
  Cu+  Cu75  1  0.66620958  0.58250872  0.67519339  1
  Cu+  Cu76  1  0.41691579  0.32957501  0.68024514  1
  Cu+  Cu77  1  0.41850679  0.83061101  0.68020644  1
  Cu+  Cu78  1  0.91879566  0.33430183  0.67502766  1
  Cu+  Cu79  1  0.91453266  0.83273431  0.67290477  1
  Cu+  Cu80  1  0.41966735  0.08734074  0.67285186  1
  Cu+  Cu81  1  0.41815868  0.58386567  0.67709336  1
  Cu+  Cu82  1  0.91528164  0.08555748  0.68044719  1
  Cu+  Cu83  1  0.91324702  0.58365269  0.67809472  1
  Cu+  Cu84  1  0.00133323  0.25186367  0.01028045  1
  Cu+  Cu85  1  0.00100014  0.74962806  0.00703640  1
  Cu+  Cu86  1  0.50047148  0.25198908  0.00903368  1
  Cu+  Cu87  1  0.50225251  0.75163750  0.01083175  1
  Cu+  Cu88  1  0.25060470  0.49602751  0.01340065  1
  Cu+  Cu89  1  0.24901967  0.99575797  0.00356732  1
  Cu+  Cu90  1  0.74870597  0.50257763  0.00879371  1
  Cu+  Cu91  1  0.74941511  0.99993465  0.01327286  1
  Cu+  Cu92  1  0.25139905  0.25043256  0.00932684  1
  Cu+  Cu93  1  0.24903927  0.74839802  0.00716506  1
  Cu+  Cu94  1  0.74950235  0.25706089  0.01126637  1
  Cu+  Cu95  1  0.75145187  0.75457030  0.00927931  1
  Cu+  Cu96  1  0.33084658  0.41690963  0.34502036  1
  Cu+  Cu97  1  0.33626501  0.91707812  0.34009699  1
  Cu+  Cu98  1  0.83602694  0.41686024  0.34587741  1
  Cu+  Cu99  1  0.83603636  0.91859789  0.34524352  1
  Cu+  Cu100  1  0.08061009  0.16294648  0.34053053  1
  Cu+  Cu101  1  0.08427336  0.66354756  0.34021205  1
  Cu+  Cu102  1  0.58148519  0.16418830  0.33984395  1
  Cu+  Cu103  1  0.57764025  0.66299515  0.34770033  1
  Cu+  Cu104  1  0.08043860  0.41394513  0.34254426  1
  Cu+  Cu105  1  0.08122190  0.91503960  0.34096752  1
  Cu+  Cu106  1  0.57990703  0.41830450  0.34795727  1
  Cu+  Cu107  1  0.58268668  0.91952718  0.34051617  1
  Cu+  Cu108  1  0.00484666  0.00073510  0.11465647  1
  Cu+  Cu109  1  0.00337434  0.50739502  0.11471423  1
  Cu+  Cu110  1  0.49652312  -0.00163541  0.11072958  1
  Cu+  Cu111  1  0.50363049  0.50182322  0.11949083  1
  Cu+  Cu112  1  0.32654834  0.16142096  0.44791347  1
  Cu+  Cu113  1  0.32831612  0.66468532  0.45122676  1
  Cu+  Cu114  1  0.83063891  0.16602519  0.44704628  1
  Cu+  Cu115  1  0.83473411  0.66850602  0.44318920  1
  Cu+  Cu116  1  0.16851610  0.33291486  0.78145407  1
  Cu+  Cu117  1  0.16971694  0.84065386  0.77476713  1
  Cu+  Cu118  1  0.66785180  0.33233286  0.78039764  1
  Cu+  Cu119  1  0.66939674  0.83006442  0.78161675  1
  Te2-  Te120  1  0.00257617  -0.00019441  0.38831147  1
  Te2-  Te121  1  0.00273276  0.50042564  0.38822442  1
  Te2-  Te122  1  0.50017339  0.00074115  0.38537060  1
  Te2-  Te123  1  0.49424262  0.49798680  0.39374071  1
  Te2-  Te124  1  0.33259320  0.16252778  0.72184356  1
  Te2-  Te125  1  0.33685846  0.66543391  0.72617514  1
  Te2-  Te126  1  0.83333034  0.17069988  0.72144247  1
  Te2-  Te127  1  0.83114481  0.66882799  0.71870259  1
  Te2-  Te128  1  0.16556279  0.32868402  0.05526263  1
  Te2-  Te129  1  0.16679399  0.83168894  0.04927873  1
  Te2-  Te130  1  0.66467780  0.33825081  0.05494208  1
  Te2-  Te131  1  0.66653525  0.83349475  0.05598477  1
  Te2-  Te132  1  0.49209186  0.24324643  0.88310194  1
  Te2-  Te133  1  0.49591413  0.74512058  0.88475326  1
  Te2-  Te134  1  0.99351296  0.25132894  0.88420123  1
  Te2-  Te135  1  0.99140304  0.74638459  0.88085074  1
  Te2-  Te136  1  0.25227727  0.00045827  0.87755064  1
  Te2-  Te137  1  0.25899780  0.50559174  0.88553011  1
  Te2-  Te138  1  0.75217550  0.01116585  0.88536033  1
  Te2-  Te139  1  0.74830823  0.50959502  0.88252551  1
  Te2-  Te140  1  0.24846253  0.24166385  0.88312073  1
  Te2-  Te141  1  0.25505539  0.74310368  0.88095774  1
  Te2-  Te142  1  0.75439259  0.25394801  0.88357274  1
  Te2-  Te143  1  0.75565439  0.75354914  0.88297365  1
  Te2-  Te144  1  0.32233199  0.40747591  0.21935720  1
  Te2-  Te145  1  0.32754628  0.91358108  0.21463540  1
  Te2-  Te146  1  0.82412300  0.41394183  0.21847686  1
  Te2-  Te147  1  0.82306670  0.90859359  0.21811868  1
  Te2-  Te148  1  0.08257103  0.16857550  0.21450099  1
  Te2-  Te149  1  0.08593900  0.66609803  0.21400295  1
  Te2-  Te150  1  0.58385274  0.17393500  0.21408827  1
  Te2-  Te151  1  0.57915147  0.66861437  0.22002081  1
  Te2-  Te152  1  0.08081661  0.40535202  0.21640155  1
  Te2-  Te153  1  0.08467408  0.91364081  0.21540914  1
  Te2-  Te154  1  0.58362057  0.41517601  0.22045538  1
  Te2-  Te155  1  0.58442961  0.91143984  0.21482597  1
  Te2-  Te156  1  0.16461700  0.08280477  0.54793911  1
  Te2-  Te157  1  0.16377778  0.58315559  0.55331714  1
  Te2-  Te158  1  0.66811601  0.08400369  0.54554851  1
  Te2-  Te159  1  0.65772627  0.57975297  0.54849976  1
  Te2-  Te160  1  0.41916167  0.34242573  0.55273185  1
  Te2-  Te161  1  0.42123732  0.83932373  0.55287426  1
  Te2-  Te162  1  0.92669430  0.34231493  0.54953210  1
  Te2-  Te163  1  0.92155163  0.83834446  0.54702105  1
  Te2-  Te164  1  0.42142656  0.08321044  0.54738538  1
  Te2-  Te165  1  0.41708110  0.57766822  0.55153676  1
  Te2-  Te166  1  0.92529423  0.08112920  0.55281275  1
  Te2-  Te167  1  0.92007286  0.57970329  0.55037535  1
  Te2-  Te168  1  0.00189255  -0.00072393  0.88242175  1
  Te2-  Te169  1  0.00143081  0.50192498  0.88299715  1
  Te2-  Te170  1  0.50111992  0.00082271  0.88073658  1
  Te2-  Te171  1  0.50220756  0.50129618  0.88400856  1
  Te2-  Te172  1  0.33300188  0.16504098  0.21517506  1
  Te2-  Te173  1  0.33285172  0.66793441  0.21685956  1
  Te2-  Te174  1  0.83263939  0.16562331  0.21560986  1
  Te2-  Te175  1  0.83426165  0.66760635  0.21756376  1
  Te2-  Te176  1  0.16676986  0.33289488  0.55016063  1
  Te2-  Te177  1  0.16571412  0.83336374  0.54893679  1
  Te2-  Te178  1  0.66621266  0.33223373  0.54948925  1
  Te2-  Te179  1  0.66703599  0.83450384  0.54993734  1
  Te2-  Te180  1  0.32762361  0.41357411  0.71131691  1
  Te2-  Te181  1  0.32981421  0.91627128  0.70651448  1
  Te2-  Te182  1  0.82795043  0.41275508  0.71088534  1
  Te2-  Te183  1  0.82604016  0.91267249  0.71060791  1
  Te2-  Te184  1  0.08900380  0.17466172  0.71040994  1
  Te2-  Te185  1  0.08682356  0.67673747  0.70665890  1
  Te2-  Te186  1  0.58880119  0.17192427  0.71004856  1
  Te2-  Te187  1  0.58685912  0.67137276  0.71264274  1
  Te2-  Te188  1  0.08789190  0.41495856  0.71154371  1
  Te2-  Te189  1  0.08434604  0.91553412  0.70848647  1
  Te2-  Te190  1  0.58940362  0.41350805  0.71028882  1
  Te2-  Te191  1  0.59203526  0.91541647  0.70965761  1
  Te2-  Te192  1  0.16282220  0.07902466  0.04360304  1
  Te2-  Te193  1  0.16048263  0.57908279  0.04355305  1
  Te2-  Te194  1  0.65880307  0.08325378  0.04098803  1
  Te2-  Te195  1  0.66173647  0.58462824  0.04809293  1
  Te2-  Te196  1  0.42042510  0.34119013  0.04670164  1
  Te2-  Te197  1  0.41774127  0.83692286  0.04459087  1
  Te2-  Te198  1  0.92113127  0.34173031  0.04401434  1
  Te2-  Te199  1  0.92134305  0.83981334  0.04527513  1
  Te2-  Te200  1  0.41839459  0.08035630  0.04247154  1
  Te2-  Te201  1  0.42308155  0.58106797  0.04633128  1
  Te2-  Te202  1  0.92127870  0.08209235  0.04420440  1
  Te2-  Te203  1  0.91814722  0.58091840  0.04533798  1
  Te2-  Te204  1  0.49309518  0.24530995  0.37718079  1
  Te2-  Te205  1  0.49296349  0.75035811  0.37924083  1
  Te2-  Te206  1  0.99268714  0.24421043  0.37874148  1
  Te2-  Te207  1  0.99474225  0.74465749  0.37573932  1
  Te2-  Te208  1  0.25195936  0.00321590  0.37747770  1
  Te2-  Te209  1  0.25001227  0.50552814  0.38008702  1
  Te2-  Te210  1  0.75207788  0.00642820  0.37666160  1
  Te2-  Te211  1  0.75367733  0.50799523  0.37456260  1
  Te2-  Te212  1  0.25083970  0.24582266  0.37823695  1
  Te2-  Te213  1  0.25374632  0.74742467  0.37937959  1
  Te2-  Te214  1  0.75071876  0.24512080  0.37668109  1
  Te2-  Te215  1  0.75183949  0.74517179  0.37371175  1
