# generated using pymatgen
data_Ti(CuTe)4
_symmetry_space_group_name_H-M   'P 1'
_cell_length_a   16.89650853
_cell_length_b   16.89863497
_cell_length_c   20.72107754
_cell_angle_alpha   90.00114172
_cell_angle_beta   90.00752466
_cell_angle_gamma   120.00461888
_symmetry_Int_Tables_number   1
_chemical_formula_structural   Ti(CuTe)4
_chemical_formula_sum   'Ti24 Cu96 Te96'
_cell_volume   5123.55430035
_cell_formula_units_Z   24
loop_
 _symmetry_equiv_pos_site_id
 _symmetry_equiv_pos_as_xyz
  1  'x, y, z'
loop_
 _atom_type_symbol
 _atom_type_oxidation_number
  Ti4+  4.0
  Cu+  1.0
  Te2-  -2.0
loop_
 _atom_site_type_symbol
 _atom_site_label
 _atom_site_symmetry_multiplicity
 _atom_site_fract_x
 _atom_site_fract_y
 _atom_site_fract_z
 _atom_site_occupancy
  Ti4+  Ti0  1  0.00055470  -0.00092318  0.25691689  1
  Ti4+  Ti1  1  0.00105379  0.50163462  0.25696213  1
  Ti4+  Ti2  1  0.50024478  0.00017967  0.26110138  1
  Ti4+  Ti3  1  0.49979076  0.49982097  0.26089550  1
  Ti4+  Ti4  1  0.33633581  0.16795883  0.59061340  1
  Ti4+  Ti5  1  0.33911869  0.66971604  0.59103919  1
  Ti4+  Ti6  1  0.83519330  0.16816284  0.59163667  1
  Ti4+  Ti7  1  0.83472256  0.66697206  0.59330314  1
  Ti4+  Ti8  1  0.16375447  0.33060872  0.91964750  1
  Ti4+  Ti9  1  0.16384613  0.83290695  0.92199560  1
  Ti4+  Ti10  1  0.66505462  0.33246797  0.92504163  1
  Ti4+  Ti11  1  0.66094882  0.83050067  0.92287417  1
  Ti4+  Ti12  1  0.00182275  0.00086066  0.75201551  1
  Ti4+  Ti13  1  0.00062461  0.50054134  0.75256317  1
  Ti4+  Ti14  1  0.50089951  -0.00022502  0.75525351  1
  Ti4+  Ti15  1  0.50051122  0.50098554  0.75459503  1
  Ti4+  Ti16  1  0.33101729  0.16601182  0.08985268  1
  Ti4+  Ti17  1  0.33097897  0.66497199  0.09099526  1
  Ti4+  Ti18  1  0.83120840  0.16513331  0.08863326  1
  Ti4+  Ti19  1  0.83373930  0.66752305  0.08873269  1
  Ti4+  Ti20  1  0.16750286  0.33373763  0.42229846  1
  Ti4+  Ti21  1  0.16797107  0.83401960  0.42392828  1
  Ti4+  Ti22  1  0.66789227  0.33411961  0.42196172  1
  Ti4+  Ti23  1  0.66723001  0.83353740  0.42182714  1
  Cu+  Cu24  1  0.90388489  0.58551524  0.81015377  1
  Cu+  Cu25  1  0.90525960  0.82002709  0.81032475  1
  Cu+  Cu26  1  0.58177325  0.92864867  0.47822387  1
  Cu+  Cu27  1  0.40242191  0.81506137  0.81007462  1
  Cu+  Cu28  1  0.58203385  0.65277367  0.47818738  1
  Cu+  Cu29  1  0.35424834  0.93113738  0.47555036  1
  Cu+  Cu30  1  0.35239668  0.42212957  0.47559738  1
  Cu+  Cu31  1  0.90482438  0.08525011  0.80831843  1
  Cu+  Cu32  1  0.40263855  0.58763801  0.80939404  1
  Cu+  Cu33  1  0.18932240  0.09378151  0.80374931  1
  Cu+  Cu34  1  0.02483056  0.76223999  0.14086900  1
  Cu+  Cu35  1  0.90348647  0.31823339  0.80841869  1
  Cu+  Cu36  1  0.16209864  0.08090190  0.17074997  1
  Cu+  Cu37  1  0.16210575  0.58120920  0.17178802  1
  Cu+  Cu38  1  0.66319743  0.07981292  0.17379335  1
  Cu+  Cu39  1  0.66339997  0.58351412  0.17424196  1
  Cu+  Cu40  1  0.41610075  0.33539488  0.17356893  1
  Cu+  Cu41  1  0.41706069  0.83539278  0.17586045  1
  Cu+  Cu42  1  0.91712907  0.33529798  0.17111412  1
  Cu+  Cu43  1  0.92339851  0.83657980  0.16956752  1
  Cu+  Cu44  1  0.41581030  0.08130847  0.17411979  1
  Cu+  Cu45  1  0.41730403  0.58116706  0.17540342  1
  Cu+  Cu46  1  0.91654686  0.08057815  0.17084007  1
  Cu+  Cu47  1  0.92370963  0.58750906  0.16992465  1
  Cu+  Cu48  1  0.49902524  0.24911216  0.50243978  1
  Cu+  Cu49  1  0.49837299  0.74921946  0.50261947  1
  Cu+  Cu50  1  0.99769013  0.24913899  0.50603248  1
  Cu+  Cu51  1  0.99776626  0.74863843  0.50832786  1
  Cu+  Cu52  1  0.25571196  0.00392183  0.50590882  1
  Cu+  Cu53  1  0.25826189  0.50241345  0.50334901  1
  Cu+  Cu54  1  0.75391599  0.00660387  0.50445867  1
  Cu+  Cu55  1  0.75475599  0.50289652  0.50460640  1
  Cu+  Cu56  1  0.25489594  0.25068600  0.50503357  1
  Cu+  Cu57  1  0.25906344  0.75682392  0.50425983  1
  Cu+  Cu58  1  0.75512420  0.25210606  0.50344844  1
  Cu+  Cu59  1  0.75381017  0.74743876  0.50575309  1
  Cu+  Cu60  1  0.32706162  0.41473866  0.83431833  1
  Cu+  Cu61  1  0.32779690  0.91278275  0.83630879  1
  Cu+  Cu62  1  0.82514253  0.41249086  0.83721831  1
  Cu+  Cu63  1  0.82497099  0.91272440  0.83580054  1
  Cu+  Cu64  1  0.08596423  0.16947568  0.83107392  1
  Cu+  Cu65  1  0.08023731  0.67012287  0.83332873  1
  Cu+  Cu66  1  0.58320345  0.16912655  0.83831208  1
  Cu+  Cu67  1  0.57816727  0.66873937  0.83530145  1
  Cu+  Cu68  1  0.08077800  0.41032506  0.83158092  1
  Cu+  Cu69  1  0.08515931  0.91569663  0.83295119  1
  Cu+  Cu70  1  0.58290309  0.41371163  0.83835573  1
  Cu+  Cu71  1  0.57807360  0.90943015  0.83536252  1
  Cu+  Cu72  1  0.17434035  0.08670878  0.67543673  1
  Cu+  Cu73  1  0.17295098  0.58723721  0.67179991  1
  Cu+  Cu74  1  0.67096881  0.08700093  0.67533245  1
  Cu+  Cu75  1  0.67085178  0.58400350  0.67634936  1
  Cu+  Cu76  1  0.41800715  0.33226719  0.67506189  1
  Cu+  Cu77  1  0.41996649  0.83359273  0.68068981  1
  Cu+  Cu78  1  0.91702190  0.33203470  0.67850361  1
  Cu+  Cu79  1  0.91683159  0.83018110  0.67950588  1
  Cu+  Cu80  1  0.41806136  0.08532349  0.67576880  1
  Cu+  Cu81  1  0.41992236  0.58682308  0.67997953  1
  Cu+  Cu82  1  0.91674679  0.08638963  0.67772536  1
  Cu+  Cu83  1  0.91684005  0.58560403  0.68013033  1
  Cu+  Cu84  1  -0.00228357  0.24767217  0.00533817  1
  Cu+  Cu85  1  -0.00043615  0.75126204  0.01106634  1
  Cu+  Cu86  1  0.50090753  0.25079529  0.01032128  1
  Cu+  Cu87  1  0.49680628  0.74803048  0.01116394  1
  Cu+  Cu88  1  0.24738116  0.49635692  0.00761755  1
  Cu+  Cu89  1  0.24770255  0.99940451  0.00800964  1
  Cu+  Cu90  1  0.74700173  0.49658798  0.00994616  1
  Cu+  Cu91  1  0.74474412  0.99578757  0.00759906  1
  Cu+  Cu92  1  0.24772297  0.24973767  0.00589118  1
  Cu+  Cu93  1  0.24754082  0.74898499  0.00937767  1
  Cu+  Cu94  1  0.74638630  0.24981765  0.00966812  1
  Cu+  Cu95  1  0.74528037  0.74961423  0.00788704  1
  Cu+  Cu96  1  0.33668405  0.41794694  0.34718356  1
  Cu+  Cu97  1  0.33756387  0.91923065  0.34763070  1
  Cu+  Cu98  1  0.83681432  0.41971123  0.33906624  1
  Cu+  Cu99  1  0.83763602  0.91760327  0.33930439  1
  Cu+  Cu100  1  0.08011877  0.16277503  0.34070412  1
  Cu+  Cu101  1  0.08070416  0.66465251  0.34241800  1
  Cu+  Cu102  1  0.58430901  0.16612209  0.34285803  1
  Cu+  Cu103  1  0.58259075  0.66389794  0.34822194  1
  Cu+  Cu104  1  0.08005282  0.41741389  0.34104176  1
  Cu+  Cu105  1  0.08077826  0.91598119  0.34211945  1
  Cu+  Cu106  1  0.58370459  0.41826198  0.34291662  1
  Cu+  Cu107  1  0.58321546  0.91878489  0.34814023  1
  Cu+  Cu108  1  -0.00195292  0.00140059  0.11326199  1
  Cu+  Cu109  1  -0.00208446  0.49611692  0.11386733  1
  Cu+  Cu110  1  0.49769844  -0.00025758  0.11959088  1
  Cu+  Cu111  1  0.49972580  0.49917359  0.11900408  1
  Cu+  Cu112  1  0.33327120  0.16688364  0.44729296  1
  Cu+  Cu113  1  0.32782880  0.66383407  0.44731360  1
  Cu+  Cu114  1  0.83652198  0.17045236  0.44722552  1
  Cu+  Cu115  1  0.83664931  0.66612838  0.44940017  1
  Cu+  Cu116  1  0.16683087  0.33447592  0.77348916  1
  Cu+  Cu117  1  0.16737147  0.83250185  0.77662147  1
  Cu+  Cu118  1  0.66066131  0.33013106  0.78142942  1
  Cu+  Cu119  1  0.66575036  0.83319287  0.77843350  1
  Te2-  Te120  1  0.00016136  -0.00057240  0.38631075  1
  Te2-  Te121  1  -0.00050902  0.50040671  0.38615247  1
  Te2-  Te122  1  0.50349952  0.00417436  0.39394831  1
  Te2-  Te123  1  0.50225130  0.49876641  0.39375073  1
  Te2-  Te124  1  0.33887457  0.16931639  0.72139761  1
  Te2-  Te125  1  0.33309117  0.66671667  0.72263721  1
  Te2-  Te126  1  0.83270268  0.16685665  0.72400004  1
  Te2-  Te127  1  0.83244111  0.66595934  0.72585199  1
  Te2-  Te128  1  0.16294857  0.33024088  0.04775587  1
  Te2-  Te129  1  0.16713718  0.83438332  0.05149121  1
  Te2-  Te130  1  0.66529726  0.33261722  0.05390909  1
  Te2-  Te131  1  0.66271719  0.83145029  0.05132633  1
  Te2-  Te132  1  0.49350830  0.24660157  0.88395523  1
  Te2-  Te133  1  0.48371778  0.74181003  0.88450776  1
  Te2-  Te134  1  0.98778493  0.24189683  0.87942363  1
  Te2-  Te135  1  0.98823335  0.74601348  0.88308960  1
  Te2-  Te136  1  0.25323762  0.00559948  0.88168449  1
  Te2-  Te137  1  0.24629717  0.50410642  0.88121013  1
  Te2-  Te138  1  0.74573718  0.00304123  0.88149777  1
  Te2-  Te139  1  0.74982413  0.50636687  0.88407541  1
  Te2-  Te140  1  0.25385691  0.24758853  0.87980427  1
  Te2-  Te141  1  0.24620398  0.74230364  0.88267653  1
  Te2-  Te142  1  0.74994968  0.24362728  0.88375721  1
  Te2-  Te143  1  0.74590084  0.74272722  0.88182254  1
  Te2-  Te144  1  0.32837212  0.41398755  0.22051124  1
  Te2-  Te145  1  0.32879622  0.91460563  0.22087670  1
  Te2-  Te146  1  0.83068330  0.41840423  0.21318143  1
  Te2-  Te147  1  0.82970599  0.91164325  0.21365258  1
  Te2-  Te148  1  0.08449116  0.17066167  0.21497399  1
  Te2-  Te149  1  0.09161181  0.67733440  0.21694190  1
  Te2-  Te150  1  0.58492586  0.17004636  0.21717681  1
  Te2-  Te151  1  0.58483743  0.67153679  0.22105846  1
  Te2-  Te152  1  0.08497460  0.41365543  0.21540793  1
  Te2-  Te153  1  0.09124766  0.91446318  0.21653132  1
  Te2-  Te154  1  0.58504534  0.41493509  0.21716535  1
  Te2-  Te155  1  0.58479257  0.91330594  0.22101142  1
  Te2-  Te156  1  0.16598506  0.08257861  0.54886733  1
  Te2-  Te157  1  0.17116782  0.58593330  0.54552171  1
  Te2-  Te158  1  0.66232434  0.08513323  0.54973246  1
  Te2-  Te159  1  0.66193802  0.57717479  0.55072299  1
  Te2-  Te160  1  0.42539258  0.34138441  0.54973664  1
  Te2-  Te161  1  0.42669352  0.84530151  0.55297379  1
  Te2-  Te162  1  0.92092169  0.33953691  0.55145345  1
  Te2-  Te163  1  0.91979324  0.83851074  0.55242119  1
  Te2-  Te164  1  0.42589149  0.08374984  0.55048421  1
  Te2-  Te165  1  0.42619444  0.58140909  0.55232417  1
  Te2-  Te166  1  0.92002777  0.08152192  0.55074064  1
  Te2-  Te167  1  0.92038614  0.58121675  0.55302831  1
  Te2-  Te168  1  -0.00279547  -0.00098992  0.88038651  1
  Te2-  Te169  1  -0.00056480  0.49922006  0.87996486  1
  Te2-  Te170  1  0.49769318  -0.00120119  0.88201936  1
  Te2-  Te171  1  0.49672052  0.49844346  0.88129371  1
  Te2-  Te172  1  0.33092315  0.16597555  0.21592304  1
  Te2-  Te173  1  0.33108345  0.66508404  0.21712818  1
  Te2-  Te174  1  0.83359482  0.16627367  0.21466680  1
  Te2-  Te175  1  0.83420469  0.66761139  0.21533601  1
  Te2-  Te176  1  0.16778051  0.33363147  0.54912012  1
  Te2-  Te177  1  0.16806680  0.83422912  0.55067048  1
  Te2-  Te178  1  0.66845543  0.33396828  0.54794582  1
  Te2-  Te179  1  0.66981050  0.83525743  0.54930583  1
  Te2-  Te180  1  0.32862438  0.41337195  0.70758077  1
  Te2-  Te181  1  0.32851780  0.91521971  0.70940494  1
  Te2-  Te182  1  0.82542606  0.41272636  0.70939372  1
  Te2-  Te183  1  0.82711248  0.91373802  0.70782501  1
  Te2-  Te184  1  0.08963024  0.17469044  0.70479067  1
  Te2-  Te185  1  0.09037660  0.67422388  0.70702678  1
  Te2-  Te186  1  0.58740797  0.17249343  0.71192560  1
  Te2-  Te187  1  0.59159168  0.67467833  0.70923542  1
  Te2-  Te188  1  0.09040294  0.41728932  0.70546218  1
  Te2-  Te189  1  0.08989449  0.91443859  0.70656202  1
  Te2-  Te190  1  0.58714476  0.41455332  0.71199763  1
  Te2-  Te191  1  0.59178921  0.91742960  0.70920042  1
  Te2-  Te192  1  0.15950272  0.08059733  0.04422539  1
  Te2-  Te193  1  0.15980096  0.57884112  0.04528518  1
  Te2-  Te194  1  0.65872590  0.07922132  0.04685541  1
  Te2-  Te195  1  0.66060911  0.58052733  0.04734378  1
  Te2-  Te196  1  0.41700065  0.33768815  0.04649730  1
  Te2-  Te197  1  0.41665818  0.83754699  0.04862014  1
  Te2-  Te198  1  0.91718508  0.33645574  0.04393289  1
  Te2-  Te199  1  0.91599513  0.83980057  0.04249364  1
  Te2-  Te200  1  0.41727774  0.08013896  0.04700015  1
  Te2-  Te201  1  0.41633154  0.57819558  0.04818452  1
  Te2-  Te202  1  0.91535369  0.07835540  0.04337677  1
  Te2-  Te203  1  0.91799894  0.57910266  0.04312329  1
  Te2-  Te204  1  0.49519714  0.24758285  0.37702879  1
  Te2-  Te205  1  0.49177215  0.74596381  0.37673211  1
  Te2-  Te206  1  0.99582694  0.24793799  0.37909850  1
  Te2-  Te207  1  0.99565477  0.74780511  0.38140960  1
  Te2-  Te208  1  0.25138709  0.00573949  0.37859269  1
  Te2-  Te209  1  0.25107514  0.50548293  0.37647391  1
  Te2-  Te210  1  0.75667524  0.00654020  0.37735797  1
  Te2-  Te211  1  0.75414554  0.50613298  0.37825700  1
  Te2-  Te212  1  0.25072426  0.24497010  0.37755325  1
  Te2-  Te213  1  0.25176148  0.74638769  0.37745533  1
  Te2-  Te214  1  0.75503274  0.24975256  0.37717789  1
  Te2-  Te215  1  0.75579192  0.74852514  0.37853380  1
