# generated using pymatgen
data_Ti(CuTe)4
_symmetry_space_group_name_H-M   'P 1'
_cell_length_a   16.88689136
_cell_length_b   16.88849769
_cell_length_c   20.71270563
_cell_angle_alpha   90.04956283
_cell_angle_beta   89.99642732
_cell_angle_gamma   119.98471786
_symmetry_Int_Tables_number   1
_chemical_formula_structural   Ti(CuTe)4
_chemical_formula_sum   'Ti24 Cu96 Te96'
_cell_volume   5116.52202805
_cell_formula_units_Z   24
loop_
 _symmetry_equiv_pos_site_id
 _symmetry_equiv_pos_as_xyz
  1  'x, y, z'
loop_
 _atom_type_symbol
 _atom_type_oxidation_number
  Ti4+  4.0
  Cu+  1.0
  Te2-  -2.0
loop_
 _atom_site_type_symbol
 _atom_site_label
 _atom_site_symmetry_multiplicity
 _atom_site_fract_x
 _atom_site_fract_y
 _atom_site_fract_z
 _atom_site_occupancy
  Ti4+  Ti0  1  0.00177892  -0.00197057  0.25495687  1
  Ti4+  Ti1  1  -0.00011326  0.49686474  0.25640591  1
  Ti4+  Ti2  1  0.50031729  -0.00116881  0.26122618  1
  Ti4+  Ti3  1  0.50127471  0.49915600  0.25534528  1
  Ti4+  Ti4  1  0.33651615  0.16594218  0.59248318  1
  Ti4+  Ti5  1  0.33143325  0.66569804  0.59140464  1
  Ti4+  Ti6  1  0.83635016  0.17032414  0.59079328  1
  Ti4+  Ti7  1  0.83513678  0.66790889  0.59156274  1
  Ti4+  Ti8  1  0.16274093  0.33350910  0.92556799  1
  Ti4+  Ti9  1  0.16556796  0.83411437  0.92639871  1
  Ti4+  Ti10  1  0.66221321  0.33260228  0.92507755  1
  Ti4+  Ti11  1  0.66432612  0.83476629  0.91989433  1
  Ti4+  Ti12  1  -0.00033432  0.00156590  0.75499733  1
  Ti4+  Ti13  1  0.00092061  0.50139734  0.75820757  1
  Ti4+  Ti14  1  0.49989778  0.00104209  0.75570192  1
  Ti4+  Ti15  1  0.50101581  0.50141706  0.75414282  1
  Ti4+  Ti16  1  0.33081764  0.16633812  0.08805645  1
  Ti4+  Ti17  1  0.33261323  0.66747765  0.08911523  1
  Ti4+  Ti18  1  0.83263376  0.16722498  0.08851761  1
  Ti4+  Ti19  1  0.83116417  0.66563085  0.08658681  1
  Ti4+  Ti20  1  0.16678242  0.33395514  0.42353801  1
  Ti4+  Ti21  1  0.16810354  0.83310191  0.42304745  1
  Ti4+  Ti22  1  0.66724894  0.33245522  0.42177331  1
  Ti4+  Ti23  1  0.66909995  0.83277854  0.42151813  1
  Cu+  Cu24  1  0.40460057  0.09381497  0.81062236  1
  Cu+  Cu25  1  0.40186214  0.81225570  0.80708438  1
  Cu+  Cu26  1  0.24726988  0.98243595  0.14391332  1
  Cu+  Cu27  1  0.35019464  0.92196326  0.48054443  1
  Cu+  Cu28  1  0.90703313  0.81402325  0.80765395  1
  Cu+  Cu29  1  0.90368561  0.09532747  0.80603687  1
  Cu+  Cu30  1  0.07089747  0.43125181  0.47414679  1
  Cu+  Cu31  1  0.73926107  0.47637384  0.13984514  1
  Cu+  Cu32  1  0.01233658  0.75116690  0.14454816  1
  Cu+  Cu33  1  0.24604981  0.48192808  0.14131958  1
  Cu+  Cu34  1  0.01739748  0.25323865  0.14285807  1
  Cu+  Cu35  1  0.57940419  0.15038507  0.47827845  1
  Cu+  Cu36  1  0.16259446  0.07564474  0.16720439  1
  Cu+  Cu37  1  0.16471524  0.57665272  0.16953467  1
  Cu+  Cu38  1  0.66435356  0.08281149  0.17391043  1
  Cu+  Cu39  1  0.66338612  0.57659333  0.16781039  1
  Cu+  Cu40  1  0.41952050  0.33805101  0.16821182  1
  Cu+  Cu41  1  0.41838492  0.83745149  0.17341267  1
  Cu+  Cu42  1  0.92292128  0.33540584  0.16864837  1
  Cu+  Cu43  1  0.92197891  0.83634757  0.16715811  1
  Cu+  Cu44  1  0.41734315  0.07981922  0.17426821  1
  Cu+  Cu45  1  0.41794643  0.58058613  0.17038401  1
  Cu+  Cu46  1  0.92031369  0.08170844  0.16989344  1
  Cu+  Cu47  1  0.91517784  0.57760322  0.16925557  1
  Cu+  Cu48  1  0.49865903  0.24425138  0.50420137  1
  Cu+  Cu49  1  0.50000029  0.74859129  0.50422867  1
  Cu+  Cu50  1  0.99985277  0.25596359  0.50475407  1
  Cu+  Cu51  1  0.99692118  0.74857795  0.50590704  1
  Cu+  Cu52  1  0.25762171  0.00362444  0.50535966  1
  Cu+  Cu53  1  0.24427273  0.50180569  0.50472838  1
  Cu+  Cu54  1  0.75628209  0.00295907  0.50380225  1
  Cu+  Cu55  1  0.75420793  0.50417825  0.50439898  1
  Cu+  Cu56  1  0.25303574  0.24963229  0.50693393  1
  Cu+  Cu57  1  0.25416775  0.74819905  0.50519422  1
  Cu+  Cu58  1  0.75334044  0.24793991  0.50387100  1
  Cu+  Cu59  1  0.75512880  0.75002997  0.50493430  1
  Cu+  Cu60  1  0.33109680  0.41811286  0.83863643  1
  Cu+  Cu61  1  0.33069548  0.91759486  0.83845807  1
  Cu+  Cu62  1  0.83013085  0.41589402  0.84092865  1
  Cu+  Cu63  1  0.82984138  0.91810571  0.83361368  1
  Cu+  Cu64  1  0.07718499  0.17113373  0.83721173  1
  Cu+  Cu65  1  0.08332612  0.67023422  0.84014318  1
  Cu+  Cu66  1  0.57906546  0.17156002  0.83783915  1
  Cu+  Cu67  1  0.58223372  0.67161460  0.83263714  1
  Cu+  Cu68  1  0.08316255  0.41522600  0.84062296  1
  Cu+  Cu69  1  0.08170957  0.91323272  0.83892077  1
  Cu+  Cu70  1  0.58332206  0.41609102  0.83780140  1
  Cu+  Cu71  1  0.57958658  0.91179611  0.83415088  1
  Cu+  Cu72  1  0.17119338  0.08502874  0.67548803  1
  Cu+  Cu73  1  0.16795722  0.58496036  0.67768497  1
  Cu+  Cu74  1  0.67068724  0.08699231  0.67505109  1
  Cu+  Cu75  1  0.67042020  0.58586448  0.67400711  1
  Cu+  Cu76  1  0.41854166  0.33159734  0.67574476  1
  Cu+  Cu77  1  0.41509221  0.83009383  0.67916619  1
  Cu+  Cu78  1  0.91885996  0.33521948  0.67643266  1
  Cu+  Cu79  1  0.91663191  0.83102276  0.67841742  1
  Cu+  Cu80  1  0.41731046  0.08557302  0.68133339  1
  Cu+  Cu81  1  0.41483167  0.58354312  0.67291633  1
  Cu+  Cu82  1  0.91826036  0.08956753  0.67674224  1
  Cu+  Cu83  1  0.91727753  0.58673379  0.67608059  1
  Cu+  Cu84  1  -0.00037432  0.25185732  0.01330062  1
  Cu+  Cu85  1  0.00061388  0.75251854  0.01452708  1
  Cu+  Cu86  1  0.49766033  0.25027805  0.00917438  1
  Cu+  Cu87  1  0.49992408  0.75391593  0.00656258  1
  Cu+  Cu88  1  0.24670817  0.49801702  0.01270793  1
  Cu+  Cu89  1  0.24767648  0.99772903  0.01392922  1
  Cu+  Cu90  1  0.74432957  0.49520414  0.01145066  1
  Cu+  Cu91  1  0.74572211  0.99874544  0.00499396  1
  Cu+  Cu92  1  0.24672129  0.25203134  0.00691945  1
  Cu+  Cu93  1  0.25126561  0.75419700  0.01034475  1
  Cu+  Cu94  1  0.74470207  0.25049832  0.00836544  1
  Cu+  Cu95  1  0.74597756  0.75237399  0.00321536  1
  Cu+  Cu96  1  0.33692321  0.41813145  0.34179976  1
  Cu+  Cu97  1  0.33671730  0.91803774  0.34992779  1
  Cu+  Cu98  1  0.83368364  0.41557699  0.34061454  1
  Cu+  Cu99  1  0.83782563  0.91630029  0.33853091  1
  Cu+  Cu100  1  0.08392954  0.16311563  0.34065018  1
  Cu+  Cu101  1  0.08271920  0.66423284  0.34182939  1
  Cu+  Cu102  1  0.58065129  0.16220421  0.34799909  1
  Cu+  Cu103  1  0.58476954  0.66330237  0.33852387  1
  Cu+  Cu104  1  0.08202735  0.41635549  0.34614150  1
  Cu+  Cu105  1  0.08357988  0.91571112  0.34197767  1
  Cu+  Cu106  1  0.58397852  0.41811157  0.34080057  1
  Cu+  Cu107  1  0.58453935  0.91717708  0.34333691  1
  Cu+  Cu108  1  -0.00383285  -0.00114855  0.10998638  1
  Cu+  Cu109  1  0.00051419  0.50052098  0.11231297  1
  Cu+  Cu110  1  0.50328400  0.00153008  0.11814736  1
  Cu+  Cu111  1  0.50068568  0.50323686  0.11072982  1
  Cu+  Cu112  1  0.33257931  0.16949104  0.44964300  1
  Cu+  Cu113  1  0.33859367  0.66507717  0.44855283  1
  Cu+  Cu114  1  0.83572141  0.16454995  0.44754217  1
  Cu+  Cu115  1  0.83361758  0.66591369  0.44814589  1
  Cu+  Cu116  1  0.17071140  0.33559083  0.78273503  1
  Cu+  Cu117  1  0.16551350  0.83350883  0.78284843  1
  Cu+  Cu118  1  0.67048487  0.33706741  0.78276285  1
  Cu+  Cu119  1  0.66699770  0.83371087  0.77431657  1
  Te2-  Te120  1  0.00133081  -0.00141552  0.38361303  1
  Te2-  Te121  1  -0.00231599  0.49990139  0.38638291  1
  Te2-  Te122  1  0.50249438  -0.00275671  0.39354753  1
  Te2-  Te123  1  0.50177908  0.50023657  0.38425521  1
  Te2-  Te124  1  0.33354111  0.16849132  0.72299881  1
  Te2-  Te125  1  0.33225063  0.66358618  0.72181376  1
  Te2-  Te126  1  0.83398273  0.17116366  0.72125333  1
  Te2-  Te127  1  0.83272520  0.66556284  0.72282930  1
  Te2-  Te128  1  0.16569421  0.33211965  0.05794943  1
  Te2-  Te129  1  0.16676828  0.83201036  0.05839323  1
  Te2-  Te130  1  0.66108524  0.32930454  0.05586028  1
  Te2-  Te131  1  0.66491550  0.83447116  0.04864311  1
  Te2-  Te132  1  0.48777227  0.24894606  0.88382174  1
  Te2-  Te133  1  0.48937703  0.74441880  0.88105914  1
  Te2-  Te134  1  0.98803611  0.24850962  0.88619980  1
  Te2-  Te135  1  0.99200313  0.74566546  0.88683469  1
  Te2-  Te136  1  0.24959654  0.00637196  0.88613349  1
  Te2-  Te137  1  0.25033419  0.50464885  0.88579148  1
  Te2-  Te138  1  0.74816000  0.00772932  0.87917987  1
  Te2-  Te139  1  0.74973239  0.50402716  0.88484746  1
  Te2-  Te140  1  0.24657029  0.24798847  0.88089674  1
  Te2-  Te141  1  0.25132627  0.74752897  0.88433590  1
  Te2-  Te142  1  0.74676523  0.24633351  0.88253876  1
  Te2-  Te143  1  0.74981379  0.74730002  0.87780674  1
  Te2-  Te144  1  0.32642596  0.41002144  0.21610855  1
  Te2-  Te145  1  0.32621751  0.91040353  0.22220829  1
  Te2-  Te146  1  0.82774725  0.40846039  0.21462273  1
  Te2-  Te147  1  0.83159341  0.91327742  0.21246948  1
  Te2-  Te148  1  0.09166189  0.17136802  0.21476108  1
  Te2-  Te149  1  0.08776025  0.66859508  0.21537428  1
  Te2-  Te150  1  0.58400334  0.16965190  0.22047319  1
  Te2-  Te151  1  0.58726765  0.66926465  0.21230702  1
  Te2-  Te152  1  0.08947741  0.40965206  0.21856519  1
  Te2-  Te153  1  0.09006643  0.90840492  0.21614006  1
  Te2-  Te154  1  0.58551385  0.40851699  0.21513298  1
  Te2-  Te155  1  0.58621682  0.91444598  0.21747145  1
  Te2-  Te156  1  0.16625825  0.08035213  0.54951137  1
  Te2-  Te157  1  0.15703546  0.58287999  0.55169044  1
  Te2-  Te158  1  0.66312605  0.07799409  0.54940335  1
  Te2-  Te159  1  0.66405733  0.58175363  0.54838204  1
  Te2-  Te160  1  0.42230397  0.33565885  0.54953134  1
  Te2-  Te161  1  0.42346389  0.83937480  0.55211177  1
  Te2-  Te162  1  0.91908236  0.34427449  0.55054885  1
  Te2-  Te163  1  0.92192664  0.84027352  0.55168554  1
  Te2-  Te164  1  0.42540069  0.07718351  0.55420190  1
  Te2-  Te165  1  0.41401632  0.57942136  0.54691338  1
  Te2-  Te166  1  0.92350283  0.08752489  0.54966868  1
  Te2-  Te167  1  0.92096967  0.58147695  0.55051494  1
  Te2-  Te168  1  -0.00145814  0.00105281  0.88238251  1
  Te2-  Te169  1  -0.00112661  0.50100352  0.88455690  1
  Te2-  Te170  1  0.50115852  0.00175227  0.88304766  1
  Te2-  Te171  1  0.50036472  0.50365057  0.88034539  1
  Te2-  Te172  1  0.33246514  0.16757484  0.21478311  1
  Te2-  Te173  1  0.33422414  0.66664334  0.21598680  1
  Te2-  Te174  1  0.83484859  0.16610156  0.21545942  1
  Te2-  Te175  1  0.83312926  0.66669181  0.21416178  1
  Te2-  Te176  1  0.16833036  0.33346616  0.55035448  1
  Te2-  Te177  1  0.16747216  0.83275209  0.54979417  1
  Te2-  Te178  1  0.66932992  0.33446669  0.54862035  1
  Te2-  Te179  1  0.66941869  0.83397340  0.54773545  1
  Te2-  Te180  1  0.32926225  0.41387453  0.71106534  1
  Te2-  Te181  1  0.32554538  0.91296995  0.71093597  1
  Te2-  Te182  1  0.83021170  0.41665627  0.71359098  1
  Te2-  Te183  1  0.82814321  0.91646779  0.70616797  1
  Te2-  Te184  1  0.08975494  0.17456647  0.71042164  1
  Te2-  Te185  1  0.08626209  0.67312480  0.71399017  1
  Te2-  Te186  1  0.58964030  0.17503242  0.71133089  1
  Te2-  Te187  1  0.58541377  0.67212811  0.70688957  1
  Te2-  Te188  1  0.08734566  0.41543409  0.71459667  1
  Te2-  Te189  1  0.08841868  0.91583655  0.71216052  1
  Te2-  Te190  1  0.58841140  0.41599427  0.71167044  1
  Te2-  Te191  1  0.58824915  0.91679294  0.70814350  1
  Te2-  Te192  1  0.15790536  0.08174035  0.04122272  1
  Te2-  Te193  1  0.15961575  0.58322442  0.04316160  1
  Te2-  Te194  1  0.66027240  0.08140662  0.04651211  1
  Te2-  Te195  1  0.65901040  0.58293547  0.04083285  1
  Te2-  Te196  1  0.41628892  0.33916263  0.04294130  1
  Te2-  Te197  1  0.41958246  0.84106376  0.04719775  1
  Te2-  Te198  1  0.91516975  0.33990549  0.04270794  1
  Te2-  Te199  1  0.91453411  0.83911784  0.04082494  1
  Te2-  Te200  1  0.41981376  0.08069083  0.04641927  1
  Te2-  Te201  1  0.41984764  0.58337072  0.04267661  1
  Te2-  Te202  1  0.91551561  0.07870680  0.04201707  1
  Te2-  Te203  1  0.91791767  0.57856947  0.04154194  1
  Te2-  Te204  1  0.49377460  0.24817899  0.37763059  1
  Te2-  Te205  1  0.49749563  0.74617022  0.37732814  1
  Te2-  Te206  1  0.99504479  0.24423889  0.37748558  1
  Te2-  Te207  1  0.99557358  0.74647449  0.37927335  1
  Te2-  Te208  1  0.25284320  0.00682417  0.37882062  1
  Te2-  Te209  1  0.25443157  0.50576230  0.37757332  1
  Te2-  Te210  1  0.75573371  0.00414651  0.37710375  1
  Te2-  Te211  1  0.75348819  0.50467122  0.37775944  1
  Te2-  Te212  1  0.25301372  0.24851473  0.37963103  1
  Te2-  Te213  1  0.25272926  0.74413179  0.37852219  1
  Te2-  Te214  1  0.75452713  0.24614465  0.37704275  1
  Te2-  Te215  1  0.75440252  0.74701022  0.37759204  1
