# generated using pymatgen
data_Ti(CuTe)4
_symmetry_space_group_name_H-M   'P 1'
_cell_length_a   16.89239035
_cell_length_b   16.89099979
_cell_length_c   20.71029717
_cell_angle_alpha   89.97039582
_cell_angle_beta   90.01704190
_cell_angle_gamma   120.00673592
_symmetry_Int_Tables_number   1
_chemical_formula_structural   Ti(CuTe)4
_chemical_formula_sum   'Ti24 Cu96 Te96'
_cell_volume   5117.21762382
_cell_formula_units_Z   24
loop_
 _symmetry_equiv_pos_site_id
 _symmetry_equiv_pos_as_xyz
  1  'x, y, z'
loop_
 _atom_type_symbol
 _atom_type_oxidation_number
  Ti4+  4.0
  Cu+  1.0
  Te2-  -2.0
loop_
 _atom_site_type_symbol
 _atom_site_label
 _atom_site_symmetry_multiplicity
 _atom_site_fract_x
 _atom_site_fract_y
 _atom_site_fract_z
 _atom_site_occupancy
  Ti4+  Ti0  1  0.00036659  -0.00031657  0.25849848  1
  Ti4+  Ti1  1  0.00147701  0.50000292  0.25572059  1
  Ti4+  Ti2  1  0.50352871  0.00339439  0.25823433  1
  Ti4+  Ti3  1  0.50044215  0.50035650  0.25701372  1
  Ti4+  Ti4  1  0.33175886  0.16766307  0.58927851  1
  Ti4+  Ti5  1  0.33501754  0.67039092  0.59008416  1
  Ti4+  Ti6  1  0.83133058  0.16320885  0.59458936  1
  Ti4+  Ti7  1  0.82923532  0.66431733  0.59081991  1
  Ti4+  Ti8  1  0.16553859  0.33249823  0.91981050  1
  Ti4+  Ti9  1  0.16889068  0.83452984  0.91978857  1
  Ti4+  Ti10  1  0.66687246  0.33199618  0.92620764  1
  Ti4+  Ti11  1  0.66768208  0.83308830  0.93069272  1
  Ti4+  Ti12  1  -0.00003782  -0.00080849  0.75436976  1
  Ti4+  Ti13  1  0.00006134  0.49945401  0.75201397  1
  Ti4+  Ti14  1  0.49874893  0.00006439  0.75740000  1
  Ti4+  Ti15  1  0.49853589  0.49961989  0.75655309  1
  Ti4+  Ti16  1  0.33405697  0.16714844  0.08904938  1
  Ti4+  Ti17  1  0.33337845  0.66620742  0.08772378  1
  Ti4+  Ti18  1  0.83478192  0.16766122  0.08782112  1
  Ti4+  Ti19  1  0.83428570  0.66606598  0.08634710  1
  Ti4+  Ti20  1  0.16599358  0.33062562  0.42309464  1
  Ti4+  Ti21  1  0.16778302  0.83290139  0.42057398  1
  Ti4+  Ti22  1  0.66699431  0.33563423  0.42382484  1
  Ti4+  Ti23  1  0.66633796  0.83448327  0.42336762  1
  Cu+  Cu24  1  0.74687694  0.75494922  0.14880966  1
  Cu+  Cu25  1  0.74886799  0.99547191  0.15324586  1
  Cu+  Cu26  1  0.90538506  0.31820464  0.80999079  1
  Cu+  Cu27  1  0.74764096  0.26096597  0.14519908  1
  Cu+  Cu28  1  0.18849901  0.59463160  0.80332468  1
  Cu+  Cu29  1  0.51937461  0.26265625  0.14230467  1
  Cu+  Cu30  1  0.51096609  0.75602211  0.14853207  1
  Cu+  Cu31  1  0.90493195  0.08334707  0.81368427  1
  Cu+  Cu32  1  0.06740790  0.14009834  0.47614115  1
  Cu+  Cu33  1  0.18933340  0.09373165  0.80423814  1
  Cu+  Cu34  1  0.57176473  0.92994199  0.47678515  1
  Cu+  Cu35  1  0.56929372  0.42975927  0.47412266  1
  Cu+  Cu36  1  0.16420541  0.08437099  0.17235198  1
  Cu+  Cu37  1  0.16320444  0.57985533  0.16978400  1
  Cu+  Cu38  1  0.66172058  0.08344013  0.16909747  1
  Cu+  Cu39  1  0.66227948  0.58067396  0.16828597  1
  Cu+  Cu40  1  0.42120113  0.33637606  0.17102753  1
  Cu+  Cu41  1  0.41997408  0.83647984  0.17080694  1
  Cu+  Cu42  1  0.92048996  0.34117834  0.16906555  1
  Cu+  Cu43  1  0.91971820  0.83710906  0.16884548  1
  Cu+  Cu44  1  0.42242602  0.08816170  0.17125017  1
  Cu+  Cu45  1  0.41886638  0.58177757  0.16961999  1
  Cu+  Cu46  1  0.92258211  0.08137474  0.17069079  1
  Cu+  Cu47  1  0.92053016  0.58129433  0.16726425  1
  Cu+  Cu48  1  0.49758817  0.25504628  0.50420768  1
  Cu+  Cu49  1  0.49688332  0.75459934  0.50383260  1
  Cu+  Cu50  1  0.99696054  0.24211629  0.50807711  1
  Cu+  Cu51  1  0.99707754  0.74812984  0.50444129  1
  Cu+  Cu52  1  0.25186420  0.00194698  0.50284430  1
  Cu+  Cu53  1  0.25243034  0.50269386  0.50557451  1
  Cu+  Cu54  1  0.74740685  0.00297916  0.50614258  1
  Cu+  Cu55  1  0.74345248  0.50264128  0.50429558  1
  Cu+  Cu56  1  0.24559290  0.24253073  0.50302125  1
  Cu+  Cu57  1  0.25364519  0.75040902  0.50274956  1
  Cu+  Cu58  1  0.75070335  0.24912191  0.50800793  1
  Cu+  Cu59  1  0.74876478  0.74574172  0.50519855  1
  Cu+  Cu60  1  0.32856325  0.41423033  0.83421529  1
  Cu+  Cu61  1  0.32908361  0.91596817  0.83525822  1
  Cu+  Cu62  1  0.82714309  0.41063617  0.83726252  1
  Cu+  Cu63  1  0.82669643  0.91261681  0.84198222  1
  Cu+  Cu64  1  0.08473733  0.16820173  0.83278612  1
  Cu+  Cu65  1  0.08947911  0.67003902  0.83273004  1
  Cu+  Cu66  1  0.58385243  0.16911856  0.84021622  1
  Cu+  Cu67  1  0.58386749  0.66695643  0.84338414  1
  Cu+  Cu68  1  0.08443871  0.41539144  0.83162299  1
  Cu+  Cu69  1  0.09005071  0.91926903  0.83395489  1
  Cu+  Cu70  1  0.58140010  0.41336687  0.84038413  1
  Cu+  Cu71  1  0.58417345  0.91597564  0.84336901  1
  Cu+  Cu72  1  0.16856894  0.08337249  0.67623536  1
  Cu+  Cu73  1  0.17106345  0.58735353  0.67511499  1
  Cu+  Cu74  1  0.66622089  0.08230134  0.67968578  1
  Cu+  Cu75  1  0.66667863  0.58301082  0.67751567  1
  Cu+  Cu76  1  0.41509851  0.33339087  0.67376716  1
  Cu+  Cu77  1  0.41718024  0.83483680  0.67601639  1
  Cu+  Cu78  1  0.91403131  0.32763837  0.67994073  1
  Cu+  Cu79  1  0.91174418  0.82690440  0.67440806  1
  Cu+  Cu80  1  0.41557414  0.08606065  0.67391146  1
  Cu+  Cu81  1  0.41790359  0.58838749  0.67430484  1
  Cu+  Cu82  1  0.91182352  0.08031667  0.68200451  1
  Cu+  Cu83  1  0.91135361  0.58207968  0.67175507  1
  Cu+  Cu84  1  0.00270532  0.25084898  0.00523122  1
  Cu+  Cu85  1  0.00496496  0.75137622  0.00223104  1
  Cu+  Cu86  1  0.50398913  0.25113354  0.01400671  1
  Cu+  Cu87  1  0.50391351  0.75085277  0.01692318  1
  Cu+  Cu88  1  0.24720106  0.49773698  0.00514795  1
  Cu+  Cu89  1  0.24794509  0.99797860  0.00670513  1
  Cu+  Cu90  1  0.75111358  0.49775665  0.00700598  1
  Cu+  Cu91  1  0.75124957  0.99717103  0.01893229  1
  Cu+  Cu92  1  0.24749601  0.24922372  0.00547796  1
  Cu+  Cu93  1  0.24868140  0.75014454  0.00499714  1
  Cu+  Cu94  1  0.75017074  0.25136343  0.01424180  1
  Cu+  Cu95  1  0.74978096  0.75109024  0.01615128  1
  Cu+  Cu96  1  0.33466629  0.41616780  0.34028849  1
  Cu+  Cu97  1  0.33767501  0.91748379  0.34100821  1
  Cu+  Cu98  1  0.83763469  0.41888838  0.34152017  1
  Cu+  Cu99  1  0.83479734  0.91687227  0.34431127  1
  Cu+  Cu100  1  0.08000433  0.16134295  0.34731945  1
  Cu+  Cu101  1  0.08390829  0.66405495  0.33943534  1
  Cu+  Cu102  1  0.58719322  0.16827308  0.34462090  1
  Cu+  Cu103  1  0.58369116  0.66640116  0.34358645  1
  Cu+  Cu104  1  0.08112940  0.41626894  0.34024492  1
  Cu+  Cu105  1  0.08287034  0.91684392  0.34040217  1
  Cu+  Cu106  1  0.58287509  0.42002358  0.34550480  1
  Cu+  Cu107  1  0.58471447  0.92067072  0.34799621  1
  Cu+  Cu108  1  0.00531765  -0.00059914  0.11334868  1
  Cu+  Cu109  1  0.00394106  0.50400096  0.10996750  1
  Cu+  Cu110  1  0.49298692  -0.00309715  0.11493477  1
  Cu+  Cu111  1  0.49673350  0.49697832  0.11284839  1
  Cu+  Cu112  1  0.33451227  0.16431344  0.44652077  1
  Cu+  Cu113  1  0.33134321  0.66221389  0.44701351  1
  Cu+  Cu114  1  0.83497024  0.17178214  0.45224012  1
  Cu+  Cu115  1  0.83637562  0.66812923  0.44823076  1
  Cu+  Cu116  1  0.16715959  0.33318914  0.77467239  1
  Cu+  Cu117  1  0.16393659  0.83122915  0.77485889  1
  Cu+  Cu118  1  0.66234583  0.33308303  0.78331468  1
  Cu+  Cu119  1  0.65990702  0.82880366  0.78875720  1
  Te2-  Te120  1  -0.00144867  -0.00524260  0.38883338  1
  Te2-  Te121  1  0.00183608  0.50060930  0.38490272  1
  Te2-  Te122  1  0.50039162  0.00369066  0.38826526  1
  Te2-  Te123  1  0.49760842  0.50176513  0.38700457  1
  Te2-  Te124  1  0.33520653  0.16942267  0.71949682  1
  Te2-  Te125  1  0.33658922  0.67042192  0.72049195  1
  Te2-  Te126  1  0.82933461  0.16303676  0.72686521  1
  Te2-  Te127  1  0.83137197  0.66378641  0.72018397  1
  Te2-  Te128  1  0.16694176  0.33324079  0.04851371  1
  Te2-  Te129  1  0.16757634  0.83312089  0.04886968  1
  Te2-  Te130  1  0.66999811  0.33693168  0.05882984  1
  Te2-  Te131  1  0.66788258  0.83283034  0.06455969  1
  Te2-  Te132  1  0.49520211  0.24672163  0.88710659  1
  Te2-  Te133  1  0.49735981  0.74823224  0.88912660  1
  Te2-  Te134  1  0.98992630  0.24450343  0.87981110  1
  Te2-  Te135  1  0.99881743  0.74910783  0.87615417  1
  Te2-  Te136  1  0.25748146  0.01022266  0.88137017  1
  Te2-  Te137  1  0.25264520  0.50556827  0.87941887  1
  Te2-  Te138  1  0.75161609  0.00618026  0.89036466  1
  Te2-  Te139  1  0.75171318  0.50188142  0.88117690  1
  Te2-  Te140  1  0.25336727  0.24714421  0.87969992  1
  Te2-  Te141  1  0.25767949  0.74865317  0.87964682  1
  Te2-  Te142  1  0.75092481  0.24248890  0.88669164  1
  Te2-  Te143  1  0.75222567  0.74716167  0.88856868  1
  Te2-  Te144  1  0.33103422  0.41463354  0.21411999  1
  Te2-  Te145  1  0.33488593  0.91873802  0.21452568  1
  Te2-  Te146  1  0.82620664  0.41632857  0.21601763  1
  Te2-  Te147  1  0.82397884  0.91144803  0.21859976  1
  Te2-  Te148  1  0.08552834  0.17201705  0.22002182  1
  Te2-  Te149  1  0.08707256  0.67171210  0.21354798  1
  Te2-  Te150  1  0.59160255  0.17950950  0.21841095  1
  Te2-  Te151  1  0.58891239  0.67659148  0.21764830  1
  Te2-  Te152  1  0.08593016  0.41203911  0.21446108  1
  Te2-  Te153  1  0.08555358  0.91489141  0.21430672  1
  Te2-  Te154  1  0.59065816  0.41688062  0.21813425  1
  Te2-  Te155  1  0.59039162  0.91455139  0.22026700  1
  Te2-  Te156  1  0.15747198  0.07470169  0.54966272  1
  Te2-  Te157  1  0.16385236  0.58306143  0.54853934  1
  Te2-  Te158  1  0.65818561  0.08170743  0.55345303  1
  Te2-  Te159  1  0.65345104  0.58020411  0.55178656  1
  Te2-  Te160  1  0.41389247  0.34100129  0.54808866  1
  Te2-  Te161  1  0.41908380  0.84513273  0.55043675  1
  Te2-  Te162  1  0.91870273  0.33278953  0.55253924  1
  Te2-  Te163  1  0.91637289  0.83605016  0.54884668  1
  Te2-  Te164  1  0.42004895  0.08585127  0.54765068  1
  Te2-  Te165  1  0.42178755  0.58631358  0.54808812  1
  Te2-  Te166  1  0.91384014  0.07265045  0.55410281  1
  Te2-  Te167  1  0.91299431  0.57805059  0.54602517  1
  Te2-  Te168  1  0.00032182  -0.00114969  0.88183512  1
  Te2-  Te169  1  -0.00028301  0.50015460  0.87948547  1
  Te2-  Te170  1  0.49719150  -0.00041938  0.88376691  1
  Te2-  Te171  1  0.49574736  0.49677774  0.88304744  1
  Te2-  Te172  1  0.33287754  0.16740922  0.21609947  1
  Te2-  Te173  1  0.33257197  0.66564865  0.21500104  1
  Te2-  Te174  1  0.83598827  0.16893448  0.21539714  1
  Te2-  Te175  1  0.83443280  0.66548893  0.21341834  1
  Te2-  Te176  1  0.16762092  0.33338087  0.54986437  1
  Te2-  Te177  1  0.16676918  0.83294951  0.54688158  1
  Te2-  Te178  1  0.66607116  0.33389201  0.55063352  1
  Te2-  Te179  1  0.66593342  0.83256680  0.54996121  1
  Te2-  Te180  1  0.32877813  0.41715414  0.70821908  1
  Te2-  Te181  1  0.32809375  0.91620064  0.70965319  1
  Te2-  Te182  1  0.82553533  0.41249865  0.70999497  1
  Te2-  Te183  1  0.82444412  0.90841046  0.71468923  1
  Te2-  Te184  1  0.08561575  0.17268070  0.70609899  1
  Te2-  Te185  1  0.08249641  0.67147289  0.70574726  1
  Te2-  Te186  1  0.58487059  0.17214408  0.71359252  1
  Te2-  Te187  1  0.58601043  0.67208453  0.71576194  1
  Te2-  Te188  1  0.08794387  0.41399327  0.70481596  1
  Te2-  Te189  1  0.08303801  0.91075196  0.70722361  1
  Te2-  Te190  1  0.58357675  0.41295706  0.71322198  1
  Te2-  Te191  1  0.58531281  0.91303871  0.71649379  1
  Te2-  Te192  1  0.16254472  0.08126830  0.04491211  1
  Te2-  Te193  1  0.16230157  0.58128949  0.04270554  1
  Te2-  Te194  1  0.65855676  0.07838011  0.04316721  1
  Te2-  Te195  1  0.65999892  0.57688023  0.04215860  1
  Te2-  Te196  1  0.41773894  0.33845010  0.04310673  1
  Te2-  Te197  1  0.41837166  0.83912773  0.04333489  1
  Te2-  Te198  1  0.92346847  0.34083859  0.04221088  1
  Te2-  Te199  1  0.92375381  0.83922461  0.04185222  1
  Te2-  Te200  1  0.41758083  0.07853538  0.04407159  1
  Te2-  Te201  1  0.41688172  0.57714782  0.04266900  1
  Te2-  Te202  1  0.92454893  0.08263056  0.04430823  1
  Te2-  Te203  1  0.92160337  0.58191748  0.04095970  1
  Te2-  Te204  1  0.49517244  0.24744449  0.37702337  1
  Te2-  Te205  1  0.49365223  0.74690882  0.37694575  1
  Te2-  Te206  1  0.99335683  0.24710846  0.38001469  1
  Te2-  Te207  1  0.99634495  0.74675275  0.37710924  1
  Te2-  Te208  1  0.25360351  0.00450343  0.37606737  1
  Te2-  Te209  1  0.25103509  0.50200924  0.37829332  1
  Te2-  Te210  1  0.75687048  0.00875933  0.37968450  1
  Te2-  Te211  1  0.75518950  0.50718376  0.37731737  1
  Te2-  Te212  1  0.25375740  0.24651702  0.37658331  1
  Te2-  Te213  1  0.25406636  0.74721411  0.37653601  1
  Te2-  Te214  1  0.75550258  0.25069803  0.38130917  1
  Te2-  Te215  1  0.75252249  0.74705389  0.37930536  1
