# generated using pymatgen
data_Ti(CuTe)4
_symmetry_space_group_name_H-M   'P 1'
_cell_length_a   16.86757284
_cell_length_b   16.86638863
_cell_length_c   20.67684851
_cell_angle_alpha   90.00343156
_cell_angle_beta   89.96239455
_cell_angle_gamma   119.98781594
_symmetry_Int_Tables_number   1
_chemical_formula_structural   Ti(CuTe)4
_chemical_formula_sum   'Ti24 Cu96 Te96'
_cell_volume   5094.98450802
_cell_formula_units_Z   24
loop_
 _symmetry_equiv_pos_site_id
 _symmetry_equiv_pos_as_xyz
  1  'x, y, z'
loop_
 _atom_type_symbol
 _atom_type_oxidation_number
  Ti4+  4.0
  Cu+  1.0
  Te2-  -2.0
loop_
 _atom_site_type_symbol
 _atom_site_label
 _atom_site_symmetry_multiplicity
 _atom_site_fract_x
 _atom_site_fract_y
 _atom_site_fract_z
 _atom_site_occupancy
  Ti4+  Ti0  1  -0.00117438  0.00046664  0.25775084  1
  Ti4+  Ti1  1  -0.00117820  0.50311810  0.25711142  1
  Ti4+  Ti2  1  0.49732611  -0.00223750  0.25785847  1
  Ti4+  Ti3  1  0.49964726  0.50287918  0.26271258  1
  Ti4+  Ti4  1  0.33499958  0.16452256  0.59166461  1
  Ti4+  Ti5  1  0.33812750  0.66718210  0.59294417  1
  Ti4+  Ti6  1  0.83658347  0.17097399  0.58715496  1
  Ti4+  Ti7  1  0.83459011  0.66608332  0.59307788  1
  Ti4+  Ti8  1  0.16611009  0.33222168  0.92329465  1
  Ti4+  Ti9  1  0.16813223  0.83586677  0.92388288  1
  Ti4+  Ti10  1  0.66581048  0.33304169  0.92441798  1
  Ti4+  Ti11  1  0.66423050  0.82849795  0.92337748  1
  Ti4+  Ti12  1  0.00077881  -0.00082508  0.75284464  1
  Ti4+  Ti13  1  0.00127951  0.50065536  0.75470775  1
  Ti4+  Ti14  1  0.49919104  -0.00116773  0.75504942  1
  Ti4+  Ti15  1  0.50009162  0.49992421  0.75367433  1
  Ti4+  Ti16  1  0.33135123  0.16564061  0.09094928  1
  Ti4+  Ti17  1  0.33326777  0.66808575  0.09075843  1
  Ti4+  Ti18  1  0.83231273  0.16515457  0.08663427  1
  Ti4+  Ti19  1  0.83224206  0.66601512  0.09023650  1
  Ti4+  Ti20  1  0.16617754  0.33400346  0.42063109  1
  Ti4+  Ti21  1  0.16820043  0.83540274  0.42565089  1
  Ti4+  Ti22  1  0.66778039  0.33417693  0.42141268  1
  Ti4+  Ti23  1  0.66324635  0.83105395  0.42373315  1
  Cu+  Cu24  1  0.91289201  0.81622429  0.80852048  1
  Cu+  Cu25  1  0.18546268  0.09696335  0.80542654  1
  Cu+  Cu26  1  0.40330809  0.81557196  0.81007865  1
  Cu+  Cu27  1  0.41221652  0.09514824  0.81027629  1
  Cu+  Cu28  1  0.23774167  0.76365208  0.14118324  1
  Cu+  Cu29  1  0.40757908  0.58581423  0.81407908  1
  Cu+  Cu30  1  0.52038659  0.76001591  0.14457932  1
  Cu+  Cu31  1  0.36250129  0.92989267  0.47544017  1
  Cu+  Cu32  1  0.85963038  0.43248137  0.47177872  1
  Cu+  Cu33  1  0.67974055  0.58663210  0.81081851  1
  Cu+  Cu34  1  0.57854225  0.64804327  0.48125496  1
  Cu+  Cu35  1  0.35062704  0.41915966  0.47696296  1
  Cu+  Cu36  1  0.16067195  0.08073672  0.17236905  1
  Cu+  Cu37  1  0.16197727  0.58891788  0.17085181  1
  Cu+  Cu38  1  0.66373494  0.08175372  0.16931212  1
  Cu+  Cu39  1  0.66383839  0.58505398  0.17516595  1
  Cu+  Cu40  1  0.41344444  0.33401559  0.17649602  1
  Cu+  Cu41  1  0.41623216  0.83671389  0.17075951  1
  Cu+  Cu42  1  0.91518013  0.33563057  0.17086051  1
  Cu+  Cu43  1  0.91817538  0.83703414  0.17203777  1
  Cu+  Cu44  1  0.41368406  0.07924006  0.17251167  1
  Cu+  Cu45  1  0.42241067  0.58558584  0.17518533  1
  Cu+  Cu46  1  0.91732639  0.08062353  0.16963350  1
  Cu+  Cu47  1  0.91666538  0.58166473  0.17157289  1
  Cu+  Cu48  1  0.49694174  0.24431757  0.50356545  1
  Cu+  Cu49  1  0.49633641  0.74282456  0.50515830  1
  Cu+  Cu50  1  0.99429000  0.24849694  0.49984466  1
  Cu+  Cu51  1  0.99744133  0.75110823  0.50716998  1
  Cu+  Cu52  1  0.25760950  0.00173373  0.50681818  1
  Cu+  Cu53  1  0.25577247  0.50054375  0.50334232  1
  Cu+  Cu54  1  0.75202035  0.00412625  0.50357742  1
  Cu+  Cu55  1  0.75593413  0.50217725  0.50420577  1
  Cu+  Cu56  1  0.25079362  0.24747583  0.50526892  1
  Cu+  Cu57  1  0.25860600  0.75689353  0.50731166  1
  Cu+  Cu58  1  0.75831046  0.25575479  0.50067494  1
  Cu+  Cu59  1  0.75014878  0.74712380  0.50807163  1
  Cu+  Cu60  1  0.32534738  0.41330512  0.83456207  1
  Cu+  Cu61  1  0.32941104  0.91610856  0.83567539  1
  Cu+  Cu62  1  0.83123975  0.41602531  0.83709270  1
  Cu+  Cu63  1  0.82981520  0.91003734  0.83360856  1
  Cu+  Cu64  1  0.08721020  0.16987786  0.83461643  1
  Cu+  Cu65  1  0.08607420  0.66907953  0.83598724  1
  Cu+  Cu66  1  0.58328590  0.17049617  0.83711783  1
  Cu+  Cu67  1  0.58531701  0.67072126  0.83343507  1
  Cu+  Cu68  1  0.08398148  0.41475664  0.83619863  1
  Cu+  Cu69  1  0.08737623  0.91787088  0.83397151  1
  Cu+  Cu70  1  0.58708215  0.41389818  0.83547719  1
  Cu+  Cu71  1  0.57909374  0.90879024  0.83524849  1
  Cu+  Cu72  1  0.17103690  0.08424364  0.67666590  1
  Cu+  Cu73  1  0.17132624  0.58567494  0.67318066  1
  Cu+  Cu74  1  0.67298964  0.08791958  0.66993099  1
  Cu+  Cu75  1  0.66956950  0.58354308  0.68110328  1
  Cu+  Cu76  1  0.41601562  0.33209699  0.67465433  1
  Cu+  Cu77  1  0.41887299  0.83086282  0.68059802  1
  Cu+  Cu78  1  0.91701969  0.33323415  0.67165524  1
  Cu+  Cu79  1  0.91284766  0.82900988  0.67971510  1
  Cu+  Cu80  1  0.41515986  0.08190503  0.68121804  1
  Cu+  Cu81  1  0.41685699  0.58331766  0.68376666  1
  Cu+  Cu82  1  0.91608179  0.08694724  0.66965023  1
  Cu+  Cu83  1  0.91851912  0.58397099  0.67566893  1
  Cu+  Cu84  1  0.00121489  0.24955950  0.00528123  1
  Cu+  Cu85  1  0.00036183  0.74993745  0.00893663  1
  Cu+  Cu86  1  0.50122606  0.25119796  0.01045972  1
  Cu+  Cu87  1  0.50003566  0.74718803  0.01556677  1
  Cu+  Cu88  1  0.24857076  0.49703975  0.00969461  1
  Cu+  Cu89  1  0.24998534  1.00091597  0.00995505  1
  Cu+  Cu90  1  0.74711827  0.49736619  0.01007524  1
  Cu+  Cu91  1  0.74689649  0.99493839  0.00513113  1
  Cu+  Cu92  1  0.24830944  0.25065346  0.00839096  1
  Cu+  Cu93  1  0.24920598  0.75253460  0.01356720  1
  Cu+  Cu94  1  0.74746980  0.24978865  0.00613530  1
  Cu+  Cu95  1  0.74784822  0.74671934  0.00992130  1
  Cu+  Cu96  1  0.33632425  0.41987830  0.34805963  1
  Cu+  Cu97  1  0.33573725  0.91848913  0.34715366  1
  Cu+  Cu98  1  0.83700040  0.42071658  0.34378647  1
  Cu+  Cu99  1  0.83587901  0.91793289  0.34041857  1
  Cu+  Cu100  1  0.07977107  0.16341115  0.33952165  1
  Cu+  Cu101  1  0.08142289  0.66838450  0.34278866  1
  Cu+  Cu102  1  0.58018106  0.16467745  0.33980323  1
  Cu+  Cu103  1  0.57947735  0.66453498  0.35125398  1
  Cu+  Cu104  1  0.08052713  0.41888272  0.33826816  1
  Cu+  Cu105  1  0.08064956  0.91987808  0.34201825  1
  Cu+  Cu106  1  0.58081928  0.41650344  0.34414200  1
  Cu+  Cu107  1  0.57849228  0.91430533  0.34191534  1
  Cu+  Cu108  1  -0.00214373  -0.00101377  0.11344372  1
  Cu+  Cu109  1  -0.00325073  0.49611326  0.11427358  1
  Cu+  Cu110  1  0.50332587  0.00613920  0.11404374  1
  Cu+  Cu111  1  0.50058979  0.49439466  0.12140487  1
  Cu+  Cu112  1  0.32914647  0.16479936  0.44848383  1
  Cu+  Cu113  1  0.32477454  0.66345214  0.44977846  1
  Cu+  Cu114  1  0.82829500  0.16307589  0.44262679  1
  Cu+  Cu115  1  0.83393530  0.66843592  0.44968826  1
  Cu+  Cu116  1  0.15961836  0.33062161  0.77776360  1
  Cu+  Cu117  1  0.16437387  0.83074775  0.77788905  1
  Cu+  Cu118  1  0.67122051  0.33143052  0.77927595  1
  Cu+  Cu119  1  0.66987954  0.83924196  0.77746621  1
  Te2-  Te120  1  -0.00144165  0.00116430  0.38750353  1
  Te2-  Te121  1  0.00356879  0.50412466  0.38751153  1
  Te2-  Te122  1  0.50283929  0.00202770  0.38842323  1
  Te2-  Te123  1  0.50118211  0.49861710  0.39505267  1
  Te2-  Te124  1  0.33587854  0.16907541  0.72380642  1
  Te2-  Te125  1  0.33251174  0.66542115  0.72500414  1
  Te2-  Te126  1  0.83572363  0.16926479  0.71661807  1
  Te2-  Te127  1  0.83554941  0.66399428  0.72519874  1
  Te2-  Te128  1  0.16458924  0.33175649  0.05238906  1
  Te2-  Te129  1  0.16502511  0.83594046  0.05396740  1
  Te2-  Te130  1  0.66637475  0.33212852  0.05343573  1
  Te2-  Te131  1  0.66783184  0.83198551  0.05369861  1
  Te2-  Te132  1  0.49180834  0.24926293  0.88409471  1
  Te2-  Te133  1  0.48809586  0.74167515  0.88610621  1
  Te2-  Te134  1  0.99585605  0.24605606  0.87892327  1
  Te2-  Te135  1  0.99619315  0.74666434  0.88234647  1
  Te2-  Te136  1  0.25496862  0.01080038  0.88305117  1
  Te2-  Te137  1  0.25039337  0.50666135  0.88362638  1
  Te2-  Te138  1  0.74831646  -0.00277538  0.87879162  1
  Te2-  Te139  1  0.75529496  0.50697437  0.88382688  1
  Te2-  Te140  1  0.25659400  0.24872869  0.88239883  1
  Te2-  Te141  1  0.25170554  0.74616354  0.88551261  1
  Te2-  Te142  1  0.75083169  0.24747726  0.88012567  1
  Te2-  Te143  1  0.75387240  0.74246586  0.88328042  1
  Te2-  Te144  1  0.32909344  0.41807857  0.22077786  1
  Te2-  Te145  1  0.32337529  0.91301585  0.21925431  1
  Te2-  Te146  1  0.82696274  0.41486170  0.21672475  1
  Te2-  Te147  1  0.82710711  0.91373332  0.21483615  1
  Te2-  Te148  1  0.08425950  0.17220371  0.21411671  1
  Te2-  Te149  1  0.08318667  0.67798683  0.21708022  1
  Te2-  Te150  1  0.58238772  0.16801604  0.21413274  1
  Te2-  Te151  1  0.58981078  0.67689282  0.22313727  1
  Te2-  Te152  1  0.08518670  0.41930262  0.21245960  1
  Te2-  Te153  1  0.08508301  0.91402133  0.21655033  1
  Te2-  Te154  1  0.58307462  0.41622941  0.21833248  1
  Te2-  Te155  1  0.58695036  0.91429486  0.21582998  1
  Te2-  Te156  1  0.16534141  0.07963918  0.54954357  1
  Te2-  Te157  1  0.17032943  0.58507748  0.54707642  1
  Te2-  Te158  1  0.66529425  0.08660165  0.54434617  1
  Te2-  Te159  1  0.66197800  0.57499830  0.55305485  1
  Te2-  Te160  1  0.42306568  0.33705978  0.54943558  1
  Te2-  Te161  1  0.42782797  0.84076408  0.55289662  1
  Te2-  Te162  1  0.92682847  0.34584492  0.54637852  1
  Te2-  Te163  1  0.91709507  0.83708373  0.55265745  1
  Te2-  Te164  1  0.42574349  0.08046419  0.55356150  1
  Te2-  Te165  1  0.42241369  0.57560801  0.55490489  1
  Te2-  Te166  1  0.92045235  0.08247501  0.54458863  1
  Te2-  Te167  1  0.92482460  0.58364899  0.55020735  1
  Te2-  Te168  1  -0.00136223  -0.00032067  0.88066372  1
  Te2-  Te169  1  0.00017624  0.49978444  0.88121515  1
  Te2-  Te170  1  0.50041325  -0.00022284  0.88275675  1
  Te2-  Te171  1  0.49846399  0.49874376  0.88113749  1
  Te2-  Te172  1  0.32964848  0.16435619  0.21721954  1
  Te2-  Te173  1  0.33141062  0.66687022  0.21797032  1
  Te2-  Te174  1  0.83257270  0.16586333  0.21299660  1
  Te2-  Te175  1  0.83381137  0.66812657  0.21642340  1
  Te2-  Te176  1  0.16358378  0.33093507  0.54783733  1
  Te2-  Te177  1  0.16652058  0.83315413  0.55279023  1
  Te2-  Te178  1  0.66709561  0.33206506  0.54847255  1
  Te2-  Te179  1  0.66739938  0.83544533  0.55077531  1
  Te2-  Te180  1  0.32462210  0.40982135  0.70865483  1
  Te2-  Te181  1  0.32440295  0.90930813  0.70842797  1
  Te2-  Te182  1  0.82895353  0.41411563  0.71017661  1
  Te2-  Te183  1  0.82807019  0.91731275  0.70692037  1
  Te2-  Te184  1  0.08549438  0.17186248  0.70693033  1
  Te2-  Te185  1  0.08897019  0.67315828  0.70945404  1
  Te2-  Te186  1  0.58857322  0.17188701  0.70964461  1
  Te2-  Te187  1  0.59000808  0.67661366  0.70757261  1
  Te2-  Te188  1  0.08718807  0.41536046  0.70892883  1
  Te2-  Te189  1  0.08708145  0.91135131  0.70649851  1
  Te2-  Te190  1  0.58562558  0.41042778  0.70949364  1
  Te2-  Te191  1  0.59132293  0.91865770  0.70837605  1
  Te2-  Te192  1  0.15968339  0.08069623  0.04511906  1
  Te2-  Te193  1  0.16063854  0.57990613  0.04414538  1
  Te2-  Te194  1  0.66050296  0.07899268  0.04185241  1
  Te2-  Te195  1  0.65867788  0.57827759  0.04802785  1
  Te2-  Te196  1  0.41763680  0.33775768  0.04821782  1
  Te2-  Te197  1  0.42134191  0.84198874  0.04356595  1
  Te2-  Te198  1  0.91790636  0.33696068  0.04288234  1
  Te2-  Te199  1  0.91837792  0.83794304  0.04462535  1
  Te2-  Te200  1  0.41912554  0.08091791  0.04569301  1
  Te2-  Te201  1  0.41668427  0.57631054  0.04846333  1
  Te2-  Te202  1  0.91753641  0.07868677  0.04185631  1
  Te2-  Te203  1  0.91830816  0.57989804  0.04505297  1
  Te2-  Te204  1  0.49342673  0.24626527  0.37823942  1
  Te2-  Te205  1  0.48831762  0.74607849  0.37945493  1
  Te2-  Te206  1  0.99439176  0.24882646  0.37438623  1
  Te2-  Te207  1  0.99553844  0.75099750  0.38118219  1
  Te2-  Te208  1  0.25100978  0.00654961  0.37902313  1
  Te2-  Te209  1  0.25020244  0.50720915  0.37613591  1
  Te2-  Te210  1  0.74939139  0.00161215  0.37671554  1
  Te2-  Te211  1  0.75196451  0.50789516  0.37736642  1
  Te2-  Te212  1  0.25045420  0.24537579  0.37687431  1
  Te2-  Te213  1  0.25115789  0.74669386  0.37914650  1
  Te2-  Te214  1  0.75140557  0.24679200  0.37330722  1
  Te2-  Te215  1  0.75385314  0.74865296  0.37988971  1
