# generated using pymatgen
data_Ti(CuTe)4
_symmetry_space_group_name_H-M   'P 1'
_cell_length_a   16.84022719
_cell_length_b   16.83800723
_cell_length_c   20.64019782
_cell_angle_alpha   89.99306871
_cell_angle_beta   89.98881173
_cell_angle_gamma   119.99782880
_symmetry_Int_Tables_number   1
_chemical_formula_structural   Ti(CuTe)4
_chemical_formula_sum   'Ti24 Cu96 Te96'
_cell_volume   5068.65350921
_cell_formula_units_Z   24
loop_
 _symmetry_equiv_pos_site_id
 _symmetry_equiv_pos_as_xyz
  1  'x, y, z'
loop_
 _atom_type_symbol
 _atom_type_oxidation_number
  Ti4+  4.0
  Cu+  1.0
  Te2-  -2.0
loop_
 _atom_site_type_symbol
 _atom_site_label
 _atom_site_symmetry_multiplicity
 _atom_site_fract_x
 _atom_site_fract_y
 _atom_site_fract_z
 _atom_site_occupancy
  Ti4+  Ti0  1  0.00384002  0.00062727  0.25576461  1
  Ti4+  Ti1  1  0.00270362  0.49861194  0.25740074  1
  Ti4+  Ti2  1  0.50226097  -0.00177297  0.25526510  1
  Ti4+  Ti3  1  0.50238440  0.49727831  0.25974578  1
  Ti4+  Ti4  1  0.33171517  0.16911881  0.59083892  1
  Ti4+  Ti5  1  0.33078830  0.66657144  0.59089319  1
  Ti4+  Ti6  1  0.82993095  0.16426519  0.59149923  1
  Ti4+  Ti7  1  0.83538973  0.66846039  0.58933243  1
  Ti4+  Ti8  1  0.16600753  0.33653684  0.92496480  1
  Ti4+  Ti9  1  0.16828101  0.83515415  0.92351442  1
  Ti4+  Ti10  1  0.66281718  0.33371573  0.92476524  1
  Ti4+  Ti11  1  0.66593623  0.83326534  0.92748226  1
  Ti4+  Ti12  1  -0.00171281  -0.00029132  0.75731261  1
  Ti4+  Ti13  1  0.00169107  0.49997816  0.75616812  1
  Ti4+  Ti14  1  0.49701458  0.00080263  0.75739934  1
  Ti4+  Ti15  1  0.49946779  0.50001651  0.75749706  1
  Ti4+  Ti16  1  0.33274514  0.16592241  0.09053487  1
  Ti4+  Ti17  1  0.33321846  0.66813205  0.09009452  1
  Ti4+  Ti18  1  0.83387746  0.16766939  0.08705674  1
  Ti4+  Ti19  1  0.83251063  0.66645913  0.08927022  1
  Ti4+  Ti20  1  0.16876351  0.33217292  0.42156527  1
  Ti4+  Ti21  1  0.16560209  0.83123378  0.42313077  1
  Ti4+  Ti22  1  0.66708625  0.33250726  0.42075929  1
  Ti4+  Ti23  1  0.66629680  0.83473932  0.42226999  1
  Cu+  Cu24  1  0.40073462  0.09936597  0.80695079  1
  Cu+  Cu25  1  0.07276895  0.92913133  0.47443149  1
  Cu+  Cu26  1  0.52365131  0.26089995  0.14205031  1
  Cu+  Cu27  1  0.02573492  0.26113622  0.13865257  1
  Cu+  Cu28  1  0.51908689  0.75225529  0.14365851  1
  Cu+  Cu29  1  0.19440918  0.59723060  0.80728922  1
  Cu+  Cu30  1  0.23968607  0.97404990  0.14064533  1
  Cu+  Cu31  1  0.74820033  0.98366800  0.14238971  1
  Cu+  Cu32  1  0.06878634  0.63864363  0.47303555  1
  Cu+  Cu33  1  0.57787424  0.42697258  0.47837448  1
  Cu+  Cu34  1  0.56807488  0.92961534  0.47553178  1
  Cu+  Cu35  1  0.35267326  0.43268367  0.47537792  1
  Cu+  Cu36  1  0.16394691  0.07547483  0.16913915  1
  Cu+  Cu37  1  0.16246577  0.58162355  0.17087865  1
  Cu+  Cu38  1  0.66312461  0.07500110  0.16667050  1
  Cu+  Cu39  1  0.66466893  0.57735221  0.17167731  1
  Cu+  Cu40  1  0.42345750  0.33573143  0.17324253  1
  Cu+  Cu41  1  0.42483530  0.83509567  0.16893266  1
  Cu+  Cu42  1  0.92531287  0.33670366  0.16800027  1
  Cu+  Cu43  1  0.92264597  0.83498775  0.16938822  1
  Cu+  Cu44  1  0.41762984  0.08215048  0.16977575  1
  Cu+  Cu45  1  0.41785650  0.58125149  0.17485681  1
  Cu+  Cu46  1  0.92204817  0.08511303  0.16864582  1
  Cu+  Cu47  1  0.91905632  0.58408722  0.17214594  1
  Cu+  Cu48  1  0.49686486  0.25128917  0.50328322  1
  Cu+  Cu49  1  0.49738872  0.75409001  0.50367412  1
  Cu+  Cu50  1  0.99689152  0.24709345  0.50384076  1
  Cu+  Cu51  1  0.99828675  0.74957680  0.50257745  1
  Cu+  Cu52  1  0.24748264  0.00365341  0.50456004  1
  Cu+  Cu53  1  0.25061021  0.50268580  0.50457662  1
  Cu+  Cu54  1  0.74505157  0.00286951  0.50377532  1
  Cu+  Cu55  1  0.75098026  0.50434161  0.50179322  1
  Cu+  Cu56  1  0.25632674  0.25307538  0.50133985  1
  Cu+  Cu57  1  0.24520261  0.74238788  0.50351972  1
  Cu+  Cu58  1  0.75095801  0.24612017  0.50262302  1
  Cu+  Cu59  1  0.75302944  0.75011019  0.50280695  1
  Cu+  Cu60  1  0.32972817  0.41660354  0.83897572  1
  Cu+  Cu61  1  0.32987349  0.92200440  0.83688002  1
  Cu+  Cu62  1  0.83054636  0.41693111  0.83837753  1
  Cu+  Cu63  1  0.83032685  0.91605097  0.84127491  1
  Cu+  Cu64  1  0.08042970  0.16854761  0.84035574  1
  Cu+  Cu65  1  0.08917015  0.66849762  0.83712884  1
  Cu+  Cu66  1  0.57590418  0.16927764  0.83893957  1
  Cu+  Cu67  1  0.58253830  0.66800199  0.84162269  1
  Cu+  Cu68  1  0.08944751  0.42051394  0.83854700  1
  Cu+  Cu69  1  0.08476645  0.91707346  0.83803929  1
  Cu+  Cu70  1  0.58403098  0.41556414  0.83896274  1
  Cu+  Cu71  1  0.58338794  0.91394229  0.84172167  1
  Cu+  Cu72  1  0.16520537  0.08452881  0.67503567  1
  Cu+  Cu73  1  0.16939247  0.58286192  0.67967743  1
  Cu+  Cu74  1  0.66596654  0.08146178  0.67744056  1
  Cu+  Cu75  1  0.66864832  0.58403826  0.67557078  1
  Cu+  Cu76  1  0.41699446  0.33441431  0.67766764  1
  Cu+  Cu77  1  0.41526292  0.83297736  0.67623429  1
  Cu+  Cu78  1  0.91362817  0.32872625  0.67442883  1
  Cu+  Cu79  1  0.91640938  0.83230413  0.67505525  1
  Cu+  Cu80  1  0.41232252  0.08644191  0.67801985  1
  Cu+  Cu81  1  0.41622309  0.58384897  0.67610817  1
  Cu+  Cu82  1  0.91170326  0.08205863  0.67395937  1
  Cu+  Cu83  1  0.91569236  0.58371896  0.67416677  1
  Cu+  Cu84  1  0.00497086  0.25679500  0.01044215  1
  Cu+  Cu85  1  0.00149393  0.75139043  0.00533251  1
  Cu+  Cu86  1  0.50157126  0.25350450  0.01355861  1
  Cu+  Cu87  1  0.50293307  0.75245899  0.01447522  1
  Cu+  Cu88  1  0.24653359  0.50142607  0.01024477  1
  Cu+  Cu89  1  0.24602471  0.99662761  0.01255148  1
  Cu+  Cu90  1  0.74707269  0.49862202  0.00767111  1
  Cu+  Cu91  1  0.74631486  0.99710437  0.01309161  1
  Cu+  Cu92  1  0.24774755  0.25148229  0.00832989  1
  Cu+  Cu93  1  0.24897012  0.75176922  0.00751864  1
  Cu+  Cu94  1  0.74604211  0.25143677  0.00665395  1
  Cu+  Cu95  1  0.74857550  0.74953052  0.00973819  1
  Cu+  Cu96  1  0.33843620  0.41644000  0.34659539  1
  Cu+  Cu97  1  0.33526169  0.91484361  0.33994634  1
  Cu+  Cu98  1  0.83661514  0.41524698  0.33901745  1
  Cu+  Cu99  1  0.83620473  0.91792182  0.34033587  1
  Cu+  Cu100  1  0.08407908  0.16462046  0.33934570  1
  Cu+  Cu101  1  0.08263512  0.66011295  0.34506062  1
  Cu+  Cu102  1  0.58474052  0.16342520  0.33875897  1
  Cu+  Cu103  1  0.58440082  0.66564471  0.34301072  1
  Cu+  Cu104  1  0.08419785  0.41512496  0.34094050  1
  Cu+  Cu105  1  0.08459861  0.91906051  0.34549457  1
  Cu+  Cu106  1  0.58194851  0.41442163  0.34797607  1
  Cu+  Cu107  1  0.58226073  0.91719112  0.34646268  1
  Cu+  Cu108  1  -0.00325909  -0.00135628  0.11096237  1
  Cu+  Cu109  1  -0.00525380  0.50085936  0.11427750  1
  Cu+  Cu110  1  0.49682509  0.00066985  0.11126837  1
  Cu+  Cu111  1  0.49793572  0.50052873  0.11632306  1
  Cu+  Cu112  1  0.33479368  0.16359254  0.44574912  1
  Cu+  Cu113  1  0.33470705  0.66626288  0.44643885  1
  Cu+  Cu114  1  0.83690389  0.16683313  0.44645158  1
  Cu+  Cu115  1  0.83443895  0.66663099  0.44314087  1
  Cu+  Cu116  1  0.16559679  0.32924613  0.78245748  1
  Cu+  Cu117  1  0.16152993  0.83043391  0.77997114  1
  Cu+  Cu118  1  0.66975407  0.33387412  0.78207890  1
  Cu+  Cu119  1  0.66761287  0.83125713  0.78615922  1
  Te2-  Te120  1  -0.00040755  0.00154328  0.38639052  1
  Te2-  Te121  1  -0.00118806  0.49299842  0.38858620  1
  Te2-  Te122  1  0.49822726  0.00086562  0.38599587  1
  Te2-  Te123  1  0.50435924  0.50329316  0.39205711  1
  Te2-  Te124  1  0.32864734  0.16993814  0.72138131  1
  Te2-  Te125  1  0.33723258  0.66890235  0.72131742  1
  Te2-  Te126  1  0.83110664  0.16508909  0.72096881  1
  Te2-  Te127  1  0.83414128  0.66707571  0.71815275  1
  Te2-  Te128  1  0.17135624  0.33763131  0.05613103  1
  Te2-  Te129  1  0.16339794  0.82935725  0.05458811  1
  Te2-  Te130  1  0.66902080  0.33609211  0.05610569  1
  Te2-  Te131  1  0.66905080  0.83176304  0.06084631  1
  Te2-  Te132  1  0.48736183  0.24921689  0.88648210  1
  Te2-  Te133  1  0.49370180  0.74666626  0.88770850  1
  Te2-  Te134  1  0.99434158  0.25233393  0.88390681  1
  Te2-  Te135  1  0.99775213  0.74687554  0.87934571  1
  Te2-  Te136  1  0.25090933  0.01021881  0.88583885  1
  Te2-  Te137  1  0.25802182  0.51176288  0.88471978  1
  Te2-  Te138  1  0.75134903  0.00519302  0.88646118  1
  Te2-  Te139  1  0.75173395  0.50561579  0.88234686  1
  Te2-  Te140  1  0.24969932  0.24869103  0.88282088  1
  Te2-  Te141  1  0.25918754  0.75296083  0.88144756  1
  Te2-  Te142  1  0.74630432  0.24688791  0.88048747  1
  Te2-  Te143  1  0.75122128  0.74734501  0.88386362  1
  Te2-  Te144  1  0.33108768  0.41273605  0.21870361  1
  Te2-  Te145  1  0.33008868  0.90987294  0.21391259  1
  Te2-  Te146  1  0.83277089  0.41229867  0.21272714  1
  Te2-  Te147  1  0.83157930  0.91313277  0.21439664  1
  Te2-  Te148  1  0.09215405  0.17299328  0.21329251  1
  Te2-  Te149  1  0.08693467  0.67153556  0.21884789  1
  Te2-  Te150  1  0.59030120  0.17012652  0.21285153  1
  Te2-  Te151  1  0.58998694  0.67004582  0.21756068  1
  Te2-  Te152  1  0.09304741  0.41420922  0.21544301  1
  Te2-  Te153  1  0.08818437  0.90939722  0.21889063  1
  Te2-  Te154  1  0.59154117  0.41178322  0.22074408  1
  Te2-  Te155  1  0.59173140  0.90967408  0.21895527  1
  Te2-  Te156  1  0.15911531  0.08588067  0.54868831  1
  Te2-  Te157  1  0.15642693  0.57422299  0.55197944  1
  Te2-  Te158  1  0.65397478  0.08049768  0.55102378  1
  Te2-  Te159  1  0.66099433  0.58386106  0.54974276  1
  Te2-  Te160  1  0.42249388  0.34625077  0.55122271  1
  Te2-  Te161  1  0.41334545  0.83987855  0.54981596  1
  Te2-  Te162  1  0.91773398  0.33596852  0.54856893  1
  Te2-  Te163  1  0.92020272  0.84231699  0.54873897  1
  Te2-  Te164  1  0.41663861  0.08298023  0.55013914  1
  Te2-  Te165  1  0.42285112  0.58596571  0.54972900  1
  Te2-  Te166  1  0.91395152  0.07762830  0.54749718  1
  Te2-  Te167  1  0.91752375  0.57775142  0.54752058  1
  Te2-  Te168  1  -0.00074889  -0.00016231  0.88380022  1
  Te2-  Te169  1  -0.00111852  0.50030532  0.88325851  1
  Te2-  Te170  1  0.49873073  -0.00007555  0.88438071  1
  Te2-  Te171  1  0.49829029  0.49892397  0.88386202  1
  Te2-  Te172  1  0.33300568  0.16499315  0.21828921  1
  Te2-  Te173  1  0.33203442  0.66628586  0.21742594  1
  Te2-  Te174  1  0.83336253  0.16647542  0.21492194  1
  Te2-  Te175  1  0.83399382  0.66680607  0.21612625  1
  Te2-  Te176  1  0.16556812  0.33155125  0.54888095  1
  Te2-  Te177  1  0.16693552  0.83399656  0.55070660  1
  Te2-  Te178  1  0.66749778  0.33327343  0.54793698  1
  Te2-  Te179  1  0.66664105  0.83319418  0.54936949  1
  Te2-  Te180  1  0.32671230  0.41453046  0.71207940  1
  Te2-  Te181  1  0.32472050  0.91324020  0.70987659  1
  Te2-  Te182  1  0.82968913  0.41440625  0.71131124  1
  Te2-  Te183  1  0.82656106  0.91269037  0.71333992  1
  Te2-  Te184  1  0.08188778  0.17100318  0.71215433  1
  Te2-  Te185  1  0.08535890  0.67229675  0.70940281  1
  Te2-  Te186  1  0.58517072  0.17293909  0.71127669  1
  Te2-  Te187  1  0.58635555  0.67230472  0.71346863  1
  Te2-  Te188  1  0.08413985  0.40964361  0.71111828  1
  Te2-  Te189  1  0.08582128  0.91536202  0.71126818  1
  Te2-  Te190  1  0.58677030  0.41445852  0.71238622  1
  Te2-  Te191  1  0.58338175  0.91281709  0.71537919  1
  Te2-  Te192  1  0.15961846  0.08237424  0.04301817  1
  Te2-  Te193  1  0.15978229  0.58332722  0.04518070  1
  Te2-  Te194  1  0.65899138  0.08238744  0.04099250  1
  Te2-  Te195  1  0.65931895  0.57950249  0.04545013  1
  Te2-  Te196  1  0.41619804  0.33993435  0.04629550  1
  Te2-  Te197  1  0.41828478  0.84094560  0.04240084  1
  Te2-  Te198  1  0.91640923  0.34099638  0.04147833  1
  Te2-  Te199  1  0.91967673  0.83833051  0.04290244  1
  Te2-  Te200  1  0.41887637  0.07994987  0.04176635  1
  Te2-  Te201  1  0.41740944  0.57907187  0.04616354  1
  Te2-  Te202  1  0.92112828  0.08194447  0.04032794  1
  Te2-  Te203  1  0.91826777  0.58160049  0.04378408  1
  Te2-  Te204  1  0.49344535  0.24140369  0.37568062  1
  Te2-  Te205  1  0.49299406  0.74414303  0.37606878  1
  Te2-  Te206  1  0.99635939  0.24580850  0.37674555  1
  Te2-  Te207  1  0.99375160  0.74519843  0.37463766  1
  Te2-  Te208  1  0.25618967  0.00426926  0.37706951  1
  Te2-  Te209  1  0.25389836  0.50578599  0.37666368  1
  Te2-  Te210  1  0.75572017  0.00727937  0.37593492  1
  Te2-  Te211  1  0.75659680  0.50552605  0.37421206  1
  Te2-  Te212  1  0.25330672  0.24324136  0.37483863  1
  Te2-  Te213  1  0.25463796  0.74673118  0.37682225  1
  Te2-  Te214  1  0.75326065  0.24579191  0.37610500  1
  Te2-  Te215  1  0.75399490  0.74905390  0.37651891  1
