# generated using pymatgen
data_Ti(CuTe)4
_symmetry_space_group_name_H-M   'P 1'
_cell_length_a   16.86491273
_cell_length_b   16.86467003
_cell_length_c   20.67506649
_cell_angle_alpha   89.99855952
_cell_angle_beta   90.00229915
_cell_angle_gamma   120.00194428
_symmetry_Int_Tables_number   1
_chemical_formula_structural   Ti(CuTe)4
_chemical_formula_sum   'Ti24 Cu96 Te96'
_cell_volume   5092.49936815
_cell_formula_units_Z   24
loop_
 _symmetry_equiv_pos_site_id
 _symmetry_equiv_pos_as_xyz
  1  'x, y, z'
loop_
 _atom_type_symbol
 _atom_type_oxidation_number
  Ti4+  4.0
  Cu+  1.0
  Te2-  -2.0
loop_
 _atom_site_type_symbol
 _atom_site_label
 _atom_site_symmetry_multiplicity
 _atom_site_fract_x
 _atom_site_fract_y
 _atom_site_fract_z
 _atom_site_occupancy
  Ti4+  Ti0  1  0.00152259  -0.00071158  0.26012890  1
  Ti4+  Ti1  1  0.00003028  0.49917394  0.26133487  1
  Ti4+  Ti2  1  0.49961216  -0.00113201  0.25609756  1
  Ti4+  Ti3  1  0.50304288  0.50320384  0.25873951  1
  Ti4+  Ti4  1  0.33248846  0.16743750  0.59182155  1
  Ti4+  Ti5  1  0.33049420  0.66298085  0.58970199  1
  Ti4+  Ti6  1  0.83314729  0.16307632  0.59230855  1
  Ti4+  Ti7  1  0.83380165  0.66529316  0.59155355  1
  Ti4+  Ti8  1  0.16941870  0.33445053  0.92323385  1
  Ti4+  Ti9  1  0.16348968  0.83382063  0.92528179  1
  Ti4+  Ti10  1  0.66800039  0.33573593  0.92282663  1
  Ti4+  Ti11  1  0.66484667  0.83637572  0.92274912  1
  Ti4+  Ti12  1  0.00144000  -0.00002121  0.75365210  1
  Ti4+  Ti13  1  -0.00169784  0.49979001  0.75551426  1
  Ti4+  Ti14  1  0.50103448  -0.00054002  0.75425669  1
  Ti4+  Ti15  1  0.49783800  0.49971245  0.75408336  1
  Ti4+  Ti16  1  0.33120199  0.16519992  0.09027229  1
  Ti4+  Ti17  1  0.33516373  0.66861748  0.08945227  1
  Ti4+  Ti18  1  0.83441170  0.16880038  0.09032887  1
  Ti4+  Ti19  1  0.83252506  0.66751918  0.08922089  1
  Ti4+  Ti20  1  0.16907527  0.33272405  0.42083496  1
  Ti4+  Ti21  1  0.16551564  0.83146418  0.42289684  1
  Ti4+  Ti22  1  0.66684382  0.33356759  0.42273867  1
  Ti4+  Ti23  1  0.66691271  0.83422032  0.42382101  1
  Cu+  Cu24  1  0.07456289  0.41513988  0.47929055  1
  Cu+  Cu25  1  0.41232474  0.31873327  0.80926960  1
  Cu+  Cu26  1  0.68467059  0.09594731  0.80956636  1
  Cu+  Cu27  1  0.90360828  0.59785979  0.80668058  1
  Cu+  Cu28  1  0.06847852  0.64497881  0.47515838  1
  Cu+  Cu29  1  0.18392813  0.08861481  0.81002055  1
  Cu+  Cu30  1  0.52656925  0.76256447  0.14051660  1
  Cu+  Cu31  1  0.07363479  0.14498637  0.47480126  1
  Cu+  Cu32  1  0.35610991  0.42656440  0.47317756  1
  Cu+  Cu33  1  0.40335190  0.59693044  0.80561234  1
  Cu+  Cu34  1  0.23537765  0.97284404  0.14234509  1
  Cu+  Cu35  1  0.91452332  0.09524739  0.80925468  1
  Cu+  Cu36  1  0.16318094  0.07677773  0.17355650  1
  Cu+  Cu37  1  0.16312841  0.58132658  0.17515354  1
  Cu+  Cu38  1  0.66399890  0.08353624  0.17065818  1
  Cu+  Cu39  1  0.66394978  0.58236354  0.17055573  1
  Cu+  Cu40  1  0.41809665  0.33753589  0.17407167  1
  Cu+  Cu41  1  0.42414805  0.83794910  0.16869761  1
  Cu+  Cu42  1  0.92037188  0.33698211  0.17467774  1
  Cu+  Cu43  1  0.91717835  0.83621823  0.17186634  1
  Cu+  Cu44  1  0.41196207  0.07681527  0.17058842  1
  Cu+  Cu45  1  0.42371723  0.58711945  0.17227238  1
  Cu+  Cu46  1  0.92061648  0.08518496  0.17488844  1
  Cu+  Cu47  1  0.91872961  0.58358991  0.17429341  1
  Cu+  Cu48  1  0.49828751  0.25123251  0.50469645  1
  Cu+  Cu49  1  0.49703008  0.74716010  0.50484028  1
  Cu+  Cu50  1  0.99309461  0.24021678  0.50257933  1
  Cu+  Cu51  1  0.99643181  0.74376197  0.50578640  1
  Cu+  Cu52  1  0.24900202  0.00241348  0.50493177  1
  Cu+  Cu53  1  0.25495967  0.50403974  0.50032088  1
  Cu+  Cu54  1  0.75038887  0.00101841  0.50638728  1
  Cu+  Cu55  1  0.75284722  0.50216054  0.50489082  1
  Cu+  Cu56  1  0.25263955  0.24742496  0.50261501  1
  Cu+  Cu57  1  0.24427594  0.74324306  0.50309080  1
  Cu+  Cu58  1  0.74603315  0.24445981  0.50500305  1
  Cu+  Cu59  1  0.75186912  0.74947569  0.50686898  1
  Cu+  Cu60  1  0.33109469  0.41776186  0.83442817  1
  Cu+  Cu61  1  0.33041071  0.91649575  0.83782336  1
  Cu+  Cu62  1  0.83082093  0.42218245  0.83521429  1
  Cu+  Cu63  1  0.82948837  0.91903075  0.83434659  1
  Cu+  Cu64  1  0.08890745  0.17131895  0.83448142  1
  Cu+  Cu65  1  0.07693238  0.66784966  0.83837577  1
  Cu+  Cu66  1  0.58766568  0.17089480  0.83532177  1
  Cu+  Cu67  1  0.57796649  0.67062136  0.83595621  1
  Cu+  Cu68  1  0.08586876  0.41584653  0.83637413  1
  Cu+  Cu69  1  0.08867438  0.91569560  0.83583262  1
  Cu+  Cu70  1  0.58471230  0.41352894  0.83505428  1
  Cu+  Cu71  1  0.58762812  0.91809106  0.83469213  1
  Cu+  Cu72  1  0.16957934  0.08436296  0.68010920  1
  Cu+  Cu73  1  0.16541070  0.58105184  0.67491763  1
  Cu+  Cu74  1  0.66954478  0.08128199  0.68036054  1
  Cu+  Cu75  1  0.66856563  0.58405323  0.67329896  1
  Cu+  Cu76  1  0.41373158  0.33043553  0.67980309  1
  Cu+  Cu77  1  0.41358709  0.83017335  0.67224887  1
  Cu+  Cu78  1  0.91587665  0.33020973  0.67393860  1
  Cu+  Cu79  1  0.91856013  0.82993912  0.67364592  1
  Cu+  Cu80  1  0.41563720  0.08281526  0.67314018  1
  Cu+  Cu81  1  0.41349275  0.58435159  0.67780677  1
  Cu+  Cu82  1  0.91532643  0.08212004  0.67942806  1
  Cu+  Cu83  1  0.91478294  0.58511135  0.68015622  1
  Cu+  Cu84  1  0.00323856  0.25166994  0.00912518  1
  Cu+  Cu85  1  -0.00181900  0.75103065  0.00933798  1
  Cu+  Cu86  1  0.50259614  0.25303392  0.00789325  1
  Cu+  Cu87  1  0.50131927  0.75232081  0.01147821  1
  Cu+  Cu88  1  0.25012346  0.50009941  0.00871638  1
  Cu+  Cu89  1  0.24518736  0.99686658  0.01429049  1
  Cu+  Cu90  1  0.75011385  0.50035637  0.00823938  1
  Cu+  Cu91  1  0.75101811  1.00292983  0.00991994  1
  Cu+  Cu92  1  0.25019407  0.25093729  0.00939449  1
  Cu+  Cu93  1  0.24566575  0.74905263  0.00815860  1
  Cu+  Cu94  1  0.75290490  0.25493582  0.00744172  1
  Cu+  Cu95  1  0.74730781  0.75129750  0.00560817  1
  Cu+  Cu96  1  0.34090949  0.42016183  0.34461585  1
  Cu+  Cu97  1  0.33586386  0.91835934  0.34032930  1
  Cu+  Cu98  1  0.83400945  0.41569989  0.34252536  1
  Cu+  Cu99  1  0.83712705  0.92069105  0.34327951  1
  Cu+  Cu100  1  0.08485307  0.16182362  0.34601023  1
  Cu+  Cu101  1  0.08080505  0.66107262  0.34740076  1
  Cu+  Cu102  1  0.58019666  0.16381322  0.33897645  1
  Cu+  Cu103  1  0.58379303  0.66730652  0.34259077  1
  Cu+  Cu104  1  0.08327252  0.41773992  0.34841348  1
  Cu+  Cu105  1  0.08324771  0.91665111  0.34379813  1
  Cu+  Cu106  1  0.58404344  0.41900287  0.34158831  1
  Cu+  Cu107  1  0.58319541  0.91843334  0.34116908  1
  Cu+  Cu108  1  -0.00411412  -0.00006630  0.11749735  1
  Cu+  Cu109  1  -0.00168204  0.50027824  0.11932513  1
  Cu+  Cu110  1  0.50220107  0.00499969  0.11170018  1
  Cu+  Cu111  1  0.49992826  0.49824095  0.11537891  1
  Cu+  Cu112  1  0.33757139  0.16369292  0.44792191  1
  Cu+  Cu113  1  0.33780843  0.67435119  0.44639654  1
  Cu+  Cu114  1  0.82655040  0.16458786  0.44886676  1
  Cu+  Cu115  1  0.82946276  0.66689772  0.44911296  1
  Cu+  Cu116  1  0.16556842  0.33501125  0.77736669  1
  Cu+  Cu117  1  0.17124741  0.82884854  0.78159208  1
  Cu+  Cu118  1  0.66667669  0.33197068  0.77681174  1
  Cu+  Cu119  1  0.66724379  0.83080727  0.77760326  1
  Te2-  Te120  1  0.00000942  -0.00348232  0.39109462  1
  Te2-  Te121  1  -0.00414539  0.49530831  0.39348576  1
  Te2-  Te122  1  0.49996329  0.00004619  0.38501466  1
  Te2-  Te123  1  0.50608558  0.50391670  0.38968032  1
  Te2-  Te124  1  0.33538307  0.16481651  0.72403118  1
  Te2-  Te125  1  0.32951669  0.66706995  0.72008476  1
  Te2-  Te126  1  0.83568255  0.16805032  0.72428459  1
  Te2-  Te127  1  0.83071454  0.66806180  0.72219124  1
  Te2-  Te128  1  0.16867152  0.33472723  0.05180243  1
  Te2-  Te129  1  0.16213968  0.82924778  0.05549403  1
  Te2-  Te130  1  0.66777470  0.33501479  0.05131623  1
  Te2-  Te131  1  0.66910643  0.83696714  0.05261559  1
  Te2-  Te132  1  0.49438068  0.24431987  0.88180379  1
  Te2-  Te133  1  0.49099423  0.75182698  0.88342753  1
  Te2-  Te134  1  0.99621860  0.24923616  0.88269515  1
  Te2-  Te135  1  0.98990464  0.75061946  0.88350746  1
  Te2-  Te136  1  0.25568363  0.00799099  0.88626923  1
  Te2-  Te137  1  0.25249772  0.50807840  0.88228318  1
  Te2-  Te138  1  0.75618945  0.01317031  0.88339293  1
  Te2-  Te139  1  0.75038142  0.50973993  0.88217437  1
  Te2-  Te140  1  0.25721384  0.24673242  0.88268692  1
  Te2-  Te141  1  0.24667453  0.74725239  0.88152848  1
  Te2-  Te142  1  0.75894815  0.25403132  0.88096975  1
  Te2-  Te143  1  0.74822233  0.75028043  0.87911785  1
  Te2-  Te144  1  0.33160185  0.41884801  0.21738225  1
  Te2-  Te145  1  0.32574181  0.90713578  0.21463488  1
  Te2-  Te146  1  0.82960677  0.41486566  0.21693201  1
  Te2-  Te147  1  0.83066274  0.91647491  0.21730105  1
  Te2-  Te148  1  0.08895254  0.17041320  0.21871251  1
  Te2-  Te149  1  0.08552879  0.67077367  0.22030630  1
  Te2-  Te150  1  0.58154608  0.16949796  0.21293784  1
  Te2-  Te151  1  0.59324480  0.67738581  0.21685914  1
  Te2-  Te152  1  0.08710773  0.41442312  0.22066625  1
  Te2-  Te153  1  0.08341586  0.90724719  0.21796671  1
  Te2-  Te154  1  0.58671895  0.41570746  0.21579135  1
  Te2-  Te155  1  0.59199144  0.91670575  0.21524398  1
  Te2-  Te156  1  0.15915130  0.07858820  0.55200337  1
  Te2-  Te157  1  0.15491107  0.57380707  0.54903727  1
  Te2-  Te158  1  0.66181297  0.07868902  0.55269393  1
  Te2-  Te159  1  0.66305944  0.58036546  0.54785380  1
  Te2-  Te160  1  0.42104131  0.34060789  0.55170313  1
  Te2-  Te161  1  0.41327694  0.83293974  0.54631414  1
  Te2-  Te162  1  0.91553072  0.33441315  0.54816593  1
  Te2-  Te163  1  0.92093238  0.83618347  0.54831772  1
  Te2-  Te164  1  0.41733465  0.08248964  0.54764001  1
  Te2-  Te165  1  0.42163874  0.58013809  0.55045334  1
  Te2-  Te166  1  0.91740375  0.07388534  0.55190235  1
  Te2-  Te167  1  0.91786804  0.57483052  0.55302479  1
  Te2-  Te168  1  -0.00010773  -0.00001160  0.88129741  1
  Te2-  Te169  1  -0.00038699  0.49894955  0.88247532  1
  Te2-  Te170  1  0.50047398  0.00101579  0.88155558  1
  Te2-  Te171  1  0.50086107  0.50075774  0.88170423  1
  Te2-  Te172  1  0.33380582  0.16719949  0.21711727  1
  Te2-  Te173  1  0.33489273  0.66855194  0.21629216  1
  Te2-  Te174  1  0.83291764  0.16733270  0.21692805  1
  Te2-  Te175  1  0.83247935  0.66704996  0.21592404  1
  Te2-  Te176  1  0.16550918  0.33248708  0.54912522  1
  Te2-  Te177  1  0.16663279  0.83349733  0.55016725  1
  Te2-  Te178  1  0.66623468  0.33279796  0.54963558  1
  Te2-  Te179  1  0.66517985  0.83172642  0.55056347  1
  Te2-  Te180  1  0.32337382  0.41239040  0.70740934  1
  Te2-  Te181  1  0.32835078  0.91393079  0.71035575  1
  Te2-  Te182  1  0.82620053  0.41109122  0.70844688  1
  Te2-  Te183  1  0.82789798  0.90994949  0.70787783  1
  Te2-  Te184  1  0.08766849  0.17506455  0.70725666  1
  Te2-  Te185  1  0.08737130  0.67271899  0.71033980  1
  Te2-  Te186  1  0.58585163  0.17200758  0.70774148  1
  Te2-  Te187  1  0.58611911  0.67197393  0.70807926  1
  Te2-  Te188  1  0.08439365  0.41244725  0.71044426  1
  Te2-  Te189  1  0.08767072  0.91149360  0.70972246  1
  Te2-  Te190  1  0.58687721  0.41454204  0.70848376  1
  Te2-  Te191  1  0.58327861  0.90841131  0.70847045  1
  Te2-  Te192  1  0.15769315  0.08143468  0.04607876  1
  Te2-  Te193  1  0.16155491  0.58050590  0.04764252  1
  Te2-  Te194  1  0.66283293  0.08477650  0.04394008  1
  Te2-  Te195  1  0.66078324  0.58181585  0.04386355  1
  Te2-  Te196  1  0.41920483  0.33811495  0.04656622  1
  Te2-  Te197  1  0.41664552  0.84070374  0.04220981  1
  Te2-  Te198  1  0.92224210  0.34072303  0.04682851  1
  Te2-  Te199  1  0.91684038  0.83987143  0.04489168  1
  Te2-  Te200  1  0.41941009  0.08219336  0.04288709  1
  Te2-  Te201  1  0.41989129  0.58030786  0.04451548  1
  Te2-  Te202  1  0.92054369  0.08255949  0.04680652  1
  Te2-  Te203  1  0.91935141  0.58144586  0.04656063  1
  Te2-  Te204  1  0.49563652  0.24858277  0.37748025  1
  Te2-  Te205  1  0.49560075  0.74872617  0.37778015  1
  Te2-  Te206  1  0.99382367  0.24409641  0.37557610  1
  Te2-  Te207  1  0.99221058  0.74571229  0.37837943  1
  Te2-  Te208  1  0.25295053  0.00427713  0.37840782  1
  Te2-  Te209  1  0.25641872  0.50822641  0.37459700  1
  Te2-  Te210  1  0.75280585  0.00631664  0.37947192  1
  Te2-  Te211  1  0.75411786  0.50602013  0.37832351  1
  Te2-  Te212  1  0.25787027  0.24725842  0.37543198  1
  Te2-  Te213  1  0.25404592  0.74797713  0.37618534  1
  Te2-  Te214  1  0.74992683  0.24511018  0.37766086  1
  Te2-  Te215  1  0.75396169  0.74978967  0.37925458  1
