# generated using pymatgen
data_Ti(CuTe)4
_symmetry_space_group_name_H-M   'P 1'
_cell_length_a   16.90135673
_cell_length_b   16.90027031
_cell_length_c   20.72079256
_cell_angle_alpha   89.97685872
_cell_angle_beta   89.99211143
_cell_angle_gamma   120.00678886
_symmetry_Int_Tables_number   1
_chemical_formula_structural   Ti(CuTe)4
_chemical_formula_sum   'Ti24 Cu96 Te96'
_cell_volume   5125.33706000
_cell_formula_units_Z   24
loop_
 _symmetry_equiv_pos_site_id
 _symmetry_equiv_pos_as_xyz
  1  'x, y, z'
loop_
 _atom_type_symbol
 _atom_type_oxidation_number
  Ti4+  4.0
  Cu+  1.0
  Te2-  -2.0
loop_
 _atom_site_type_symbol
 _atom_site_label
 _atom_site_symmetry_multiplicity
 _atom_site_fract_x
 _atom_site_fract_y
 _atom_site_fract_z
 _atom_site_occupancy
  Ti4+  Ti0  1  -0.00286495  -0.00359163  0.25559978  1
  Ti4+  Ti1  1  -0.00105022  0.49983349  0.25389502  1
  Ti4+  Ti2  1  0.49956770  0.00036450  0.26033886  1
  Ti4+  Ti3  1  0.49881130  0.49798252  0.25638062  1
  Ti4+  Ti4  1  0.33449062  0.16641961  0.59202176  1
  Ti4+  Ti5  1  0.33630374  0.67060240  0.58972281  1
  Ti4+  Ti6  1  0.83512832  0.16675409  0.59027686  1
  Ti4+  Ti7  1  0.83414238  0.66872251  0.59375889  1
  Ti4+  Ti8  1  0.16973064  0.33523251  0.91872279  1
  Ti4+  Ti9  1  0.16652684  0.83172014  0.92408649  1
  Ti4+  Ti10  1  0.66534147  0.33344820  0.92827686  1
  Ti4+  Ti11  1  0.66657551  0.83451861  0.92811593  1
  Ti4+  Ti12  1  -0.00032657  0.00031147  0.75561828  1
  Ti4+  Ti13  1  0.00177403  0.50285965  0.75491481  1
  Ti4+  Ti14  1  0.50183058  0.00086863  0.75829819  1
  Ti4+  Ti15  1  0.49886456  0.49827087  0.75537776  1
  Ti4+  Ti16  1  0.33163071  0.16568461  0.08865231  1
  Ti4+  Ti17  1  0.33256448  0.66581800  0.08846943  1
  Ti4+  Ti18  1  0.83253481  0.16562292  0.08694469  1
  Ti4+  Ti19  1  0.83432466  0.66731813  0.08475239  1
  Ti4+  Ti20  1  0.16566299  0.33302241  0.42071048  1
  Ti4+  Ti21  1  0.16627471  0.83237566  0.42281035  1
  Ti4+  Ti22  1  0.66573928  0.33326546  0.42360993  1
  Ti4+  Ti23  1  0.66773732  0.83328695  0.42147089  1
  Cu+  Cu24  1  0.50978634  0.25385311  0.14758663  1
  Cu+  Cu25  1  0.19110698  0.59784571  0.80383382  1
  Cu+  Cu26  1  0.74661330  0.49440968  0.14819765  1
  Cu+  Cu27  1  0.01938088  0.76007665  0.13993668  1
  Cu+  Cu28  1  0.74159598  0.75151099  0.14525391  1
  Cu+  Cu29  1  0.74352244  0.25325690  0.14686869  1
  Cu+  Cu30  1  0.85674393  0.92736217  0.47435476  1
  Cu+  Cu31  1  0.35099986  0.92968255  0.47833266  1
  Cu+  Cu32  1  0.58190419  0.92764090  0.47900112  1
  Cu+  Cu33  1  0.40692096  0.30914252  0.80761296  1
  Cu+  Cu34  1  0.90491153  0.59224169  0.81075551  1
  Cu+  Cu35  1  0.73815624  0.98390394  0.14405834  1
  Cu+  Cu36  1  0.16111734  0.07913825  0.16902085  1
  Cu+  Cu37  1  0.16259858  0.58105545  0.16854691  1
  Cu+  Cu38  1  0.65924096  0.07897798  0.17094994  1
  Cu+  Cu39  1  0.65493694  0.57652598  0.16714558  1
  Cu+  Cu40  1  0.41817160  0.33470235  0.16987823  1
  Cu+  Cu41  1  0.41506054  0.83405816  0.17339310  1
  Cu+  Cu42  1  0.91686212  0.33690345  0.16672428  1
  Cu+  Cu43  1  0.91948362  0.83901177  0.16564379  1
  Cu+  Cu44  1  0.41696102  0.08165291  0.17247109  1
  Cu+  Cu45  1  0.41539807  0.58070365  0.17018548  1
  Cu+  Cu46  1  0.91289135  0.07569865  0.16760487  1
  Cu+  Cu47  1  0.92267936  0.58207300  0.16454240  1
  Cu+  Cu48  1  0.49713525  0.24964843  0.50575140  1
  Cu+  Cu49  1  0.49687476  0.75242005  0.50212851  1
  Cu+  Cu50  1  0.99819767  0.24846900  0.50314865  1
  Cu+  Cu51  1  0.99581641  0.74736760  0.50670784  1
  Cu+  Cu52  1  0.25464107  0.00429037  0.50532332  1
  Cu+  Cu53  1  0.25173411  0.50378814  0.50367400  1
  Cu+  Cu54  1  0.75585474  0.00504216  0.50241706  1
  Cu+  Cu55  1  0.75178794  0.50276466  0.50799124  1
  Cu+  Cu56  1  0.25203171  0.25051642  0.50523304  1
  Cu+  Cu57  1  0.25669507  0.75446657  0.50304375  1
  Cu+  Cu58  1  0.75085477  0.24889758  0.50497627  1
  Cu+  Cu59  1  0.75679394  0.75256241  0.50481598  1
  Cu+  Cu60  1  0.32956073  0.40996504  0.83294551  1
  Cu+  Cu61  1  0.33197176  0.91468655  0.83895285  1
  Cu+  Cu62  1  0.83050213  0.41904017  0.84063714  1
  Cu+  Cu63  1  0.83004227  0.91685770  0.84170235  1
  Cu+  Cu64  1  0.08544766  0.17058896  0.83444537  1
  Cu+  Cu65  1  0.08518359  0.66978162  0.83649771  1
  Cu+  Cu66  1  0.58518021  0.16965121  0.84141242  1
  Cu+  Cu67  1  0.58445631  0.66936995  0.84092875  1
  Cu+  Cu68  1  0.09250449  0.42291427  0.83332318  1
  Cu+  Cu69  1  0.08386314  0.91557818  0.83816830  1
  Cu+  Cu70  1  0.58009024  0.41032396  0.83933450  1
  Cu+  Cu71  1  0.58674868  0.91748745  0.84218683  1
  Cu+  Cu72  1  0.16996649  0.08434090  0.67415975  1
  Cu+  Cu73  1  0.17253839  0.58903501  0.67547121  1
  Cu+  Cu74  1  0.67096567  0.08480207  0.67694447  1
  Cu+  Cu75  1  0.66895224  0.58429621  0.67633991  1
  Cu+  Cu76  1  0.41555811  0.32916781  0.67913417  1
  Cu+  Cu77  1  0.42010589  0.83542783  0.67707287  1
  Cu+  Cu78  1  0.91485909  0.33090036  0.67325731  1
  Cu+  Cu79  1  0.91430086  0.83202283  0.67768118  1
  Cu+  Cu80  1  0.41875353  0.08516261  0.67729705  1
  Cu+  Cu81  1  0.41735178  0.58607951  0.67306923  1
  Cu+  Cu82  1  0.91403779  0.08209815  0.67463116  1
  Cu+  Cu83  1  0.91439980  0.58595595  0.68148592  1
  Cu+  Cu84  1  0.00607419  0.25274281  0.00126105  1
  Cu+  Cu85  1  0.00356631  0.74989408  0.01074245  1
  Cu+  Cu86  1  0.50086646  0.24970260  0.01659840  1
  Cu+  Cu87  1  0.50259320  0.75245826  0.01059511  1
  Cu+  Cu88  1  0.25058609  0.49858655  0.00321113  1
  Cu+  Cu89  1  0.24648337  0.99605682  0.00818221  1
  Cu+  Cu90  1  0.74703313  0.49744826  0.01466046  1
  Cu+  Cu91  1  0.74889459  0.99720081  0.01468274  1
  Cu+  Cu92  1  0.24798490  0.24990561  0.00482772  1
  Cu+  Cu93  1  0.24828139  0.74902609  0.00851853  1
  Cu+  Cu94  1  0.74828083  0.25146615  0.01477485  1
  Cu+  Cu95  1  0.74976116  0.75420729  0.01405836  1
  Cu+  Cu96  1  0.33402476  0.41598247  0.33953496  1
  Cu+  Cu97  1  0.33500415  0.91709448  0.34792275  1
  Cu+  Cu98  1  0.83346337  0.41789308  0.34101057  1
  Cu+  Cu99  1  0.83431839  0.91411961  0.34510099  1
  Cu+  Cu100  1  0.07975076  0.16272085  0.33977938  1
  Cu+  Cu101  1  0.07943859  0.66332643  0.34000957  1
  Cu+  Cu102  1  0.58146870  0.16551868  0.34551287  1
  Cu+  Cu103  1  0.58190448  0.66139269  0.34155307  1
  Cu+  Cu104  1  0.08066985  0.41681006  0.33801295  1
  Cu+  Cu105  1  0.07913052  0.91234200  0.34165404  1
  Cu+  Cu106  1  0.58220146  0.41726914  0.34356135  1
  Cu+  Cu107  1  0.58201052  0.91694539  0.34834406  1
  Cu+  Cu108  1  0.00284751  0.00638840  0.10958704  1
  Cu+  Cu109  1  0.00334618  0.49639432  0.10819207  1
  Cu+  Cu110  1  0.49310859  -0.00471897  0.11719036  1
  Cu+  Cu111  1  0.48967426  0.49532359  0.11249010  1
  Cu+  Cu112  1  0.32982830  0.16744258  0.44905345  1
  Cu+  Cu113  1  0.33115737  0.66348604  0.44574086  1
  Cu+  Cu114  1  0.83633217  0.17293488  0.44737922  1
  Cu+  Cu115  1  0.83244766  0.66299357  0.45091109  1
  Cu+  Cu116  1  0.16371043  0.33294905  0.77418643  1
  Cu+  Cu117  1  0.16968895  0.83873497  0.78172089  1
  Cu+  Cu118  1  0.66867479  0.33201984  0.78481206  1
  Cu+  Cu119  1  0.66483760  0.83108221  0.78634814  1
  Te2-  Te120  1  0.00143084  -0.00090065  0.38558653  1
  Te2-  Te121  1  -0.00128189  0.49867952  0.38249147  1
  Te2-  Te122  1  0.50122755  0.00214466  0.39189077  1
  Te2-  Te123  1  0.49731046  0.49736628  0.38521096  1
  Te2-  Te124  1  0.33257883  0.16291924  0.72249807  1
  Te2-  Te125  1  0.33854219  0.67032825  0.71954703  1
  Te2-  Te126  1  0.83586789  0.16787190  0.71925863  1
  Te2-  Te127  1  0.83129944  0.66856854  0.72458787  1
  Te2-  Te128  1  0.16836320  0.33460098  0.04777109  1
  Te2-  Te129  1  0.16913324  0.83314710  0.05479432  1
  Te2-  Te130  1  0.66599001  0.33337341  0.06162059  1
  Te2-  Te131  1  0.66407768  0.83252550  0.06144958  1
  Te2-  Te132  1  0.49222391  0.24333280  0.88833244  1
  Te2-  Te133  1  0.49624264  0.74917690  0.88491927  1
  Te2-  Te134  1  0.99906545  0.25332906  0.87584592  1
  Te2-  Te135  1  0.99332772  0.74733078  0.88381138  1
  Te2-  Te136  1  0.25166704  0.00247922  0.88257559  1
  Te2-  Te137  1  0.26104032  0.50936638  0.87797711  1
  Te2-  Te138  1  0.75308145  0.00623084  0.88844630  1
  Te2-  Te139  1  0.74774535  0.50588700  0.88642699  1
  Te2-  Te140  1  0.25187758  0.24226521  0.87988079  1
  Te2-  Te141  1  0.25466918  0.74681037  0.88277906  1
  Te2-  Te142  1  0.75258658  0.25136502  0.88700715  1
  Te2-  Te143  1  0.75203029  0.74903009  0.88693966  1
  Te2-  Te144  1  0.32872969  0.41216564  0.21352205  1
  Te2-  Te145  1  0.33012638  0.91624506  0.22013209  1
  Te2-  Te146  1  0.82229559  0.41231933  0.21521153  1
  Te2-  Te147  1  0.82063862  0.90780139  0.21761801  1
  Te2-  Te148  1  0.08009187  0.16612477  0.21335825  1
  Te2-  Te149  1  0.08772460  0.67366576  0.21421352  1
  Te2-  Te150  1  0.58763970  0.17575414  0.21924038  1
  Te2-  Te151  1  0.58330500  0.67115370  0.21594038  1
  Te2-  Te152  1  0.08247365  0.41261304  0.21197975  1
  Te2-  Te153  1  0.08615914  0.91206357  0.21557930  1
  Te2-  Te154  1  0.58847770  0.41046186  0.21776012  1
  Te2-  Te155  1  0.58332034  0.91162909  0.22001002  1
  Te2-  Te156  1  0.16412568  0.08114724  0.54815928  1
  Te2-  Te157  1  0.16605923  0.58686116  0.54838327  1
  Te2-  Te158  1  0.66172584  0.08164059  0.55070534  1
  Te2-  Te159  1  0.66393879  0.58449575  0.55021710  1
  Te2-  Te160  1  0.41928692  0.33802268  0.55216250  1
  Te2-  Te161  1  0.42512733  0.84778637  0.55108332  1
  Te2-  Te162  1  0.91929390  0.33774094  0.54754571  1
  Te2-  Te163  1  0.92425862  0.84279068  0.55192533  1
  Te2-  Te164  1  0.42515540  0.08331825  0.55152265  1
  Te2-  Te165  1  0.42127070  0.58534378  0.54694487  1
  Te2-  Te166  1  0.92308452  0.08094458  0.54887786  1
  Te2-  Te167  1  0.91892224  0.58148535  0.55435549  1
  Te2-  Te168  1  0.00120923  0.00243445  0.88175214  1
  Te2-  Te169  1  0.00141737  0.49974930  0.88215579  1
  Te2-  Te170  1  0.50023404  0.00051425  0.88463894  1
  Te2-  Te171  1  0.49759427  0.49873995  0.88213777  1
  Te2-  Te172  1  0.32919250  0.16479310  0.21574252  1
  Te2-  Te173  1  0.33043895  0.66404669  0.21464159  1
  Te2-  Te174  1  0.83300958  0.16626575  0.21462417  1
  Te2-  Te175  1  0.83160436  0.66526849  0.21296269  1
  Te2-  Te176  1  0.16708833  0.33493029  0.54695501  1
  Te2-  Te177  1  0.16664061  0.83354937  0.54962285  1
  Te2-  Te178  1  0.66682630  0.33344157  0.55005460  1
  Te2-  Te179  1  0.66696735  0.83382949  0.54874336  1
  Te2-  Te180  1  0.32779101  0.41545531  0.70684994  1
  Te2-  Te181  1  0.33042438  0.91526932  0.71265487  1
  Te2-  Te182  1  0.82789092  0.41296585  0.71289111  1
  Te2-  Te183  1  0.82657131  0.91379338  0.71492067  1
  Te2-  Te184  1  0.08543466  0.17046452  0.70834623  1
  Te2-  Te185  1  0.08838206  0.67639011  0.70942012  1
  Te2-  Te186  1  0.58841312  0.17248979  0.71457681  1
  Te2-  Te187  1  0.58586800  0.67125394  0.71372981  1
  Te2-  Te188  1  0.08589609  0.41608098  0.70645509  1
  Te2-  Te189  1  0.08565533  0.91449475  0.71166794  1
  Te2-  Te190  1  0.58806709  0.41391379  0.71256365  1
  Te2-  Te191  1  0.58879135  0.91571773  0.71534712  1
  Te2-  Te192  1  0.16115052  0.08067063  0.04242479  1
  Te2-  Te193  1  0.16246310  0.57912154  0.04188982  1
  Te2-  Te194  1  0.65674718  0.07849781  0.04395475  1
  Te2-  Te195  1  0.65744503  0.58055612  0.04113516  1
  Te2-  Te196  1  0.41642700  0.33821245  0.04271620  1
  Te2-  Te197  1  0.41817619  0.83812174  0.04638346  1
  Te2-  Te198  1  0.92205380  0.33769212  0.03985094  1
  Te2-  Te199  1  0.92294369  0.84249861  0.03975963  1
  Te2-  Te200  1  0.41618980  0.07672393  0.04529725  1
  Te2-  Te201  1  0.41884241  0.58138862  0.04330516  1
  Te2-  Te202  1  0.92274913  0.08385282  0.04072365  1
  Te2-  Te203  1  0.92011511  0.57730728  0.03876199  1
  Te2-  Te204  1  0.49306578  0.24723794  0.37981825  1
  Te2-  Te205  1  0.49402381  0.74384103  0.37599606  1
  Te2-  Te206  1  0.99440576  0.24724319  0.37616786  1
  Te2-  Te207  1  0.99301512  0.74449375  0.38033162  1
  Te2-  Te208  1  0.24997069  0.00509371  0.37776525  1
  Te2-  Te209  1  0.25089136  0.50349512  0.37612375  1
  Te2-  Te210  1  0.75512486  0.00775596  0.37533393  1
  Te2-  Te211  1  0.75195703  0.50490562  0.38036184  1
  Te2-  Te212  1  0.25018411  0.24622195  0.37756698  1
  Te2-  Te213  1  0.24982878  0.74393045  0.37636490  1
  Te2-  Te214  1  0.75215554  0.24811515  0.37827970  1
  Te2-  Te215  1  0.75107518  0.74261866  0.37807881  1
