# generated using pymatgen
data_Ti(CuTe)4
_symmetry_space_group_name_H-M   'P 1'
_cell_length_a   16.85859529
_cell_length_b   16.86009708
_cell_length_c   20.66319563
_cell_angle_alpha   89.99805445
_cell_angle_beta   90.03362035
_cell_angle_gamma   120.01031406
_symmetry_Int_Tables_number   1
_chemical_formula_structural   Ti(CuTe)4
_chemical_formula_sum   'Ti24 Cu96 Te96'
_cell_volume   5085.85922235
_cell_formula_units_Z   24
loop_
 _symmetry_equiv_pos_site_id
 _symmetry_equiv_pos_as_xyz
  1  'x, y, z'
loop_
 _atom_type_symbol
 _atom_type_oxidation_number
  Ti4+  4.0
  Cu+  1.0
  Te2-  -2.0
loop_
 _atom_site_type_symbol
 _atom_site_label
 _atom_site_symmetry_multiplicity
 _atom_site_fract_x
 _atom_site_fract_y
 _atom_site_fract_z
 _atom_site_occupancy
  Ti4+  Ti0  1  -0.00244892  -0.00109108  0.25592065  1
  Ti4+  Ti1  1  -0.00267864  0.49776711  0.25618334  1
  Ti4+  Ti2  1  0.49632508  -0.00507068  0.26161417  1
  Ti4+  Ti3  1  0.49996834  0.49743987  0.25827942  1
  Ti4+  Ti4  1  0.33308501  0.16487301  0.59233817  1
  Ti4+  Ti5  1  0.33674470  0.66841360  0.59196481  1
  Ti4+  Ti6  1  0.83353319  0.16610166  0.59264215  1
  Ti4+  Ti7  1  0.83198367  0.66413018  0.58954636  1
  Ti4+  Ti8  1  0.16748585  0.33550269  0.92198827  1
  Ti4+  Ti9  1  0.17056852  0.83774834  0.92601505  1
  Ti4+  Ti10  1  0.66546406  0.33492405  0.92441301  1
  Ti4+  Ti11  1  0.66606426  0.83738620  0.92314820  1
  Ti4+  Ti12  1  0.00011091  0.00095357  0.75497699  1
  Ti4+  Ti13  1  0.00231446  0.50018612  0.75458396  1
  Ti4+  Ti14  1  0.50063925  0.00075954  0.75473284  1
  Ti4+  Ti15  1  0.50041922  0.50059539  0.75497716  1
  Ti4+  Ti16  1  0.33344940  0.16716449  0.08872477  1
  Ti4+  Ti17  1  0.33515834  0.67059035  0.09091652  1
  Ti4+  Ti18  1  0.83295375  0.16503175  0.08997332  1
  Ti4+  Ti19  1  0.83311696  0.66558608  0.08618189  1
  Ti4+  Ti20  1  0.16636020  0.33259190  0.42266217  1
  Ti4+  Ti21  1  0.16889495  0.83468783  0.42327001  1
  Ti4+  Ti22  1  0.66610309  0.33138320  0.42194514  1
  Ti4+  Ti23  1  0.66550924  0.83067565  0.42288138  1
  Cu+  Cu24  1  0.35411215  0.93004566  0.48087685  1
  Cu+  Cu25  1  0.67825729  0.09467837  0.81258931  1
  Cu+  Cu26  1  0.40471656  0.59174370  0.80797142  1
  Cu+  Cu27  1  0.90949065  0.09831229  0.80774067  1
  Cu+  Cu28  1  0.73241419  0.97038725  0.14253651  1
  Cu+  Cu29  1  0.23690570  0.98102461  0.14412169  1
  Cu+  Cu30  1  0.40914933  0.82639303  0.81468229  1
  Cu+  Cu31  1  0.58079251  0.92639230  0.48133331  1
  Cu+  Cu32  1  0.56818975  0.64019455  0.47303565  1
  Cu+  Cu33  1  0.23726291  0.75713808  0.14563177  1
  Cu+  Cu34  1  0.73515732  0.47348926  0.14054440  1
  Cu+  Cu35  1  0.40610027  0.09441022  0.80943148  1
  Cu+  Cu36  1  0.16265601  0.08083434  0.16964046  1
  Cu+  Cu37  1  0.16385205  0.58296440  0.17159890  1
  Cu+  Cu38  1  0.66461897  0.07520875  0.17498344  1
  Cu+  Cu39  1  0.66408984  0.57720572  0.17027286  1
  Cu+  Cu40  1  0.41807649  0.33781066  0.17022636  1
  Cu+  Cu41  1  0.41434568  0.83690233  0.17364019  1
  Cu+  Cu42  1  0.91852529  0.33620772  0.17038366  1
  Cu+  Cu43  1  0.91755846  0.83806497  0.16706674  1
  Cu+  Cu44  1  0.41136148  0.07681013  0.17251889  1
  Cu+  Cu45  1  0.41946760  0.58259243  0.17313011  1
  Cu+  Cu46  1  0.91139381  0.07544393  0.16951275  1
  Cu+  Cu47  1  0.91171718  0.57439488  0.16705148  1
  Cu+  Cu48  1  0.49804765  0.24729891  0.50521015  1
  Cu+  Cu49  1  0.49762879  0.74727680  0.50418771  1
  Cu+  Cu50  1  0.99904549  0.24753639  0.50637288  1
  Cu+  Cu51  1  0.99749695  0.74857823  0.50459539  1
  Cu+  Cu52  1  0.25545886  0.00469074  0.50590377  1
  Cu+  Cu53  1  0.25344335  0.50165353  0.50512685  1
  Cu+  Cu54  1  0.75368706  0.00642954  0.50616612  1
  Cu+  Cu55  1  0.75309513  0.50220796  0.50296717  1
  Cu+  Cu56  1  0.25026084  0.24758697  0.50536521  1
  Cu+  Cu57  1  0.25644175  0.75426114  0.50494484  1
  Cu+  Cu58  1  0.75040013  0.24797276  0.50514157  1
  Cu+  Cu59  1  0.74607453  0.74093168  0.50273300  1
  Cu+  Cu60  1  0.33071315  0.41822588  0.83588550  1
  Cu+  Cu61  1  0.32555296  0.91721956  0.83681477  1
  Cu+  Cu62  1  0.83372728  0.42073496  0.83794166  1
  Cu+  Cu63  1  0.83272374  0.92301072  0.83611383  1
  Cu+  Cu64  1  0.08352683  0.17109777  0.83587077  1
  Cu+  Cu65  1  0.08685736  0.66795099  0.83840121  1
  Cu+  Cu66  1  0.58300120  0.17418711  0.83563191  1
  Cu+  Cu67  1  0.58045071  0.66930463  0.83576098  1
  Cu+  Cu68  1  0.08788944  0.41618900  0.83388507  1
  Cu+  Cu69  1  0.08817187  0.91959211  0.83803907  1
  Cu+  Cu70  1  0.58687256  0.41767584  0.83798226  1
  Cu+  Cu71  1  0.58837826  0.91555405  0.83290495  1
  Cu+  Cu72  1  0.16905356  0.08170352  0.67404755  1
  Cu+  Cu73  1  0.16982501  0.58469385  0.67315514  1
  Cu+  Cu74  1  0.66917775  0.08398512  0.68156774  1
  Cu+  Cu75  1  0.67000877  0.58239633  0.67347194  1
  Cu+  Cu76  1  0.41753287  0.32937360  0.67461744  1
  Cu+  Cu77  1  0.41823201  0.83231019  0.68387087  1
  Cu+  Cu78  1  0.91763717  0.33309211  0.67405126  1
  Cu+  Cu79  1  0.91581483  0.82853155  0.67217243  1
  Cu+  Cu80  1  0.41386065  0.08301614  0.68145492  1
  Cu+  Cu81  1  0.41796806  0.58638002  0.67992049  1
  Cu+  Cu82  1  0.91388263  0.08431969  0.67897771  1
  Cu+  Cu83  1  0.91747216  0.58519196  0.67251818  1
  Cu+  Cu84  1  0.00337901  0.25253625  0.00695575  1
  Cu+  Cu85  1  0.00261832  0.75228852  0.00718838  1
  Cu+  Cu86  1  0.50077838  0.25205518  0.00862914  1
  Cu+  Cu87  1  0.50105717  0.75341352  0.00997540  1
  Cu+  Cu88  1  0.25275879  0.50092296  0.00776816  1
  Cu+  Cu89  1  0.25203197  1.00013378  0.01424689  1
  Cu+  Cu90  1  0.74747273  0.49667800  0.01146696  1
  Cu+  Cu91  1  0.74862294  0.99906976  0.01360552  1
  Cu+  Cu92  1  0.25073512  0.25460049  0.00442586  1
  Cu+  Cu93  1  0.25438442  0.75714731  0.01593286  1
  Cu+  Cu94  1  0.74939073  0.25106215  0.00878652  1
  Cu+  Cu95  1  0.75021211  0.75373987  0.00509947  1
  Cu+  Cu96  1  0.33376202  0.41655572  0.34073095  1
  Cu+  Cu97  1  0.33436893  0.91604928  0.35219322  1
  Cu+  Cu98  1  0.83357113  0.41469071  0.34075278  1
  Cu+  Cu99  1  0.83438321  0.91805233  0.34165322  1
  Cu+  Cu100  1  0.08055711  0.16370257  0.33774729  1
  Cu+  Cu101  1  0.08085379  0.66308623  0.34046439  1
  Cu+  Cu102  1  0.58119669  0.16196306  0.34279045  1
  Cu+  Cu103  1  0.58211882  0.65943531  0.34468288  1
  Cu+  Cu104  1  0.08174930  0.41723451  0.34041373  1
  Cu+  Cu105  1  0.08342927  0.91963782  0.34118404  1
  Cu+  Cu106  1  0.58219799  0.41470624  0.34250845  1
  Cu+  Cu107  1  0.58105866  0.91426499  0.35079722  1
  Cu+  Cu108  1  0.00211865  0.00417184  0.11013748  1
  Cu+  Cu109  1  0.00252479  0.50034823  0.11085387  1
  Cu+  Cu110  1  0.50495100  0.00788026  0.11851360  1
  Cu+  Cu111  1  0.50124195  0.50384376  0.11424336  1
  Cu+  Cu112  1  0.33393073  0.17204292  0.44875492  1
  Cu+  Cu113  1  0.32720786  0.66205640  0.44865261  1
  Cu+  Cu114  1  0.83869818  0.17424626  0.45023005  1
  Cu+  Cu115  1  0.83683690  0.66582987  0.44581708  1
  Cu+  Cu116  1  0.16883217  0.33190533  0.77540994  1
  Cu+  Cu117  1  0.15636802  0.82706415  0.78281234  1
  Cu+  Cu118  1  0.67301460  0.34029371  0.78126629  1
  Cu+  Cu119  1  0.67290571  0.82845923  0.77920624  1
  Te2-  Te120  1  -0.00054067  0.00045417  0.38512895  1
  Te2-  Te121  1  -0.00159225  0.49847234  0.38521530  1
  Te2-  Te122  1  0.50132843  0.00078178  0.39405139  1
  Te2-  Te123  1  0.49654697  0.49293336  0.38902924  1
  Te2-  Te124  1  0.33108089  0.16724505  0.72334959  1
  Te2-  Te125  1  0.33106516  0.66570508  0.72411506  1
  Te2-  Te126  1  0.83513821  0.17147139  0.72516693  1
  Te2-  Te127  1  0.83400233  0.66526346  0.71889621  1
  Te2-  Te128  1  0.16816634  0.33569778  0.05111431  1
  Te2-  Te129  1  0.16432875  0.83381631  0.05837674  1
  Te2-  Te130  1  0.66445728  0.33000377  0.05477633  1
  Te2-  Te131  1  0.66556377  0.83147224  0.05344439  1
  Te2-  Te132  1  0.49151558  0.25006914  0.88294661  1
  Te2-  Te133  1  0.48977890  0.74811665  0.88361856  1
  Te2-  Te134  1  0.99332313  0.25113472  0.88138595  1
  Te2-  Te135  1  1.00116741  0.75131210  0.88137031  1
  Te2-  Te136  1  0.25404094  0.01139076  0.88642736  1
  Te2-  Te137  1  0.25263278  0.50986556  0.88211905  1
  Te2-  Te138  1  0.75435045  0.01349021  0.88518269  1
  Te2-  Te139  1  0.75282993  0.50666976  0.88440827  1
  Te2-  Te140  1  0.25240939  0.24991798  0.87841558  1
  Te2-  Te141  1  0.25442876  0.74860977  0.88729236  1
  Te2-  Te142  1  0.75385569  0.25094326  0.88253515  1
  Te2-  Te143  1  0.75028026  0.75282015  0.87883487  1
  Te2-  Te144  1  0.32833764  0.41419359  0.21521816  1
  Te2-  Te145  1  0.31989346  0.90978804  0.22335491  1
  Te2-  Te146  1  0.82270480  0.40661741  0.21503701  1
  Te2-  Te147  1  0.82229450  0.90711308  0.21589372  1
  Te2-  Te148  1  0.08170347  0.16878668  0.21149679  1
  Te2-  Te149  1  0.07929579  0.67069576  0.21431421  1
  Te2-  Te150  1  0.58119388  0.16304400  0.21618764  1
  Te2-  Te151  1  0.58793114  0.66875221  0.21723150  1
  Te2-  Te152  1  0.08593999  0.41478999  0.21427365  1
  Te2-  Te153  1  0.08258606  0.91008923  0.21540211  1
  Te2-  Te154  1  0.58347960  0.40724588  0.21637211  1
  Te2-  Te155  1  0.58093985  0.90599495  0.22234985  1
  Te2-  Te156  1  0.16224586  0.07884923  0.54838612  1
  Te2-  Te157  1  0.16776757  0.58530236  0.54749810  1
  Te2-  Te158  1  0.65992344  0.08226352  0.55386890  1
  Te2-  Te159  1  0.65691071  0.57287799  0.54796517  1
  Te2-  Te160  1  0.41866724  0.33565702  0.54871800  1
  Te2-  Te161  1  0.42484035  0.84399607  0.55448617  1
  Te2-  Te162  1  0.91872493  0.33620551  0.54826338  1
  Te2-  Te163  1  0.91508208  0.83532796  0.54616727  1
  Te2-  Te164  1  0.42474319  0.08195140  0.55440628  1
  Te2-  Te165  1  0.42001557  0.57848649  0.55245641  1
  Te2-  Te166  1  0.91902996  0.07999814  0.55193345  1
  Te2-  Te167  1  0.92050375  0.58067181  0.54687456  1
  Te2-  Te168  1  0.00145577  0.00187118  0.88234373  1
  Te2-  Te169  1  0.00256495  0.49965491  0.88152453  1
  Te2-  Te170  1  0.50100089  0.00122145  0.88306558  1
  Te2-  Te171  1  0.50053621  0.50122028  0.88227939  1
  Te2-  Te172  1  0.33202476  0.16797440  0.21588574  1
  Te2-  Te173  1  0.33308195  0.66533732  0.21802596  1
  Te2-  Te174  1  0.83473265  0.16692067  0.21700397  1
  Te2-  Te175  1  0.83469402  0.66725405  0.21303931  1
  Te2-  Te176  1  0.16775460  0.33314138  0.54971659  1
  Te2-  Te177  1  0.16644372  0.83357442  0.55047613  1
  Te2-  Te178  1  0.66768633  0.33384487  0.54878416  1
  Te2-  Te179  1  0.66889179  0.83363648  0.55033712  1
  Te2-  Te180  1  0.32875410  0.41211955  0.70785436  1
  Te2-  Te181  1  0.32352526  0.91048550  0.71029257  1
  Te2-  Te182  1  0.83025616  0.41572847  0.71052579  1
  Te2-  Te183  1  0.82843439  0.91144575  0.70840976  1
  Te2-  Te184  1  0.08806946  0.17217162  0.70765570  1
  Te2-  Te185  1  0.08743360  0.67190933  0.71037500  1
  Te2-  Te186  1  0.58798575  0.17600081  0.70874133  1
  Te2-  Te187  1  0.59047179  0.67287674  0.70829527  1
  Te2-  Te188  1  0.08843854  0.41447484  0.70774654  1
  Te2-  Te189  1  0.08477279  0.91296699  0.71107942  1
  Te2-  Te190  1  0.58663279  0.41378778  0.71155816  1
  Te2-  Te191  1  0.59054548  0.91224399  0.70782727  1
  Te2-  Te192  1  0.16204311  0.08445359  0.04131146  1
  Te2-  Te193  1  0.16374351  0.58222204  0.04339473  1
  Te2-  Te194  1  0.65989378  0.08195368  0.04588352  1
  Te2-  Te195  1  0.66027691  0.58324299  0.04194458  1
  Te2-  Te196  1  0.41908004  0.33982945  0.04407021  1
  Te2-  Te197  1  0.42561136  0.84584416  0.04725018  1
  Te2-  Te198  1  0.91901990  0.33732803  0.04413557  1
  Te2-  Te199  1  0.91942024  0.83919065  0.04129029  1
  Te2-  Te200  1  0.42349525  0.08290963  0.04498390  1
  Te2-  Te201  1  0.42088669  0.58410559  0.04586631  1
  Te2-  Te202  1  0.92177146  0.08261048  0.04179579  1
  Te2-  Te203  1  0.92174963  0.58126847  0.04010728  1
  Te2-  Te204  1  0.49316320  0.24403334  0.37808397  1
  Te2-  Te205  1  0.49052954  0.74063429  0.37716579  1
  Te2-  Te206  1  0.99518860  0.24718323  0.37815183  1
  Te2-  Te207  1  0.99764020  0.74934628  0.37754114  1
  Te2-  Te208  1  0.25264084  0.00843947  0.37855702  1
  Te2-  Te209  1  0.25182008  0.50400101  0.37775776  1
  Te2-  Te210  1  0.75408887  0.00588353  0.37939358  1
  Te2-  Te211  1  0.75260907  0.50355797  0.37661727  1
  Te2-  Te212  1  0.25049637  0.24616073  0.37708667  1
  Te2-  Te213  1  0.25011050  0.74252319  0.37751809  1
  Te2-  Te214  1  0.75166426  0.24460174  0.37772392  1
  Te2-  Te215  1  0.75462196  0.74751500  0.37611184  1
