# generated using pymatgen
data_Ti(CuTe)4
_symmetry_space_group_name_H-M   'P 1'
_cell_length_a   16.85822821
_cell_length_b   16.85708780
_cell_length_c   20.66170753
_cell_angle_alpha   89.97877985
_cell_angle_beta   90.01081596
_cell_angle_gamma   120.00623955
_symmetry_Int_Tables_number   1
_chemical_formula_structural   Ti(CuTe)4
_chemical_formula_sum   'Ti24 Cu96 Te96'
_cell_volume   5084.68414202
_cell_formula_units_Z   24
loop_
 _symmetry_equiv_pos_site_id
 _symmetry_equiv_pos_as_xyz
  1  'x, y, z'
loop_
 _atom_type_symbol
 _atom_type_oxidation_number
  Ti4+  4.0
  Cu+  1.0
  Te2-  -2.0
loop_
 _atom_site_type_symbol
 _atom_site_label
 _atom_site_symmetry_multiplicity
 _atom_site_fract_x
 _atom_site_fract_y
 _atom_site_fract_z
 _atom_site_occupancy
  Ti4+  Ti0  1  0.00328625  0.00258478  0.25220066  1
  Ti4+  Ti1  1  -0.00255120  0.49935945  0.25421837  1
  Ti4+  Ti2  1  0.50271147  -0.00395359  0.26030272  1
  Ti4+  Ti3  1  0.50058420  0.49891534  0.25839270  1
  Ti4+  Ti4  1  0.33424468  0.16851236  0.59047725  1
  Ti4+  Ti5  1  0.33563908  0.67116021  0.59426749  1
  Ti4+  Ti6  1  0.83533676  0.16829884  0.59261856  1
  Ti4+  Ti7  1  0.83227733  0.66670202  0.59071464  1
  Ti4+  Ti8  1  0.16682633  0.33254060  0.92491181  1
  Ti4+  Ti9  1  0.16548659  0.83326141  0.92344019  1
  Ti4+  Ti10  1  0.66585046  0.33290609  0.92701456  1
  Ti4+  Ti11  1  0.66065066  0.83063451  0.92631382  1
  Ti4+  Ti12  1  0.00049059  0.00058983  0.75680351  1
  Ti4+  Ti13  1  -0.00044299  0.50025776  0.75590947  1
  Ti4+  Ti14  1  0.50023775  -0.00056962  0.75735482  1
  Ti4+  Ti15  1  0.50002061  0.50127103  0.75704884  1
  Ti4+  Ti16  1  0.33180721  0.16626485  0.08852362  1
  Ti4+  Ti17  1  0.33440138  0.66665510  0.09037574  1
  Ti4+  Ti18  1  0.83205319  0.16514751  0.08439688  1
  Ti4+  Ti19  1  0.83361175  0.66568552  0.08658696  1
  Ti4+  Ti20  1  0.16655169  0.33263052  0.42350442  1
  Ti4+  Ti21  1  0.16914234  0.83315423  0.42179017  1
  Ti4+  Ti22  1  0.66542800  0.33354162  0.42109694  1
  Ti4+  Ti23  1  0.66738153  0.83372953  0.42245833  1
  Cu+  Cu24  1  0.74706249  0.98435650  0.14167469  1
  Cu+  Cu25  1  0.51914628  0.75591471  0.14655479  1
  Cu+  Cu26  1  0.57061796  0.43112817  0.47453759  1
  Cu+  Cu27  1  0.73802864  0.48191356  0.14202474  1
  Cu+  Cu28  1  0.01286840  0.26152219  0.14062067  1
  Cu+  Cu29  1  0.57952113  0.92792951  0.48258186  1
  Cu+  Cu30  1  0.40002737  0.58717272  0.80858787  1
  Cu+  Cu31  1  0.35567501  0.93201612  0.47703746  1
  Cu+  Cu32  1  0.73696876  0.24823569  0.14399650  1
  Cu+  Cu33  1  0.24697234  0.26657234  0.13994370  1
  Cu+  Cu34  1  0.02509141  0.76135641  0.13729912  1
  Cu+  Cu35  1  0.40415921  0.81537999  0.81323397  1
  Cu+  Cu36  1  0.16437477  0.08720380  0.16513709  1
  Cu+  Cu37  1  0.16347701  0.58211371  0.16921074  1
  Cu+  Cu38  1  0.65949167  0.07353393  0.16746859  1
  Cu+  Cu39  1  0.66235323  0.57806193  0.16934072  1
  Cu+  Cu40  1  0.41725579  0.33508922  0.17136196  1
  Cu+  Cu41  1  0.42281105  0.83432493  0.17356844  1
  Cu+  Cu42  1  0.91741337  0.33955105  0.16397254  1
  Cu+  Cu43  1  0.92441401  0.83634193  0.16478602  1
  Cu+  Cu44  1  0.41445547  0.07839760  0.17248216  1
  Cu+  Cu45  1  0.42035278  0.58330030  0.17125935  1
  Cu+  Cu46  1  0.92281167  0.08237879  0.16220775  1
  Cu+  Cu47  1  0.91775659  0.58291914  0.16617550  1
  Cu+  Cu48  1  0.49642420  0.25406027  0.50188160  1
  Cu+  Cu49  1  0.49636648  0.75176678  0.50662170  1
  Cu+  Cu50  1  0.99823435  0.25008881  0.50596419  1
  Cu+  Cu51  1  0.99650883  0.74866993  0.50366526  1
  Cu+  Cu52  1  0.25345697  0.00297530  0.50402098  1
  Cu+  Cu53  1  0.25174315  0.50196398  0.50877208  1
  Cu+  Cu54  1  0.75322447  0.00569690  0.50468290  1
  Cu+  Cu55  1  0.74645331  0.50328643  0.50312226  1
  Cu+  Cu56  1  0.25190067  0.24825499  0.50452681  1
  Cu+  Cu57  1  0.25714651  0.75454358  0.50493075  1
  Cu+  Cu58  1  0.75455817  0.25071319  0.50403430  1
  Cu+  Cu59  1  0.75377554  0.74912511  0.50321303  1
  Cu+  Cu60  1  0.32967936  0.41481293  0.83930165  1
  Cu+  Cu61  1  0.32827963  0.91285852  0.83755966  1
  Cu+  Cu62  1  0.83044676  0.41551738  0.84096580  1
  Cu+  Cu63  1  0.83076142  0.91763831  0.84076379  1
  Cu+  Cu64  1  0.08678644  0.16921463  0.84014753  1
  Cu+  Cu65  1  0.08083531  0.66913371  0.83697662  1
  Cu+  Cu66  1  0.58536483  0.16919380  0.84108102  1
  Cu+  Cu67  1  0.57614922  0.66771301  0.83816827  1
  Cu+  Cu68  1  0.08151909  0.41305871  0.83797974  1
  Cu+  Cu69  1  0.08320534  0.91471214  0.83850939  1
  Cu+  Cu70  1  0.58550833  0.41514464  0.84049684  1
  Cu+  Cu71  1  0.57912629  0.90918377  0.83966083  1
  Cu+  Cu72  1  0.17030622  0.08502754  0.67397562  1
  Cu+  Cu73  1  0.16795224  0.58573756  0.67654970  1
  Cu+  Cu74  1  0.67148374  0.08594237  0.67751319  1
  Cu+  Cu75  1  0.66926511  0.58402224  0.67596831  1
  Cu+  Cu76  1  0.41830370  0.33307229  0.67590018  1
  Cu+  Cu77  1  0.41873490  0.83439176  0.68437084  1
  Cu+  Cu78  1  0.91597346  0.33154271  0.67549544  1
  Cu+  Cu79  1  0.91472697  0.83078669  0.67436165  1
  Cu+  Cu80  1  0.41876563  0.08769192  0.67524333  1
  Cu+  Cu81  1  0.41642237  0.58725502  0.68092576  1
  Cu+  Cu82  1  0.91720052  0.08609804  0.67535612  1
  Cu+  Cu83  1  0.91313561  0.58293132  0.67268265  1
  Cu+  Cu84  1  0.00283305  0.24935899  0.01055161  1
  Cu+  Cu85  1  0.00514060  0.75372926  0.00948709  1
  Cu+  Cu86  1  0.49987878  0.24844646  0.00835321  1
  Cu+  Cu87  1  0.50035216  0.75091549  0.01743621  1
  Cu+  Cu88  1  0.25009688  0.49972954  0.00808596  1
  Cu+  Cu89  1  0.24987684  0.99814741  0.00534947  1
  Cu+  Cu90  1  0.74694115  0.49489290  0.01308275  1
  Cu+  Cu91  1  0.74290598  0.99417254  0.01222391  1
  Cu+  Cu92  1  0.24848059  0.25250833  0.01164718  1
  Cu+  Cu93  1  0.24949242  0.75074609  0.00792279  1
  Cu+  Cu94  1  0.74734468  0.25143832  0.01361192  1
  Cu+  Cu95  1  0.74543145  0.74815430  0.00614318  1
  Cu+  Cu96  1  0.33298433  0.41597909  0.34354222  1
  Cu+  Cu97  1  0.33859093  0.91468722  0.34785247  1
  Cu+  Cu98  1  0.83310691  0.41593752  0.34006824  1
  Cu+  Cu99  1  0.83678137  0.91729530  0.33726608  1
  Cu+  Cu100  1  0.08277961  0.16624633  0.33978557  1
  Cu+  Cu101  1  0.08155640  0.66470421  0.33993828  1
  Cu+  Cu102  1  0.58489688  0.16426141  0.34316155  1
  Cu+  Cu103  1  0.58415761  0.66527463  0.34392833  1
  Cu+  Cu104  1  0.08163094  0.41696161  0.34083857  1
  Cu+  Cu105  1  0.08441614  0.91745297  0.33684307  1
  Cu+  Cu106  1  0.58052331  0.41641032  0.34602894  1
  Cu+  Cu107  1  0.58377635  0.91458703  0.35117870  1
  Cu+  Cu108  1  0.00070611  -0.00291364  0.10501735  1
  Cu+  Cu109  1  0.00179127  0.50338687  0.10800393  1
  Cu+  Cu110  1  0.49229510  -0.00277996  0.11645764  1
  Cu+  Cu111  1  0.49864564  0.49876487  0.11295203  1
  Cu+  Cu112  1  0.32940603  0.16376052  0.44496498  1
  Cu+  Cu113  1  0.32883263  0.66064017  0.45152408  1
  Cu+  Cu114  1  0.83736036  0.16847161  0.44777425  1
  Cu+  Cu115  1  0.83681098  0.66645149  0.44571712  1
  Cu+  Cu116  1  0.16366317  0.33123415  0.78222023  1
  Cu+  Cu117  1  0.16333188  0.83328842  0.78007556  1
  Cu+  Cu118  1  0.66835990  0.33402830  0.78550183  1
  Cu+  Cu119  1  0.67218605  0.83406977  0.78409430  1
  Te2-  Te120  1  0.00207630  0.00007259  0.38063993  1
  Te2-  Te121  1  -0.00150503  0.49954108  0.38280882  1
  Te2-  Te122  1  0.50449095  0.00199315  0.39251554  1
  Te2-  Te123  1  0.49743246  0.50069981  0.38857747  1
  Te2-  Te124  1  0.33449728  0.16815842  0.71962635  1
  Te2-  Te125  1  0.33014940  0.66712853  0.72630762  1
  Te2-  Te126  1  0.83579815  0.16811193  0.72214883  1
  Te2-  Te127  1  0.83375002  0.66678358  0.72011577  1
  Te2-  Te128  1  0.16758017  0.33729811  0.05752497  1
  Te2-  Te129  1  0.17112269  0.83585066  0.05427685  1
  Te2-  Te130  1  0.66114840  0.32974438  0.06023164  1
  Te2-  Te131  1  0.66691806  0.82979013  0.05895510  1
  Te2-  Te132  1  0.49497673  0.24698784  0.88315500  1
  Te2-  Te133  1  0.48414713  0.74152654  0.88900613  1
  Te2-  Te134  1  0.99553164  0.24631340  0.88366066  1
  Te2-  Te135  1  0.99313801  0.74748392  0.88307105  1
  Te2-  Te136  1  0.25262022  0.00439620  0.87996979  1
  Te2-  Te137  1  0.24860588  0.50523397  0.88298411  1
  Te2-  Te138  1  0.74605931  0.00181151  0.88532185  1
  Te2-  Te139  1  0.75183434  0.50465936  0.88626201  1
  Te2-  Te140  1  0.25477703  0.24889495  0.88487839  1
  Te2-  Te141  1  0.24805586  0.74221907  0.88252033  1
  Te2-  Te142  1  0.75202283  0.24733124  0.88646248  1
  Te2-  Te143  1  0.74552611  0.74632381  0.88050392  1
  Te2-  Te144  1  0.32778836  0.41704293  0.21731145  1
  Te2-  Te145  1  0.33263369  0.91136677  0.22018771  1
  Te2-  Te146  1  0.82189687  0.41035009  0.21363358  1
  Te2-  Te147  1  0.83102216  0.91152940  0.21111913  1
  Te2-  Te148  1  0.08868928  0.17959016  0.21334212  1
  Te2-  Te149  1  0.08707593  0.67303723  0.21395166  1
  Te2-  Te150  1  0.58381114  0.16776246  0.21710716  1
  Te2-  Te151  1  0.59139746  0.67217949  0.21762882  1
  Te2-  Te152  1  0.08644132  0.41500562  0.21471757  1
  Te2-  Te153  1  0.09289864  0.91903369  0.21106092  1
  Te2-  Te154  1  0.58334826  0.40863896  0.21833361  1
  Te2-  Te155  1  0.59285043  0.91014829  0.22143474  1
  Te2-  Te156  1  0.16312882  0.08016815  0.54779263  1
  Te2-  Te157  1  0.16586356  0.58626307  0.55020083  1
  Te2-  Te158  1  0.66140277  0.08473092  0.55136488  1
  Te2-  Te159  1  0.65760784  0.58334278  0.54986888  1
  Te2-  Te160  1  0.41842344  0.34324250  0.55014697  1
  Te2-  Te161  1  0.42384806  0.84749977  0.55576008  1
  Te2-  Te162  1  0.92052430  0.34023777  0.54966081  1
  Te2-  Te163  1  0.91973400  0.83900720  0.54856573  1
  Te2-  Te164  1  0.42563692  0.08689769  0.54885921  1
  Te2-  Te165  1  0.42048647  0.58495887  0.55376283  1
  Te2-  Te166  1  0.91989520  0.08162927  0.54914955  1
  Te2-  Te167  1  0.91543369  0.57931255  0.54622080  1
  Te2-  Te168  1  -0.00029866  -0.00032496  0.88372418  1
  Te2-  Te169  1  0.00009545  0.50041317  0.88272870  1
  Te2-  Te170  1  0.49770680  -0.00116985  0.88452871  1
  Te2-  Te171  1  0.49971852  0.49872845  0.88431218  1
  Te2-  Te172  1  0.33147492  0.16436788  0.21613405  1
  Te2-  Te173  1  0.33180539  0.66419692  0.21776632  1
  Te2-  Te174  1  0.83448136  0.16641326  0.21281074  1
  Te2-  Te175  1  0.83392552  0.66767031  0.21439525  1
  Te2-  Te176  1  0.16706245  0.33249150  0.55037651  1
  Te2-  Te177  1  0.16548084  0.83314012  0.54900655  1
  Te2-  Te178  1  0.66681593  0.33362037  0.54793008  1
  Te2-  Te179  1  0.66895023  0.83480217  0.54943541  1
  Te2-  Te180  1  0.32736874  0.41313866  0.71162439  1
  Te2-  Te181  1  0.32739552  0.91732990  0.71047705  1
  Te2-  Te182  1  0.82769557  0.41369221  0.71306776  1
  Te2-  Te183  1  0.82946349  0.91557683  0.71259133  1
  Te2-  Te184  1  0.08750914  0.17202040  0.71247815  1
  Te2-  Te185  1  0.08350586  0.67209862  0.71022596  1
  Te2-  Te186  1  0.58772126  0.17216749  0.71418210  1
  Te2-  Te187  1  0.58902256  0.67439054  0.71142829  1
  Te2-  Te188  1  0.08650120  0.41483919  0.71126439  1
  Te2-  Te189  1  0.08521420  0.91462986  0.71104332  1
  Te2-  Te190  1  0.58696939  0.41515381  0.71385960  1
  Te2-  Te191  1  0.59139025  0.91612173  0.71304169  1
  Te2-  Te192  1  0.16062365  0.07895363  0.03876525  1
  Te2-  Te193  1  0.16265509  0.58154064  0.04326487  1
  Te2-  Te194  1  0.65470291  0.07799592  0.04125531  1
  Te2-  Te195  1  0.65865051  0.57963210  0.04246262  1
  Te2-  Te196  1  0.42106083  0.33957883  0.04367651  1
  Te2-  Te197  1  0.41761981  0.84054541  0.04586201  1
  Te2-  Te198  1  0.92127473  0.34091547  0.03774851  1
  Te2-  Te199  1  0.91609595  0.83757087  0.03810106  1
  Te2-  Te200  1  0.41771571  0.07933443  0.04521698  1
  Te2-  Te201  1  0.41848036  0.57723874  0.04390702  1
  Te2-  Te202  1  0.91759543  0.07625546  0.03590473  1
  Te2-  Te203  1  0.92111045  0.58029448  0.03884699  1
  Te2-  Te204  1  0.49206409  0.24273206  0.37503774  1
  Te2-  Te205  1  0.49178160  0.74208421  0.37954309  1
  Te2-  Te206  1  0.99527683  0.24777858  0.37805853  1
  Te2-  Te207  1  0.99721620  0.74934251  0.37642826  1
  Te2-  Te208  1  0.25375552  0.00488092  0.37532103  1
  Te2-  Te209  1  0.25116740  0.50430075  0.37990265  1
  Te2-  Te210  1  0.75811953  0.00700124  0.37666005  1
  Te2-  Te211  1  0.75385509  0.50650157  0.37528433  1
  Te2-  Te212  1  0.25186917  0.24618410  0.37747136  1
  Te2-  Te213  1  0.25131230  0.74196337  0.37763159  1
  Te2-  Te214  1  0.75392112  0.24758222  0.37776918  1
  Te2-  Te215  1  0.75461884  0.74866053  0.37694792  1
