# generated using pymatgen
data_Ti(CuTe)4
_symmetry_space_group_name_H-M   'P 1'
_cell_length_a   16.89286777
_cell_length_b   16.88933503
_cell_length_c   20.71017196
_cell_angle_alpha   90.01085321
_cell_angle_beta   89.96899740
_cell_angle_gamma   120.00115068
_symmetry_Int_Tables_number   1
_chemical_formula_structural   Ti(CuTe)4
_chemical_formula_sum   'Ti24 Cu96 Te96'
_cell_volume   5117.11489893
_cell_formula_units_Z   24
loop_
 _symmetry_equiv_pos_site_id
 _symmetry_equiv_pos_as_xyz
  1  'x, y, z'
loop_
 _atom_type_symbol
 _atom_type_oxidation_number
  Ti4+  4.0
  Cu+  1.0
  Te2-  -2.0
loop_
 _atom_site_type_symbol
 _atom_site_label
 _atom_site_symmetry_multiplicity
 _atom_site_fract_x
 _atom_site_fract_y
 _atom_site_fract_z
 _atom_site_occupancy
  Ti4+  Ti0  1  0.00003088  -0.00235141  0.25815243  1
  Ti4+  Ti1  1  -0.00037286  0.49756956  0.25916531  1
  Ti4+  Ti2  1  0.49838131  -0.00387277  0.25798493  1
  Ti4+  Ti3  1  0.49955256  0.50128768  0.25933531  1
  Ti4+  Ti4  1  0.33763433  0.17116924  0.58585874  1
  Ti4+  Ti5  1  0.33207984  0.66848958  0.59603393  1
  Ti4+  Ti6  1  0.83388415  0.16579729  0.59009805  1
  Ti4+  Ti7  1  0.83656954  0.67017615  0.58741964  1
  Ti4+  Ti8  1  0.16499148  0.33282583  0.92339722  1
  Ti4+  Ti9  1  0.16584147  0.83312574  0.92572174  1
  Ti4+  Ti10  1  0.66717248  0.33262188  0.92203522  1
  Ti4+  Ti11  1  0.66427406  0.83132931  0.92615737  1
  Ti4+  Ti12  1  0.00170334  0.00118186  0.75535541  1
  Ti4+  Ti13  1  -0.00227944  0.49822425  0.75325290  1
  Ti4+  Ti14  1  0.49992606  0.00162590  0.75487331  1
  Ti4+  Ti15  1  0.50148809  0.50211378  0.75487898  1
  Ti4+  Ti16  1  0.33094056  0.16432772  0.08986070  1
  Ti4+  Ti17  1  0.33361833  0.66665646  0.09053863  1
  Ti4+  Ti18  1  0.83264478  0.16645540  0.08926001  1
  Ti4+  Ti19  1  0.83237728  0.66563319  0.08957142  1
  Ti4+  Ti20  1  0.16625020  0.33261331  0.42139751  1
  Ti4+  Ti21  1  0.16730789  0.83195384  0.42085125  1
  Ti4+  Ti22  1  0.66527053  0.33289408  0.41857803  1
  Ti4+  Ti23  1  0.66755461  0.83359220  0.42337571  1
  Cu+  Cu24  1  0.35086206  0.43353832  0.47575847  1
  Cu+  Cu25  1  0.17037170  0.58575502  0.81801236  1
  Cu+  Cu26  1  0.23679792  0.97364659  0.14298736  1
  Cu+  Cu27  1  0.41193210  0.82542280  0.81836004  1
  Cu+  Cu28  1  0.41167857  0.58763843  0.81828958  1
  Cu+  Cu29  1  0.90335809  0.30843865  0.80519242  1
  Cu+  Cu30  1  0.07542728  0.64483165  0.47361716  1
  Cu+  Cu31  1  0.35518793  0.92610241  0.47436820  1
  Cu+  Cu32  1  0.08245862  0.92740944  0.47578220  1
  Cu+  Cu33  1  0.52250344  0.76006809  0.14459853  1
  Cu+  Cu34  1  0.85483954  0.93256937  0.47272833  1
  Cu+  Cu35  1  0.58008033  0.43109998  0.47360633  1
  Cu+  Cu36  1  0.16291831  0.07470445  0.17166939  1
  Cu+  Cu37  1  0.16233149  0.57980093  0.17411793  1
  Cu+  Cu38  1  0.66428269  0.08049883  0.17113138  1
  Cu+  Cu39  1  0.66306587  0.58028056  0.17195056  1
  Cu+  Cu40  1  0.41510927  0.33577440  0.17359706  1
  Cu+  Cu41  1  0.42219858  0.83584502  0.17150088  1
  Cu+  Cu42  1  0.91918170  0.33505893  0.17240598  1
  Cu+  Cu43  1  0.91661985  0.83513933  0.17204704  1
  Cu+  Cu44  1  0.40980667  0.07450787  0.17228981  1
  Cu+  Cu45  1  0.42109677  0.58447358  0.17262195  1
  Cu+  Cu46  1  0.91590298  0.08055283  0.17215843  1
  Cu+  Cu47  1  0.91919780  0.58240327  0.17308683  1
  Cu+  Cu48  1  0.49716815  0.25334243  0.49818815  1
  Cu+  Cu49  1  0.49687977  0.75093523  0.50824194  1
  Cu+  Cu50  1  0.99552637  0.24783234  0.50325219  1
  Cu+  Cu51  1  0.99816285  0.74828236  0.50001980  1
  Cu+  Cu52  1  0.25728281  0.00624476  0.49966410  1
  Cu+  Cu53  1  0.25143199  0.50439657  0.50800238  1
  Cu+  Cu54  1  0.75526684  0.00390345  0.50486920  1
  Cu+  Cu55  1  0.75130663  0.50547964  0.50045315  1
  Cu+  Cu56  1  0.25697619  0.25460733  0.49909756  1
  Cu+  Cu57  1  0.25142259  0.74906878  0.50604123  1
  Cu+  Cu58  1  0.75101557  0.24844290  0.50353597  1
  Cu+  Cu59  1  0.75879255  0.75656654  0.50145691  1
  Cu+  Cu60  1  0.32962828  0.41528790  0.83686081  1
  Cu+  Cu61  1  0.32856890  0.91594435  0.83781654  1
  Cu+  Cu62  1  0.82782169  0.40870152  0.83381773  1
  Cu+  Cu63  1  0.83185601  0.91413597  0.83980132  1
  Cu+  Cu64  1  0.08532496  0.16932089  0.83674759  1
  Cu+  Cu65  1  0.08425594  0.67250991  0.83658118  1
  Cu+  Cu66  1  0.58569388  0.17267175  0.83539133  1
  Cu+  Cu67  1  0.58407932  0.67155371  0.83804522  1
  Cu+  Cu68  1  0.08087322  0.41019365  0.83400245  1
  Cu+  Cu69  1  0.08620237  0.91767149  0.83904206  1
  Cu+  Cu70  1  0.58745085  0.41650366  0.83667885  1
  Cu+  Cu71  1  0.58346539  0.91334258  0.83772123  1
  Cu+  Cu72  1  0.17216039  0.08681266  0.67134049  1
  Cu+  Cu73  1  0.16755089  0.58530305  0.68356397  1
  Cu+  Cu74  1  0.66890210  0.08501716  0.67323166  1
  Cu+  Cu75  1  0.67091289  0.58784719  0.67280664  1
  Cu+  Cu76  1  0.41956202  0.33583661  0.67252391  1
  Cu+  Cu77  1  0.41335020  0.83281291  0.68414466  1
  Cu+  Cu78  1  0.91301526  0.32861081  0.67675125  1
  Cu+  Cu79  1  0.91961813  0.83449916  0.67427760  1
  Cu+  Cu80  1  0.41786694  0.08716339  0.67094342  1
  Cu+  Cu81  1  0.41598371  0.58702332  0.68517385  1
  Cu+  Cu82  1  0.91696994  0.08381176  0.67577963  1
  Cu+  Cu83  1  0.91494967  0.58503109  0.67149328  1
  Cu+  Cu84  1  0.00022006  0.25077985  0.00814711  1
  Cu+  Cu85  1  0.00047872  0.75098496  0.00856323  1
  Cu+  Cu86  1  0.50279709  0.25224844  0.00672666  1
  Cu+  Cu87  1  0.50103643  0.75004982  0.01574468  1
  Cu+  Cu88  1  0.24666416  0.49706229  0.01004881  1
  Cu+  Cu89  1  0.24704125  0.99532377  0.01350753  1
  Cu+  Cu90  1  0.74949969  0.49644051  0.00603472  1
  Cu+  Cu91  1  0.74671064  0.99661663  0.00867845  1
  Cu+  Cu92  1  0.24787549  0.25118417  0.00801391  1
  Cu+  Cu93  1  0.24829391  0.74969949  0.01123783  1
  Cu+  Cu94  1  0.74985761  0.25151262  0.00749094  1
  Cu+  Cu95  1  0.74603692  0.74793843  0.01009705  1
  Cu+  Cu96  1  0.33571869  0.42000380  0.34612119  1
  Cu+  Cu97  1  0.33623902  0.91395306  0.34516181  1
  Cu+  Cu98  1  0.83510397  0.41602639  0.34033692  1
  Cu+  Cu99  1  0.83666769  0.91813621  0.34543202  1
  Cu+  Cu100  1  0.08087911  0.16384686  0.33953021  1
  Cu+  Cu101  1  0.08119458  0.65870341  0.34589000  1
  Cu+  Cu102  1  0.58047377  0.16126694  0.33968181  1
  Cu+  Cu103  1  0.58065868  0.66604161  0.34316771  1
  Cu+  Cu104  1  0.08143825  0.41617662  0.34266433  1
  Cu+  Cu105  1  0.08152073  0.91548171  0.34562440  1
  Cu+  Cu106  1  0.57956632  0.41753708  0.34508201  1
  Cu+  Cu107  1  0.58128874  0.91443870  0.34371387  1
  Cu+  Cu108  1  -0.00141760  0.00161226  0.11555250  1
  Cu+  Cu109  1  -0.00195750  0.49919267  0.11675537  1
  Cu+  Cu110  1  0.50247785  0.00631232  0.11526726  1
  Cu+  Cu111  1  0.49895210  0.49614756  0.11591787  1
  Cu+  Cu112  1  0.33207239  0.16715313  0.44032042  1
  Cu+  Cu113  1  0.33586458  0.66664299  0.45211482  1
  Cu+  Cu114  1  0.83138898  0.16820391  0.44676889  1
  Cu+  Cu115  1  0.83248971  0.66609735  0.44255818  1
  Cu+  Cu116  1  0.16811117  0.33046856  0.77907019  1
  Cu+  Cu117  1  0.16486578  0.83626122  0.78120160  1
  Cu+  Cu118  1  0.66434321  0.33480448  0.77683862  1
  Cu+  Cu119  1  0.67157290  0.83760774  0.78284619  1
  Te2-  Te120  1  0.00321703  0.00271228  0.39045153  1
  Te2-  Te121  1  -0.00339974  0.49354286  0.39074419  1
  Te2-  Te122  1  0.50215204  -0.00077666  0.38876146  1
  Te2-  Te123  1  0.50091343  0.50404213  0.39188991  1
  Te2-  Te124  1  0.33680244  0.17058298  0.71424019  1
  Te2-  Te125  1  0.33182989  0.66804750  0.72899742  1
  Te2-  Te126  1  0.83153573  0.16254816  0.72058750  1
  Te2-  Te127  1  0.83542275  0.66921592  0.71594941  1
  Te2-  Te128  1  0.16456984  0.33198948  0.05221559  1
  Te2-  Te129  1  0.16333381  0.82886661  0.05592561  1
  Te2-  Te130  1  0.66669788  0.33272401  0.05105011  1
  Te2-  Te131  1  0.66812452  0.83358422  0.05616527  1
  Te2-  Te132  1  0.49490187  0.24860690  0.88080410  1
  Te2-  Te133  1  0.48735971  0.74380644  0.88797250  1
  Te2-  Te134  1  0.99218148  0.24387398  0.88192610  1
  Te2-  Te135  1  0.99536013  0.74884255  0.88238023  1
  Te2-  Te136  1  0.25252820  0.00435170  0.88611808  1
  Te2-  Te137  1  0.25204892  0.50919132  0.88404095  1
  Te2-  Te138  1  0.74967699  0.00137986  0.88244721  1
  Te2-  Te139  1  0.75577137  0.50416708  0.88000799  1
  Te2-  Te140  1  0.25252317  0.24957259  0.88187954  1
  Te2-  Te141  1  0.25384120  0.74488889  0.88530672  1
  Te2-  Te142  1  0.75159781  0.24156130  0.88187628  1
  Te2-  Te143  1  0.74945955  0.74580788  0.88398474  1
  Te2-  Te144  1  0.32877444  0.41722546  0.21894866  1
  Te2-  Te145  1  0.32448822  0.90497911  0.21814808  1
  Te2-  Te146  1  0.82908672  0.41344185  0.21502479  1
  Te2-  Te147  1  0.82867893  0.91362197  0.21882605  1
  Te2-  Te148  1  0.08535861  0.16705791  0.21386475  1
  Te2-  Te149  1  0.08618096  0.67029294  0.21959559  1
  Te2-  Te150  1  0.57987763  0.16488382  0.21375715  1
  Te2-  Te151  1  0.59027655  0.67453379  0.21772460  1
  Te2-  Te152  1  0.08651294  0.41243201  0.21746983  1
  Te2-  Te153  1  0.08306276  0.90655860  0.21851899  1
  Te2-  Te154  1  0.58283526  0.41368879  0.21825059  1
  Te2-  Te155  1  0.59022702  0.91382844  0.21812091  1
  Te2-  Te156  1  0.16533307  0.08636944  0.54522524  1
  Te2-  Te157  1  0.15989576  0.58008040  0.55485996  1
  Te2-  Te158  1  0.66294207  0.08003768  0.54751546  1
  Te2-  Te159  1  0.66397707  0.58844687  0.54692733  1
  Te2-  Te160  1  0.42476032  0.34864675  0.54704378  1
  Te2-  Te161  1  0.41987569  0.84106885  0.55518879  1
  Te2-  Te162  1  0.91840344  0.33753631  0.54977130  1
  Te2-  Te163  1  0.92662474  0.84666300  0.54833674  1
  Te2-  Te164  1  0.42584389  0.08601532  0.54532137  1
  Te2-  Te165  1  0.42079933  0.58461075  0.55604376  1
  Te2-  Te166  1  0.92502134  0.08242018  0.55019864  1
  Te2-  Te167  1  0.91842920  0.57914776  0.54598830  1
  Te2-  Te168  1  0.00098461  0.00105096  0.88191637  1
  Te2-  Te169  1  -0.00210785  0.49951506  0.88092023  1
  Te2-  Te170  1  0.50012573  0.00241885  0.88197527  1
  Te2-  Te171  1  0.50086965  0.49944224  0.88208861  1
  Te2-  Te172  1  0.33197835  0.16599705  0.21674954  1
  Te2-  Te173  1  0.33264924  0.66586260  0.21713122  1
  Te2-  Te174  1  0.83254185  0.16568504  0.21578152  1
  Te2-  Te175  1  0.83248902  0.66523280  0.21588749  1
  Te2-  Te176  1  0.16608985  0.33220177  0.54832030  1
  Te2-  Te177  1  0.16741675  0.83708596  0.54904473  1
  Te2-  Te178  1  0.66668159  0.33505969  0.54561457  1
  Te2-  Te179  1  0.66777094  0.83405347  0.55025887  1
  Te2-  Te180  1  0.32811614  0.41338638  0.70979206  1
  Te2-  Te181  1  0.32633206  0.91871578  0.71078992  1
  Te2-  Te182  1  0.82582613  0.41461451  0.70706894  1
  Te2-  Te183  1  0.82993402  0.91423275  0.71247610  1
  Te2-  Te184  1  0.08767365  0.17191245  0.70994407  1
  Te2-  Te185  1  0.08315085  0.67361730  0.71015552  1
  Te2-  Te186  1  0.58689098  0.17294762  0.70924409  1
  Te2-  Te187  1  0.58963363  0.67592957  0.71128133  1
  Te2-  Te188  1  0.08589213  0.41150837  0.70755193  1
  Te2-  Te189  1  0.08918292  0.91780067  0.71119795  1
  Te2-  Te190  1  0.58853433  0.41817678  0.70952249  1
  Te2-  Te191  1  0.58724319  0.91516362  0.71078480  1
  Te2-  Te192  1  0.15927924  0.08061808  0.04430706  1
  Te2-  Te193  1  0.16044042  0.57994879  0.04763420  1
  Te2-  Te194  1  0.66131242  0.08111555  0.04450699  1
  Te2-  Te195  1  0.66071172  0.57753912  0.04547805  1
  Te2-  Te196  1  0.41740189  0.33628757  0.04638210  1
  Te2-  Te197  1  0.41836371  0.84042993  0.04549478  1
  Te2-  Te198  1  0.91884814  0.33846826  0.04571656  1
  Te2-  Te199  1  0.91709996  0.83774756  0.04581489  1
  Te2-  Te200  1  0.41982799  0.08181321  0.04434262  1
  Te2-  Te201  1  0.41690341  0.57686098  0.04569202  1
  Te2-  Te202  1  0.91733647  0.08002992  0.04492243  1
  Te2-  Te203  1  0.91881220  0.58073856  0.04576956  1
  Te2-  Te204  1  0.49266791  0.24411419  0.37233645  1
  Te2-  Te205  1  0.49354217  0.74661743  0.38183304  1
  Te2-  Te206  1  0.99375506  0.24570186  0.37741797  1
  Te2-  Te207  1  0.99283415  0.74356198  0.37381900  1
  Te2-  Te208  1  0.25430441  0.00538116  0.37255670  1
  Te2-  Te209  1  0.25109989  0.50691353  0.38041491  1
  Te2-  Te210  1  0.75218083  0.00587726  0.37777596  1
  Te2-  Te211  1  0.75343922  0.50550908  0.37349012  1
  Te2-  Te212  1  0.25123263  0.24613769  0.37283997  1
  Te2-  Te213  1  0.25332317  0.74248522  0.37877938  1
  Te2-  Te214  1  0.75073816  0.24575957  0.37643158  1
  Te2-  Te215  1  0.75152434  0.74568033  0.37539878  1
