# generated using pymatgen
data_Ti(CuTe)4
_symmetry_space_group_name_H-M   'P 1'
_cell_length_a   16.88363696
_cell_length_b   16.87900906
_cell_length_c   20.69171392
_cell_angle_alpha   89.95807258
_cell_angle_beta   89.99776633
_cell_angle_gamma   120.00431478
_symmetry_Int_Tables_number   1
_chemical_formula_structural   Ti(CuTe)4
_chemical_formula_sum   'Ti24 Cu96 Te96'
_cell_volume   5106.47253514
_cell_formula_units_Z   24
loop_
 _symmetry_equiv_pos_site_id
 _symmetry_equiv_pos_as_xyz
  1  'x, y, z'
loop_
 _atom_type_symbol
 _atom_type_oxidation_number
  Ti4+  4.0
  Cu+  1.0
  Te2-  -2.0
loop_
 _atom_site_type_symbol
 _atom_site_label
 _atom_site_symmetry_multiplicity
 _atom_site_fract_x
 _atom_site_fract_y
 _atom_site_fract_z
 _atom_site_occupancy
  Ti4+  Ti0  1  0.00169017  0.00280451  0.25909786  1
  Ti4+  Ti1  1  -0.00111030  0.50021959  0.25879249  1
  Ti4+  Ti2  1  0.50352484  0.00093822  0.25232932  1
  Ti4+  Ti3  1  0.50028910  0.49995368  0.25827141  1
  Ti4+  Ti4  1  0.33142423  0.16578596  0.59090698  1
  Ti4+  Ti5  1  0.33511204  0.66681060  0.58998258  1
  Ti4+  Ti6  1  0.83476142  0.16931918  0.59211413  1
  Ti4+  Ti7  1  0.83575303  0.66786942  0.59568253  1
  Ti4+  Ti8  1  0.16426615  0.33195866  0.92721024  1
  Ti4+  Ti9  1  0.16527268  0.83352033  0.92098993  1
  Ti4+  Ti10  1  0.66319402  0.33282829  0.92508685  1
  Ti4+  Ti11  1  0.66605574  0.83149689  0.92505474  1
  Ti4+  Ti12  1  0.00003088  -0.00055491  0.75527877  1
  Ti4+  Ti13  1  0.00053315  0.49929691  0.75515677  1
  Ti4+  Ti14  1  0.49900266  0.00062374  0.75586145  1
  Ti4+  Ti15  1  0.49969400  0.49862747  0.75492494  1
  Ti4+  Ti16  1  0.33229512  0.16611974  0.08777817  1
  Ti4+  Ti17  1  0.33393413  0.66639313  0.08628197  1
  Ti4+  Ti18  1  0.83135487  0.16569761  0.08423445  1
  Ti4+  Ti19  1  0.83243354  0.66530344  0.09130263  1
  Ti4+  Ti20  1  0.16670523  0.33299480  0.42137166  1
  Ti4+  Ti21  1  0.16661110  0.83525159  0.42171577  1
  Ti4+  Ti22  1  0.66924128  0.33271550  0.42490421  1
  Ti4+  Ti23  1  0.66592583  0.83238551  0.42361014  1
  Cu+  Cu24  1  0.01076367  0.25938615  0.14501075  1
  Cu+  Cu25  1  0.06955659  0.92793047  0.47667970  1
  Cu+  Cu26  1  0.24458835  0.26197214  0.14282115  1
  Cu+  Cu27  1  0.90950303  0.58685950  0.81269436  1
  Cu+  Cu28  1  0.51615074  0.26235891  0.14316190  1
  Cu+  Cu29  1  0.75010245  0.98870502  0.14301337  1
  Cu+  Cu30  1  0.40378408  0.09819155  0.80566259  1
  Cu+  Cu31  1  0.91016428  0.82278066  0.81484750  1
  Cu+  Cu32  1  0.86105216  0.43223829  0.47719503  1
  Cu+  Cu33  1  0.74753031  0.26130102  0.14117155  1
  Cu+  Cu34  1  0.67551808  0.58750521  0.81447096  1
  Cu+  Cu35  1  0.51961812  0.75524173  0.14029931  1
  Cu+  Cu36  1  0.16453890  0.08537756  0.17098037  1
  Cu+  Cu37  1  0.16465402  0.58399839  0.16987559  1
  Cu+  Cu38  1  0.66064277  0.08051434  0.16122313  1
  Cu+  Cu39  1  0.66322248  0.58082176  0.17182546  1
  Cu+  Cu40  1  0.41832760  0.33741706  0.17080868  1
  Cu+  Cu41  1  0.42282795  0.83563388  0.16498783  1
  Cu+  Cu42  1  0.91967627  0.34319079  0.16807606  1
  Cu+  Cu43  1  0.92060801  0.83465451  0.17377513  1
  Cu+  Cu44  1  0.42295364  0.08485447  0.16564055  1
  Cu+  Cu45  1  0.42076338  0.58375874  0.16889532  1
  Cu+  Cu46  1  0.92343728  0.08212673  0.16687004  1
  Cu+  Cu47  1  0.91563054  0.58073662  0.17300894  1
  Cu+  Cu48  1  0.49686411  0.24532449  0.50687071  1
  Cu+  Cu49  1  0.49581807  0.74691526  0.50469439  1
  Cu+  Cu50  1  0.99689490  0.24865175  0.50437867  1
  Cu+  Cu51  1  0.99776286  0.75313155  0.50604609  1
  Cu+  Cu52  1  0.24730499  0.00297605  0.50402832  1
  Cu+  Cu53  1  0.25278707  0.50313887  0.50395753  1
  Cu+  Cu54  1  0.75026690  0.00248716  0.50688645  1
  Cu+  Cu55  1  0.75543813  0.50105632  0.50968444  1
  Cu+  Cu56  1  0.25228915  0.24873732  0.50350242  1
  Cu+  Cu57  1  0.25435504  0.74905853  0.50355351  1
  Cu+  Cu58  1  0.75848058  0.25441997  0.50567818  1
  Cu+  Cu59  1  0.75053751  0.74810642  0.50838476  1
  Cu+  Cu60  1  0.32868069  0.41197706  0.83924404  1
  Cu+  Cu61  1  0.33033549  0.92116032  0.83549825  1
  Cu+  Cu62  1  0.82970302  0.41412817  0.83780582  1
  Cu+  Cu63  1  0.82896741  0.91443457  0.83770858  1
  Cu+  Cu64  1  0.08350260  0.16984853  0.84088024  1
  Cu+  Cu65  1  0.08342519  0.66885907  0.83445230  1
  Cu+  Cu66  1  0.57786594  0.16818123  0.83932993  1
  Cu+  Cu67  1  0.58371907  0.66888334  0.83684773  1
  Cu+  Cu68  1  0.08248690  0.41174195  0.83965601  1
  Cu+  Cu69  1  0.08405411  0.91145157  0.83348943  1
  Cu+  Cu70  1  0.58384771  0.41305438  0.83583778  1
  Cu+  Cu71  1  0.58426351  0.91365081  0.83975069  1
  Cu+  Cu72  1  0.16679584  0.08483627  0.67502697  1
  Cu+  Cu73  1  0.17272562  0.58246284  0.67280845  1
  Cu+  Cu74  1  0.67046498  0.08607556  0.67444505  1
  Cu+  Cu75  1  0.66924927  0.58297967  0.68295626  1
  Cu+  Cu76  1  0.41509642  0.33153616  0.67340610  1
  Cu+  Cu77  1  0.41717778  0.82935323  0.67299942  1
  Cu+  Cu78  1  0.91691945  0.33101357  0.67613012  1
  Cu+  Cu79  1  0.91601023  0.83266851  0.68337556  1
  Cu+  Cu80  1  0.41317308  0.08596691  0.67742140  1
  Cu+  Cu81  1  0.41470657  0.58320959  0.67335535  1
  Cu+  Cu82  1  0.91535158  0.08686267  0.67566674  1
  Cu+  Cu83  1  0.91698511  0.58375148  0.68195274  1
  Cu+  Cu84  1  0.00079908  0.25084422  0.01388853  1
  Cu+  Cu85  1  0.00021552  0.74838125  0.00897355  1
  Cu+  Cu86  1  0.49973670  0.24981867  0.01311661  1
  Cu+  Cu87  1  0.50307574  0.74971593  0.01092079  1
  Cu+  Cu88  1  0.24671514  0.49671927  0.00775100  1
  Cu+  Cu89  1  0.24510335  0.99545606  0.00525720  1
  Cu+  Cu90  1  0.74880805  0.49943822  0.01094185  1
  Cu+  Cu91  1  0.74721739  0.99526646  0.01192924  1
  Cu+  Cu92  1  0.24373078  0.24916445  0.01412900  1
  Cu+  Cu93  1  0.24621073  0.74969127  0.00228361  1
  Cu+  Cu94  1  0.74559422  0.25055732  0.01076415  1
  Cu+  Cu95  1  0.75052601  0.74869945  0.01079183  1
  Cu+  Cu96  1  0.33579262  0.41714527  0.34164811  1
  Cu+  Cu97  1  0.33727558  0.91859024  0.33573062  1
  Cu+  Cu98  1  0.83689661  0.41773326  0.34840530  1
  Cu+  Cu99  1  0.83419622  0.91588369  0.34357227  1
  Cu+  Cu100  1  0.08333588  0.16682148  0.34383907  1
  Cu+  Cu101  1  0.08200593  0.66703575  0.34209899  1
  Cu+  Cu102  1  0.58525125  0.16597294  0.33980273  1
  Cu+  Cu103  1  0.58234062  0.66426018  0.34406758  1
  Cu+  Cu104  1  0.08091470  0.41645347  0.34221105  1
  Cu+  Cu105  1  0.08332912  0.92090721  0.34731135  1
  Cu+  Cu106  1  0.58185740  0.41583072  0.34452652  1
  Cu+  Cu107  1  0.58405602  0.91631884  0.33909166  1
  Cu+  Cu108  1  0.00111040  -0.00686595  0.11524039  1
  Cu+  Cu109  1  0.00533005  0.51043940  0.11453045  1
  Cu+  Cu110  1  0.49237589  -0.00503611  0.10578012  1
  Cu+  Cu111  1  0.50003512  0.50043720  0.11263045  1
  Cu+  Cu112  1  0.33668534  0.16758156  0.44770661  1
  Cu+  Cu113  1  0.33216581  0.66623356  0.44615839  1
  Cu+  Cu114  1  0.83142873  0.16214525  0.44905011  1
  Cu+  Cu115  1  0.83010087  0.66447055  0.45285400  1
  Cu+  Cu116  1  0.16753161  0.33363539  0.78412680  1
  Cu+  Cu117  1  0.17096504  0.83074523  0.77613521  1
  Cu+  Cu118  1  0.66733685  0.32901562  0.78108454  1
  Cu+  Cu119  1  0.66361626  0.83406397  0.78086479  1
  Te2-  Te120  1  -0.00160877  0.00243965  0.38943175  1
  Te2-  Te121  1  0.00395844  0.50317452  0.38914234  1
  Te2-  Te122  1  0.50169677  -0.00015571  0.38041373  1
  Te2-  Te123  1  0.49967194  0.49891775  0.38683445  1
  Te2-  Te124  1  0.33027240  0.16893350  0.72167057  1
  Te2-  Te125  1  0.33519474  0.66652055  0.71967832  1
  Te2-  Te126  1  0.83296706  0.16771460  0.72162177  1
  Te2-  Te127  1  0.83437787  0.66662958  0.72844067  1
  Te2-  Te128  1  0.16539271  0.33569330  0.05956080  1
  Te2-  Te129  1  0.16572918  0.83168517  0.04970534  1
  Te2-  Te130  1  0.66558093  0.33517746  0.05687454  1
  Te2-  Te131  1  0.66833094  0.83047021  0.05700936  1
  Te2-  Te132  1  0.49011751  0.24922583  0.88537832  1
  Te2-  Te133  1  0.49563445  0.74605070  0.88365879  1
  Te2-  Te134  1  0.99240883  0.24566481  0.88631770  1
  Te2-  Te135  1  0.98869013  0.74334466  0.88319336  1
  Te2-  Te136  1  0.24864994  0.00812927  0.88009308  1
  Te2-  Te137  1  0.25078333  0.50254000  0.88230186  1
  Te2-  Te138  1  0.75143558  0.00224636  0.88430800  1
  Te2-  Te139  1  0.75298640  0.50801054  0.88490763  1
  Te2-  Te140  1  0.25001677  0.24586608  0.88665944  1
  Te2-  Te141  1  0.25172050  0.75042500  0.87646749  1
  Te2-  Te142  1  0.74740780  0.24709427  0.88289551  1
  Te2-  Te143  1  0.75400708  0.74366725  0.88497491  1
  Te2-  Te144  1  0.32766664  0.41704706  0.21579867  1
  Te2-  Te145  1  0.33387342  0.91581711  0.20920281  1
  Te2-  Te146  1  0.82490497  0.41443488  0.22001127  1
  Te2-  Te147  1  0.82954079  0.91275933  0.21690008  1
  Te2-  Te148  1  0.08913814  0.17886783  0.21777228  1
  Te2-  Te149  1  0.08422095  0.67065538  0.21570001  1
  Te2-  Te150  1  0.59145566  0.17792610  0.21355817  1
  Te2-  Te151  1  0.58943922  0.67344507  0.21742021  1
  Te2-  Te152  1  0.08792054  0.41645257  0.21603899  1
  Te2-  Te153  1  0.08832727  0.91850824  0.21891252  1
  Te2-  Te154  1  0.58849173  0.41463982  0.21791703  1
  Te2-  Te155  1  0.59187008  0.91289473  0.21275507  1
  Te2-  Te156  1  0.15722910  0.08247140  0.54933509  1
  Te2-  Te157  1  0.16335236  0.58123424  0.54715054  1
  Te2-  Te158  1  0.66413790  0.08522678  0.54847422  1
  Te2-  Te159  1  0.66572184  0.58046104  0.55449563  1
  Te2-  Te160  1  0.41926142  0.33677617  0.54794812  1
  Te2-  Te161  1  0.42109745  0.83931156  0.54764392  1
  Te2-  Te162  1  0.92692440  0.34433131  0.55068586  1
  Te2-  Te163  1  0.91718511  0.84061758  0.55484434  1
  Te2-  Te164  1  0.41496353  0.07798942  0.55018207  1
  Te2-  Te165  1  0.41988144  0.57940343  0.54794109  1
  Te2-  Te166  1  0.91882626  0.08210279  0.54974218  1
  Te2-  Te167  1  0.92572888  0.58586328  0.55380644  1
  Te2-  Te168  1  -0.00002030  -0.00204250  0.88250144  1
  Te2-  Te169  1  0.00006036  0.49966536  0.88256050  1
  Te2-  Te170  1  0.49824207  -0.00205180  0.88272225  1
  Te2-  Te171  1  0.49848316  0.49825619  0.88244156  1
  Te2-  Te172  1  0.33524548  0.16529866  0.21552049  1
  Te2-  Te173  1  0.33427552  0.66786511  0.21346184  1
  Te2-  Te174  1  0.83291282  0.16641241  0.21256017  1
  Te2-  Te175  1  0.83262946  0.66598608  0.21752668  1
  Te2-  Te176  1  0.16734877  0.33351192  0.54725141  1
  Te2-  Te177  1  0.16903852  0.83332075  0.54844924  1
  Te2-  Te178  1  0.66578968  0.33052922  0.55172332  1
  Te2-  Te179  1  0.66478941  0.83302910  0.54974066  1
  Te2-  Te180  1  0.32783579  0.41361458  0.71187117  1
  Te2-  Te181  1  0.32891198  0.91250885  0.70781889  1
  Te2-  Te182  1  0.82656206  0.41110303  0.71062525  1
  Te2-  Te183  1  0.82618121  0.91611848  0.71110689  1
  Te2-  Te184  1  0.08493322  0.17229101  0.71372562  1
  Te2-  Te185  1  0.09052372  0.67130910  0.70781120  1
  Te2-  Te186  1  0.58601737  0.17242951  0.71071956  1
  Te2-  Te187  1  0.58476907  0.67223249  0.71011284  1
  Te2-  Te188  1  0.08697241  0.41347632  0.71278014  1
  Te2-  Te189  1  0.08930597  0.91465809  0.70823477  1
  Te2-  Te190  1  0.58468882  0.40947246  0.70992473  1
  Te2-  Te191  1  0.58610511  0.91585375  0.71215135  1
  Te2-  Te192  1  0.15828604  0.07691158  0.04429706  1
  Te2-  Te193  1  0.16121097  0.58140893  0.04278862  1
  Te2-  Te194  1  0.65601899  0.07745166  0.03620466  1
  Te2-  Te195  1  0.65953484  0.57939510  0.04604859  1
  Te2-  Te196  1  0.41753364  0.34028243  0.04241933  1
  Te2-  Te197  1  0.41667250  0.83708127  0.03775087  1
  Te2-  Te198  1  0.91805752  0.34181371  0.04078025  1
  Te2-  Te199  1  0.91993316  0.83704081  0.04648166  1
  Te2-  Te200  1  0.41513654  0.07713472  0.03917559  1
  Te2-  Te201  1  0.41765958  0.57681158  0.04167938  1
  Te2-  Te202  1  0.91973780  0.07747738  0.04066157  1
  Te2-  Te203  1  0.91835273  0.57946284  0.04606056  1
  Te2-  Te204  1  0.49740453  0.24618587  0.37968009  1
  Te2-  Te205  1  0.49457913  0.74726735  0.37777962  1
  Te2-  Te206  1  0.99302254  0.24689406  0.37816649  1
  Te2-  Te207  1  0.99256451  0.74742932  0.37875224  1
  Te2-  Te208  1  0.25696636  0.00720750  0.37602426  1
  Te2-  Te209  1  0.25235264  0.50483724  0.37685557  1
  Te2-  Te210  1  0.75237842  0.00415560  0.37887826  1
  Te2-  Te211  1  0.75222156  0.50568243  0.38132890  1
  Te2-  Te212  1  0.25397032  0.24708578  0.37741374  1
  Te2-  Te213  1  0.25291223  0.74991626  0.37634602  1
  Te2-  Te214  1  0.75371566  0.24512683  0.37831184  1
  Te2-  Te215  1  0.75264464  0.74607797  0.38114971  1
