# generated using pymatgen
data_Ti(CuTe)4
_symmetry_space_group_name_H-M   'P 1'
_cell_length_a   16.87057019
_cell_length_b   16.87237072
_cell_length_c   20.68507693
_cell_angle_alpha   89.97661387
_cell_angle_beta   90.05067652
_cell_angle_gamma   120.01136586
_symmetry_Int_Tables_number   1
_chemical_formula_structural   Ti(CuTe)4
_chemical_formula_sum   'Ti24 Cu96 Te96'
_cell_volume   5098.51523078
_cell_formula_units_Z   24
loop_
 _symmetry_equiv_pos_site_id
 _symmetry_equiv_pos_as_xyz
  1  'x, y, z'
loop_
 _atom_type_symbol
 _atom_type_oxidation_number
  Ti4+  4.0
  Cu+  1.0
  Te2-  -2.0
loop_
 _atom_site_type_symbol
 _atom_site_label
 _atom_site_symmetry_multiplicity
 _atom_site_fract_x
 _atom_site_fract_y
 _atom_site_fract_z
 _atom_site_occupancy
  Ti4+  Ti0  1  0.00107422  0.00012893  0.25939780  1
  Ti4+  Ti1  1  -0.00028724  0.49683322  0.25817022  1
  Ti4+  Ti2  1  0.50283324  -0.00166567  0.25757008  1
  Ti4+  Ti3  1  0.50312482  0.49763853  0.25846566  1
  Ti4+  Ti4  1  0.33110633  0.16677743  0.58944011  1
  Ti4+  Ti5  1  0.33247271  0.66851922  0.58787600  1
  Ti4+  Ti6  1  0.83400662  0.16588046  0.59350384  1
  Ti4+  Ti7  1  0.83057915  0.66457576  0.59360401  1
  Ti4+  Ti8  1  0.16178058  0.33309417  0.92494098  1
  Ti4+  Ti9  1  0.16820127  0.83745811  0.92248067  1
  Ti4+  Ti10  1  0.66544787  0.33643502  0.92343361  1
  Ti4+  Ti11  1  0.66671532  0.83430020  0.92576208  1
  Ti4+  Ti12  1  -0.00151441  0.00013952  0.75490099  1
  Ti4+  Ti13  1  -0.00006817  0.49935213  0.75423076  1
  Ti4+  Ti14  1  0.49910771  0.00168675  0.75568396  1
  Ti4+  Ti15  1  0.50112258  0.50057827  0.75537043  1
  Ti4+  Ti16  1  0.33398799  0.16860892  0.08927493  1
  Ti4+  Ti17  1  0.33374828  0.66831594  0.08789287  1
  Ti4+  Ti18  1  0.83461406  0.16689354  0.08975756  1
  Ti4+  Ti19  1  0.83173238  0.66412740  0.09053164  1
  Ti4+  Ti20  1  0.16648585  0.33111554  0.42206746  1
  Ti4+  Ti21  1  0.16864127  0.83179161  0.42089049  1
  Ti4+  Ti22  1  0.66788329  0.33430203  0.42468465  1
  Ti4+  Ti23  1  0.66718366  0.83315496  0.42278829  1
  Cu+  Cu24  1  0.40246072  0.09916675  0.80390260  1
  Cu+  Cu25  1  0.74289611  0.97774136  0.14264909  1
  Cu+  Cu26  1  0.91332247  0.59702760  0.80902725  1
  Cu+  Cu27  1  0.68517226  0.59823154  0.81006734  1
  Cu+  Cu28  1  0.02235065  0.25905111  0.14441898  1
  Cu+  Cu29  1  0.73796279  0.47107352  0.14141198  1
  Cu+  Cu30  1  0.57428403  0.93083027  0.47398107  1
  Cu+  Cu31  1  0.90409228  0.31926595  0.81215995  1
  Cu+  Cu32  1  0.06933197  0.14237913  0.47525735  1
  Cu+  Cu33  1  0.90314594  0.08899762  0.81081717  1
  Cu+  Cu34  1  0.57058060  0.42887253  0.47614658  1
  Cu+  Cu35  1  0.07008682  0.42394401  0.47459395  1
  Cu+  Cu36  1  0.16567460  0.08283008  0.17251815  1
  Cu+  Cu37  1  0.16539941  0.58177019  0.17044706  1
  Cu+  Cu38  1  0.66424767  0.07584981  0.17088189  1
  Cu+  Cu39  1  0.66471610  0.57358837  0.17189267  1
  Cu+  Cu40  1  0.42241839  0.33666491  0.17139892  1
  Cu+  Cu41  1  0.42181351  0.83637634  0.17005007  1
  Cu+  Cu42  1  0.92471825  0.33791664  0.17044590  1
  Cu+  Cu43  1  0.91931385  0.83491939  0.17306050  1
  Cu+  Cu44  1  0.42066401  0.08352783  0.17185161  1
  Cu+  Cu45  1  0.41956443  0.58266072  0.17157692  1
  Cu+  Cu46  1  0.91985064  0.08154914  0.17206335  1
  Cu+  Cu47  1  0.91173580  0.57523766  0.17170539  1
  Cu+  Cu48  1  0.49849201  0.25389648  0.50523270  1
  Cu+  Cu49  1  0.49751028  0.75339484  0.50193564  1
  Cu+  Cu50  1  0.99794809  0.24715654  0.50602227  1
  Cu+  Cu51  1  0.99917700  0.74737080  0.50654080  1
  Cu+  Cu52  1  0.25239081  0.00148592  0.50308670  1
  Cu+  Cu53  1  0.24693689  0.50248448  0.50191581  1
  Cu+  Cu54  1  0.74876874  0.00135687  0.50549468  1
  Cu+  Cu55  1  0.74604094  0.50261063  0.50706757  1
  Cu+  Cu56  1  0.24635109  0.24109512  0.50160682  1
  Cu+  Cu57  1  0.25353905  0.74704159  0.50021557  1
  Cu+  Cu58  1  0.75398725  0.25007625  0.50674702  1
  Cu+  Cu59  1  0.74915328  0.74487047  0.50591023  1
  Cu+  Cu60  1  0.32968351  0.41701943  0.83851564  1
  Cu+  Cu61  1  0.33164841  0.92326758  0.83601748  1
  Cu+  Cu62  1  0.82967822  0.41862295  0.83591159  1
  Cu+  Cu63  1  0.82841220  0.91721894  0.83755982  1
  Cu+  Cu64  1  0.07847899  0.16934689  0.83682118  1
  Cu+  Cu65  1  0.08535991  0.67292132  0.83579878  1
  Cu+  Cu66  1  0.57725300  0.16955521  0.83628329  1
  Cu+  Cu67  1  0.58622710  0.66980959  0.83846801  1
  Cu+  Cu68  1  0.08069395  0.40994550  0.83587134  1
  Cu+  Cu69  1  0.08696645  0.91645504  0.83515196  1
  Cu+  Cu70  1  0.58932633  0.42135097  0.83519106  1
  Cu+  Cu71  1  0.58431696  0.91536569  0.83883170  1
  Cu+  Cu72  1  0.16583424  0.08290594  0.67392469  1
  Cu+  Cu73  1  0.16971789  0.58432678  0.67239018  1
  Cu+  Cu74  1  0.66698201  0.08240003  0.67691386  1
  Cu+  Cu75  1  0.66824167  0.58308100  0.68173123  1
  Cu+  Cu76  1  0.41522210  0.33320111  0.67330533  1
  Cu+  Cu77  1  0.41687927  0.83268332  0.67298507  1
  Cu+  Cu78  1  0.91932724  0.33036122  0.68226253  1
  Cu+  Cu79  1  0.91486001  0.83107298  0.67530427  1
  Cu+  Cu80  1  0.41476646  0.08790457  0.67592563  1
  Cu+  Cu81  1  0.41439095  0.58643549  0.67025443  1
  Cu+  Cu82  1  0.91518195  0.08396497  0.68095405  1
  Cu+  Cu83  1  0.91338166  0.58276898  0.67905969  1
  Cu+  Cu84  1  0.00061082  0.25225628  0.01537614  1
  Cu+  Cu85  1  0.00326590  0.75258172  0.00805732  1
  Cu+  Cu86  1  0.49900921  0.25299182  0.00743877  1
  Cu+  Cu87  1  0.50160761  0.75163539  0.00772423  1
  Cu+  Cu88  1  0.24671938  0.49909958  0.00736824  1
  Cu+  Cu89  1  0.25032378  1.00121808  0.00784202  1
  Cu+  Cu90  1  0.74906743  0.49877940  0.01397804  1
  Cu+  Cu91  1  0.74928341  0.99796722  0.01452227  1
  Cu+  Cu92  1  0.24718763  0.25213848  0.00830635  1
  Cu+  Cu93  1  0.24992234  0.75477770  0.00470695  1
  Cu+  Cu94  1  0.74880238  0.25209901  0.00903067  1
  Cu+  Cu95  1  0.74905905  0.75107355  0.01103155  1
  Cu+  Cu96  1  0.33875566  0.41613958  0.34071620  1
  Cu+  Cu97  1  0.33713310  0.91552041  0.33965621  1
  Cu+  Cu98  1  0.83533406  0.41610083  0.34308752  1
  Cu+  Cu99  1  0.83569386  0.91654033  0.34379354  1
  Cu+  Cu100  1  0.08205188  0.16238777  0.34716856  1
  Cu+  Cu101  1  0.08244326  0.66286694  0.34031255  1
  Cu+  Cu102  1  0.58593741  0.16310448  0.34135184  1
  Cu+  Cu103  1  0.58607367  0.66318815  0.34002632  1
  Cu+  Cu104  1  0.08241832  0.41647475  0.34595275  1
  Cu+  Cu105  1  0.08392556  0.91707982  0.34256973  1
  Cu+  Cu106  1  0.58485992  0.41835724  0.34785402  1
  Cu+  Cu107  1  0.58495304  0.91842105  0.34542401  1
  Cu+  Cu108  1  0.00285971  -0.00334007  0.11599153  1
  Cu+  Cu109  1  0.00455035  0.50713298  0.11442116  1
  Cu+  Cu110  1  0.49652754  0.00047542  0.11403893  1
  Cu+  Cu111  1  0.49708278  0.50131976  0.11511427  1
  Cu+  Cu112  1  0.33698824  0.16339666  0.44605943  1
  Cu+  Cu113  1  0.33640865  0.66388607  0.44264664  1
  Cu+  Cu114  1  0.83277823  0.16579349  0.44957238  1
  Cu+  Cu115  1  0.83862568  0.66869337  0.45087584  1
  Cu+  Cu116  1  0.17218418  0.33324799  0.78095131  1
  Cu+  Cu117  1  0.16993678  0.83323299  0.77719288  1
  Cu+  Cu118  1  0.66547250  0.33120387  0.77885810  1
  Cu+  Cu119  1  0.66204823  0.83127266  0.78131717  1
  Te2-  Te120  1  -0.00069531  -0.00402573  0.38996208  1
  Te2-  Te121  1  -0.00065464  0.49978768  0.38863176  1
  Te2-  Te122  1  0.50006917  0.00001115  0.38819334  1
  Te2-  Te123  1  0.50091202  0.50129916  0.38925183  1
  Te2-  Te124  1  0.33006648  0.16975170  0.71963319  1
  Te2-  Te125  1  0.33364691  0.66845096  0.71695803  1
  Te2-  Te126  1  0.83011540  0.16477983  0.72524875  1
  Te2-  Te127  1  0.83424008  0.66873536  0.72548957  1
  Te2-  Te128  1  0.16761267  0.33595204  0.05568111  1
  Te2-  Te129  1  0.16811391  0.83625830  0.05118000  1
  Te2-  Te130  1  0.66325797  0.33089877  0.05351272  1
  Te2-  Te131  1  0.66479840  0.83088721  0.05609575  1
  Te2-  Te132  1  0.49284013  0.25406929  0.88145385  1
  Te2-  Te133  1  0.49628149  0.74759729  0.88192735  1
  Te2-  Te134  1  0.98463358  0.24372211  0.88672278  1
  Te2-  Te135  1  0.99334372  0.75103587  0.88235303  1
  Te2-  Te136  1  0.25213414  0.01233379  0.88193680  1
  Te2-  Te137  1  0.24762091  0.50336614  0.88163820  1
  Te2-  Te138  1  0.75026872  0.00804609  0.88652794  1
  Te2-  Te139  1  0.75617527  0.51240830  0.88566406  1
  Te2-  Te140  1  0.24676800  0.24813425  0.88180354  1
  Te2-  Te141  1  0.25394676  0.75312850  0.87838510  1
  Te2-  Te142  1  0.74685482  0.24591101  0.88234241  1
  Te2-  Te143  1  0.75675103  0.75112135  0.88483813  1
  Te2-  Te144  1  0.33247743  0.41416092  0.21508322  1
  Te2-  Te145  1  0.33233586  0.91443073  0.21385824  1
  Te2-  Te146  1  0.82593461  0.40583753  0.21719651  1
  Te2-  Te147  1  0.82765854  0.91064842  0.21778752  1
  Te2-  Te148  1  0.08972689  0.17362850  0.21937681  1
  Te2-  Te149  1  0.08170779  0.66661180  0.21410395  1
  Te2-  Te150  1  0.58940334  0.16916712  0.21544390  1
  Te2-  Te151  1  0.58898653  0.66744319  0.21426837  1
  Te2-  Te152  1  0.09205727  0.41528541  0.21824515  1
  Te2-  Te153  1  0.08686890  0.91508859  0.21665083  1
  Te2-  Te154  1  0.58729586  0.40668420  0.22003143  1
  Te2-  Te155  1  0.58748189  0.90822660  0.21800486  1
  Te2-  Te156  1  0.15704652  0.07355676  0.54831459  1
  Te2-  Te157  1  0.15747772  0.58163042  0.54693716  1
  Te2-  Te158  1  0.66101625  0.08288630  0.55120100  1
  Te2-  Te159  1  0.65554922  0.58023613  0.55421277  1
  Te2-  Te160  1  0.41370600  0.34010486  0.54782812  1
  Te2-  Te161  1  0.41870580  0.84330436  0.54727070  1
  Te2-  Te162  1  0.92007794  0.33906251  0.55381356  1
  Te2-  Te163  1  0.91697152  0.83449871  0.54960291  1
  Te2-  Te164  1  0.41983755  0.08461047  0.54852975  1
  Te2-  Te165  1  0.41703555  0.58308118  0.54424744  1
  Te2-  Te166  1  0.91649574  0.07631652  0.55264395  1
  Te2-  Te167  1  0.91493753  0.57890928  0.55137553  1
  Te2-  Te168  1  -0.00023938  -0.00054530  0.88180968  1
  Te2-  Te169  1  0.00147517  0.50210853  0.88196847  1
  Te2-  Te170  1  0.49979839  0.00091647  0.88263373  1
  Te2-  Te171  1  0.49861041  0.50004791  0.88263229  1
  Te2-  Te172  1  0.33562521  0.16688426  0.21559510  1
  Te2-  Te173  1  0.33479402  0.66682502  0.21439061  1
  Te2-  Te174  1  0.83451951  0.16714616  0.21706331  1
  Te2-  Te175  1  0.83423718  0.66576639  0.21742431  1
  Te2-  Te176  1  0.16911554  0.33355166  0.54950466  1
  Te2-  Te177  1  0.16928177  0.83221991  0.54738870  1
  Te2-  Te178  1  0.66703324  0.33300105  0.55165548  1
  Te2-  Te179  1  0.66533762  0.83137689  0.54975993  1
  Te2-  Te180  1  0.32980227  0.41743653  0.71065241  1
  Te2-  Te181  1  0.32828641  0.91510695  0.70824607  1
  Te2-  Te182  1  0.82520258  0.41036978  0.70842648  1
  Te2-  Te183  1  0.82437928  0.91077523  0.71056379  1
  Te2-  Te184  1  0.08757101  0.17397775  0.70979984  1
  Te2-  Te185  1  0.08676635  0.67182493  0.70823767  1
  Te2-  Te186  1  0.58699197  0.17378954  0.70900098  1
  Te2-  Te187  1  0.58373765  0.67291187  0.71018763  1
  Te2-  Te188  1  0.09131224  0.41582117  0.71009244  1
  Te2-  Te189  1  0.08507235  0.91345387  0.71014591  1
  Te2-  Te190  1  0.58452691  0.41016729  0.70917390  1
  Te2-  Te191  1  0.58486696  0.91358771  0.71245801  1
  Te2-  Te192  1  0.16160532  0.08222882  0.04564316  1
  Te2-  Te193  1  0.16206079  0.58437066  0.04312711  1
  Te2-  Te194  1  0.66090015  0.08225071  0.04442450  1
  Te2-  Te195  1  0.65851196  0.58055561  0.04479485  1
  Te2-  Te196  1  0.41795290  0.34099066  0.04463534  1
  Te2-  Te197  1  0.41992595  0.84026134  0.04325372  1
  Te2-  Te198  1  0.91785067  0.34166763  0.04468634  1
  Te2-  Te199  1  0.91897522  0.83716409  0.04684952  1
  Te2-  Te200  1  0.42020407  0.08331231  0.04411540  1
  Te2-  Te201  1  0.41779498  0.58081593  0.04353122  1
  Te2-  Te202  1  0.92165984  0.07938319  0.04455321  1
  Te2-  Te203  1  0.92180100  0.58239648  0.04385369  1
  Te2-  Te204  1  0.49685214  0.24472655  0.37747416  1
  Te2-  Te205  1  0.49653493  0.74469421  0.37438627  1
  Te2-  Te206  1  0.99191663  0.24464560  0.37783006  1
  Te2-  Te207  1  0.99599461  0.74637695  0.37845856  1
  Te2-  Te208  1  0.25489268  0.00386709  0.37632469  1
  Te2-  Te209  1  0.25539790  0.50329173  0.37487969  1
  Te2-  Te210  1  0.75638469  0.00700618  0.37848851  1
  Te2-  Te211  1  0.75692150  0.50729990  0.37972134  1
  Te2-  Te212  1  0.25548846  0.24645320  0.37598950  1
  Te2-  Te213  1  0.25358022  0.74494040  0.37462995  1
  Te2-  Te214  1  0.75399384  0.24718533  0.38094239  1
  Te2-  Te215  1  0.75405761  0.74640160  0.37989363  1
