# generated using pymatgen
data_Ti(CuTe)4
_symmetry_space_group_name_H-M   'P 1'
_cell_length_a   16.87586830
_cell_length_b   16.87562534
_cell_length_c   20.68878675
_cell_angle_alpha   90.00613884
_cell_angle_beta   90.01396475
_cell_angle_gamma   120.00581186
_symmetry_Int_Tables_number   1
_chemical_formula_structural   Ti(CuTe)4
_chemical_formula_sum   'Ti24 Cu96 Te96'
_cell_volume   5102.30237102
_cell_formula_units_Z   24
loop_
 _symmetry_equiv_pos_site_id
 _symmetry_equiv_pos_as_xyz
  1  'x, y, z'
loop_
 _atom_type_symbol
 _atom_type_oxidation_number
  Ti4+  4.0
  Cu+  1.0
  Te2-  -2.0
loop_
 _atom_site_type_symbol
 _atom_site_label
 _atom_site_symmetry_multiplicity
 _atom_site_fract_x
 _atom_site_fract_y
 _atom_site_fract_z
 _atom_site_occupancy
  Ti4+  Ti0  1  0.00232290  0.00395366  0.25735096  1
  Ti4+  Ti1  1  0.00084592  0.50502027  0.25852311  1
  Ti4+  Ti2  1  0.50307879  0.00585227  0.25876395  1
  Ti4+  Ti3  1  0.50364383  0.50658737  0.25600902  1
  Ti4+  Ti4  1  0.33268212  0.16391536  0.59037578  1
  Ti4+  Ti5  1  0.32960818  0.66327445  0.58915747  1
  Ti4+  Ti6  1  0.83070845  0.16631014  0.59309031  1
  Ti4+  Ti7  1  0.83051340  0.66623424  0.59127973  1
  Ti4+  Ti8  1  0.16697992  0.32840828  0.92188344  1
  Ti4+  Ti9  1  0.16592264  0.82973704  0.92790129  1
  Ti4+  Ti10  1  0.66550624  0.32720295  0.92427345  1
  Ti4+  Ti11  1  0.66652596  0.83158941  0.92655486  1
  Ti4+  Ti12  1  -0.00102933  -0.00049259  0.75510108  1
  Ti4+  Ti13  1  -0.00066510  0.49941836  0.75690967  1
  Ti4+  Ti14  1  0.50057129  -0.00045591  0.75648489  1
  Ti4+  Ti15  1  0.49793423  0.49723317  0.75636667  1
  Ti4+  Ti16  1  0.33406512  0.16542203  0.08875688  1
  Ti4+  Ti17  1  0.33400875  0.66514843  0.08825449  1
  Ti4+  Ti18  1  0.83204455  0.16692811  0.09095461  1
  Ti4+  Ti19  1  0.83376862  0.66584799  0.08618443  1
  Ti4+  Ti20  1  0.16803879  0.33804307  0.42090190  1
  Ti4+  Ti21  1  0.16759150  0.83526191  0.42106594  1
  Ti4+  Ti22  1  0.66732487  0.33368853  0.42300163  1
  Ti4+  Ti23  1  0.66657244  0.83320545  0.42295541  1
  Cu+  Cu24  1  0.56907722  0.63970955  0.47386048  1
  Cu+  Cu25  1  0.06618733  0.42093351  0.47430596  1
  Cu+  Cu26  1  0.07087078  0.65266836  0.47868170  1
  Cu+  Cu27  1  0.24772831  0.76260999  0.14522187  1
  Cu+  Cu28  1  0.74976607  0.76515168  0.14229815  1
  Cu+  Cu29  1  0.91146117  0.31277311  0.80913791  1
  Cu+  Cu30  1  0.51862748  0.76691560  0.14214403  1
  Cu+  Cu31  1  0.40394141  0.30301422  0.80417228  1
  Cu+  Cu32  1  0.68355524  0.08517649  0.81180278  1
  Cu+  Cu33  1  0.57139772  0.14273965  0.47745471  1
  Cu+  Cu34  1  0.01575413  0.76438600  0.14308000  1
  Cu+  Cu35  1  0.73982817  0.26778574  0.14246234  1
  Cu+  Cu36  1  0.16573308  0.08592637  0.17027251  1
  Cu+  Cu37  1  0.16353087  0.58531767  0.17016201  1
  Cu+  Cu38  1  0.66569822  0.09224076  0.17151543  1
  Cu+  Cu39  1  0.66376791  0.58843579  0.16670290  1
  Cu+  Cu40  1  0.41959647  0.33760290  0.17056955  1
  Cu+  Cu41  1  0.42053549  0.83928204  0.17193784  1
  Cu+  Cu42  1  0.91411493  0.33699218  0.17318982  1
  Cu+  Cu43  1  0.92135094  0.84255252  0.16947301  1
  Cu+  Cu44  1  0.42287400  0.08761659  0.17082649  1
  Cu+  Cu45  1  0.42637364  0.58922140  0.16747355  1
  Cu+  Cu46  1  0.92104373  0.08551752  0.17185543  1
  Cu+  Cu47  1  0.92532147  0.58791909  0.16704281  1
  Cu+  Cu48  1  0.49748259  0.24364760  0.50475282  1
  Cu+  Cu49  1  0.49606440  0.74281489  0.50323940  1
  Cu+  Cu50  1  0.99754459  0.25174798  0.50575545  1
  Cu+  Cu51  1  0.99521121  0.74843754  0.50440834  1
  Cu+  Cu52  1  0.25199485  0.00547143  0.50341257  1
  Cu+  Cu53  1  0.24585168  0.50478034  0.49990353  1
  Cu+  Cu54  1  0.74889723  0.00290346  0.50656308  1
  Cu+  Cu55  1  0.75099467  0.50559038  0.50445475  1
  Cu+  Cu56  1  0.25281450  0.24981880  0.50449415  1
  Cu+  Cu57  1  0.24785682  0.74554091  0.50161650  1
  Cu+  Cu58  1  0.74646646  0.24336374  0.50523788  1
  Cu+  Cu59  1  0.74530285  0.74368820  0.50435457  1
  Cu+  Cu60  1  0.33060050  0.40674760  0.83613995  1
  Cu+  Cu61  1  0.32968222  0.90936702  0.84100039  1
  Cu+  Cu62  1  0.83152195  0.40855715  0.83796854  1
  Cu+  Cu63  1  0.83046020  0.91098166  0.83845864  1
  Cu+  Cu64  1  0.08639741  0.16908398  0.83414570  1
  Cu+  Cu65  1  0.08600713  0.67035118  0.84214749  1
  Cu+  Cu66  1  0.59027007  0.16809811  0.83598963  1
  Cu+  Cu67  1  0.58361376  0.66916990  0.84129693  1
  Cu+  Cu68  1  0.08326957  0.41104466  0.83776171  1
  Cu+  Cu69  1  0.08152749  0.91218506  0.83990915  1
  Cu+  Cu70  1  0.57733704  0.40750605  0.83839322  1
  Cu+  Cu71  1  0.58492695  0.91311650  0.83983493  1
  Cu+  Cu72  1  0.16597459  0.08201613  0.67307619  1
  Cu+  Cu73  1  0.16617713  0.58556233  0.67649988  1
  Cu+  Cu74  1  0.66618878  0.08316726  0.68264948  1
  Cu+  Cu75  1  0.66718494  0.58634756  0.67640548  1
  Cu+  Cu76  1  0.41417967  0.32631189  0.67612573  1
  Cu+  Cu77  1  0.41378287  0.82875665  0.67202795  1
  Cu+  Cu78  1  0.91344981  0.33165012  0.68040645  1
  Cu+  Cu79  1  0.91378566  0.83111218  0.67239089  1
  Cu+  Cu80  1  0.41499380  0.08078776  0.67572261  1
  Cu+  Cu81  1  0.41517172  0.58368154  0.67312817  1
  Cu+  Cu82  1  0.91481868  0.08316238  0.67520085  1
  Cu+  Cu83  1  0.91695843  0.58864332  0.67708327  1
  Cu+  Cu84  1  0.00261252  0.24955781  0.00727673  1
  Cu+  Cu85  1  0.00268612  0.74773210  0.01387187  1
  Cu+  Cu86  1  0.49962854  0.24619085  0.00694745  1
  Cu+  Cu87  1  0.50319564  0.74895289  0.01301647  1
  Cu+  Cu88  1  0.24835319  0.49228363  0.00348208  1
  Cu+  Cu89  1  0.24892942  0.99504370  0.00879743  1
  Cu+  Cu90  1  0.74784133  0.49335776  0.00549765  1
  Cu+  Cu91  1  0.74905429  0.99801637  0.00996814  1
  Cu+  Cu92  1  0.25020873  0.24846477  0.00633261  1
  Cu+  Cu93  1  0.24593300  0.74644034  0.01512074  1
  Cu+  Cu94  1  0.74902260  0.24941525  0.01550604  1
  Cu+  Cu95  1  0.74728828  0.74813896  0.01288342  1
  Cu+  Cu96  1  0.33704376  0.42182092  0.33790522  1
  Cu+  Cu97  1  0.33727948  0.92223094  0.34213119  1
  Cu+  Cu98  1  0.83334077  0.41886195  0.34234048  1
  Cu+  Cu99  1  0.83829614  0.92094474  0.34248784  1
  Cu+  Cu100  1  0.08472557  0.16812196  0.34041686  1
  Cu+  Cu101  1  0.08499541  0.66929562  0.34826409  1
  Cu+  Cu102  1  0.58513452  0.16762678  0.34879052  1
  Cu+  Cu103  1  0.58420573  0.66742076  0.34573645  1
  Cu+  Cu104  1  0.08267411  0.42200615  0.34512939  1
  Cu+  Cu105  1  0.08380042  0.92139914  0.34124144  1
  Cu+  Cu106  1  0.58487328  0.42134676  0.33918211  1
  Cu+  Cu107  1  0.58605125  0.92178550  0.34160624  1
  Cu+  Cu108  1  0.00362823  0.00653732  0.11228028  1
  Cu+  Cu109  1  0.00145173  0.49589040  0.11400228  1
  Cu+  Cu110  1  0.50034598  0.00037206  0.11426434  1
  Cu+  Cu111  1  0.49765542  0.49456049  0.11145687  1
  Cu+  Cu112  1  0.33409663  0.17204323  0.44683245  1
  Cu+  Cu113  1  0.33681457  0.67168878  0.44388214  1
  Cu+  Cu114  1  0.83626889  0.16576361  0.44943532  1
  Cu+  Cu115  1  0.83418927  0.67011915  0.44656755  1
  Cu+  Cu116  1  0.16880995  0.33611902  0.77733045  1
  Cu+  Cu117  1  0.16791571  0.83734110  0.78553097  1
  Cu+  Cu118  1  0.66887705  0.33929013  0.78130494  1
  Cu+  Cu119  1  0.66644331  0.83109165  0.78314942  1
  Te2-  Te120  1  0.00270811  0.00425547  0.38645982  1
  Te2-  Te121  1  -0.00258112  0.50249539  0.39041814  1
  Te2-  Te122  1  0.50097965  0.00005972  0.38881989  1
  Te2-  Te123  1  0.49989865  0.50007766  0.38596052  1
  Te2-  Te124  1  0.32965132  0.15985820  0.72053962  1
  Te2-  Te125  1  0.33194506  0.66486179  0.71801308  1
  Te2-  Te126  1  0.83327962  0.16471160  0.72491001  1
  Te2-  Te127  1  0.83179811  0.66830503  0.72041520  1
  Te2-  Te128  1  0.16719173  0.32978142  0.05102182  1
  Te2-  Te129  1  0.16781305  0.83357091  0.06040858  1
  Te2-  Te130  1  0.66313114  0.33128066  0.05442692  1
  Te2-  Te131  1  0.66857636  0.83508139  0.05880537  1
  Te2-  Te132  1  0.49251297  0.23737192  0.88153391  1
  Te2-  Te133  1  0.49498733  0.74715684  0.88618254  1
  Te2-  Te134  1  0.99277256  0.24025898  0.88187179  1
  Te2-  Te135  1  0.99455384  0.74561245  0.88676151  1
  Te2-  Te136  1  0.25070894  -0.00063880  0.88286887  1
  Te2-  Te137  1  0.25265281  0.49866146  0.87789118  1
  Te2-  Te138  1  0.75639469  0.00388677  0.88426904  1
  Te2-  Te139  1  0.74843129  0.49577052  0.87945912  1
  Te2-  Te140  1  0.25146108  0.23840997  0.88081399  1
  Te2-  Te141  1  0.25198212  0.74366454  0.88796526  1
  Te2-  Te142  1  0.75627929  0.24122131  0.88709311  1
  Te2-  Te143  1  0.75115072  0.74510671  0.88546564  1
  Te2-  Te144  1  0.33346092  0.42118445  0.21211800  1
  Te2-  Te145  1  0.33082064  0.92039821  0.21626493  1
  Te2-  Te146  1  0.82773045  0.42204572  0.21633391  1
  Te2-  Te147  1  0.82846017  0.91873983  0.21661466  1
  Te2-  Te148  1  0.08833205  0.17538438  0.21469822  1
  Te2-  Te149  1  0.09043722  0.68044817  0.21932542  1
  Te2-  Te150  1  0.58724979  0.18013470  0.22053533  1
  Te2-  Te151  1  0.59244620  0.68342821  0.21750955  1
  Te2-  Te152  1  0.08321309  0.41812766  0.21743658  1
  Te2-  Te153  1  0.09077610  0.91900418  0.21557407  1
  Te2-  Te154  1  0.58890470  0.42127961  0.21327319  1
  Te2-  Te155  1  0.59196823  0.92302779  0.21583678  1
  Te2-  Te156  1  0.16123497  0.08136385  0.54748055  1
  Te2-  Te157  1  0.15231730  0.57710288  0.54988572  1
  Te2-  Te158  1  0.65678072  0.07573042  0.55458248  1
  Te2-  Te159  1  0.65567344  0.57557003  0.55066398  1
  Te2-  Te160  1  0.42051209  0.33496481  0.54892664  1
  Te2-  Te161  1  0.41620681  0.83287522  0.54601245  1
  Te2-  Te162  1  0.91347725  0.33862836  0.55235849  1
  Te2-  Te163  1  0.91469057  0.83604896  0.54679326  1
  Te2-  Te164  1  0.41700003  0.07359224  0.55010764  1
  Te2-  Te165  1  0.41269984  0.57340993  0.54717547  1
  Te2-  Te166  1  0.91718730  0.08357004  0.54931549  1
  Te2-  Te167  1  0.91648344  0.57819875  0.55116032  1
  Te2-  Te168  1  0.00022469  -0.00008277  0.88142038  1
  Te2-  Te169  1  0.00117035  0.49841659  0.88382893  1
  Te2-  Te170  1  0.49986672  -0.00198441  0.88366252  1
  Te2-  Te171  1  0.49895528  0.49797585  0.88332349  1
  Te2-  Te172  1  0.33500736  0.16993794  0.21510506  1
  Te2-  Te173  1  0.33444580  0.66734922  0.21585286  1
  Te2-  Te174  1  0.83497875  0.16854182  0.21796911  1
  Te2-  Te175  1  0.83470478  0.66914216  0.21362422  1
  Te2-  Te176  1  0.16821002  0.33510597  0.54804861  1
  Te2-  Te177  1  0.16625522  0.83413876  0.54796859  1
  Te2-  Te178  1  0.66696733  0.33454747  0.54969323  1
  Te2-  Te179  1  0.66450625  0.83209484  0.54980991  1
  Te2-  Te180  1  0.32737780  0.41250615  0.70832744  1
  Te2-  Te181  1  0.32809793  0.91115785  0.71346810  1
  Te2-  Te182  1  0.82687969  0.41710744  0.71107789  1
  Te2-  Te183  1  0.82624860  0.91286795  0.71143975  1
  Te2-  Te184  1  0.08573490  0.17193853  0.70876972  1
  Te2-  Te185  1  0.08569087  0.67332193  0.71549247  1
  Te2-  Te186  1  0.58454162  0.17395488  0.71074929  1
  Te2-  Te187  1  0.58302632  0.67077757  0.71399249  1
  Te2-  Te188  1  0.08636866  0.41443758  0.70981007  1
  Te2-  Te189  1  0.08352956  0.91218702  0.71174260  1
  Te2-  Te190  1  0.58633327  0.41433017  0.71031350  1
  Te2-  Te191  1  0.58301832  0.90927311  0.71174452  1
  Te2-  Te192  1  0.16199968  0.07898866  0.04381275  1
  Te2-  Te193  1  0.16102410  0.57392189  0.04331496  1
  Te2-  Te194  1  0.65871582  0.07700452  0.04496398  1
  Te2-  Te195  1  0.65998660  0.57568144  0.04068471  1
  Te2-  Te196  1  0.41985171  0.33642100  0.04268480  1
  Te2-  Te197  1  0.42021575  0.83918624  0.04320810  1
  Te2-  Te198  1  0.92206565  0.33849958  0.04484258  1
  Te2-  Te199  1  0.92105972  0.84063535  0.04147666  1
  Te2-  Te200  1  0.41924241  0.07747775  0.04478484  1
  Te2-  Te201  1  0.41776913  0.57642329  0.04140671  1
  Te2-  Te202  1  0.91869962  0.08105286  0.04594785  1
  Te2-  Te203  1  0.91742203  0.57491866  0.04180280  1
  Te2-  Te204  1  0.49539357  0.25159032  0.37701590  1
  Te2-  Te205  1  0.49520236  0.75118731  0.37524458  1
  Te2-  Te206  1  0.99506912  0.24886593  0.37707239  1
  Te2-  Te207  1  0.99412619  0.75134618  0.37647453  1
  Te2-  Te208  1  0.25379646  0.00854973  0.37785724  1
  Te2-  Te209  1  0.25595639  0.51064125  0.37386182  1
  Te2-  Te210  1  0.75445500  0.00674383  0.38007230  1
  Te2-  Te211  1  0.75261934  0.50725393  0.37900891  1
  Te2-  Te212  1  0.25448503  0.25248586  0.37684955  1
  Te2-  Te213  1  0.25756194  0.75174376  0.37489788  1
  Te2-  Te214  1  0.75746490  0.24973914  0.37849609  1
  Te2-  Te215  1  0.75623510  0.75057566  0.37696841  1
