# generated using pymatgen
data_Ti(CuTe)4
_symmetry_space_group_name_H-M   'P 1'
_cell_length_a   16.89654414
_cell_length_b   16.89348130
_cell_length_c   20.71715226
_cell_angle_alpha   90.01845635
_cell_angle_beta   89.96450775
_cell_angle_gamma   119.99430601
_symmetry_Int_Tables_number   1
_chemical_formula_structural   Ti(CuTe)4
_chemical_formula_sum   'Ti24 Cu96 Te96'
_cell_volume   5121.56352917
_cell_formula_units_Z   24
loop_
 _symmetry_equiv_pos_site_id
 _symmetry_equiv_pos_as_xyz
  1  'x, y, z'
loop_
 _atom_type_symbol
 _atom_type_oxidation_number
  Ti4+  4.0
  Cu+  1.0
  Te2-  -2.0
loop_
 _atom_site_type_symbol
 _atom_site_label
 _atom_site_symmetry_multiplicity
 _atom_site_fract_x
 _atom_site_fract_y
 _atom_site_fract_z
 _atom_site_occupancy
  Ti4+  Ti0  1  0.00038501  -0.00365077  0.25748772  1
  Ti4+  Ti1  1  -0.00164535  0.49610222  0.25769174  1
  Ti4+  Ti2  1  0.50131782  -0.00218286  0.25804423  1
  Ti4+  Ti3  1  0.49996355  0.49934622  0.25393128  1
  Ti4+  Ti4  1  0.33431017  0.16486876  0.58862689  1
  Ti4+  Ti5  1  0.33431683  0.66844544  0.59092837  1
  Ti4+  Ti6  1  0.83430255  0.16555172  0.59625546  1
  Ti4+  Ti7  1  0.83319407  0.66561590  0.59411143  1
  Ti4+  Ti8  1  0.16696069  0.33713372  0.92168780  1
  Ti4+  Ti9  1  0.16526489  0.83533334  0.92680128  1
  Ti4+  Ti10  1  0.66818127  0.33710830  0.92268377  1
  Ti4+  Ti11  1  0.66419918  0.83538670  0.92394716  1
  Ti4+  Ti12  1  0.00054625  -0.00028860  0.75425250  1
  Ti4+  Ti13  1  -0.00020576  0.50132267  0.75370440  1
  Ti4+  Ti14  1  0.50011388  0.00036468  0.75574755  1
  Ti4+  Ti15  1  0.49856266  0.50110030  0.75453995  1
  Ti4+  Ti16  1  0.33216901  0.16671361  0.08679193  1
  Ti4+  Ti17  1  0.33361306  0.66748702  0.08823234  1
  Ti4+  Ti18  1  0.83341451  0.16830663  0.08943058  1
  Ti4+  Ti19  1  0.83170366  0.66657846  0.08737919  1
  Ti4+  Ti20  1  0.16574781  0.33139407  0.42247054  1
  Ti4+  Ti21  1  0.16862455  0.83245242  0.42166729  1
  Ti4+  Ti22  1  0.66627633  0.33247684  0.42415785  1
  Ti4+  Ti23  1  0.66645172  0.83088080  0.42424341  1
  Cu+  Cu24  1  0.68003565  0.59684609  0.80915978  1
  Cu+  Cu25  1  0.73903168  0.47637215  0.14113217  1
  Cu+  Cu26  1  0.00996192  0.75038475  0.14680487  1
  Cu+  Cu27  1  0.52171875  0.76030733  0.14172136  1
  Cu+  Cu28  1  0.40441821  0.59798869  0.80571138  1
  Cu+  Cu29  1  0.35888463  0.92801345  0.47328407  1
  Cu+  Cu30  1  0.91265280  0.32793219  0.81576634  1
  Cu+  Cu31  1  0.24560841  0.98348727  0.14433557  1
  Cu+  Cu32  1  0.67898844  0.09199362  0.81323173  1
  Cu+  Cu33  1  0.91328877  0.59775451  0.81012105  1
  Cu+  Cu34  1  0.23888698  0.47702785  0.13922371  1
  Cu+  Cu35  1  0.91188833  0.09100469  0.81184503  1
  Cu+  Cu36  1  0.16339886  0.07666148  0.16867780  1
  Cu+  Cu37  1  0.16333076  0.57561858  0.16980077  1
  Cu+  Cu38  1  0.66486243  0.08120711  0.17190674  1
  Cu+  Cu39  1  0.66146820  0.57674237  0.16678642  1
  Cu+  Cu40  1  0.41900697  0.33743596  0.16686921  1
  Cu+  Cu41  1  0.42422580  0.83743381  0.17022147  1
  Cu+  Cu42  1  0.91755946  0.33571281  0.17109268  1
  Cu+  Cu43  1  0.92138406  0.83764673  0.16921236  1
  Cu+  Cu44  1  0.41691977  0.08012505  0.17108708  1
  Cu+  Cu45  1  0.41838877  0.58243287  0.16740352  1
  Cu+  Cu46  1  0.91624484  0.07990577  0.17197962  1
  Cu+  Cu47  1  0.91439466  0.57652772  0.17021393  1
  Cu+  Cu48  1  0.49646329  0.24719213  0.50338750  1
  Cu+  Cu49  1  0.49669273  0.74662567  0.50538527  1
  Cu+  Cu50  1  0.99706801  0.24696765  0.50803672  1
  Cu+  Cu51  1  0.99725115  0.74525394  0.50676585  1
  Cu+  Cu52  1  0.25765125  0.00204852  0.50200826  1
  Cu+  Cu53  1  0.25150339  0.50137648  0.50604793  1
  Cu+  Cu54  1  0.75177184  0.00065953  0.50901474  1
  Cu+  Cu55  1  0.75154490  0.50216565  0.50839674  1
  Cu+  Cu56  1  0.25007610  0.24592752  0.50343265  1
  Cu+  Cu57  1  0.25737917  0.75355547  0.50336202  1
  Cu+  Cu58  1  0.75111049  0.24787165  0.51002638  1
  Cu+  Cu59  1  0.75057530  0.74631075  0.50752036  1
  Cu+  Cu60  1  0.33015783  0.42325416  0.83540418  1
  Cu+  Cu61  1  0.32990022  0.91859499  0.84021731  1
  Cu+  Cu62  1  0.82779317  0.41939134  0.83403527  1
  Cu+  Cu63  1  0.82968681  0.91768503  0.83507795  1
  Cu+  Cu64  1  0.08512729  0.17109404  0.83441100  1
  Cu+  Cu65  1  0.08372265  0.67408083  0.83832232  1
  Cu+  Cu66  1  0.58643261  0.17165236  0.83610770  1
  Cu+  Cu67  1  0.57995521  0.67114539  0.83725445  1
  Cu+  Cu68  1  0.08736553  0.41541740  0.83345635  1
  Cu+  Cu69  1  0.08626218  0.91628361  0.83843269  1
  Cu+  Cu70  1  0.58806721  0.42098566  0.83544962  1
  Cu+  Cu71  1  0.58517517  0.91678471  0.83687075  1
  Cu+  Cu72  1  0.17071711  0.08157235  0.67111129  1
  Cu+  Cu73  1  0.16913154  0.58711632  0.67251998  1
  Cu+  Cu74  1  0.67029419  0.08361844  0.68242881  1
  Cu+  Cu75  1  0.66928329  0.58411585  0.68020336  1
  Cu+  Cu76  1  0.41263850  0.32760083  0.67159553  1
  Cu+  Cu77  1  0.41479239  0.83321538  0.67539764  1
  Cu+  Cu78  1  0.91663773  0.33069737  0.68273712  1
  Cu+  Cu79  1  0.91781022  0.83049798  0.67554404  1
  Cu+  Cu80  1  0.41483085  0.08291013  0.67362335  1
  Cu+  Cu81  1  0.41261245  0.58543732  0.67803550  1
  Cu+  Cu82  1  0.91639203  0.08411497  0.68130080  1
  Cu+  Cu83  1  0.91461260  0.58503663  0.68071287  1
  Cu+  Cu84  1  0.00036255  0.25259125  0.00882140  1
  Cu+  Cu85  1  0.00083038  0.75343250  0.01488082  1
  Cu+  Cu86  1  0.50200798  0.25276396  0.00542486  1
  Cu+  Cu87  1  0.50114599  0.75377153  0.01174014  1
  Cu+  Cu88  1  0.24741913  0.49919109  0.01005398  1
  Cu+  Cu89  1  0.24737075  0.99812212  0.01411025  1
  Cu+  Cu90  1  0.74826759  0.49967625  0.01180846  1
  Cu+  Cu91  1  0.74843276  1.00159693  0.01057375  1
  Cu+  Cu92  1  0.24843703  0.25322022  0.00452275  1
  Cu+  Cu93  1  0.24754060  0.75363076  0.00878880  1
  Cu+  Cu94  1  0.75083275  0.25364573  0.01022566  1
  Cu+  Cu95  1  0.74621200  0.75295134  0.00813876  1
  Cu+  Cu96  1  0.33429544  0.41739558  0.33897682  1
  Cu+  Cu97  1  0.33772021  0.91645402  0.34470853  1
  Cu+  Cu98  1  0.83376981  0.41635102  0.34369862  1
  Cu+  Cu99  1  0.83641210  0.91532303  0.34272945  1
  Cu+  Cu100  1  0.08009854  0.16105774  0.34080407  1
  Cu+  Cu101  1  0.08053657  0.66065210  0.34202924  1
  Cu+  Cu102  1  0.58309286  0.16405498  0.34263408  1
  Cu+  Cu103  1  0.58273402  0.66380157  0.33979684  1
  Cu+  Cu104  1  0.08097390  0.41425138  0.34324363  1
  Cu+  Cu105  1  0.08198945  0.91403316  0.34281241  1
  Cu+  Cu106  1  0.58393554  0.41799893  0.34101665  1
  Cu+  Cu107  1  0.58403124  0.91444118  0.34405833  1
  Cu+  Cu108  1  -0.00004186  0.00499263  0.11390512  1
  Cu+  Cu109  1  0.00135295  0.50045796  0.11369078  1
  Cu+  Cu110  1  0.50236259  0.00528946  0.11492919  1
  Cu+  Cu111  1  0.49758300  0.49828450  0.10841992  1
  Cu+  Cu112  1  0.33227653  0.16763037  0.44487024  1
  Cu+  Cu113  1  0.33136461  0.66249117  0.44805308  1
  Cu+  Cu114  1  0.83169777  0.16447477  0.45429886  1
  Cu+  Cu115  1  0.83391446  0.66642984  0.45166714  1
  Cu+  Cu116  1  0.17005267  0.33145719  0.77658543  1
  Cu+  Cu117  1  0.17040673  0.83666881  0.78235845  1
  Cu+  Cu118  1  0.66049709  0.33199181  0.77791762  1
  Cu+  Cu119  1  0.66754527  0.83326831  0.77943072  1
  Te2-  Te120  1  0.00091700  -0.00255964  0.38609743  1
  Te2-  Te121  1  -0.00134113  0.49670882  0.38637187  1
  Te2-  Te122  1  0.50412857  -0.00029899  0.38791537  1
  Te2-  Te123  1  0.49901295  0.49876007  0.38230697  1
  Te2-  Te124  1  0.33310489  0.16506402  0.71807618  1
  Te2-  Te125  1  0.33085881  0.66989823  0.72183617  1
  Te2-  Te126  1  0.83465914  0.16678498  0.73003193  1
  Te2-  Te127  1  0.83407498  0.66946787  0.72704554  1
  Te2-  Te128  1  0.16522622  0.33259849  0.05176232  1
  Te2-  Te129  1  0.16605965  0.83287912  0.05913377  1
  Te2-  Te130  1  0.66486527  0.33267250  0.05264095  1
  Te2-  Te131  1  0.66728055  0.83684676  0.05405342  1
  Te2-  Te132  1  0.49876854  0.25190508  0.87924085  1
  Te2-  Te133  1  0.49142279  0.75092892  0.88435658  1
  Te2-  Te134  1  0.99088081  0.24718899  0.88298827  1
  Te2-  Te135  1  0.99162983  0.75081219  0.88693855  1
  Te2-  Te136  1  0.25154433  0.00686512  0.88681390  1
  Te2-  Te137  1  0.25055095  0.51128999  0.88314618  1
  Te2-  Te138  1  0.75424038  0.01093660  0.88451028  1
  Te2-  Te139  1  0.75571102  0.51311783  0.88439042  1
  Te2-  Te140  1  0.25272606  0.25334231  0.87833950  1
  Te2-  Te141  1  0.25043416  0.74986822  0.88304734  1
  Te2-  Te142  1  0.75611862  0.24944071  0.88412735  1
  Te2-  Te143  1  0.75211505  0.75151210  0.88216780  1
  Te2-  Te144  1  0.32668516  0.41177934  0.21297275  1
  Te2-  Te145  1  0.32864231  0.90905354  0.21730989  1
  Te2-  Te146  1  0.82439988  0.40885891  0.21748895  1
  Te2-  Te147  1  0.82934701  0.91148269  0.21641560  1
  Te2-  Te148  1  0.08547033  0.16634545  0.21443831  1
  Te2-  Te149  1  0.08698795  0.66817555  0.21562195  1
  Te2-  Te150  1  0.58430869  0.16843167  0.21634130  1
  Te2-  Te151  1  0.58961090  0.67242312  0.21366234  1
  Te2-  Te152  1  0.08412222  0.40784424  0.21689135  1
  Te2-  Te153  1  0.08957856  0.90783157  0.21693792  1
  Te2-  Te154  1  0.58474932  0.40939506  0.21486535  1
  Te2-  Te155  1  0.59168971  0.91406877  0.21782492  1
  Te2-  Te156  1  0.16355505  0.07671483  0.54545943  1
  Te2-  Te157  1  0.16434468  0.58453512  0.54686647  1
  Te2-  Te158  1  0.66363871  0.07998415  0.55501255  1
  Te2-  Te159  1  0.66173061  0.57965611  0.55352561  1
  Te2-  Te160  1  0.41821339  0.33669617  0.54638149  1
  Te2-  Te161  1  0.42531621  0.84244230  0.55000189  1
  Te2-  Te162  1  0.91910929  0.33614038  0.55488249  1
  Te2-  Te163  1  0.91958347  0.83588412  0.54999509  1
  Te2-  Te164  1  0.42546333  0.08064038  0.54857897  1
  Te2-  Te165  1  0.41853301  0.58047675  0.55163940  1
  Te2-  Te166  1  0.91928752  0.07995986  0.55432093  1
  Te2-  Te167  1  0.91862119  0.57917942  0.55403927  1
  Te2-  Te168  1  -0.00006130  0.00158689  0.88133754  1
  Te2-  Te169  1  0.00044381  0.50118104  0.88139521  1
  Te2-  Te170  1  0.50001198  0.00216347  0.88283372  1
  Te2-  Te171  1  0.49871843  0.50053614  0.88203911  1
  Te2-  Te172  1  0.33364736  0.16771044  0.21370289  1
  Te2-  Te173  1  0.33323145  0.66637936  0.21532081  1
  Te2-  Te174  1  0.83381000  0.16602013  0.21554320  1
  Te2-  Te175  1  0.83149332  0.66588887  0.21457004  1
  Te2-  Te176  1  0.16755406  0.33181553  0.54865956  1
  Te2-  Te177  1  0.16767224  0.83300099  0.54828789  1
  Te2-  Te178  1  0.66469433  0.33216777  0.55035570  1
  Te2-  Te179  1  0.66575899  0.83072701  0.55049168  1
  Te2-  Te180  1  0.32730030  0.41251768  0.70815706  1
  Te2-  Te181  1  0.32793564  0.91512905  0.71312408  1
  Te2-  Te182  1  0.82442239  0.41195112  0.70829802  1
  Te2-  Te183  1  0.82709008  0.91084625  0.70887399  1
  Te2-  Te184  1  0.08988617  0.17142173  0.70763682  1
  Te2-  Te185  1  0.08772787  0.67519771  0.71092542  1
  Te2-  Te186  1  0.58510186  0.17222472  0.70928433  1
  Te2-  Te187  1  0.58576788  0.67426045  0.70926085  1
  Te2-  Te188  1  0.09004318  0.41734644  0.70816301  1
  Te2-  Te189  1  0.08730223  0.91353795  0.71226378  1
  Te2-  Te190  1  0.58201299  0.41153414  0.70898216  1
  Te2-  Te191  1  0.58441347  0.91104578  0.71087109  1
  Te2-  Te192  1  0.15939422  0.08354368  0.04186650  1
  Te2-  Te193  1  0.16028812  0.58342041  0.04320926  1
  Te2-  Te194  1  0.66106967  0.08357478  0.04550848  1
  Te2-  Te195  1  0.65872589  0.58282524  0.04080602  1
  Te2-  Te196  1  0.41799681  0.33843003  0.04086818  1
  Te2-  Te197  1  0.41733647  0.84169533  0.04422202  1
  Te2-  Te198  1  0.91996668  0.34105983  0.04511340  1
  Te2-  Te199  1  0.91597578  0.84126314  0.04333254  1
  Te2-  Te200  1  0.42102858  0.08267405  0.04286572  1
  Te2-  Te201  1  0.41958862  0.58103829  0.04013880  1
  Te2-  Te202  1  0.91886065  0.08233951  0.04469664  1
  Te2-  Te203  1  0.92025102  0.58048629  0.04250672  1
  Te2-  Te204  1  0.49569675  0.24731200  0.37730084  1
  Te2-  Te205  1  0.49474544  0.74454248  0.37922042  1
  Te2-  Te206  1  0.99336851  0.24392908  0.38087009  1
  Te2-  Te207  1  0.99512113  0.74447311  0.38010384  1
  Te2-  Te208  1  0.25327815  0.00488311  0.37534751  1
  Te2-  Te209  1  0.25146399  0.50300245  0.37864247  1
  Te2-  Te210  1  0.75412608  0.00313374  0.38184601  1
  Te2-  Te211  1  0.75253066  0.50465901  0.38129121  1
  Te2-  Te212  1  0.25115893  0.24675826  0.37620921  1
  Te2-  Te213  1  0.25201105  0.74351468  0.37634744  1
  Te2-  Te214  1  0.75243926  0.24620220  0.38246644  1
  Te2-  Te215  1  0.75198925  0.74517181  0.38028001  1
