# generated using pymatgen
data_Ti(CuTe)4
_symmetry_space_group_name_H-M   'P 1'
_cell_length_a   16.85775727
_cell_length_b   16.86269771
_cell_length_c   20.66855061
_cell_angle_alpha   90.03009149
_cell_angle_beta   90.03773752
_cell_angle_gamma   120.00050617
_symmetry_Int_Tables_number   1
_chemical_formula_structural   Ti(CuTe)4
_chemical_formula_sum   'Ti24 Cu96 Te96'
_cell_volume   5088.20949976
_cell_formula_units_Z   24
loop_
 _symmetry_equiv_pos_site_id
 _symmetry_equiv_pos_as_xyz
  1  'x, y, z'
loop_
 _atom_type_symbol
 _atom_type_oxidation_number
  Ti4+  4.0
  Cu+  1.0
  Te2-  -2.0
loop_
 _atom_site_type_symbol
 _atom_site_label
 _atom_site_symmetry_multiplicity
 _atom_site_fract_x
 _atom_site_fract_y
 _atom_site_fract_z
 _atom_site_occupancy
  Ti4+  Ti0  1  0.00179162  0.00104122  0.25769838  1
  Ti4+  Ti1  1  -0.00045645  0.50102500  0.25320607  1
  Ti4+  Ti2  1  0.49767295  0.00038805  0.25999202  1
  Ti4+  Ti3  1  0.49773438  0.50039378  0.25889865  1
  Ti4+  Ti4  1  0.33076119  0.16612310  0.59239433  1
  Ti4+  Ti5  1  0.33409560  0.66584025  0.59303387  1
  Ti4+  Ti6  1  0.83067688  0.16316948  0.58731376  1
  Ti4+  Ti7  1  0.83001830  0.66355102  0.59186540  1
  Ti4+  Ti8  1  0.16941443  0.33262978  0.92340988  1
  Ti4+  Ti9  1  0.16808054  0.83106528  0.92334665  1
  Ti4+  Ti10  1  0.66665232  0.33514385  0.92592368  1
  Ti4+  Ti11  1  0.66864423  0.83540300  0.92510057  1
  Ti4+  Ti12  1  -0.00029474  0.00019483  0.75450030  1
  Ti4+  Ti13  1  0.00107993  0.50277447  0.75629009  1
  Ti4+  Ti14  1  0.50100286  -0.00139277  0.75708145  1
  Ti4+  Ti15  1  0.49875652  0.49813319  0.75600349  1
  Ti4+  Ti16  1  0.33524644  0.16757721  0.08959501  1
  Ti4+  Ti17  1  0.33385362  0.66710915  0.09066706  1
  Ti4+  Ti18  1  0.83523351  0.16921611  0.08826450  1
  Ti4+  Ti19  1  0.83501855  0.66738509  0.08750591  1
  Ti4+  Ti20  1  0.16590047  0.33260320  0.42358602  1
  Ti4+  Ti21  1  0.16800424  0.83469752  0.42396743  1
  Ti4+  Ti22  1  0.66838806  0.33502688  0.42299660  1
  Ti4+  Ti23  1  0.66595524  0.83349658  0.41958236  1
  Cu+  Cu24  1  0.73388423  0.25339036  0.14247692  1
  Cu+  Cu25  1  0.56823652  0.91799303  0.47469637  1
  Cu+  Cu26  1  0.23915263  0.76255587  0.14087557  1
  Cu+  Cu27  1  0.90230108  0.59540855  0.80843960  1
  Cu+  Cu28  1  0.41231878  0.81286997  0.81077009  1
  Cu+  Cu29  1  0.23792575  0.47638447  0.13874666  1
  Cu+  Cu30  1  0.56946208  0.64260783  0.47303961  1
  Cu+  Cu31  1  0.07047322  0.13889405  0.47230551  1
  Cu+  Cu32  1  0.73564004  0.48464646  0.14267374  1
  Cu+  Cu33  1  0.56916504  0.15132314  0.47837531  1
  Cu+  Cu34  1  0.18580181  0.58962367  0.81151657  1
  Cu+  Cu35  1  0.40588521  0.30784740  0.80668071  1
  Cu+  Cu36  1  0.16596622  0.08345306  0.17215192  1
  Cu+  Cu37  1  0.16460981  0.58316120  0.16813682  1
  Cu+  Cu38  1  0.66375344  0.08298873  0.17422777  1
  Cu+  Cu39  1  0.66365932  0.58366580  0.17338377  1
  Cu+  Cu40  1  0.41704765  0.33808539  0.17144058  1
  Cu+  Cu41  1  0.41347815  0.83795405  0.17309024  1
  Cu+  Cu42  1  0.91362559  0.33710796  0.16586351  1
  Cu+  Cu43  1  0.92072803  0.83852653  0.17047688  1
  Cu+  Cu44  1  0.41796342  0.08261316  0.17201811  1
  Cu+  Cu45  1  0.41338969  0.57815047  0.17273417  1
  Cu+  Cu46  1  0.92201472  0.08385131  0.17148815  1
  Cu+  Cu47  1  0.91519327  0.57873614  0.16516086  1
  Cu+  Cu48  1  0.49668474  0.25000940  0.50815207  1
  Cu+  Cu49  1  0.49622299  0.74540186  0.50391648  1
  Cu+  Cu50  1  0.99750965  0.24262555  0.50243763  1
  Cu+  Cu51  1  0.99910840  0.74657433  0.50675842  1
  Cu+  Cu52  1  0.25078126  0.00387814  0.50519692  1
  Cu+  Cu53  1  0.24914804  0.50358586  0.50633888  1
  Cu+  Cu54  1  0.74733697  0.00509170  0.49734681  1
  Cu+  Cu55  1  0.75395168  0.50549637  0.50528922  1
  Cu+  Cu56  1  0.24571744  0.24510658  0.50676088  1
  Cu+  Cu57  1  0.24992912  0.74798847  0.50705543  1
  Cu+  Cu58  1  0.74697862  0.24434827  0.50151773  1
  Cu+  Cu59  1  0.74507062  0.74197954  0.50172367  1
  Cu+  Cu60  1  0.33149144  0.40990019  0.83645939  1
  Cu+  Cu61  1  0.33354221  0.91176318  0.83775082  1
  Cu+  Cu62  1  0.83078870  0.42053873  0.83908706  1
  Cu+  Cu63  1  0.83245677  0.91727326  0.83801858  1
  Cu+  Cu64  1  0.08659655  0.16965452  0.83605313  1
  Cu+  Cu65  1  0.08598854  0.66992417  0.83566445  1
  Cu+  Cu66  1  0.58793191  0.17039435  0.83976260  1
  Cu+  Cu67  1  0.58750979  0.67133503  0.83783455  1
  Cu+  Cu68  1  0.08833529  0.41697041  0.83711011  1
  Cu+  Cu69  1  0.08561047  0.91637353  0.83664344  1
  Cu+  Cu70  1  0.58030469  0.41191817  0.83797408  1
  Cu+  Cu71  1  0.58548208  0.91354660  0.83879114  1
  Cu+  Cu72  1  0.16608026  0.08434768  0.67614517  1
  Cu+  Cu73  1  0.17010903  0.58595446  0.68156170  1
  Cu+  Cu74  1  0.66777017  0.08421177  0.67481082  1
  Cu+  Cu75  1  0.66597294  0.58263725  0.67519322  1
  Cu+  Cu76  1  0.41277202  0.32781973  0.67875912  1
  Cu+  Cu77  1  0.41708616  0.83063183  0.68135170  1
  Cu+  Cu78  1  0.91461621  0.33018004  0.67044014  1
  Cu+  Cu79  1  0.91418300  0.82980734  0.67279246  1
  Cu+  Cu80  1  0.41823750  0.08554976  0.67794758  1
  Cu+  Cu81  1  0.41792683  0.58384698  0.67594031  1
  Cu+  Cu82  1  0.91466306  0.08371681  0.67113537  1
  Cu+  Cu83  1  0.91284977  0.58453557  0.68026428  1
  Cu+  Cu84  1  0.00504294  0.25131331  0.00623795  1
  Cu+  Cu85  1  0.00325340  0.75169043  0.00708219  1
  Cu+  Cu86  1  0.50019162  0.25028849  0.00978596  1
  Cu+  Cu87  1  0.50547182  0.75383921  0.01066305  1
  Cu+  Cu88  1  0.25313615  0.49625431  0.01094403  1
  Cu+  Cu89  1  0.25231307  0.99770447  0.00745151  1
  Cu+  Cu90  1  0.74918599  0.49946309  0.01311090  1
  Cu+  Cu91  1  0.75112144  0.99950838  0.00779150  1
  Cu+  Cu92  1  0.25253952  0.25041218  0.00813056  1
  Cu+  Cu93  1  0.25194867  0.75194386  0.01390429  1
  Cu+  Cu94  1  0.75015463  0.25438439  0.01340040  1
  Cu+  Cu95  1  0.75156470  0.75508130  0.00767113  1
  Cu+  Cu96  1  0.33311632  0.41963296  0.34412973  1
  Cu+  Cu97  1  0.33275591  0.91649821  0.34427237  1
  Cu+  Cu98  1  0.83620279  0.42152301  0.34056298  1
  Cu+  Cu99  1  0.83627717  0.91803064  0.33924018  1
  Cu+  Cu100  1  0.08235731  0.16199414  0.34439268  1
  Cu+  Cu101  1  0.08523006  0.66665118  0.33838369  1
  Cu+  Cu102  1  0.58343473  0.16601850  0.34901004  1
  Cu+  Cu103  1  0.58029176  0.66231592  0.34440304  1
  Cu+  Cu104  1  0.08434192  0.42018473  0.33766160  1
  Cu+  Cu105  1  0.08449806  0.91837796  0.34105101  1
  Cu+  Cu106  1  0.58634220  0.42179071  0.34437558  1
  Cu+  Cu107  1  0.58255163  0.92089754  0.34572088  1
  Cu+  Cu108  1  0.00350187  0.00154728  0.11461942  1
  Cu+  Cu109  1  0.00273542  0.50113453  0.10702304  1
  Cu+  Cu110  1  0.50249742  0.00082027  0.11637388  1
  Cu+  Cu111  1  0.50211520  0.50186206  0.11531668  1
  Cu+  Cu112  1  0.33477880  0.17027104  0.44900841  1
  Cu+  Cu113  1  0.33003682  0.66602020  0.44936966  1
  Cu+  Cu114  1  0.83904339  0.17514818  0.44275713  1
  Cu+  Cu115  1  0.84007140  0.67382214  0.44878670  1
  Cu+  Cu116  1  0.16386878  0.33154005  0.77875303  1
  Cu+  Cu117  1  0.16817834  0.83871621  0.77960321  1
  Cu+  Cu118  1  0.66769945  0.33325823  0.78266336  1
  Cu+  Cu119  1  0.67148315  0.83495349  0.78080820  1
  Te2-  Te120  1  -0.00167248  -0.00472314  0.38831886  1
  Te2-  Te121  1  0.00172921  0.50187416  0.38191596  1
  Te2-  Te122  1  0.49606611  -0.00054273  0.39239756  1
  Te2-  Te123  1  0.49707657  0.49657691  0.38967786  1
  Te2-  Te124  1  0.32976552  0.16134956  0.72290269  1
  Te2-  Te125  1  0.33603046  0.66442569  0.72541841  1
  Te2-  Te126  1  0.83343760  0.16661817  0.71635898  1
  Te2-  Te127  1  0.82934544  0.66781674  0.72260170  1
  Te2-  Te128  1  0.16789001  0.32966014  0.05400770  1
  Te2-  Te129  1  0.16661378  0.83435047  0.05373577  1
  Te2-  Te130  1  0.66331109  0.33345037  0.05839352  1
  Te2-  Te131  1  0.66973000  0.83631851  0.05473847  1
  Te2-  Te132  1  0.49346559  0.24320241  0.88423282  1
  Te2-  Te133  1  0.49417079  0.74349562  0.88507986  1
  Te2-  Te134  1  0.99870606  0.24936526  0.88045074  1
  Te2-  Te135  1  0.99464472  0.74847769  0.88140609  1
  Te2-  Te136  1  0.25392229  0.00101100  0.88135565  1
  Te2-  Te137  1  0.25966982  0.50576561  0.88346895  1
  Te2-  Te138  1  0.75337197  0.00664746  0.88181907  1
  Te2-  Te139  1  0.74809065  0.50788101  0.88491777  1
  Te2-  Te140  1  0.25279049  0.24174808  0.88258440  1
  Te2-  Te141  1  0.25633695  0.74317806  0.88579600  1
  Te2-  Te142  1  0.75484235  0.25271444  0.88578439  1
  Te2-  Te143  1  0.75455385  0.74952113  0.88208537  1
  Te2-  Te144  1  0.32294527  0.41011654  0.21829080  1
  Te2-  Te145  1  0.32374686  0.91641016  0.21861563  1
  Te2-  Te146  1  0.82185498  0.41245749  0.21478637  1
  Te2-  Te147  1  0.83014160  0.91548167  0.21388556  1
  Te2-  Te148  1  0.08857161  0.17346279  0.21754069  1
  Te2-  Te149  1  0.08334333  0.67365063  0.21217276  1
  Te2-  Te150  1  0.58347522  0.17375754  0.22089714  1
  Te2-  Te151  1  0.58253334  0.67076218  0.21722449  1
  Te2-  Te152  1  0.08273038  0.41176526  0.21175580  1
  Te2-  Te153  1  0.08763001  0.91508940  0.21538000  1
  Te2-  Te154  1  0.58366236  0.41267355  0.21841932  1
  Te2-  Te155  1  0.58199268  0.91476313  0.21815479  1
  Te2-  Te156  1  0.15651080  0.07557495  0.55069556  1
  Te2-  Te157  1  0.16245138  0.58191714  0.55443342  1
  Te2-  Te158  1  0.65269547  0.07569585  0.54880264  1
  Te2-  Te159  1  0.65597174  0.57443438  0.54963069  1
  Te2-  Te160  1  0.41522603  0.33658486  0.55145266  1
  Te2-  Te161  1  0.41839133  0.83807110  0.55299533  1
  Te2-  Te162  1  0.91678467  0.33309988  0.54421549  1
  Te2-  Te163  1  0.91396608  0.83302672  0.54631390  1
  Te2-  Te164  1  0.41662483  0.07827017  0.55217578  1
  Te2-  Te165  1  0.41752298  0.57682252  0.55011305  1
  Te2-  Te166  1  0.91316992  0.07244023  0.54554278  1
  Te2-  Te167  1  0.91896260  0.57945407  0.55330261  1
  Te2-  Te168  1  0.00186626  0.00118152  0.88133547  1
  Te2-  Te169  1  0.00182279  0.50040178  0.88379532  1
  Te2-  Te170  1  0.50281848  0.00100651  0.88427646  1
  Te2-  Te171  1  0.50098494  0.50197114  0.88302302  1
  Te2-  Te172  1  0.33462464  0.16888227  0.21639603  1
  Te2-  Te173  1  0.33237615  0.66776598  0.21808375  1
  Te2-  Te174  1  0.83606156  0.16857160  0.21539380  1
  Te2-  Te175  1  0.83601322  0.66861251  0.21466939  1
  Te2-  Te176  1  0.16463421  0.33412877  0.55070637  1
  Te2-  Te177  1  0.16732093  0.83455036  0.55095157  1
  Te2-  Te178  1  0.66883067  0.33462606  0.55014836  1
  Te2-  Te179  1  0.66811877  0.83497509  0.54706801  1
  Te2-  Te180  1  0.32556823  0.41363585  0.70974369  1
  Te2-  Te181  1  0.32802367  0.91456605  0.71073585  1
  Te2-  Te182  1  0.82815217  0.41179260  0.71167200  1
  Te2-  Te183  1  0.82840554  0.91421672  0.71003416  1
  Te2-  Te184  1  0.08406614  0.17237629  0.70940262  1
  Te2-  Te185  1  0.08706955  0.67612086  0.70905407  1
  Te2-  Te186  1  0.58723348  0.17189783  0.71339768  1
  Te2-  Te187  1  0.58646896  0.67193968  0.71181665  1
  Te2-  Te188  1  0.08342358  0.41257201  0.70961097  1
  Te2-  Te189  1  0.08447768  0.91311557  0.70951266  1
  Te2-  Te190  1  0.58614804  0.41252612  0.71080254  1
  Te2-  Te191  1  0.58986815  0.91465779  0.71119045  1
  Te2-  Te192  1  0.16393267  0.08004741  0.04450674  1
  Te2-  Te193  1  0.16225582  0.57842008  0.04027288  1
  Te2-  Te194  1  0.66195370  0.08102650  0.04541696  1
  Te2-  Te195  1  0.66149017  0.58470889  0.04477827  1
  Te2-  Te196  1  0.42121243  0.34078251  0.04529931  1
  Te2-  Te197  1  0.42343210  0.84099605  0.04602987  1
  Te2-  Te198  1  0.92392828  0.34085332  0.03963289  1
  Te2-  Te199  1  0.92168255  0.83981437  0.04372064  1
  Te2-  Te200  1  0.42122358  0.08040769  0.04566113  1
  Te2-  Te201  1  0.42389367  0.58379839  0.04578187  1
  Te2-  Te202  1  0.92124420  0.08260053  0.04470175  1
  Te2-  Te203  1  0.92254322  0.58178912  0.03927280  1
  Te2-  Te204  1  0.49483349  0.25078412  0.37954633  1
  Te2-  Te205  1  0.49102249  0.74690813  0.37583725  1
  Te2-  Te206  1  0.99638715  0.24995958  0.37419849  1
  Te2-  Te207  1  0.99757273  0.74796283  0.37846820  1
  Te2-  Te208  1  0.25359144  0.00747997  0.37932150  1
  Te2-  Te209  1  0.25083761  0.50608689  0.37983209  1
  Te2-  Te210  1  0.75563112  0.00757764  0.37242707  1
  Te2-  Te211  1  0.75556773  0.50872385  0.37951292  1
  Te2-  Te212  1  0.25453167  0.24872433  0.37888848  1
  Te2-  Te213  1  0.25270413  0.74700696  0.37972471  1
  Te2-  Te214  1  0.75668305  0.25138001  0.37462928  1
  Te2-  Te215  1  0.75378773  0.74796117  0.37471359  1
