# generated using pymatgen
data_Ti(CuTe)4
_symmetry_space_group_name_H-M   'P 1'
_cell_length_a   16.90124134
_cell_length_b   16.89652513
_cell_length_c   20.71606395
_cell_angle_alpha   89.96351330
_cell_angle_beta   90.01082073
_cell_angle_gamma   120.00942319
_symmetry_Int_Tables_number   1
_chemical_formula_structural   Ti(CuTe)4
_chemical_formula_sum   'Ti24 Cu96 Te96'
_cell_volume   5122.86059297
_cell_formula_units_Z   24
loop_
 _symmetry_equiv_pos_site_id
 _symmetry_equiv_pos_as_xyz
  1  'x, y, z'
loop_
 _atom_type_symbol
 _atom_type_oxidation_number
  Ti4+  4.0
  Cu+  1.0
  Te2-  -2.0
loop_
 _atom_site_type_symbol
 _atom_site_label
 _atom_site_symmetry_multiplicity
 _atom_site_fract_x
 _atom_site_fract_y
 _atom_site_fract_z
 _atom_site_occupancy
  Ti4+  Ti0  1  0.00050680  0.00202727  0.25346521  1
  Ti4+  Ti1  1  0.00068983  0.49923142  0.26463458  1
  Ti4+  Ti2  1  0.50062323  -0.00185756  0.25592467  1
  Ti4+  Ti3  1  0.50032173  0.49934489  0.25845480  1
  Ti4+  Ti4  1  0.33101112  0.16479753  0.59001090  1
  Ti4+  Ti5  1  0.33306496  0.66735912  0.59370973  1
  Ti4+  Ti6  1  0.83026678  0.16435764  0.58854117  1
  Ti4+  Ti7  1  0.83359861  0.66581247  0.59220432  1
  Ti4+  Ti8  1  0.16844953  0.33592978  0.92556562  1
  Ti4+  Ti9  1  0.16655152  0.83249802  0.92455621  1
  Ti4+  Ti10  1  0.66667587  0.33561567  0.92171127  1
  Ti4+  Ti11  1  0.66635932  0.83283554  0.92342361  1
  Ti4+  Ti12  1  -0.00071695  0.00045384  0.75545796  1
  Ti4+  Ti13  1  -0.00009256  0.50052879  0.75540540  1
  Ti4+  Ti14  1  0.49984770  -0.00007045  0.75500599  1
  Ti4+  Ti15  1  0.49914133  0.49830344  0.75206875  1
  Ti4+  Ti16  1  0.33419469  0.16827079  0.08611541  1
  Ti4+  Ti17  1  0.33393069  0.66672840  0.09107501  1
  Ti4+  Ti18  1  0.83266044  0.16504377  0.08753184  1
  Ti4+  Ti19  1  0.83394383  0.66651450  0.08993904  1
  Ti4+  Ti20  1  0.16729087  0.33159835  0.42254068  1
  Ti4+  Ti21  1  0.16640177  0.83288935  0.42104571  1
  Ti4+  Ti22  1  0.66662514  0.33216971  0.42045494  1
  Ti4+  Ti23  1  0.66619899  0.83363368  0.42274141  1
  Cu+  Cu24  1  0.84152458  0.42129283  0.48332240  1
  Cu+  Cu25  1  0.67891005  0.59239771  0.80957898  1
  Cu+  Cu26  1  0.07784731  0.65607003  0.48293143  1
  Cu+  Cu27  1  0.41321129  0.59187525  0.81121416  1
  Cu+  Cu28  1  0.17997298  0.59289185  0.81492712  1
  Cu+  Cu29  1  0.08052490  0.42049797  0.48541605  1
  Cu+  Cu30  1  0.24686442  0.26384810  0.14210399  1
  Cu+  Cu31  1  0.91262769  0.59515759  0.81100439  1
  Cu+  Cu32  1  0.73820630  0.97628904  0.13886666  1
  Cu+  Cu33  1  0.56865904  0.92730554  0.47257534  1
  Cu+  Cu34  1  0.40522276  0.31157020  0.80507049  1
  Cu+  Cu35  1  0.01216940  0.26128090  0.14613101  1
  Cu+  Cu36  1  0.16532450  0.08734103  0.16592246  1
  Cu+  Cu37  1  0.16552947  0.58223632  0.17634939  1
  Cu+  Cu38  1  0.66250688  0.07455473  0.16875125  1
  Cu+  Cu39  1  0.66507247  0.58189322  0.17292189  1
  Cu+  Cu40  1  0.41783829  0.33831773  0.17058313  1
  Cu+  Cu41  1  0.41971678  0.83583874  0.17122006  1
  Cu+  Cu42  1  0.92008346  0.33908746  0.17514584  1
  Cu+  Cu43  1  0.91917688  0.83681986  0.16891914  1
  Cu+  Cu44  1  0.41886053  0.08191988  0.16928363  1
  Cu+  Cu45  1  0.41946814  0.58206975  0.17255855  1
  Cu+  Cu46  1  0.91777663  0.08074801  0.16604587  1
  Cu+  Cu47  1  0.91774600  0.58243644  0.17682699  1
  Cu+  Cu48  1  0.49474423  0.24741100  0.50342354  1
  Cu+  Cu49  1  0.49861946  0.75336459  0.50644266  1
  Cu+  Cu50  1  0.99554928  0.24637966  0.50290266  1
  Cu+  Cu51  1  0.99529348  0.74642223  0.50322403  1
  Cu+  Cu52  1  0.24962961  0.00319881  0.50296834  1
  Cu+  Cu53  1  0.25205340  0.50294563  0.50709707  1
  Cu+  Cu54  1  0.74521669  0.00119150  0.50280846  1
  Cu+  Cu55  1  0.75217446  0.50402755  0.50434697  1
  Cu+  Cu56  1  0.25193907  0.24573145  0.50447104  1
  Cu+  Cu57  1  0.25067364  0.74593289  0.50420512  1
  Cu+  Cu58  1  0.75239042  0.24623290  0.50061026  1
  Cu+  Cu59  1  0.75079388  0.74818222  0.50591735  1
  Cu+  Cu60  1  0.32923868  0.41401111  0.83404479  1
  Cu+  Cu61  1  0.33227979  0.91440218  0.83768638  1
  Cu+  Cu62  1  0.82972929  0.41987689  0.83521416  1
  Cu+  Cu63  1  0.83201997  0.91740719  0.83733414  1
  Cu+  Cu64  1  0.08362847  0.17057385  0.83869932  1
  Cu+  Cu65  1  0.08718378  0.67440246  0.83730325  1
  Cu+  Cu66  1  0.58556310  0.17007055  0.83593245  1
  Cu+  Cu67  1  0.58755452  0.67544561  0.83417787  1
  Cu+  Cu68  1  0.08783417  0.41789660  0.83791176  1
  Cu+  Cu69  1  0.08251552  0.91522666  0.83783762  1
  Cu+  Cu70  1  0.58555193  0.41430735  0.83201452  1
  Cu+  Cu71  1  0.58424451  0.91646761  0.83728699  1
  Cu+  Cu72  1  0.16694518  0.08491702  0.67395875  1
  Cu+  Cu73  1  0.16813838  0.58286355  0.68451842  1
  Cu+  Cu74  1  0.66697268  0.08288395  0.67282628  1
  Cu+  Cu75  1  0.66908294  0.58237310  0.67866306  1
  Cu+  Cu76  1  0.41248425  0.32682852  0.67657179  1
  Cu+  Cu77  1  0.41538346  0.83116576  0.67700014  1
  Cu+  Cu78  1  0.91410812  0.32850864  0.67564532  1
  Cu+  Cu79  1  0.91520805  0.83113451  0.67514960  1
  Cu+  Cu80  1  0.41434702  0.08421764  0.67316315  1
  Cu+  Cu81  1  0.41414139  0.58339358  0.67989230  1
  Cu+  Cu82  1  0.91423661  0.08422110  0.67192212  1
  Cu+  Cu83  1  0.91511243  0.58355646  0.68157414  1
  Cu+  Cu84  1  0.00274055  0.25319542  0.01466684  1
  Cu+  Cu85  1  0.00292512  0.74800565  0.00993356  1
  Cu+  Cu86  1  0.50248925  0.25265969  0.00590692  1
  Cu+  Cu87  1  0.50094183  0.75009034  0.00843149  1
  Cu+  Cu88  1  0.25059763  0.50150035  0.01108799  1
  Cu+  Cu89  1  0.24963497  0.99641211  0.00643498  1
  Cu+  Cu90  1  0.75069605  0.49935455  0.00882593  1
  Cu+  Cu91  1  0.74686106  0.99585216  0.01052232  1
  Cu+  Cu92  1  0.25071120  0.25382554  0.01224023  1
  Cu+  Cu93  1  0.24761119  0.74948235  0.01076283  1
  Cu+  Cu94  1  0.74900884  0.25284625  0.00632906  1
  Cu+  Cu95  1  0.74913702  0.74971985  0.00757270  1
  Cu+  Cu96  1  0.33742680  0.41577404  0.34335329  1
  Cu+  Cu97  1  0.33472790  0.91644270  0.33983883  1
  Cu+  Cu98  1  0.83712862  0.41817249  0.35042233  1
  Cu+  Cu99  1  0.83582120  0.91724419  0.33926238  1
  Cu+  Cu100  1  0.08490147  0.16501632  0.33910777  1
  Cu+  Cu101  1  0.08163329  0.66342932  0.35051555  1
  Cu+  Cu102  1  0.58206639  0.16319726  0.33816697  1
  Cu+  Cu103  1  0.58209774  0.66232118  0.34251966  1
  Cu+  Cu104  1  0.08370967  0.41791554  0.35166689  1
  Cu+  Cu105  1  0.08304927  0.91893068  0.33740283  1
  Cu+  Cu106  1  0.58143421  0.41668641  0.34044412  1
  Cu+  Cu107  1  0.58126505  0.91674096  0.34461517  1
  Cu+  Cu108  1  0.00191791  -0.00192045  0.10893427  1
  Cu+  Cu109  1  0.00181670  0.50459514  0.12214622  1
  Cu+  Cu110  1  0.49765931  0.00027830  0.11241769  1
  Cu+  Cu111  1  0.50392092  0.50344443  0.11586820  1
  Cu+  Cu112  1  0.33401312  0.16409138  0.44577639  1
  Cu+  Cu113  1  0.33626222  0.66615430  0.45049026  1
  Cu+  Cu114  1  0.83389887  0.16247095  0.44433620  1
  Cu+  Cu115  1  0.83212794  0.66964053  0.44763079  1
  Cu+  Cu116  1  0.16197859  0.32924359  0.78049652  1
  Cu+  Cu117  1  0.17108875  0.84375399  0.78205206  1
  Cu+  Cu118  1  0.66716812  0.32945331  0.77696585  1
  Cu+  Cu119  1  0.67162109  0.84259627  0.78043611  1
  Te2-  Te120  1  0.00057797  0.00024932  0.38216939  1
  Te2-  Te121  1  0.00088224  0.49966578  0.39823236  1
  Te2-  Te122  1  0.49799305  0.00050981  0.38648464  1
  Te2-  Te123  1  0.50120426  0.49875865  0.38783455  1
  Te2-  Te124  1  0.32955587  0.16192142  0.72135787  1
  Te2-  Te125  1  0.33464497  0.66857961  0.72550372  1
  Te2-  Te126  1  0.83070189  0.16382826  0.71740607  1
  Te2-  Te127  1  0.83396669  0.66876744  0.72402580  1
  Te2-  Te128  1  0.16884268  0.33772253  0.05731334  1
  Te2-  Te129  1  0.16719589  0.83368187  0.05353954  1
  Te2-  Te130  1  0.66640306  0.33409173  0.05046299  1
  Te2-  Te131  1  0.66499734  0.82939418  0.05362310  1
  Te2-  Te132  1  0.49362535  0.24672168  0.88011947  1
  Te2-  Te133  1  0.49285965  0.74872750  0.88253237  1
  Te2-  Te134  1  0.99849273  0.25254170  0.88614159  1
  Te2-  Te135  1  0.99268264  0.74792772  0.88412362  1
  Te2-  Te136  1  0.25175883  0.00269097  0.88047798  1
  Te2-  Te137  1  0.25740247  0.51142353  0.88469712  1
  Te2-  Te138  1  0.75121470  0.00376671  0.88328145  1
  Te2-  Te139  1  0.75434027  0.51250354  0.88278727  1
  Te2-  Te140  1  0.25224031  0.24764611  0.88404446  1
  Te2-  Te141  1  0.25594471  0.74781127  0.88483850  1
  Te2-  Te142  1  0.75414888  0.25242866  0.88006298  1
  Te2-  Te143  1  0.75565241  0.74909635  0.88162854  1
  Te2-  Te144  1  0.32553766  0.41515931  0.21787187  1
  Te2-  Te145  1  0.32941370  0.91384890  0.21413980  1
  Te2-  Te146  1  0.83020553  0.41462568  0.22256653  1
  Te2-  Te147  1  0.82702733  0.91217974  0.21345352  1
  Te2-  Te148  1  0.08821803  0.17863079  0.21360563  1
  Te2-  Te149  1  0.08553322  0.66949179  0.22262867  1
  Te2-  Te150  1  0.58765605  0.16858827  0.21240547  1
  Te2-  Te151  1  0.58666397  0.67129578  0.21688646  1
  Te2-  Te152  1  0.08934587  0.41522659  0.22300196  1
  Te2-  Te153  1  0.08792832  0.91933346  0.21139579  1
  Te2-  Te154  1  0.58473043  0.41276128  0.21488230  1
  Te2-  Te155  1  0.58561449  0.90808780  0.21778866  1
  Te2-  Te156  1  0.15874988  0.07897566  0.54865731  1
  Te2-  Te157  1  0.15686474  0.57802193  0.55575091  1
  Te2-  Te158  1  0.65654103  0.08141673  0.54748502  1
  Te2-  Te159  1  0.66281005  0.58020658  0.55116813  1
  Te2-  Te160  1  0.41843626  0.33750780  0.55022886  1
  Te2-  Te161  1  0.41584411  0.83973472  0.55091848  1
  Te2-  Te162  1  0.92076247  0.34181592  0.55033911  1
  Te2-  Te163  1  0.91900425  0.83596857  0.54914691  1
  Te2-  Te164  1  0.41720689  0.07960638  0.54755694  1
  Te2-  Te165  1  0.41879819  0.58419896  0.55196671  1
  Te2-  Te166  1  0.91488925  0.07906700  0.54593945  1
  Te2-  Te167  1  0.92149491  0.57780511  0.55384445  1
  Te2-  Te168  1  0.00009662  0.00146431  0.88177692  1
  Te2-  Te169  1  -0.00010785  0.50110187  0.88274532  1
  Te2-  Te170  1  0.50115171  0.00182143  0.88128276  1
  Te2-  Te171  1  0.50155875  0.50190902  0.88027325  1
  Te2-  Te172  1  0.33413773  0.16674907  0.21303838  1
  Te2-  Te173  1  0.33572792  0.66738764  0.21736846  1
  Te2-  Te174  1  0.83299246  0.16545694  0.21493183  1
  Te2-  Te175  1  0.83414545  0.66902284  0.21624856  1
  Te2-  Te176  1  0.16605476  0.33028111  0.54960707  1
  Te2-  Te177  1  0.16632784  0.83360385  0.54820958  1
  Te2-  Te178  1  0.66550029  0.33086966  0.54745414  1
  Te2-  Te179  1  0.66773844  0.83349479  0.54955973  1
  Te2-  Te180  1  0.32378412  0.41057097  0.70776333  1
  Te2-  Te181  1  0.32802773  0.91425997  0.71104344  1
  Te2-  Te182  1  0.82657945  0.41080305  0.70899392  1
  Te2-  Te183  1  0.82842179  0.91467933  0.71027746  1
  Te2-  Te184  1  0.08355893  0.17131216  0.71120765  1
  Te2-  Te185  1  0.08775338  0.67600910  0.71044918  1
  Te2-  Te186  1  0.58452738  0.17033278  0.70920539  1
  Te2-  Te187  1  0.58741973  0.67375454  0.70746976  1
  Te2-  Te188  1  0.08338248  0.40973755  0.71134487  1
  Te2-  Te189  1  0.08492002  0.91472913  0.71102329  1
  Te2-  Te190  1  0.58537394  0.40990721  0.70596118  1
  Te2-  Te191  1  0.58560709  0.91381433  0.71069687  1
  Te2-  Te192  1  0.16199790  0.07992111  0.03947204  1
  Te2-  Te193  1  0.16067634  0.58047016  0.04946535  1
  Te2-  Te194  1  0.66038430  0.08195349  0.04200985  1
  Te2-  Te195  1  0.66257427  0.58084127  0.04568889  1
  Te2-  Te196  1  0.42288563  0.34228939  0.04311262  1
  Te2-  Te197  1  0.41886553  0.83776446  0.04520701  1
  Te2-  Te198  1  0.91785448  0.34037621  0.04735168  1
  Te2-  Te199  1  0.91961668  0.83659294  0.04270996  1
  Te2-  Te200  1  0.41980826  0.08214549  0.04248388  1
  Te2-  Te201  1  0.42035399  0.58110409  0.04618410  1
  Te2-  Te202  1  0.92003915  0.07921885  0.03951148  1
  Te2-  Te203  1  0.91935591  0.57928300  0.04907554  1
  Te2-  Te204  1  0.49512512  0.24614933  0.37663015  1
  Te2-  Te205  1  0.49408404  0.74478017  0.37892769  1
  Te2-  Te206  1  0.99482174  0.24414676  0.37615387  1
  Te2-  Te207  1  0.99346271  0.74927274  0.37626111  1
  Te2-  Te208  1  0.25217207  0.00415555  0.37620384  1
  Te2-  Te209  1  0.25675094  0.50567139  0.38006303  1
  Te2-  Te210  1  0.75369967  0.00451687  0.37547246  1
  Te2-  Te211  1  0.75160597  0.50632979  0.37770579  1
  Te2-  Te212  1  0.25335055  0.24581266  0.37835744  1
  Te2-  Te213  1  0.25510604  0.74719870  0.37787305  1
  Te2-  Te214  1  0.75164289  0.24385110  0.37473860  1
  Te2-  Te215  1  0.75208919  0.74815849  0.37885577  1
