# generated using pymatgen
data_Ti(CuTe)4
_symmetry_space_group_name_H-M   'P 1'
_cell_length_a   16.89584213
_cell_length_b   16.89622114
_cell_length_c   20.72133897
_cell_angle_alpha   89.98174193
_cell_angle_beta   90.03322435
_cell_angle_gamma   120.00897160
_symmetry_Int_Tables_number   1
_chemical_formula_structural   Ti(CuTe)4
_chemical_formula_sum   'Ti24 Cu96 Te96'
_cell_volume   5122.45948956
_cell_formula_units_Z   24
loop_
 _symmetry_equiv_pos_site_id
 _symmetry_equiv_pos_as_xyz
  1  'x, y, z'
loop_
 _atom_type_symbol
 _atom_type_oxidation_number
  Ti4+  4.0
  Cu+  1.0
  Te2-  -2.0
loop_
 _atom_site_type_symbol
 _atom_site_label
 _atom_site_symmetry_multiplicity
 _atom_site_fract_x
 _atom_site_fract_y
 _atom_site_fract_z
 _atom_site_occupancy
  Ti4+  Ti0  1  0.00143951  -0.00359402  0.25782999  1
  Ti4+  Ti1  1  0.00019254  0.49790299  0.25503854  1
  Ti4+  Ti2  1  0.50069733  0.00083309  0.25633297  1
  Ti4+  Ti3  1  0.49781902  0.49783094  0.26157998  1
  Ti4+  Ti4  1  0.33481060  0.16852399  0.59053128  1
  Ti4+  Ti5  1  0.33283987  0.66643809  0.59134056  1
  Ti4+  Ti6  1  0.83074671  0.16582752  0.58797779  1
  Ti4+  Ti7  1  0.83443609  0.66911484  0.59339257  1
  Ti4+  Ti8  1  0.16916976  0.33364966  0.92311010  1
  Ti4+  Ti9  1  0.16379145  0.83499297  0.92510861  1
  Ti4+  Ti10  1  0.66665139  0.33495806  0.92526863  1
  Ti4+  Ti11  1  0.66441976  0.83310261  0.92322858  1
  Ti4+  Ti12  1  0.00249784  0.00140674  0.75540376  1
  Ti4+  Ti13  1  -0.00146235  0.49985343  0.75527972  1
  Ti4+  Ti14  1  0.50044966  0.00075049  0.75568677  1
  Ti4+  Ti15  1  0.49902312  0.50168351  0.75571201  1
  Ti4+  Ti16  1  0.33354740  0.16659327  0.08982973  1
  Ti4+  Ti17  1  0.33210836  0.66422392  0.08888382  1
  Ti4+  Ti18  1  0.83262158  0.16759780  0.08694640  1
  Ti4+  Ti19  1  0.83453808  0.66840419  0.08984183  1
  Ti4+  Ti20  1  0.16780101  0.33349278  0.42135923  1
  Ti4+  Ti21  1  0.16585884  0.83341771  0.42434552  1
  Ti4+  Ti22  1  0.66713775  0.33123932  0.42156618  1
  Ti4+  Ti23  1  0.66682986  0.83259628  0.42086392  1
  Cu+  Cu24  1  0.57123312  0.14212461  0.47201191  1
  Cu+  Cu25  1  0.23929106  0.47343742  0.14060206  1
  Cu+  Cu26  1  0.90764730  0.82119868  0.81367735  1
  Cu+  Cu27  1  0.07105056  0.92875830  0.47762685  1
  Cu+  Cu28  1  0.19218912  0.09574195  0.80706250  1
  Cu+  Cu29  1  0.01977928  0.75583891  0.14373633  1
  Cu+  Cu30  1  0.24465098  0.98243157  0.14452661  1
  Cu+  Cu31  1  0.34952061  0.42804394  0.47992454  1
  Cu+  Cu32  1  0.90289508  0.58915781  0.80898246  1
  Cu+  Cu33  1  0.73765244  0.26132792  0.13959400  1
  Cu+  Cu34  1  0.58183516  0.42546640  0.48026133  1
  Cu+  Cu35  1  0.40441045  0.59620334  0.80774807  1
  Cu+  Cu36  1  0.16400383  0.07545368  0.17111992  1
  Cu+  Cu37  1  0.16418232  0.57589634  0.16835803  1
  Cu+  Cu38  1  0.66460373  0.08714368  0.16935130  1
  Cu+  Cu39  1  0.66455972  0.58135784  0.17502242  1
  Cu+  Cu40  1  0.41912415  0.33767459  0.17436236  1
  Cu+  Cu41  1  0.41821874  0.83493292  0.17000025  1
  Cu+  Cu42  1  0.91363564  0.33538451  0.16737801  1
  Cu+  Cu43  1  0.92464330  0.83612036  0.17045747  1
  Cu+  Cu44  1  0.41825056  0.07879274  0.17071235  1
  Cu+  Cu45  1  0.41196976  0.57543403  0.17332249  1
  Cu+  Cu46  1  0.91732597  0.08018327  0.17063543  1
  Cu+  Cu47  1  0.92238392  0.58350549  0.16980904  1
  Cu+  Cu48  1  0.49878565  0.24758524  0.50248952  1
  Cu+  Cu49  1  0.49725111  0.74888689  0.50377839  1
  Cu+  Cu50  1  0.99620484  0.24968000  0.50284613  1
  Cu+  Cu51  1  0.99810387  0.75352720  0.50732725  1
  Cu+  Cu52  1  0.24688357  0.00303063  0.50492644  1
  Cu+  Cu53  1  0.25451534  0.50532552  0.50460015  1
  Cu+  Cu54  1  0.75030698  0.00294180  0.50137521  1
  Cu+  Cu55  1  0.75416178  0.50525043  0.50625343  1
  Cu+  Cu56  1  0.25478045  0.25155734  0.50335283  1
  Cu+  Cu57  1  0.25044660  0.74800191  0.50634027  1
  Cu+  Cu58  1  0.74708049  0.24188746  0.50122487  1
  Cu+  Cu59  1  0.75376121  0.75066330  0.50443537  1
  Cu+  Cu60  1  0.33013720  0.41984920  0.83643955  1
  Cu+  Cu61  1  0.33132535  0.91872459  0.83861700  1
  Cu+  Cu62  1  0.82849469  0.41695356  0.83855879  1
  Cu+  Cu63  1  0.82803971  0.91338940  0.83762666  1
  Cu+  Cu64  1  0.09263741  0.17028817  0.83627289  1
  Cu+  Cu65  1  0.07689302  0.66784933  0.83749013  1
  Cu+  Cu66  1  0.58460921  0.16986118  0.83915784  1
  Cu+  Cu67  1  0.58020541  0.67077434  0.83643030  1
  Cu+  Cu68  1  0.08557866  0.41501340  0.83651963  1
  Cu+  Cu69  1  0.08653620  0.91725901  0.83694107  1
  Cu+  Cu70  1  0.58411823  0.41519712  0.83856017  1
  Cu+  Cu71  1  0.58362849  0.91527815  0.83694711  1
  Cu+  Cu72  1  0.17148681  0.08728824  0.67903203  1
  Cu+  Cu73  1  0.16781889  0.58213678  0.67416355  1
  Cu+  Cu74  1  0.66758010  0.08454696  0.67324902  1
  Cu+  Cu75  1  0.66829609  0.58488100  0.67718107  1
  Cu+  Cu76  1  0.41745291  0.33381889  0.67646604  1
  Cu+  Cu77  1  0.41588618  0.83122250  0.67501609  1
  Cu+  Cu78  1  0.91337293  0.33001086  0.67160447  1
  Cu+  Cu79  1  0.91840338  0.83293956  0.68203337  1
  Cu+  Cu80  1  0.41717360  0.08503506  0.67471955  1
  Cu+  Cu81  1  0.41355624  0.58482995  0.67932432  1
  Cu+  Cu82  1  0.91490547  0.08649425  0.67147131  1
  Cu+  Cu83  1  0.91447696  0.58544462  0.68008843  1
  Cu+  Cu84  1  0.00288516  0.25030830  0.00549307  1
  Cu+  Cu85  1  0.00138366  0.75438849  0.01384885  1
  Cu+  Cu86  1  0.50249979  0.25257845  0.00943470  1
  Cu+  Cu87  1  0.50052093  0.74930995  0.00845478  1
  Cu+  Cu88  1  0.24995801  0.49647061  0.01205386  1
  Cu+  Cu89  1  0.24804498  0.99937302  0.01421755  1
  Cu+  Cu90  1  0.74912979  0.50011292  0.00996372  1
  Cu+  Cu91  1  0.74783341  0.99711484  0.00603882  1
  Cu+  Cu92  1  0.25316725  0.25364196  0.00810283  1
  Cu+  Cu93  1  0.24812709  0.75139301  0.00732448  1
  Cu+  Cu94  1  0.74814660  0.25342452  0.01090197  1
  Cu+  Cu95  1  0.74621645  0.75131888  0.00869932  1
  Cu+  Cu96  1  0.33616149  0.41784513  0.34922789  1
  Cu+  Cu97  1  0.33482743  0.91705956  0.34256271  1
  Cu+  Cu98  1  0.83668941  0.41669255  0.33973731  1
  Cu+  Cu99  1  0.83546395  0.91388837  0.34040576  1
  Cu+  Cu100  1  0.08269321  0.16162929  0.34056994  1
  Cu+  Cu101  1  0.08219346  0.66246854  0.34127959  1
  Cu+  Cu102  1  0.58380108  0.16228537  0.34398719  1
  Cu+  Cu103  1  0.58134062  0.66332598  0.34316974  1
  Cu+  Cu104  1  0.08266200  0.41599888  0.33867187  1
  Cu+  Cu105  1  0.08110600  0.91506145  0.34815162  1
  Cu+  Cu106  1  0.58273381  0.41800444  0.34945300  1
  Cu+  Cu107  1  0.58382362  0.91767870  0.33870480  1
  Cu+  Cu108  1  -0.00046509  0.00327726  0.11416373  1
  Cu+  Cu109  1  0.00076978  0.49905275  0.11085582  1
  Cu+  Cu110  1  0.50209867  -0.00382558  0.11275638  1
  Cu+  Cu111  1  0.50402349  0.50293944  0.11932903  1
  Cu+  Cu112  1  0.33335741  0.16527357  0.44706353  1
  Cu+  Cu113  1  0.33403891  0.67022657  0.44816003  1
  Cu+  Cu114  1  0.83635731  0.16514354  0.44370310  1
  Cu+  Cu115  1  0.83460071  0.66657080  0.44985405  1
  Cu+  Cu116  1  0.16294293  0.33270547  0.77906441  1
  Cu+  Cu117  1  0.17046196  0.83053890  0.78249852  1
  Cu+  Cu118  1  0.66429429  0.33130098  0.78205392  1
  Cu+  Cu119  1  0.66810175  0.83700393  0.77925175  1
  Te2-  Te120  1  -0.00176000  -0.00103019  0.38836153  1
  Te2-  Te121  1  0.00067889  0.49769870  0.38357920  1
  Te2-  Te122  1  0.49920059  -0.00419383  0.38650601  1
  Te2-  Te123  1  0.50145932  0.50208510  0.39410137  1
  Te2-  Te124  1  0.33820418  0.16953559  0.72051326  1
  Te2-  Te125  1  0.33038955  0.66805640  0.72192127  1
  Te2-  Te126  1  0.83179512  0.16655131  0.71703098  1
  Te2-  Te127  1  0.83095232  0.66739933  0.72564678  1
  Te2-  Te128  1  0.16560725  0.32971775  0.05345589  1
  Te2-  Te129  1  0.16775413  0.83284053  0.05693971  1
  Te2-  Te130  1  0.66578513  0.33646322  0.05587916  1
  Te2-  Te131  1  0.66464342  0.83397864  0.05198541  1
  Te2-  Te132  1  0.49546753  0.24858902  0.88384033  1
  Te2-  Te133  1  0.48987862  0.74851327  0.88302216  1
  Te2-  Te134  1  0.99940885  0.24590834  0.87955112  1
  Te2-  Te135  1  0.98879707  0.74750288  0.88602716  1
  Te2-  Te136  1  0.25406254  0.00836869  0.88632784  1
  Te2-  Te137  1  0.25151663  0.50811115  0.88491764  1
  Te2-  Te138  1  0.75183440  0.00404705  0.88045898  1
  Te2-  Te139  1  0.75073147  0.50920348  0.88438502  1
  Te2-  Te140  1  0.26114737  0.25205570  0.88222713  1
  Te2-  Te141  1  0.24640868  0.74873831  0.88110937  1
  Te2-  Te142  1  0.75281984  0.25034608  0.88392373  1
  Te2-  Te143  1  0.74768571  0.74253631  0.88280620  1
  Te2-  Te144  1  0.32371220  0.40809325  0.22164886  1
  Te2-  Te145  1  0.32654497  0.90935914  0.21691177  1
  Te2-  Te146  1  0.82637047  0.41658110  0.21424290  1
  Te2-  Te147  1  0.83167872  0.91127653  0.21449300  1
  Te2-  Te148  1  0.08633523  0.16616591  0.21452583  1
  Te2-  Te149  1  0.09222374  0.67151564  0.21543791  1
  Te2-  Te150  1  0.58439069  0.17503843  0.21717501  1
  Te2-  Te151  1  0.58087031  0.66705858  0.21713661  1
  Te2-  Te152  1  0.08195035  0.40663002  0.21299489  1
  Te2-  Te153  1  0.09075925  0.90800920  0.22051164  1
  Te2-  Te154  1  0.58551274  0.41443242  0.22196342  1
  Te2-  Te155  1  0.58710908  0.91782209  0.21267802  1
  Te2-  Te156  1  0.16103741  0.08544652  0.55194182  1
  Te2-  Te157  1  0.16196829  0.57942206  0.54861931  1
  Te2-  Te158  1  0.65565975  0.07461155  0.54789668  1
  Te2-  Te159  1  0.66217684  0.58376576  0.55143053  1
  Te2-  Te160  1  0.42416194  0.34366475  0.55054852  1
  Te2-  Te161  1  0.41837235  0.83726953  0.54927044  1
  Te2-  Te162  1  0.91493519  0.33722096  0.54585262  1
  Te2-  Te163  1  0.91892403  0.84265505  0.55425877  1
  Te2-  Te164  1  0.41676382  0.07857349  0.54845352  1
  Te2-  Te165  1  0.42368279  0.58288035  0.55245814  1
  Te2-  Te166  1  0.91813207  0.08154462  0.54612079  1
  Te2-  Te167  1  0.92020763  0.58448664  0.55263374  1
  Te2-  Te168  1  -0.00107907  0.00055174  0.88288795  1
  Te2-  Te169  1  -0.00041031  0.49819329  0.88209662  1
  Te2-  Te170  1  0.50008632  0.00049899  0.88199052  1
  Te2-  Te171  1  0.49988122  0.50095704  0.88228438  1
  Te2-  Te172  1  0.33456391  0.16587589  0.21650815  1
  Te2-  Te173  1  0.33254473  0.66646493  0.21566742  1
  Te2-  Te174  1  0.83416464  0.16630537  0.21379948  1
  Te2-  Te175  1  0.83495727  0.66595878  0.21660091  1
  Te2-  Te176  1  0.16600422  0.33355036  0.54806660  1
  Te2-  Te177  1  0.16797799  0.83427829  0.55109803  1
  Te2-  Te178  1  0.66877563  0.33354281  0.54913640  1
  Te2-  Te179  1  0.66711260  0.83435675  0.54716845  1
  Te2-  Te180  1  0.32587117  0.41222051  0.71010334  1
  Te2-  Te181  1  0.32873366  0.91492698  0.71147722  1
  Te2-  Te182  1  0.82615186  0.41216239  0.71093554  1
  Te2-  Te183  1  0.82954150  0.91754254  0.71022596  1
  Te2-  Te184  1  0.08450619  0.17313588  0.70922319  1
  Te2-  Te185  1  0.08753491  0.67240235  0.71029071  1
  Te2-  Te186  1  0.58658413  0.17264641  0.71187641  1
  Te2-  Te187  1  0.58715509  0.67442227  0.70994178  1
  Te2-  Te188  1  0.08300540  0.41280297  0.70996778  1
  Te2-  Te189  1  0.09084898  0.91503314  0.71052684  1
  Te2-  Te190  1  0.58677804  0.41552145  0.71245077  1
  Te2-  Te191  1  0.58580325  0.91473593  0.71055188  1
  Te2-  Te192  1  0.16052177  0.08361904  0.04429914  1
  Te2-  Te193  1  0.16065977  0.58112064  0.04149381  1
  Te2-  Te194  1  0.66051083  0.08005075  0.04189213  1
  Te2-  Te195  1  0.66176674  0.58205441  0.04766901  1
  Te2-  Te196  1  0.42115195  0.34013855  0.04802807  1
  Te2-  Te197  1  0.41748290  0.83657488  0.04359367  1
  Te2-  Te198  1  0.92166949  0.33941109  0.04052034  1
  Te2-  Te199  1  0.91651855  0.84127842  0.04411396  1
  Te2-  Te200  1  0.42151942  0.08204264  0.04413796  1
  Te2-  Te201  1  0.42137479  0.58025281  0.04607333  1
  Te2-  Te202  1  0.91777420  0.08070560  0.04344038  1
  Te2-  Te203  1  0.91956769  0.58101510  0.04304950  1
  Te2-  Te204  1  0.49322939  0.24422375  0.37572501  1
  Te2-  Te205  1  0.49461237  0.74760723  0.37704825  1
  Te2-  Te206  1  0.99670370  0.24627872  0.37582040  1
  Te2-  Te207  1  0.99351434  0.74271964  0.37978505  1
  Te2-  Te208  1  0.25412788  0.00561073  0.37803031  1
  Te2-  Te209  1  0.25168711  0.50677484  0.37740318  1
  Te2-  Te210  1  0.75370121  0.00353800  0.37481438  1
  Te2-  Te211  1  0.75622034  0.50516124  0.37874113  1
  Te2-  Te212  1  0.25196691  0.24409046  0.37698033  1
  Te2-  Te213  1  0.25150278  0.74737682  0.37940405  1
  Te2-  Te214  1  0.75568485  0.24739124  0.37498186  1
  Te2-  Te215  1  0.75228086  0.74487475  0.37822494  1
