# generated using pymatgen
data_Ti(CuTe)4
_symmetry_space_group_name_H-M   'P 1'
_cell_length_a   16.84226041
_cell_length_b   16.84483650
_cell_length_c   20.64431142
_cell_angle_alpha   90.01719763
_cell_angle_beta   90.02023144
_cell_angle_gamma   120.00504873
_symmetry_Int_Tables_number   1
_chemical_formula_structural   Ti(CuTe)4
_chemical_formula_sum   'Ti24 Cu96 Te96'
_cell_volume   5071.96236038
_cell_formula_units_Z   24
loop_
 _symmetry_equiv_pos_site_id
 _symmetry_equiv_pos_as_xyz
  1  'x, y, z'
loop_
 _atom_type_symbol
 _atom_type_oxidation_number
  Ti4+  4.0
  Cu+  1.0
  Te2-  -2.0
loop_
 _atom_site_type_symbol
 _atom_site_label
 _atom_site_symmetry_multiplicity
 _atom_site_fract_x
 _atom_site_fract_y
 _atom_site_fract_z
 _atom_site_occupancy
  Ti4+  Ti0  1  -0.00206049  -0.00338568  0.25892797  1
  Ti4+  Ti1  1  -0.00237369  0.49679288  0.25678294  1
  Ti4+  Ti2  1  0.50081719  -0.00227899  0.26005720  1
  Ti4+  Ti3  1  0.49734182  0.49524098  0.25822004  1
  Ti4+  Ti4  1  0.33638680  0.17155929  0.59199682  1
  Ti4+  Ti5  1  0.33679224  0.66784102  0.58930911  1
  Ti4+  Ti6  1  0.83241828  0.16581342  0.59324700  1
  Ti4+  Ti7  1  0.83593028  0.66760306  0.59255275  1
  Ti4+  Ti8  1  0.16733567  0.33442751  0.92494266  1
  Ti4+  Ti9  1  0.16574118  0.83200260  0.92004026  1
  Ti4+  Ti10  1  0.66312996  0.33272149  0.92360042  1
  Ti4+  Ti11  1  0.66691644  0.83841492  0.92342431  1
  Ti4+  Ti12  1  0.00135102  0.00245314  0.75254163  1
  Ti4+  Ti13  1  0.00127747  0.50241710  0.75480316  1
  Ti4+  Ti14  1  0.50094664  -0.00002921  0.75370581  1
  Ti4+  Ti15  1  0.50113407  0.50024904  0.75629309  1
  Ti4+  Ti16  1  0.33398873  0.16828105  0.09012392  1
  Ti4+  Ti17  1  0.33307613  0.66609411  0.08967646  1
  Ti4+  Ti18  1  0.83209471  0.16514309  0.08892536  1
  Ti4+  Ti19  1  0.83298075  0.66625134  0.08908571  1
  Ti4+  Ti20  1  0.16935702  0.33322841  0.42375409  1
  Ti4+  Ti21  1  0.16580318  0.83204838  0.42310363  1
  Ti4+  Ti22  1  0.66662552  0.33219705  0.42469987  1
  Ti4+  Ti23  1  0.66516746  0.83369513  0.42390357  1
  Cu+  Cu24  1  0.91088085  0.09721486  0.80915812  1
  Cu+  Cu25  1  0.40405150  0.31611764  0.80999290  1
  Cu+  Cu26  1  0.90315315  0.82088434  0.80831556  1
  Cu+  Cu27  1  0.73609834  0.97251841  0.14311272  1
  Cu+  Cu28  1  0.40677916  0.81175196  0.80554222  1
  Cu+  Cu29  1  0.90106913  0.58884563  0.80886693  1
  Cu+  Cu30  1  0.40464933  0.08622565  0.80840376  1
  Cu+  Cu31  1  0.36464568  0.43251321  0.47422918  1
  Cu+  Cu32  1  0.68070356  0.09509492  0.81093259  1
  Cu+  Cu33  1  0.57179127  0.93265655  0.47701075  1
  Cu+  Cu34  1  0.23574159  0.47185657  0.14134282  1
  Cu+  Cu35  1  0.73580379  0.47262603  0.14046624  1
  Cu+  Cu36  1  0.16496328  0.08025679  0.17265303  1
  Cu+  Cu37  1  0.16429344  0.57643399  0.17035933  1
  Cu+  Cu38  1  0.66312003  0.07576559  0.17226447  1
  Cu+  Cu39  1  0.66452454  0.57586479  0.17205241  1
  Cu+  Cu40  1  0.41766692  0.33726320  0.17163353  1
  Cu+  Cu41  1  0.41999483  0.83723271  0.17213586  1
  Cu+  Cu42  1  0.91725307  0.33688270  0.16930762  1
  Cu+  Cu43  1  0.92021221  0.83754964  0.17111743  1
  Cu+  Cu44  1  0.41636221  0.08181560  0.17341436  1
  Cu+  Cu45  1  0.41166512  0.57619586  0.17227796  1
  Cu+  Cu46  1  0.91213961  0.07486186  0.17099258  1
  Cu+  Cu47  1  0.91201158  0.57570956  0.16994618  1
  Cu+  Cu48  1  0.49846595  0.25110375  0.50681838  1
  Cu+  Cu49  1  0.49786613  0.75463800  0.50281021  1
  Cu+  Cu50  1  0.99860439  0.24718594  0.50733280  1
  Cu+  Cu51  1  0.99803733  0.74803754  0.50657721  1
  Cu+  Cu52  1  0.25222499  0.00173081  0.50687516  1
  Cu+  Cu53  1  0.25825328  0.50173968  0.50375512  1
  Cu+  Cu54  1  0.74736449  0.00321474  0.50722767  1
  Cu+  Cu55  1  0.75406288  0.50223224  0.50721149  1
  Cu+  Cu56  1  0.26028106  0.25732161  0.50503402  1
  Cu+  Cu57  1  0.25171129  0.74925403  0.50358083  1
  Cu+  Cu58  1  0.75119651  0.24893590  0.50690243  1
  Cu+  Cu59  1  0.75400158  0.75090892  0.50667012  1
  Cu+  Cu60  1  0.33152301  0.41603230  0.83876150  1
  Cu+  Cu61  1  0.32824349  0.91076020  0.83285992  1
  Cu+  Cu62  1  0.83090581  0.41793490  0.83731883  1
  Cu+  Cu63  1  0.83054468  0.92048562  0.83521719  1
  Cu+  Cu64  1  0.08460714  0.17367867  0.83402280  1
  Cu+  Cu65  1  0.08014375  0.67003239  0.83259014  1
  Cu+  Cu66  1  0.58241163  0.17206940  0.83394704  1
  Cu+  Cu67  1  0.58315045  0.67043382  0.83664073  1
  Cu+  Cu68  1  0.08729777  0.41854620  0.83733021  1
  Cu+  Cu69  1  0.08190890  0.91155854  0.83035956  1
  Cu+  Cu70  1  0.58046454  0.41215386  0.83643822  1
  Cu+  Cu71  1  0.58640106  0.91578112  0.83348498  1
  Cu+  Cu72  1  0.17021536  0.08897272  0.67213505  1
  Cu+  Cu73  1  0.17154253  0.58393736  0.67113519  1
  Cu+  Cu74  1  0.66996177  0.08356780  0.68157590  1
  Cu+  Cu75  1  0.66912575  0.58491209  0.67413713  1
  Cu+  Cu76  1  0.41745864  0.33303653  0.68092500  1
  Cu+  Cu77  1  0.41692548  0.82964014  0.67746952  1
  Cu+  Cu78  1  0.91803283  0.33301240  0.67489970  1
  Cu+  Cu79  1  0.91910677  0.83121737  0.67848677  1
  Cu+  Cu80  1  0.41708033  0.08776083  0.67878278  1
  Cu+  Cu81  1  0.41959822  0.58611974  0.67341087  1
  Cu+  Cu82  1  0.91544547  0.08628258  0.67918127  1
  Cu+  Cu83  1  0.91733549  0.58732398  0.67932348  1
  Cu+  Cu84  1  0.00089997  0.25191733  0.00897652  1
  Cu+  Cu85  1  0.00112291  0.75217322  0.00710371  1
  Cu+  Cu86  1  0.49882898  0.25150048  0.01044582  1
  Cu+  Cu87  1  0.50112822  0.75450561  0.00876739  1
  Cu+  Cu88  1  0.24929661  0.49623359  0.01216392  1
  Cu+  Cu89  1  0.24996117  0.99851813  0.00517190  1
  Cu+  Cu90  1  0.74701252  0.49737572  0.01181018  1
  Cu+  Cu91  1  0.74861308  0.99976718  0.01330400  1
  Cu+  Cu92  1  0.25164068  0.25229077  0.00948687  1
  Cu+  Cu93  1  0.25155887  0.75315224  0.00558060  1
  Cu+  Cu94  1  0.74873703  0.25136365  0.00936317  1
  Cu+  Cu95  1  0.75211733  0.75606366  0.00955651  1
  Cu+  Cu96  1  0.33633694  0.41662957  0.34638429  1
  Cu+  Cu97  1  0.33469691  0.91598020  0.34269384  1
  Cu+  Cu98  1  0.83418108  0.41594566  0.34260017  1
  Cu+  Cu99  1  0.83437188  0.91662194  0.34381416  1
  Cu+  Cu100  1  0.08066472  0.16163347  0.34151706  1
  Cu+  Cu101  1  0.07995345  0.66244828  0.33878148  1
  Cu+  Cu102  1  0.58287459  0.16377766  0.34324753  1
  Cu+  Cu103  1  0.58180278  0.66313042  0.34179745  1
  Cu+  Cu104  1  0.08073409  0.41524634  0.34217684  1
  Cu+  Cu105  1  0.08076365  0.91616837  0.34245602  1
  Cu+  Cu106  1  0.58273414  0.41411793  0.34364857  1
  Cu+  Cu107  1  0.58206425  0.91821639  0.34839897  1
  Cu+  Cu108  1  0.00528661  0.00534901  0.11453464  1
  Cu+  Cu109  1  0.00406417  0.50718073  0.11168501  1
  Cu+  Cu110  1  0.49861867  0.00430087  0.11663764  1
  Cu+  Cu111  1  0.50374223  0.50709809  0.11465008  1
  Cu+  Cu112  1  0.33039053  0.16215516  0.44990337  1
  Cu+  Cu113  1  0.32820317  0.66366404  0.44582230  1
  Cu+  Cu114  1  0.83644093  0.16915598  0.45107092  1
  Cu+  Cu115  1  0.83302339  0.66531866  0.45090991  1
  Cu+  Cu116  1  0.17016397  0.33883941  0.77961638  1
  Cu+  Cu117  1  0.16746153  0.83284513  0.77316140  1
  Cu+  Cu118  1  0.67020843  0.33633158  0.77830899  1
  Cu+  Cu119  1  0.66808227  0.83154878  0.77816204  1
  Te2-  Te120  1  -0.00097904  -0.00172446  0.38841802  1
  Te2-  Te121  1  -0.00053552  0.49891580  0.38578056  1
  Te2-  Te122  1  0.49726025  0.00088269  0.39112327  1
  Te2-  Te123  1  0.50446359  0.49998708  0.38854807  1
  Te2-  Te124  1  0.33034302  0.16649978  0.72481381  1
  Te2-  Te125  1  0.33328325  0.66298230  0.72039314  1
  Te2-  Te126  1  0.83581047  0.17197964  0.72612160  1
  Te2-  Te127  1  0.83036778  0.66626425  0.72607446  1
  Te2-  Te128  1  0.16447565  0.32909931  0.05548156  1
  Te2-  Te129  1  0.16672851  0.83346831  0.04863891  1
  Te2-  Te130  1  0.66330243  0.32999247  0.05384561  1
  Te2-  Te131  1  0.66458024  0.83214112  0.05388102  1
  Te2-  Te132  1  0.48661938  0.24253204  0.88397416  1
  Te2-  Te133  1  0.49350072  0.74815338  0.88286929  1
  Te2-  Te134  1  0.99381743  0.25112720  0.88326501  1
  Te2-  Te135  1  0.98789292  0.74589052  0.88136669  1
  Te2-  Te136  1  0.24904324  0.00411191  0.87883929  1
  Te2-  Te137  1  0.25486421  0.50633873  0.88465026  1
  Te2-  Te138  1  0.75559567  0.01389161  0.88419581  1
  Te2-  Te139  1  0.74724475  0.50555785  0.88455095  1
  Te2-  Te140  1  0.24920682  0.24349038  0.88283848  1
  Te2-  Te141  1  0.24961472  0.74267277  0.87926201  1
  Te2-  Te142  1  0.75306915  0.25034621  0.88275536  1
  Te2-  Te143  1  0.75076332  0.74956009  0.88341143  1
  Te2-  Te144  1  0.32245568  0.40749094  0.21959023  1
  Te2-  Te145  1  0.32947094  0.91358357  0.21696802  1
  Te2-  Te146  1  0.82237549  0.40699796  0.21661839  1
  Te2-  Te147  1  0.82243481  0.90583043  0.21772450  1
  Te2-  Te148  1  0.08125528  0.16698000  0.21483206  1
  Te2-  Te149  1  0.08288200  0.66634318  0.21170011  1
  Te2-  Te150  1  0.58640537  0.16804985  0.21650260  1
  Te2-  Te151  1  0.58307185  0.66517385  0.21467186  1
  Te2-  Te152  1  0.08271372  0.40701816  0.21629547  1
  Te2-  Te153  1  0.08601708  0.91236303  0.21683288  1
  Te2-  Te154  1  0.58385153  0.40727697  0.21789902  1
  Te2-  Te155  1  0.58555504  0.90746772  0.22078613  1
  Te2-  Te156  1  0.16669753  0.08765520  0.54641290  1
  Te2-  Te157  1  0.16611568  0.57925716  0.54539677  1
  Te2-  Te158  1  0.65758054  0.08249071  0.55463543  1
  Te2-  Te159  1  0.66500796  0.58239698  0.54873783  1
  Te2-  Te160  1  0.42747010  0.34667199  0.55393384  1
  Te2-  Te161  1  0.41846334  0.84263099  0.55136573  1
  Te2-  Te162  1  0.91958168  0.33664619  0.54951576  1
  Te2-  Te163  1  0.92140232  0.83956532  0.55175656  1
  Te2-  Te164  1  0.42030648  0.08345713  0.55244482  1
  Te2-  Te165  1  0.42874912  0.58671254  0.54775479  1
  Te2-  Te166  1  0.91636653  0.07854281  0.55210480  1
  Te2-  Te167  1  0.92144344  0.58076488  0.55256386  1
  Te2-  Te168  1  0.00235686  0.00163097  0.88051190  1
  Te2-  Te169  1  0.00127280  0.50210988  0.88219864  1
  Te2-  Te170  1  0.49951708  0.00018952  0.88242733  1
  Te2-  Te171  1  0.50132418  0.50252077  0.88375605  1
  Te2-  Te172  1  0.33341707  0.16719433  0.21646905  1
  Te2-  Te173  1  0.33305444  0.66718416  0.21666955  1
  Te2-  Te174  1  0.83376499  0.16664573  0.21574786  1
  Te2-  Te175  1  0.83443090  0.66713033  0.21600605  1
  Te2-  Te176  1  0.16791610  0.33393098  0.55087773  1
  Te2-  Te177  1  0.16765725  0.83304522  0.54965424  1
  Te2-  Te178  1  0.66788293  0.33410878  0.55119950  1
  Te2-  Te179  1  0.66680709  0.83290670  0.55096384  1
  Te2-  Te180  1  0.32846560  0.41725487  0.71052771  1
  Te2-  Te181  1  0.32788853  0.91413417  0.70560708  1
  Te2-  Te182  1  0.82842382  0.41379368  0.70937201  1
  Te2-  Te183  1  0.82658834  0.91269375  0.70743551  1
  Te2-  Te184  1  0.08935980  0.17706859  0.70741215  1
  Te2-  Te185  1  0.09109539  0.67358612  0.70577092  1
  Te2-  Te186  1  0.58908457  0.17613567  0.70737201  1
  Te2-  Te187  1  0.58788412  0.67239928  0.71015324  1
  Te2-  Te188  1  0.08756229  0.41601709  0.71054283  1
  Te2-  Te189  1  0.09201339  0.91903550  0.70472404  1
  Te2-  Te190  1  0.59045461  0.41622545  0.70960070  1
  Te2-  Te191  1  0.58858511  0.91137806  0.70725742  1
  Te2-  Te192  1  0.16298469  0.08098593  0.04413812  1
  Te2-  Te193  1  0.16210338  0.58281028  0.04202899  1
  Te2-  Te194  1  0.65797095  0.08171420  0.04445256  1
  Te2-  Te195  1  0.66080725  0.58425821  0.04336220  1
  Te2-  Te196  1  0.42039754  0.34203552  0.04548355  1
  Te2-  Te197  1  0.41885486  0.83985057  0.04592645  1
  Te2-  Te198  1  0.91840036  0.33899012  0.04357535  1
  Te2-  Te199  1  0.92064349  0.84006976  0.04500434  1
  Te2-  Te200  1  0.41841640  0.08091084  0.04503001  1
  Te2-  Te201  1  0.42230612  0.58335213  0.04388354  1
  Te2-  Te202  1  0.92192966  0.08164584  0.04312645  1
  Te2-  Te203  1  0.92033544  0.58186551  0.04174503  1
  Te2-  Te204  1  0.49374646  0.24479602  0.38020509  1
  Te2-  Te205  1  0.49240922  0.74393340  0.37639135  1
  Te2-  Te206  1  0.99666411  0.24640954  0.38031289  1
  Te2-  Te207  1  0.99384003  0.74559192  0.37926641  1
  Te2-  Te208  1  0.25187915  0.00364077  0.37903433  1
  Te2-  Te209  1  0.25127375  0.50471917  0.37629819  1
  Te2-  Te210  1  0.75513366  0.00737517  0.38001700  1
  Te2-  Te211  1  0.75301212  0.50422304  0.38000851  1
  Te2-  Te212  1  0.25172272  0.24357477  0.37766362  1
  Te2-  Te213  1  0.25022808  0.74555934  0.37652923  1
  Te2-  Te214  1  0.75265046  0.24603632  0.37994516  1
  Te2-  Te215  1  0.75117463  0.74683195  0.37999923  1
