# generated using pymatgen
data_Ti(CuTe)4
_symmetry_space_group_name_H-M   'P 1'
_cell_length_a   16.87141547
_cell_length_b   16.87388976
_cell_length_c   20.68464571
_cell_angle_alpha   89.97448652
_cell_angle_beta   90.05419475
_cell_angle_gamma   120.01283371
_symmetry_Int_Tables_number   1
_chemical_formula_structural   Ti(CuTe)4
_chemical_formula_sum   'Ti24 Cu96 Te96'
_cell_volume   5099.04768907
_cell_formula_units_Z   24
loop_
 _symmetry_equiv_pos_site_id
 _symmetry_equiv_pos_as_xyz
  1  'x, y, z'
loop_
 _atom_type_symbol
 _atom_type_oxidation_number
  Ti4+  4.0
  Cu+  1.0
  Te2-  -2.0
loop_
 _atom_site_type_symbol
 _atom_site_label
 _atom_site_symmetry_multiplicity
 _atom_site_fract_x
 _atom_site_fract_y
 _atom_site_fract_z
 _atom_site_occupancy
  Ti4+  Ti0  1  0.00238815  0.00024185  0.25485163  1
  Ti4+  Ti1  1  0.00177137  0.50263614  0.25865221  1
  Ti4+  Ti2  1  0.50171280  0.00046449  0.25943247  1
  Ti4+  Ti3  1  0.50524469  0.50217550  0.25981823  1
  Ti4+  Ti4  1  0.32964743  0.16350085  0.59049614  1
  Ti4+  Ti5  1  0.32939887  0.66545495  0.59185781  1
  Ti4+  Ti6  1  0.83148007  0.16291620  0.58762394  1
  Ti4+  Ti7  1  0.82808490  0.66234842  0.58987090  1
  Ti4+  Ti8  1  0.16862864  0.33838238  0.92363304  1
  Ti4+  Ti9  1  0.16764952  0.83582995  0.92520159  1
  Ti4+  Ti10  1  0.66446311  0.33249303  0.92631848  1
  Ti4+  Ti11  1  0.66678788  0.83341756  0.92620842  1
  Ti4+  Ti12  1  -0.00176055  -0.00246969  0.75572586  1
  Ti4+  Ti13  1  0.00102042  0.49902165  0.75637565  1
  Ti4+  Ti14  1  0.49757105  0.00011775  0.75539690  1
  Ti4+  Ti15  1  0.49892412  0.49986729  0.75559221  1
  Ti4+  Ti16  1  0.33445728  0.16772804  0.08975922  1
  Ti4+  Ti17  1  0.33477566  0.66845603  0.09260648  1
  Ti4+  Ti18  1  0.83441651  0.16724599  0.08878052  1
  Ti4+  Ti19  1  0.83465990  0.66740958  0.08851637  1
  Ti4+  Ti20  1  0.16762175  0.33161921  0.42135247  1
  Ti4+  Ti21  1  0.16736036  0.83151570  0.42254325  1
  Ti4+  Ti22  1  0.66929913  0.33649513  0.42044023  1
  Ti4+  Ti23  1  0.66762119  0.83446621  0.42116811  1
  Cu+  Cu24  1  0.56849017  0.65112942  0.47658918  1
  Cu+  Cu25  1  0.07265962  0.41810651  0.47763882  1
  Cu+  Cu26  1  0.74032625  0.75873199  0.14155228  1
  Cu+  Cu27  1  0.18367788  0.59701068  0.81303504  1
  Cu+  Cu28  1  0.56822178  0.41825929  0.47623702  1
  Cu+  Cu29  1  0.06722901  0.64555942  0.47614026  1
  Cu+  Cu30  1  0.06890847  0.13875303  0.47112426  1
  Cu+  Cu31  1  0.41323587  0.59833540  0.80990617  1
  Cu+  Cu32  1  0.40315527  0.09832802  0.80661574  1
  Cu+  Cu33  1  0.74114244  0.48080507  0.14215592  1
  Cu+  Cu34  1  0.02227891  0.76050331  0.14032573  1
  Cu+  Cu35  1  0.56842924  0.92575848  0.47370648  1
  Cu+  Cu36  1  0.16614526  0.08441135  0.16988688  1
  Cu+  Cu37  1  0.16634584  0.58509165  0.17420337  1
  Cu+  Cu38  1  0.66515051  0.08079228  0.17316257  1
  Cu+  Cu39  1  0.66346843  0.58112925  0.17091078  1
  Cu+  Cu40  1  0.42140513  0.33493892  0.17288392  1
  Cu+  Cu41  1  0.42070924  0.83745869  0.17523239  1
  Cu+  Cu42  1  0.92154526  0.33584894  0.17145766  1
  Cu+  Cu43  1  0.92160204  0.83853954  0.16675945  1
  Cu+  Cu44  1  0.41887046  0.08150058  0.17312364  1
  Cu+  Cu45  1  0.42125857  0.58591148  0.17484302  1
  Cu+  Cu46  1  0.92214337  0.08511159  0.16918147  1
  Cu+  Cu47  1  0.92110691  0.58341665  0.16906985  1
  Cu+  Cu48  1  0.49729203  0.24783191  0.50502456  1
  Cu+  Cu49  1  0.49619781  0.75094979  0.50501980  1
  Cu+  Cu50  1  0.99689308  0.24332517  0.50101669  1
  Cu+  Cu51  1  0.99572094  0.74560291  0.50439636  1
  Cu+  Cu52  1  0.25125931  0.00188192  0.50445094  1
  Cu+  Cu53  1  0.24767460  0.50270120  0.50285965  1
  Cu+  Cu54  1  0.74680156  0.00349993  0.49958394  1
  Cu+  Cu55  1  0.74598011  0.50367085  0.50034550  1
  Cu+  Cu56  1  0.24469217  0.23940376  0.50145194  1
  Cu+  Cu57  1  0.24385903  0.74136510  0.50278457  1
  Cu+  Cu58  1  0.75021045  0.24531203  0.50027487  1
  Cu+  Cu59  1  0.74576306  0.74230422  0.50123857  1
  Cu+  Cu60  1  0.33051310  0.42092614  0.83576583  1
  Cu+  Cu61  1  0.33083087  0.92194863  0.83655255  1
  Cu+  Cu62  1  0.82971593  0.41477238  0.84072571  1
  Cu+  Cu63  1  0.83024433  0.91413993  0.84009875  1
  Cu+  Cu64  1  0.08432100  0.16999971  0.83782315  1
  Cu+  Cu65  1  0.08652378  0.67092616  0.83997788  1
  Cu+  Cu66  1  0.57845174  0.16804583  0.83794769  1
  Cu+  Cu67  1  0.58450345  0.67142846  0.83960720  1
  Cu+  Cu68  1  0.09126554  0.42034015  0.83603750  1
  Cu+  Cu69  1  0.08391059  0.91424961  0.83821289  1
  Cu+  Cu70  1  0.58677438  0.41502342  0.83903428  1
  Cu+  Cu71  1  0.58592274  0.91623238  0.83773270  1
  Cu+  Cu72  1  0.16399497  0.07944663  0.67480570  1
  Cu+  Cu73  1  0.16586812  0.58223865  0.68365532  1
  Cu+  Cu74  1  0.66611875  0.08113354  0.67329216  1
  Cu+  Cu75  1  0.66504590  0.58079044  0.67664230  1
  Cu+  Cu76  1  0.41626168  0.33097082  0.67499195  1
  Cu+  Cu77  1  0.41556397  0.83305381  0.67540448  1
  Cu+  Cu78  1  0.91436414  0.32807976  0.67353461  1
  Cu+  Cu79  1  0.91209443  0.82664494  0.67282611  1
  Cu+  Cu80  1  0.41333292  0.08499874  0.67807301  1
  Cu+  Cu81  1  0.41533961  0.58492962  0.68110341  1
  Cu+  Cu82  1  0.91318006  0.07993136  0.67188187  1
  Cu+  Cu83  1  0.91275335  0.58082485  0.67475682  1
  Cu+  Cu84  1  0.00383354  0.25440799  0.00540578  1
  Cu+  Cu85  1  0.00528338  0.75225241  0.01164032  1
  Cu+  Cu86  1  0.50110476  0.25044243  0.00993372  1
  Cu+  Cu87  1  0.50231899  0.75097349  0.01084591  1
  Cu+  Cu88  1  0.25049893  0.50144467  0.01208369  1
  Cu+  Cu89  1  0.24964970  1.00082479  0.00944931  1
  Cu+  Cu90  1  0.74803733  0.49549317  0.01328374  1
  Cu+  Cu91  1  0.75052448  0.99816050  0.00848693  1
  Cu+  Cu92  1  0.25072125  0.25569922  0.00657508  1
  Cu+  Cu93  1  0.25085971  0.75243138  0.01044267  1
  Cu+  Cu94  1  0.74791111  0.25065990  0.00874376  1
  Cu+  Cu95  1  0.74715701  0.75132608  0.01239920  1
  Cu+  Cu96  1  0.33782151  0.41731147  0.34158378  1
  Cu+  Cu97  1  0.33832257  0.91830453  0.34245706  1
  Cu+  Cu98  1  0.83693995  0.41981265  0.34054208  1
  Cu+  Cu99  1  0.83796637  0.91911716  0.33757590  1
  Cu+  Cu100  1  0.08500747  0.16227313  0.34310227  1
  Cu+  Cu101  1  0.08397302  0.66475787  0.34723783  1
  Cu+  Cu102  1  0.58487009  0.16553905  0.34037487  1
  Cu+  Cu103  1  0.58613942  0.66552466  0.34808826  1
  Cu+  Cu104  1  0.08664875  0.42080878  0.34658399  1
  Cu+  Cu105  1  0.08614094  0.91834065  0.33878440  1
  Cu+  Cu106  1  0.58682227  0.42180882  0.34784827  1
  Cu+  Cu107  1  0.58306491  0.92106699  0.34588002  1
  Cu+  Cu108  1  0.00313344  0.00494046  0.11093896  1
  Cu+  Cu109  1  0.00267263  0.49711021  0.11570310  1
  Cu+  Cu110  1  0.50121638  0.00168083  0.11702796  1
  Cu+  Cu111  1  0.49307764  0.49673156  0.11788418  1
  Cu+  Cu112  1  0.33608812  0.16483361  0.44645228  1
  Cu+  Cu113  1  0.33504218  0.66727661  0.44681157  1
  Cu+  Cu114  1  0.83511771  0.16815393  0.44125174  1
  Cu+  Cu115  1  0.83777843  0.67198922  0.44463434  1
  Cu+  Cu116  1  0.16463699  0.32721392  0.77898759  1
  Cu+  Cu117  1  0.16501461  0.83252933  0.78081958  1
  Cu+  Cu118  1  0.66985491  0.33120405  0.78329053  1
  Cu+  Cu119  1  0.66904917  0.83699966  0.78263861  1
  Te2-  Te120  1  0.00037273  -0.00419755  0.38543940  1
  Te2-  Te121  1  -0.00082549  0.49863022  0.39103362  1
  Te2-  Te122  1  0.50044586  0.00387450  0.39035110  1
  Te2-  Te123  1  0.49932159  0.49999044  0.39215059  1
  Te2-  Te124  1  0.32841251  0.16678771  0.72076756  1
  Te2-  Te125  1  0.33330821  0.66975196  0.72339732  1
  Te2-  Te126  1  0.83134889  0.16278281  0.71626326  1
  Te2-  Te127  1  0.83045947  0.66300825  0.71879247  1
  Te2-  Te128  1  0.16705250  0.33559221  0.05263936  1
  Te2-  Te129  1  0.17091616  0.83681582  0.05572208  1
  Te2-  Te130  1  0.66452237  0.32997523  0.05719832  1
  Te2-  Te131  1  0.66615958  0.83534168  0.05705721  1
  Te2-  Te132  1  0.49055163  0.24877889  0.88424763  1
  Te2-  Te133  1  0.49309990  0.75054385  0.88495039  1
  Te2-  Te134  1  0.99811118  0.25277828  0.87980257  1
  Te2-  Te135  1  0.99639719  0.74765070  0.88457809  1
  Te2-  Te136  1  0.25083316  0.00945409  0.88347389  1
  Te2-  Te137  1  0.25854021  0.51618531  0.88515889  1
  Te2-  Te138  1  0.75246680  0.00455137  0.88275014  1
  Te2-  Te139  1  0.75253410  0.50484388  0.88607374  1
  Te2-  Te140  1  0.25365954  0.25306243  0.88040777  1
  Te2-  Te141  1  0.25860964  0.75412249  0.88392114  1
  Te2-  Te142  1  0.74750030  0.24540281  0.88243690  1
  Te2-  Te143  1  0.75118164  0.74633348  0.88515886  1
  Te2-  Te144  1  0.33524925  0.41687833  0.21636525  1
  Te2-  Te145  1  0.32973649  0.91439692  0.21723319  1
  Te2-  Te146  1  0.82995891  0.41346072  0.21485136  1
  Te2-  Te147  1  0.82935183  0.91623825  0.21216691  1
  Te2-  Te148  1  0.08813255  0.17224012  0.21625270  1
  Te2-  Te149  1  0.08938009  0.67574196  0.21918856  1
  Te2-  Te150  1  0.58720816  0.17130052  0.21518915  1
  Te2-  Te151  1  0.58887931  0.67520114  0.22013467  1
  Te2-  Te152  1  0.08768387  0.41777578  0.21896656  1
  Te2-  Te153  1  0.09145305  0.91602724  0.21323384  1
  Te2-  Te154  1  0.58861706  0.41261554  0.21981990  1
  Te2-  Te155  1  0.58787880  0.91434391  0.21917740  1
  Te2-  Te156  1  0.15525897  0.07252698  0.54906097  1
  Te2-  Te157  1  0.15346893  0.57548844  0.55410469  1
  Te2-  Te158  1  0.65669786  0.08005818  0.54772533  1
  Te2-  Te159  1  0.65062633  0.57494629  0.55015727  1
  Te2-  Te160  1  0.41263628  0.33601148  0.54876417  1
  Te2-  Te161  1  0.41258098  0.83726175  0.54925625  1
  Te2-  Te162  1  0.91682145  0.33604901  0.54721531  1
  Te2-  Te163  1  0.91371877  0.83247463  0.54666864  1
  Te2-  Te164  1  0.41817678  0.08084445  0.55059222  1
  Te2-  Te165  1  0.41460909  0.57869989  0.55230434  1
  Te2-  Te166  1  0.91466071  0.07320215  0.54562898  1
  Te2-  Te167  1  0.91232310  0.57379997  0.54875781  1
  Te2-  Te168  1  0.00059863  0.00115769  0.88178905  1
  Te2-  Te169  1  0.00067455  0.49969313  0.88336913  1
  Te2-  Te170  1  0.50016916  -0.00053102  0.88234702  1
  Te2-  Te171  1  0.50029082  0.49999858  0.88234098  1
  Te2-  Te172  1  0.33440190  0.16608345  0.21605299  1
  Te2-  Te173  1  0.33524211  0.66822419  0.21884566  1
  Te2-  Te174  1  0.83585654  0.16692367  0.21506222  1
  Te2-  Te175  1  0.83597364  0.66897546  0.21633786  1
  Te2-  Te176  1  0.16640002  0.33126131  0.54892971  1
  Te2-  Te177  1  0.16484407  0.83194367  0.54972887  1
  Te2-  Te178  1  0.66824141  0.33315650  0.54742351  1
  Te2-  Te179  1  0.66746840  0.83382110  0.54867436  1
  Te2-  Te180  1  0.32591234  0.41158459  0.70914857  1
  Te2-  Te181  1  0.32439915  0.91207866  0.70967799  1
  Te2-  Te182  1  0.82888006  0.41175540  0.71313777  1
  Te2-  Te183  1  0.82652559  0.91090277  0.71186402  1
  Te2-  Te184  1  0.08286888  0.16869793  0.70984974  1
  Te2-  Te185  1  0.08250666  0.67222866  0.71160826  1
  Te2-  Te186  1  0.58654210  0.17208729  0.71011507  1
  Te2-  Te187  1  0.58786808  0.67395722  0.71185468  1
  Te2-  Te188  1  0.08411916  0.40899879  0.70971990  1
  Te2-  Te189  1  0.08229162  0.90955504  0.71116295  1
  Te2-  Te190  1  0.58476816  0.41175612  0.71315561  1
  Te2-  Te191  1  0.58430704  0.91310663  0.71159062  1
  Te2-  Te192  1  0.16312410  0.08506954  0.04333796  1
  Te2-  Te193  1  0.16233774  0.58312696  0.04754255  1
  Te2-  Te194  1  0.66187324  0.08003257  0.04574047  1
  Te2-  Te195  1  0.65935580  0.57937465  0.04432611  1
  Te2-  Te196  1  0.42013688  0.33991895  0.04580281  1
  Te2-  Te197  1  0.42112786  0.84012913  0.04790099  1
  Te2-  Te198  1  0.91926950  0.33906268  0.04428601  1
  Te2-  Te199  1  0.92076663  0.84072126  0.04020923  1
  Te2-  Te200  1  0.41969048  0.08038724  0.04589884  1
  Te2-  Te201  1  0.42049130  0.58191970  0.04794434  1
  Te2-  Te202  1  0.92186559  0.08382937  0.04230591  1
  Te2-  Te203  1  0.92138500  0.57995354  0.04236946  1
  Te2-  Te204  1  0.49604991  0.24716154  0.37661340  1
  Te2-  Te205  1  0.49371740  0.74720226  0.37622117  1
  Te2-  Te206  1  0.99558746  0.24650394  0.37290135  1
  Te2-  Te207  1  0.99542121  0.74911161  0.37592317  1
  Te2-  Te208  1  0.25409508  0.00410290  0.37830197  1
  Te2-  Te209  1  0.25788931  0.50664772  0.37688832  1
  Te2-  Te210  1  0.75638584  0.00675664  0.37380481  1
  Te2-  Te211  1  0.75930361  0.51130962  0.37494588  1
  Te2-  Te212  1  0.25663009  0.24737104  0.37554203  1
  Te2-  Te213  1  0.25672385  0.74774492  0.37669172  1
  Te2-  Te214  1  0.75469993  0.24944383  0.37495973  1
  Te2-  Te215  1  0.75796446  0.75092139  0.37516290  1
