# generated using pymatgen
data_Ti(CuTe)4
_symmetry_space_group_name_H-M   'P 1'
_cell_length_a   16.88734754
_cell_length_b   16.88868854
_cell_length_c   20.70767460
_cell_angle_alpha   90.00375930
_cell_angle_beta   89.99798016
_cell_angle_gamma   119.99413192
_symmetry_Int_Tables_number   1
_chemical_formula_structural   Ti(CuTe)4
_chemical_formula_sum   'Ti24 Cu96 Te96'
_cell_volume   5114.99257170
_cell_formula_units_Z   24
loop_
 _symmetry_equiv_pos_site_id
 _symmetry_equiv_pos_as_xyz
  1  'x, y, z'
loop_
 _atom_type_symbol
 _atom_type_oxidation_number
  Ti4+  4.0
  Cu+  1.0
  Te2-  -2.0
loop_
 _atom_site_type_symbol
 _atom_site_label
 _atom_site_symmetry_multiplicity
 _atom_site_fract_x
 _atom_site_fract_y
 _atom_site_fract_z
 _atom_site_occupancy
  Ti4+  Ti0  1  0.00140674  0.00288825  0.25619146  1
  Ti4+  Ti1  1  0.00100538  0.50447051  0.26075821  1
  Ti4+  Ti2  1  0.49863452  -0.00159323  0.25477550  1
  Ti4+  Ti3  1  0.50315296  0.50111870  0.25799272  1
  Ti4+  Ti4  1  0.33454424  0.16559489  0.59117900  1
  Ti4+  Ti5  1  0.33506171  0.66392795  0.59223578  1
  Ti4+  Ti6  1  0.83298134  0.16533408  0.58887105  1
  Ti4+  Ti7  1  0.83299555  0.66198196  0.59334963  1
  Ti4+  Ti8  1  0.16621069  0.33718093  0.92205049  1
  Ti4+  Ti9  1  0.16316444  0.83312383  0.92284064  1
  Ti4+  Ti10  1  0.66315657  0.33230837  0.92707438  1
  Ti4+  Ti11  1  0.66688912  0.83314231  0.92342575  1
  Ti4+  Ti12  1  -0.00067532  -0.00177659  0.75245308  1
  Ti4+  Ti13  1  0.00041796  0.49856679  0.75581041  1
  Ti4+  Ti14  1  0.49853294  -0.00043826  0.75573806  1
  Ti4+  Ti15  1  0.50053032  0.49994969  0.75603336  1
  Ti4+  Ti16  1  0.33209355  0.16688462  0.08639864  1
  Ti4+  Ti17  1  0.33362495  0.66900256  0.09035882  1
  Ti4+  Ti18  1  0.83287025  0.16742138  0.08687542  1
  Ti4+  Ti19  1  0.83241257  0.66664420  0.09024969  1
  Ti4+  Ti20  1  0.16786026  0.33499830  0.42039930  1
  Ti4+  Ti21  1  0.16773772  0.83423800  0.42405889  1
  Ti4+  Ti22  1  0.66770696  0.33321280  0.42238060  1
  Ti4+  Ti23  1  0.66640866  0.83169595  0.42272914  1
  Cu+  Cu24  1  0.41136669  0.59489635  0.81084904  1
  Cu+  Cu25  1  0.90510649  0.58519793  0.81469939  1
  Cu+  Cu26  1  0.23638207  0.76338580  0.13870743  1
  Cu+  Cu27  1  0.40347523  0.09582304  0.80777940  1
  Cu+  Cu28  1  0.84994940  0.42057014  0.47889341  1
  Cu+  Cu29  1  0.52418930  0.76117703  0.14034033  1
  Cu+  Cu30  1  0.07941116  0.64966790  0.48068469  1
  Cu+  Cu31  1  0.90134889  0.81319057  0.80624189  1
  Cu+  Cu32  1  0.57306460  0.64065434  0.47572687  1
  Cu+  Cu33  1  0.18240959  0.59518445  0.80978952  1
  Cu+  Cu34  1  0.74627309  0.48638324  0.14934710  1
  Cu+  Cu35  1  0.51379583  0.25510830  0.14477056  1
  Cu+  Cu36  1  0.16210765  0.08221512  0.16903363  1
  Cu+  Cu37  1  0.16558468  0.59181116  0.17361119  1
  Cu+  Cu38  1  0.66325667  0.08006338  0.16741525  1
  Cu+  Cu39  1  0.66360455  0.57975429  0.17163578  1
  Cu+  Cu40  1  0.42067570  0.33618106  0.16945620  1
  Cu+  Cu41  1  0.41644349  0.83534611  0.16875237  1
  Cu+  Cu42  1  0.91687256  0.33586415  0.17173769  1
  Cu+  Cu43  1  0.92052292  0.83978220  0.17210992  1
  Cu+  Cu44  1  0.41848554  0.08111375  0.16780665  1
  Cu+  Cu45  1  0.42447972  0.58874111  0.17235709  1
  Cu+  Cu46  1  0.91916047  0.08363839  0.16920212  1
  Cu+  Cu47  1  0.91927532  0.58214294  0.17395689  1
  Cu+  Cu48  1  0.49661912  0.24472408  0.50566348  1
  Cu+  Cu49  1  0.49932802  0.74178610  0.50506627  1
  Cu+  Cu50  1  0.99773068  0.24786604  0.50145259  1
  Cu+  Cu51  1  0.99920161  0.74446977  0.50684710  1
  Cu+  Cu52  1  0.25559494  0.00415795  0.50573627  1
  Cu+  Cu53  1  0.25408433  0.50312831  0.50370919  1
  Cu+  Cu54  1  0.74997948  0.00234609  0.50363691  1
  Cu+  Cu55  1  0.75658559  0.50189178  0.50512194  1
  Cu+  Cu56  1  0.25335954  0.24978610  0.50373355  1
  Cu+  Cu57  1  0.25093958  0.74565460  0.50707092  1
  Cu+  Cu58  1  0.75448737  0.24770248  0.50341442  1
  Cu+  Cu59  1  0.74646577  0.74329412  0.50629019  1
  Cu+  Cu60  1  0.33003576  0.42070840  0.83603811  1
  Cu+  Cu61  1  0.32933884  0.91899027  0.83627379  1
  Cu+  Cu62  1  0.82682512  0.41454438  0.84025730  1
  Cu+  Cu63  1  0.82984730  0.91179742  0.83574387  1
  Cu+  Cu64  1  0.08251093  0.17073176  0.83509509  1
  Cu+  Cu65  1  0.08370919  0.67077806  0.83633142  1
  Cu+  Cu66  1  0.57695555  0.16743076  0.83954994  1
  Cu+  Cu67  1  0.58384369  0.67226383  0.83722224  1
  Cu+  Cu68  1  0.09006875  0.41979185  0.83547352  1
  Cu+  Cu69  1  0.07702714  0.90965112  0.83322138  1
  Cu+  Cu70  1  0.58505392  0.41450139  0.83979526  1
  Cu+  Cu71  1  0.58455314  0.91532800  0.83722896  1
  Cu+  Cu72  1  0.16912766  0.08358083  0.67248187  1
  Cu+  Cu73  1  0.17033411  0.58110792  0.68062612  1
  Cu+  Cu74  1  0.66947517  0.08487639  0.67310410  1
  Cu+  Cu75  1  0.66756256  0.58012167  0.67726826  1
  Cu+  Cu76  1  0.41716814  0.32914815  0.67468066  1
  Cu+  Cu77  1  0.41690468  0.83002854  0.67401520  1
  Cu+  Cu78  1  0.91412724  0.32732566  0.67454979  1
  Cu+  Cu79  1  0.91441898  0.82660076  0.67810349  1
  Cu+  Cu80  1  0.41490071  0.08455001  0.67934956  1
  Cu+  Cu81  1  0.41776125  0.58378848  0.68054725  1
  Cu+  Cu82  1  0.91496978  0.08304570  0.67099398  1
  Cu+  Cu83  1  0.91624422  0.58126570  0.68348316  1
  Cu+  Cu84  1  0.00186037  0.25420974  0.00532165  1
  Cu+  Cu85  1  -0.00200025  0.74889074  0.00946723  1
  Cu+  Cu86  1  0.50026080  0.25097856  0.01428960  1
  Cu+  Cu87  1  0.50336735  0.75164590  0.01234711  1
  Cu+  Cu88  1  0.24813975  0.50016275  0.00949367  1
  Cu+  Cu89  1  0.24593590  0.99920081  0.00607261  1
  Cu+  Cu90  1  0.74733579  0.49702582  0.01786025  1
  Cu+  Cu91  1  0.75017788  0.99901944  0.00550835  1
  Cu+  Cu92  1  0.24628896  0.25343773  0.00504513  1
  Cu+  Cu93  1  0.24569114  0.75199577  0.01096329  1
  Cu+  Cu94  1  0.74768217  0.25152059  0.00876453  1
  Cu+  Cu95  1  0.74873514  0.75108952  0.00896390  1
  Cu+  Cu96  1  0.33671959  0.41975618  0.34035123  1
  Cu+  Cu97  1  0.33522658  0.91831498  0.34022123  1
  Cu+  Cu98  1  0.83624471  0.41969876  0.34903356  1
  Cu+  Cu99  1  0.83800147  0.92031679  0.34004919  1
  Cu+  Cu100  1  0.08379340  0.16705339  0.33865287  1
  Cu+  Cu101  1  0.08196041  0.66707748  0.34924780  1
  Cu+  Cu102  1  0.58141937  0.16364898  0.34042735  1
  Cu+  Cu103  1  0.58412663  0.66395916  0.34646616  1
  Cu+  Cu104  1  0.08420235  0.42114756  0.34189056  1
  Cu+  Cu105  1  0.08380784  0.92273600  0.34158666  1
  Cu+  Cu106  1  0.58310642  0.41611293  0.34474600  1
  Cu+  Cu107  1  0.58118533  0.91620050  0.34004729  1
  Cu+  Cu108  1  -0.00128569  0.00123008  0.11237286  1
  Cu+  Cu109  1  0.00247697  0.49754190  0.11822015  1
  Cu+  Cu110  1  0.50044912  0.00054816  0.11029694  1
  Cu+  Cu111  1  0.49517195  0.49902183  0.11475945  1
  Cu+  Cu112  1  0.33294651  0.16743065  0.44803255  1
  Cu+  Cu113  1  0.33622773  0.66968516  0.44919871  1
  Cu+  Cu114  1  0.83416877  0.16331939  0.44462888  1
  Cu+  Cu115  1  0.83635095  0.67142601  0.45076359  1
  Cu+  Cu116  1  0.16699977  0.32860663  0.77760803  1
  Cu+  Cu117  1  0.16776606  0.83562611  0.77844999  1
  Cu+  Cu118  1  0.66558233  0.32935368  0.78363747  1
  Cu+  Cu119  1  0.66809782  0.83787337  0.77937771  1
  Te2-  Te120  1  0.00135396  0.00425294  0.38570205  1
  Te2-  Te121  1  0.00257007  0.50102547  0.39294011  1
  Te2-  Te122  1  0.49967819  -0.00097223  0.38378166  1
  Te2-  Te123  1  0.49930981  0.49705754  0.38818864  1
  Te2-  Te124  1  0.33065981  0.16681656  0.72236174  1
  Te2-  Te125  1  0.33646086  0.66891348  0.72455724  1
  Te2-  Te126  1  0.83274848  0.16337128  0.71838085  1
  Te2-  Te127  1  0.83007696  0.66157509  0.72543912  1
  Te2-  Te128  1  0.16515665  0.33530754  0.05089931  1
  Te2-  Te129  1  0.16260440  0.83595127  0.05300952  1
  Te2-  Te130  1  0.66571039  0.33064973  0.05932641  1
  Te2-  Te131  1  0.67035844  0.83653437  0.05396604  1
  Te2-  Te132  1  0.48946192  0.24842944  0.88667951  1
  Te2-  Te133  1  0.49269647  0.74962996  0.88525528  1
  Te2-  Te134  1  0.99557784  0.25238719  0.87946505  1
  Te2-  Te135  1  0.98694666  0.74306795  0.88356600  1
  Te2-  Te136  1  0.24497052  0.00483291  0.88003994  1
  Te2-  Te137  1  0.25685942  0.51627253  0.88414673  1
  Te2-  Te138  1  0.75345647  0.00300018  0.87948464  1
  Te2-  Te139  1  0.74977826  0.50652691  0.88944610  1
  Te2-  Te140  1  0.25156368  0.25221254  0.87899468  1
  Te2-  Te141  1  0.25339958  0.75095487  0.88361985  1
  Te2-  Te142  1  0.74705710  0.24688926  0.88255103  1
  Te2-  Te143  1  0.74972065  0.74210229  0.88317131  1
  Te2-  Te144  1  0.33427691  0.41832714  0.21385020  1
  Te2-  Te145  1  0.32517009  0.91476108  0.21428655  1
  Te2-  Te146  1  0.82777581  0.41268043  0.22129062  1
  Te2-  Te147  1  0.82881675  0.91611209  0.21452861  1
  Te2-  Te148  1  0.08732202  0.17480097  0.21317428  1
  Te2-  Te149  1  0.08473984  0.67842707  0.22142305  1
  Te2-  Te150  1  0.58846590  0.17177232  0.21472678  1
  Te2-  Te151  1  0.59298639  0.67499185  0.21908569  1
  Te2-  Te152  1  0.08651305  0.42151874  0.21533755  1
  Te2-  Te153  1  0.08804884  0.91620111  0.21598644  1
  Te2-  Te154  1  0.58938762  0.41051389  0.21871209  1
  Te2-  Te155  1  0.58703463  0.91346157  0.21407010  1
  Te2-  Te156  1  0.16364905  0.08106057  0.54702144  1
  Te2-  Te157  1  0.16141000  0.57540484  0.55326353  1
  Te2-  Te158  1  0.66072782  0.08109380  0.54743869  1
  Te2-  Te159  1  0.66037000  0.57297389  0.55117601  1
  Te2-  Te160  1  0.42119226  0.33727550  0.54907578  1
  Te2-  Te161  1  0.42023439  0.83286620  0.54785626  1
  Te2-  Te162  1  0.92445141  0.34009643  0.54939779  1
  Te2-  Te163  1  0.91595729  0.83047930  0.55061562  1
  Te2-  Te164  1  0.42131348  0.07900226  0.55292071  1
  Te2-  Te165  1  0.41937936  0.57421906  0.55287357  1
  Te2-  Te166  1  0.91884027  0.07982231  0.54543221  1
  Te2-  Te167  1  0.92343539  0.57584241  0.55525663  1
  Te2-  Te168  1  0.00002846  0.00191557  0.87944528  1
  Te2-  Te169  1  -0.00085770  0.49965439  0.88322504  1
  Te2-  Te170  1  0.49790128  -0.00216906  0.88259470  1
  Te2-  Te171  1  0.49994473  0.50133183  0.88279283  1
  Te2-  Te172  1  0.33250387  0.16560647  0.21341710  1
  Te2-  Te173  1  0.33499889  0.66780424  0.21767440  1
  Te2-  Te174  1  0.83244258  0.16606940  0.21335363  1
  Te2-  Te175  1  0.83466877  0.66934524  0.21702944  1
  Te2-  Te176  1  0.16697560  0.33264231  0.54680563  1
  Te2-  Te177  1  0.16923947  0.83451120  0.55103356  1
  Te2-  Te178  1  0.66706261  0.33050134  0.54920115  1
  Te2-  Te179  1  0.66800833  0.83410692  0.54968371  1
  Te2-  Te180  1  0.32834184  0.41095939  0.70939125  1
  Te2-  Te181  1  0.32719214  0.91077278  0.70911635  1
  Te2-  Te182  1  0.82618952  0.40858303  0.71273640  1
  Te2-  Te183  1  0.82703238  0.91276881  0.70784601  1
  Te2-  Te184  1  0.08481705  0.16975346  0.70799701  1
  Te2-  Te185  1  0.08948819  0.67328485  0.70933657  1
  Te2-  Te186  1  0.58723527  0.17168594  0.71194035  1
  Te2-  Te187  1  0.59023081  0.67350366  0.71061571  1
  Te2-  Te188  1  0.08411734  0.40889428  0.70963762  1
  Te2-  Te189  1  0.08740040  0.91331638  0.70686405  1
  Te2-  Te190  1  0.58562183  0.41107320  0.71396853  1
  Te2-  Te191  1  0.58596535  0.91517793  0.71068740  1
  Te2-  Te192  1  0.16007669  0.08324558  0.04239714  1
  Te2-  Te193  1  0.15998573  0.58136117  0.04615103  1
  Te2-  Te194  1  0.66124032  0.08035685  0.04135175  1
  Te2-  Te195  1  0.65866095  0.58189049  0.04545583  1
  Te2-  Te196  1  0.41596554  0.34009754  0.04245563  1
  Te2-  Te197  1  0.41872135  0.84057861  0.04138045  1
  Te2-  Te198  1  0.91811708  0.33979750  0.04463266  1
  Te2-  Te199  1  0.91821947  0.83880557  0.04545083  1
  Te2-  Te200  1  0.41584614  0.07734471  0.04088491  1
  Te2-  Te201  1  0.41786956  0.58027767  0.04499299  1
  Te2-  Te202  1  0.92012755  0.08365685  0.04220189  1
  Te2-  Te203  1  0.92060457  0.58030232  0.04707405  1
  Te2-  Te204  1  0.49476602  0.24569705  0.37919484  1
  Te2-  Te205  1  0.49446128  0.74702787  0.37746131  1
  Te2-  Te206  1  0.99623360  0.24970148  0.37525562  1
  Te2-  Te207  1  0.99527176  0.75261423  0.37973541  1
  Te2-  Te208  1  0.25359736  0.00568501  0.37918219  1
  Te2-  Te209  1  0.25483175  0.50792431  0.37755931  1
  Te2-  Te210  1  0.75097039  0.00293877  0.37695667  1
  Te2-  Te211  1  0.75287263  0.50842372  0.37915426  1
  Te2-  Te212  1  0.25366774  0.24928545  0.37668988  1
  Te2-  Te213  1  0.25498082  0.74922684  0.37905653  1
  Te2-  Te214  1  0.75202789  0.24528160  0.37621376  1
  Te2-  Te215  1  0.75666610  0.75015979  0.37848244  1
