# generated using pymatgen
data_Ti(CuTe)4
_symmetry_space_group_name_H-M   'P 1'
_cell_length_a   16.88883174
_cell_length_b   16.89566001
_cell_length_c   20.71479571
_cell_angle_alpha   90.04635354
_cell_angle_beta   90.00508199
_cell_angle_gamma   119.99389426
_symmetry_Int_Tables_number   1
_chemical_formula_structural   Ti(CuTe)4
_chemical_formula_sum   'Ti24 Cu96 Te96'
_cell_volume   5119.32334796
_cell_formula_units_Z   24
loop_
 _symmetry_equiv_pos_site_id
 _symmetry_equiv_pos_as_xyz
  1  'x, y, z'
loop_
 _atom_type_symbol
 _atom_type_oxidation_number
  Ti4+  4.0
  Cu+  1.0
  Te2-  -2.0
loop_
 _atom_site_type_symbol
 _atom_site_label
 _atom_site_symmetry_multiplicity
 _atom_site_fract_x
 _atom_site_fract_y
 _atom_site_fract_z
 _atom_site_occupancy
  Ti4+  Ti0  1  0.00012880  0.00018748  0.26055089  1
  Ti4+  Ti1  1  -0.00463193  0.49782187  0.25551272  1
  Ti4+  Ti2  1  0.49811544  -0.00395333  0.25567958  1
  Ti4+  Ti3  1  0.50017478  0.50067816  0.25525782  1
  Ti4+  Ti4  1  0.33210619  0.16554028  0.58790991  1
  Ti4+  Ti5  1  0.33455603  0.67063751  0.59113322  1
  Ti4+  Ti6  1  0.83308082  0.16762781  0.59273204  1
  Ti4+  Ti7  1  0.83341804  0.66799733  0.59395663  1
  Ti4+  Ti8  1  0.16851653  0.33476780  0.92067181  1
  Ti4+  Ti9  1  0.16679852  0.83233420  0.92716923  1
  Ti4+  Ti10  1  0.66768281  0.33242383  0.92466244  1
  Ti4+  Ti11  1  0.67009641  0.83297910  0.92755494  1
  Ti4+  Ti12  1  -0.00004897  -0.00054787  0.75702702  1
  Ti4+  Ti13  1  0.00205374  0.50085117  0.75481456  1
  Ti4+  Ti14  1  0.50055086  0.00229023  0.75865527  1
  Ti4+  Ti15  1  0.50014014  0.50131537  0.75439830  1
  Ti4+  Ti16  1  0.33307893  0.16589664  0.08810171  1
  Ti4+  Ti17  1  0.33478362  0.66763704  0.08673780  1
  Ti4+  Ti18  1  0.83431160  0.16670715  0.08769943  1
  Ti4+  Ti19  1  0.83402140  0.66527274  0.08817133  1
  Ti4+  Ti20  1  0.16497239  0.33340356  0.42057239  1
  Ti4+  Ti21  1  0.16796316  0.83417378  0.42181074  1
  Ti4+  Ti22  1  0.66575491  0.33300601  0.42237533  1
  Ti4+  Ti23  1  0.66632664  0.83355709  0.42368768  1
  Cu+  Cu24  1  0.07421769  0.91935197  0.48089214  1
  Cu+  Cu25  1  0.19051769  0.59628992  0.80642336  1
  Cu+  Cu26  1  0.73743058  0.25323658  0.14133131  1
  Cu+  Cu27  1  0.51719181  0.75531214  0.14177074  1
  Cu+  Cu28  1  0.35654957  0.92870016  0.47447762  1
  Cu+  Cu29  1  0.06975022  0.15097820  0.47745210  1
  Cu+  Cu30  1  0.90595364  0.80991343  0.81081074  1
  Cu+  Cu31  1  0.23486764  0.98122820  0.14352578  1
  Cu+  Cu32  1  0.73537765  0.47999957  0.13912438  1
  Cu+  Cu33  1  0.90733979  0.31409583  0.80819669  1
  Cu+  Cu34  1  0.23794069  0.75188620  0.14414948  1
  Cu+  Cu35  1  0.74686963  0.98347022  0.14305030  1
  Cu+  Cu36  1  0.16321075  0.08050253  0.17386555  1
  Cu+  Cu37  1  0.16026972  0.58105074  0.16983626  1
  Cu+  Cu38  1  0.66334010  0.07809557  0.16763017  1
  Cu+  Cu39  1  0.66245276  0.57936421  0.16874201  1
  Cu+  Cu40  1  0.41721496  0.33749119  0.16888120  1
  Cu+  Cu41  1  0.41810627  0.83544850  0.16700807  1
  Cu+  Cu42  1  0.91297665  0.33669943  0.16784868  1
  Cu+  Cu43  1  0.91966570  0.83672536  0.17164288  1
  Cu+  Cu44  1  0.41148200  0.07585312  0.16800636  1
  Cu+  Cu45  1  0.42232180  0.58427771  0.16883411  1
  Cu+  Cu46  1  0.91871762  0.08107094  0.17248773  1
  Cu+  Cu47  1  0.91198889  0.57550612  0.16787199  1
  Cu+  Cu48  1  0.49652110  0.24692120  0.50198906  1
  Cu+  Cu49  1  0.49748533  0.75155049  0.50510465  1
  Cu+  Cu50  1  0.99447838  0.24739884  0.50539478  1
  Cu+  Cu51  1  0.99364847  0.74880470  0.50689958  1
  Cu+  Cu52  1  0.25376963  0.00492722  0.50050524  1
  Cu+  Cu53  1  0.24926636  0.50487749  0.50430116  1
  Cu+  Cu54  1  0.74961981  0.00353679  0.50558631  1
  Cu+  Cu55  1  0.75026386  0.50213976  0.50741767  1
  Cu+  Cu56  1  0.24651855  0.24613789  0.50056662  1
  Cu+  Cu57  1  0.25760005  0.75396780  0.50398120  1
  Cu+  Cu58  1  0.75056304  0.24963971  0.50652993  1
  Cu+  Cu59  1  0.75234767  0.75173756  0.50669084  1
  Cu+  Cu60  1  0.33085357  0.41458140  0.83403159  1
  Cu+  Cu61  1  0.33171004  0.91745433  0.84194314  1
  Cu+  Cu62  1  0.83008655  0.41090366  0.83806198  1
  Cu+  Cu63  1  0.83244454  0.91156292  0.84034774  1
  Cu+  Cu64  1  0.08686717  0.17123255  0.83582161  1
  Cu+  Cu65  1  0.09174358  0.67142072  0.83754925  1
  Cu+  Cu66  1  0.58689895  0.17052243  0.83908502  1
  Cu+  Cu67  1  0.58526974  0.66973909  0.83870309  1
  Cu+  Cu68  1  0.08678444  0.41609594  0.83369156  1
  Cu+  Cu69  1  0.08116124  0.91259295  0.84031372  1
  Cu+  Cu70  1  0.58621414  0.41796272  0.83779039  1
  Cu+  Cu71  1  0.58724762  0.91840972  0.84311704  1
  Cu+  Cu72  1  0.16814890  0.08379557  0.67389416  1
  Cu+  Cu73  1  0.17224551  0.58938087  0.67742221  1
  Cu+  Cu74  1  0.66904700  0.08658817  0.67734444  1
  Cu+  Cu75  1  0.66863164  0.58687033  0.67648982  1
  Cu+  Cu76  1  0.41580478  0.33133332  0.67069408  1
  Cu+  Cu77  1  0.41665312  0.83552462  0.67713533  1
  Cu+  Cu78  1  0.91574094  0.33096114  0.67843091  1
  Cu+  Cu79  1  0.91547754  0.83044875  0.68238313  1
  Cu+  Cu80  1  0.41534446  0.08442365  0.67504137  1
  Cu+  Cu81  1  0.41611262  0.58652309  0.67410332  1
  Cu+  Cu82  1  0.91575620  0.08499101  0.67710364  1
  Cu+  Cu83  1  0.91618045  0.58654070  0.67659772  1
  Cu+  Cu84  1  0.00550835  0.25308850  0.00536454  1
  Cu+  Cu85  1  0.00184446  0.75071066  0.00943934  1
  Cu+  Cu86  1  0.50166702  0.25099927  0.00699348  1
  Cu+  Cu87  1  0.50654957  0.75283530  0.01331393  1
  Cu+  Cu88  1  0.24972390  0.49821848  0.00382530  1
  Cu+  Cu89  1  0.24615614  0.99613917  0.01416110  1
  Cu+  Cu90  1  0.74995427  0.49552598  0.01088269  1
  Cu+  Cu91  1  0.75304605  0.99668836  0.01374004  1
  Cu+  Cu92  1  0.24907791  0.25164733  0.00544244  1
  Cu+  Cu93  1  0.24993829  0.75179531  0.01432298  1
  Cu+  Cu94  1  0.75159407  0.25220906  0.01248597  1
  Cu+  Cu95  1  0.75299878  0.75094111  0.01054175  1
  Cu+  Cu96  1  0.33614961  0.42151005  0.33802849  1
  Cu+  Cu97  1  0.33421871  0.91358732  0.34570061  1
  Cu+  Cu98  1  0.83186968  0.41607730  0.34242674  1
  Cu+  Cu99  1  0.83409588  0.91757093  0.34474271  1
  Cu+  Cu100  1  0.08028311  0.16370164  0.34678987  1
  Cu+  Cu101  1  0.07940034  0.66244944  0.34092461  1
  Cu+  Cu102  1  0.58216084  0.16337347  0.34050110  1
  Cu+  Cu103  1  0.58267995  0.66428155  0.34142408  1
  Cu+  Cu104  1  0.07954656  0.41773915  0.33841551  1
  Cu+  Cu105  1  0.08306481  0.91845065  0.34981146  1
  Cu+  Cu106  1  0.58329245  0.41895042  0.34088051  1
  Cu+  Cu107  1  0.58301559  0.91481736  0.34267818  1
  Cu+  Cu108  1  0.00138451  0.00081837  0.11663162  1
  Cu+  Cu109  1  0.00185209  0.49895978  0.11059646  1
  Cu+  Cu110  1  0.50082839  0.00326490  0.11083572  1
  Cu+  Cu111  1  0.49748591  0.49759381  0.11018687  1
  Cu+  Cu112  1  0.33657617  0.17454619  0.44325343  1
  Cu+  Cu113  1  0.33447762  0.66365478  0.44766493  1
  Cu+  Cu114  1  0.82963030  0.16693370  0.44983197  1
  Cu+  Cu115  1  0.82774297  0.66349720  0.45192644  1
  Cu+  Cu116  1  0.16887744  0.33294343  0.77531415  1
  Cu+  Cu117  1  0.16991312  0.83861521  0.78421183  1
  Cu+  Cu118  1  0.66357353  0.33462772  0.78161212  1
  Cu+  Cu119  1  0.66505939  0.83578028  0.78562414  1
  Te2-  Te120  1  -0.00281268  -0.00127561  0.39227948  1
  Te2-  Te121  1  -0.00304379  0.49822350  0.38412895  1
  Te2-  Te122  1  0.50204711  -0.00083522  0.38534741  1
  Te2-  Te123  1  0.49926784  0.49966880  0.38394961  1
  Te2-  Te124  1  0.33316771  0.16780705  0.71632361  1
  Te2-  Te125  1  0.33792727  0.67128408  0.72176629  1
  Te2-  Te126  1  0.83283497  0.16568028  0.72333676  1
  Te2-  Te127  1  0.83131696  0.66386277  0.72470608  1
  Te2-  Te128  1  0.16895655  0.33531275  0.04990472  1
  Te2-  Te129  1  0.16355014  0.83083739  0.05936902  1
  Te2-  Te130  1  0.66343285  0.32997071  0.05692289  1
  Te2-  Te131  1  0.67141627  0.83170406  0.05989692  1
  Te2-  Te132  1  0.49746567  0.24940181  0.88143242  1
  Te2-  Te133  1  0.49932288  0.74980276  0.88640305  1
  Te2-  Te134  1  0.99438551  0.24599772  0.88013128  1
  Te2-  Te135  1  0.99445883  0.74195918  0.88366205  1
  Te2-  Te136  1  0.24881145  0.00243143  0.88664941  1
  Te2-  Te137  1  0.25701209  0.50834553  0.87867761  1
  Te2-  Te138  1  0.75641555  0.00333164  0.88648607  1
  Te2-  Te139  1  0.75433798  0.50288418  0.88371683  1
  Te2-  Te140  1  0.25364969  0.24796928  0.87993883  1
  Te2-  Te141  1  0.25800354  0.74973280  0.88673179  1
  Te2-  Te142  1  0.75335843  0.24352291  0.88565567  1
  Te2-  Te143  1  0.75254859  0.74216053  0.88498540  1
  Te2-  Te144  1  0.32901330  0.41738285  0.21230482  1
  Te2-  Te145  1  0.32234311  0.90807458  0.21757342  1
  Te2-  Te146  1  0.81773204  0.40855500  0.21643564  1
  Te2-  Te147  1  0.82720841  0.91088555  0.21859716  1
  Te2-  Te148  1  0.08500540  0.17013626  0.21914697  1
  Te2-  Te149  1  0.07937076  0.67135112  0.21512292  1
  Te2-  Te150  1  0.58073605  0.16694508  0.21377279  1
  Te2-  Te151  1  0.59188749  0.67498208  0.21560179  1
  Te2-  Te152  1  0.08109390  0.41314258  0.21246568  1
  Te2-  Te153  1  0.08443052  0.91068717  0.22142847  1
  Te2-  Te154  1  0.58368175  0.41004564  0.21509127  1
  Te2-  Te155  1  0.58721884  0.90995649  0.21627218  1
  Te2-  Te156  1  0.15541183  0.07712742  0.54815710  1
  Te2-  Te157  1  0.16336956  0.58661653  0.55026742  1
  Te2-  Te158  1  0.66174322  0.08224386  0.55140496  1
  Te2-  Te159  1  0.66315360  0.58382136  0.55054549  1
  Te2-  Te160  1  0.41544006  0.33498727  0.54437595  1
  Te2-  Te161  1  0.42518037  0.84552614  0.55129976  1
  Te2-  Te162  1  0.91875475  0.33840466  0.55114790  1
  Te2-  Te163  1  0.91835732  0.84239790  0.55496835  1
  Te2-  Te164  1  0.42154972  0.08090105  0.54889211  1
  Te2-  Te165  1  0.41784255  0.58338229  0.54812376  1
  Te2-  Te166  1  0.91653503  0.07720904  0.55131491  1
  Te2-  Te167  1  0.91904795  0.58262256  0.55085418  1
  Te2-  Te168  1  0.00253115  0.00326408  0.88373768  1
  Te2-  Te169  1  0.00164307  0.50027382  0.88202798  1
  Te2-  Te170  1  0.50145164  0.00227840  0.88489691  1
  Te2-  Te171  1  0.49912162  0.49965941  0.88059994  1
  Te2-  Te172  1  0.33463610  0.16822117  0.21495196  1
  Te2-  Te173  1  0.33160609  0.66492969  0.21426116  1
  Te2-  Te174  1  0.83323087  0.16712960  0.21533883  1
  Te2-  Te175  1  0.83265097  0.66579064  0.21487447  1
  Te2-  Te176  1  0.16640398  0.33508151  0.54750039  1
  Te2-  Te177  1  0.16696163  0.83464971  0.54911764  1
  Te2-  Te178  1  0.66409147  0.33257699  0.54857955  1
  Te2-  Te179  1  0.66618134  0.83486755  0.54990953  1
  Te2-  Te180  1  0.32964604  0.41530836  0.70759926  1
  Te2-  Te181  1  0.32866238  0.91627890  0.71493014  1
  Te2-  Te182  1  0.82807553  0.41576380  0.71136920  1
  Te2-  Te183  1  0.82653039  0.91489169  0.71343663  1
  Te2-  Te184  1  0.08580740  0.17080059  0.71002981  1
  Te2-  Te185  1  0.08643785  0.67509348  0.71150510  1
  Te2-  Te186  1  0.58546882  0.17297957  0.71282638  1
  Te2-  Te187  1  0.58593011  0.67424417  0.71248952  1
  Te2-  Te188  1  0.08913200  0.41583673  0.70645185  1
  Te2-  Te189  1  0.08849647  0.91520802  0.71261537  1
  Te2-  Te190  1  0.58562681  0.41541064  0.71033018  1
  Te2-  Te191  1  0.58669286  0.91687257  0.71547050  1
  Te2-  Te192  1  0.16013180  0.08260467  0.04558771  1
  Te2-  Te193  1  0.16158529  0.57872058  0.04206007  1
  Te2-  Te194  1  0.66091536  0.07874143  0.04056044  1
  Te2-  Te195  1  0.66099595  0.57962254  0.04222428  1
  Te2-  Te196  1  0.41849692  0.33723311  0.04265622  1
  Te2-  Te197  1  0.42313072  0.84256257  0.04088961  1
  Te2-  Te198  1  0.92336071  0.33972680  0.04161521  1
  Te2-  Te199  1  0.92215431  0.83986445  0.04602467  1
  Te2-  Te200  1  0.42022559  0.08076692  0.04129913  1
  Te2-  Te201  1  0.41938419  0.57949090  0.04156854  1
  Te2-  Te202  1  0.92533133  0.08399674  0.04501672  1
  Te2-  Te203  1  0.92209224  0.58017641  0.04193586  1
  Te2-  Te204  1  0.49563944  0.24765783  0.37521591  1
  Te2-  Te205  1  0.49456078  0.74580600  0.37861976  1
  Te2-  Te206  1  0.99168833  0.24823194  0.37750175  1
  Te2-  Te207  1  0.99317883  0.74549082  0.37974592  1
  Te2-  Te208  1  0.25637249  0.00854955  0.37430002  1
  Te2-  Te209  1  0.24968465  0.50454714  0.37669164  1
  Te2-  Te210  1  0.75245699  0.00607028  0.37921698  1
  Te2-  Te211  1  0.75180760  0.50523349  0.38009792  1
  Te2-  Te212  1  0.25418895  0.25083810  0.37366002  1
  Te2-  Te213  1  0.24932526  0.74203123  0.37740660  1
  Te2-  Te214  1  0.75118670  0.24640909  0.37895927  1
  Te2-  Te215  1  0.75240052  0.74725645  0.38011575  1
