# generated using pymatgen
data_Ti(CuTe)4
_symmetry_space_group_name_H-M   'P 1'
_cell_length_a   16.86544235
_cell_length_b   16.86409808
_cell_length_c   20.67228938
_cell_angle_alpha   89.96589610
_cell_angle_beta   90.00321216
_cell_angle_gamma   120.00683782
_symmetry_Int_Tables_number   1
_chemical_formula_structural   Ti(CuTe)4
_chemical_formula_sum   'Ti24 Cu96 Te96'
_cell_volume   5091.55033224
_cell_formula_units_Z   24
loop_
 _symmetry_equiv_pos_site_id
 _symmetry_equiv_pos_as_xyz
  1  'x, y, z'
loop_
 _atom_type_symbol
 _atom_type_oxidation_number
  Ti4+  4.0
  Cu+  1.0
  Te2-  -2.0
loop_
 _atom_site_type_symbol
 _atom_site_label
 _atom_site_symmetry_multiplicity
 _atom_site_fract_x
 _atom_site_fract_y
 _atom_site_fract_z
 _atom_site_occupancy
  Ti4+  Ti0  1  0.00127454  0.00300776  0.26347296  1
  Ti4+  Ti1  1  -0.00209888  0.50008240  0.25939203  1
  Ti4+  Ti2  1  0.50047173  -0.00136680  0.25595928  1
  Ti4+  Ti3  1  0.49665408  0.49941322  0.25613680  1
  Ti4+  Ti4  1  0.33530820  0.16785701  0.58901528  1
  Ti4+  Ti5  1  0.33683785  0.66549190  0.59102294  1
  Ti4+  Ti6  1  0.83575981  0.16791589  0.59302540  1
  Ti4+  Ti7  1  0.83538047  0.66607780  0.58958551  1
  Ti4+  Ti8  1  0.16285484  0.33317110  0.92589488  1
  Ti4+  Ti9  1  0.16581054  0.83267526  0.92186220  1
  Ti4+  Ti10  1  0.66547231  0.33440870  0.92118740  1
  Ti4+  Ti11  1  0.66689642  0.83322813  0.92624862  1
  Ti4+  Ti12  1  -0.00070224  -0.00041327  0.75649404  1
  Ti4+  Ti13  1  0.00184587  0.50035896  0.75295603  1
  Ti4+  Ti14  1  0.49961296  0.00047319  0.75376348  1
  Ti4+  Ti15  1  0.50095964  0.49909844  0.75609070  1
  Ti4+  Ti16  1  0.32954582  0.16689403  0.09062818  1
  Ti4+  Ti17  1  0.33504951  0.66739903  0.08740369  1
  Ti4+  Ti18  1  0.83178096  0.16658570  0.09073152  1
  Ti4+  Ti19  1  0.83341017  0.66537017  0.09084465  1
  Ti4+  Ti20  1  0.16793415  0.33416786  0.42200795  1
  Ti4+  Ti21  1  0.16529623  0.83232477  0.42058489  1
  Ti4+  Ti22  1  0.66839966  0.33374230  0.42297547  1
  Ti4+  Ti23  1  0.66655126  0.83293375  0.42205298  1
  Cu+  Cu24  1  0.90790045  0.32238946  0.81201807  1
  Cu+  Cu25  1  0.18949180  0.59407655  0.80577879  1
  Cu+  Cu26  1  0.07902138  0.92161786  0.48095068  1
  Cu+  Cu27  1  0.08064826  0.16043200  0.48475584  1
  Cu+  Cu28  1  0.40202083  0.09564518  0.80521914  1
  Cu+  Cu29  1  0.23137227  0.26230810  0.14291788  1
  Cu+  Cu30  1  0.35868910  0.42909706  0.47140906  1
  Cu+  Cu31  1  0.52517914  0.76157531  0.14048342  1
  Cu+  Cu32  1  0.84666446  0.92341918  0.48012196  1
  Cu+  Cu33  1  0.90701691  0.59399780  0.80558945  1
  Cu+  Cu34  1  0.90441372  0.08815992  0.81406306  1
  Cu+  Cu35  1  0.86170293  0.42922470  0.47535853  1
  Cu+  Cu36  1  0.16337959  0.08787774  0.17607092  1
  Cu+  Cu37  1  0.16240533  0.58202912  0.17182941  1
  Cu+  Cu38  1  0.66181514  0.08148650  0.17035253  1
  Cu+  Cu39  1  0.66316106  0.58032230  0.17101155  1
  Cu+  Cu40  1  0.40858132  0.33429952  0.17122224  1
  Cu+  Cu41  1  0.42354823  0.83598477  0.16850805  1
  Cu+  Cu42  1  0.91428866  0.33603904  0.17406869  1
  Cu+  Cu43  1  0.91850354  0.83445466  0.17722969  1
  Cu+  Cu44  1  0.41736204  0.08043936  0.17132436  1
  Cu+  Cu45  1  0.42094960  0.58498728  0.16858639  1
  Cu+  Cu46  1  0.91750009  0.08277864  0.17601000  1
  Cu+  Cu47  1  0.91561011  0.57908679  0.17345767  1
  Cu+  Cu48  1  0.49706027  0.24689351  0.50331427  1
  Cu+  Cu49  1  0.49629829  0.74611108  0.50352606  1
  Cu+  Cu50  1  0.99395232  0.24662177  0.50422052  1
  Cu+  Cu51  1  0.99492178  0.74729633  0.50100224  1
  Cu+  Cu52  1  0.25360693  0.00179390  0.50190672  1
  Cu+  Cu53  1  0.25881290  0.50349338  0.50350428  1
  Cu+  Cu54  1  0.75279078  0.00150554  0.50506629  1
  Cu+  Cu55  1  0.75663640  0.50126606  0.50394559  1
  Cu+  Cu56  1  0.25750520  0.25231234  0.50025164  1
  Cu+  Cu57  1  0.25152068  0.74701591  0.50433286  1
  Cu+  Cu58  1  0.75727301  0.25533421  0.50618032  1
  Cu+  Cu59  1  0.75177267  0.74888544  0.50256790  1
  Cu+  Cu60  1  0.33048401  0.41352543  0.83997968  1
  Cu+  Cu61  1  0.33053968  0.91998900  0.83417993  1
  Cu+  Cu62  1  0.82671853  0.41654034  0.83263375  1
  Cu+  Cu63  1  0.82869266  0.91549938  0.83926382  1
  Cu+  Cu64  1  0.07988079  0.16775895  0.83931288  1
  Cu+  Cu65  1  0.08497145  0.67010126  0.83270712  1
  Cu+  Cu66  1  0.57858859  0.16851837  0.83345118  1
  Cu+  Cu67  1  0.58430023  0.66771025  0.84049237  1
  Cu+  Cu68  1  0.08592358  0.41475361  0.83437635  1
  Cu+  Cu69  1  0.08413295  0.91281579  0.83586082  1
  Cu+  Cu70  1  0.58597971  0.41507290  0.83479474  1
  Cu+  Cu71  1  0.58427810  0.91344110  0.83793590  1
  Cu+  Cu72  1  0.16770568  0.08329319  0.67523001  1
  Cu+  Cu73  1  0.17481666  0.58470334  0.67684668  1
  Cu+  Cu74  1  0.66952695  0.08273212  0.67406653  1
  Cu+  Cu75  1  0.67061370  0.58457505  0.67276459  1
  Cu+  Cu76  1  0.41726484  0.33354778  0.67351229  1
  Cu+  Cu77  1  0.41807692  0.83102674  0.67319859  1
  Cu+  Cu78  1  0.91816373  0.33085613  0.68169598  1
  Cu+  Cu79  1  0.91737950  0.83276086  0.67682657  1
  Cu+  Cu80  1  0.41437609  0.08523137  0.67632150  1
  Cu+  Cu81  1  0.41720382  0.58224102  0.67591612  1
  Cu+  Cu82  1  0.91656974  0.08401508  0.68433773  1
  Cu+  Cu83  1  0.91758479  0.58524431  0.67697076  1
  Cu+  Cu84  1  -0.00299732  0.24961677  0.01253415  1
  Cu+  Cu85  1  0.00124231  0.74854697  0.00834213  1
  Cu+  Cu86  1  0.49947792  0.25074191  0.00670606  1
  Cu+  Cu87  1  0.50514242  0.75122366  0.01212339  1
  Cu+  Cu88  1  0.24777328  0.49928970  0.00901416  1
  Cu+  Cu89  1  0.24688624  0.99824252  0.00828566  1
  Cu+  Cu90  1  0.75048976  0.49817308  0.00693987  1
  Cu+  Cu91  1  0.75070684  0.99937324  0.01146515  1
  Cu+  Cu92  1  0.24213501  0.24975056  0.01461299  1
  Cu+  Cu93  1  0.24827473  0.75030806  0.00525896  1
  Cu+  Cu94  1  0.74756067  0.25124723  0.00565542  1
  Cu+  Cu95  1  0.75159373  0.75147168  0.01005912  1
  Cu+  Cu96  1  0.33559418  0.42009319  0.34357965  1
  Cu+  Cu97  1  0.33708739  0.91542608  0.33752111  1
  Cu+  Cu98  1  0.83833857  0.41933403  0.34688260  1
  Cu+  Cu99  1  0.83631389  0.91854226  0.34929851  1
  Cu+  Cu100  1  0.08238031  0.16724315  0.35181948  1
  Cu+  Cu101  1  0.08055260  0.66440443  0.34067167  1
  Cu+  Cu102  1  0.58183853  0.16234662  0.33986228  1
  Cu+  Cu103  1  0.58010203  0.66500996  0.34102943  1
  Cu+  Cu104  1  0.08034860  0.41738306  0.34162888  1
  Cu+  Cu105  1  0.08254694  0.91917745  0.34942425  1
  Cu+  Cu106  1  0.57928072  0.41533770  0.33909370  1
  Cu+  Cu107  1  0.58075405  0.91630605  0.34083773  1
  Cu+  Cu108  1  -0.00293783  -0.00443366  0.12202131  1
  Cu+  Cu109  1  0.00023335  0.49929887  0.11688691  1
  Cu+  Cu110  1  0.49718839  0.00080839  0.11150088  1
  Cu+  Cu111  1  0.50196473  0.49657537  0.11266386  1
  Cu+  Cu112  1  0.33631167  0.16459446  0.44361319  1
  Cu+  Cu113  1  0.33221059  0.66867324  0.44741482  1
  Cu+  Cu114  1  0.82424991  0.16303822  0.44945994  1
  Cu+  Cu115  1  0.82619925  0.66138468  0.44508135  1
  Cu+  Cu116  1  0.17116401  0.33085880  0.78252420  1
  Cu+  Cu117  1  0.16873733  0.83388378  0.77589884  1
  Cu+  Cu118  1  0.66396870  0.33039931  0.77438158  1
  Cu+  Cu119  1  0.66384835  0.82885266  0.78300906  1
  Te2-  Te120  1  0.00091362  0.00196454  0.39724308  1
  Te2-  Te121  1  0.00415612  0.50291276  0.39066974  1
  Te2-  Te122  1  0.49946945  -0.00120375  0.38546047  1
  Te2-  Te123  1  0.50239267  0.50128923  0.38658005  1
  Te2-  Te124  1  0.33225322  0.16932976  0.71932483  1
  Te2-  Te125  1  0.33969323  0.66844188  0.72201839  1
  Te2-  Te126  1  0.83126220  0.16541983  0.72507833  1
  Te2-  Te127  1  0.83397477  0.66775993  0.71988192  1
  Te2-  Te128  1  0.16170971  0.33600982  0.05641375  1
  Te2-  Te129  1  0.16674722  0.83281699  0.05053137  1
  Te2-  Te130  1  0.66452192  0.33294413  0.04976070  1
  Te2-  Te131  1  0.67132159  0.83492270  0.05671817  1
  Te2-  Te132  1  0.49119344  0.24882896  0.88064993  1
  Te2-  Te133  1  0.49563015  0.74712110  0.88468947  1
  Te2-  Te134  1  0.98702916  0.24573186  0.88544557  1
  Te2-  Te135  1  0.99175156  0.74606825  0.88176239  1
  Te2-  Te136  1  0.24993813  0.00744746  0.88210358  1
  Te2-  Te137  1  0.25347579  0.50591237  0.88296711  1
  Te2-  Te138  1  0.75024984  0.00742647  0.88547804  1
  Te2-  Te139  1  0.75238354  0.50897876  0.88089667  1
  Te2-  Te140  1  0.24654001  0.24592388  0.88669259  1
  Te2-  Te141  1  0.25533282  0.74990850  0.87881378  1
  Te2-  Te142  1  0.74811550  0.24472051  0.87920806  1
  Te2-  Te143  1  0.75304120  0.74851327  0.88401401  1
  Te2-  Te144  1  0.32282347  0.41827310  0.21642515  1
  Te2-  Te145  1  0.32973433  0.91093258  0.21177972  1
  Te2-  Te146  1  0.82523469  0.41319499  0.22002104  1
  Te2-  Te147  1  0.83135870  0.91569964  0.22180455  1
  Te2-  Te148  1  0.08329370  0.17635447  0.22341894  1
  Te2-  Te149  1  0.08408367  0.67132195  0.21536665  1
  Te2-  Te150  1  0.58491458  0.17111193  0.21446501  1
  Te2-  Te151  1  0.58896990  0.67336149  0.21560124  1
  Te2-  Te152  1  0.08331140  0.41425771  0.21602775  1
  Te2-  Te153  1  0.08714397  0.91932815  0.22146171  1
  Te2-  Te154  1  0.57882820  0.41157386  0.21314103  1
  Te2-  Te155  1  0.59163647  0.91489055  0.21532867  1
  Te2-  Te156  1  0.16022822  0.08016308  0.54914586  1
  Te2-  Te157  1  0.16586149  0.57852579  0.54936844  1
  Te2-  Te158  1  0.66721539  0.08423740  0.54795997  1
  Te2-  Te159  1  0.66588584  0.58098140  0.54653877  1
  Te2-  Te160  1  0.42453316  0.34163755  0.54783214  1
  Te2-  Te161  1  0.41989583  0.83669693  0.54766407  1
  Te2-  Te162  1  0.92611368  0.34195033  0.55381188  1
  Te2-  Te163  1  0.92178403  0.84241016  0.55088537  1
  Te2-  Te164  1  0.41900523  0.08033359  0.54908831  1
  Te2-  Te165  1  0.42668044  0.58047315  0.55014865  1
  Te2-  Te166  1  0.92223100  0.07868689  0.55554027  1
  Te2-  Te167  1  0.92614991  0.58306560  0.54978885  1
  Te2-  Te168  1  -0.00083313  -0.00262159  0.88350526  1
  Te2-  Te169  1  -0.00175032  0.49923126  0.88114019  1
  Te2-  Te170  1  0.49949236  -0.00022754  0.88078400  1
  Te2-  Te171  1  0.50020882  0.49777301  0.88268592  1
  Te2-  Te172  1  0.33431294  0.16587829  0.21755959  1
  Te2-  Te173  1  0.33255014  0.66667358  0.21432711  1
  Te2-  Te174  1  0.83023582  0.16653258  0.21717245  1
  Te2-  Te175  1  0.83125908  0.66384989  0.21752571  1
  Te2-  Te176  1  0.16765340  0.33262024  0.54998949  1
  Te2-  Te177  1  0.16663315  0.83190065  0.54821263  1
  Te2-  Te178  1  0.66575341  0.33276373  0.55019366  1
  Te2-  Te179  1  0.66539670  0.83141689  0.54967153  1
  Te2-  Te180  1  0.32833895  0.41290536  0.71252174  1
  Te2-  Te181  1  0.32796799  0.91223750  0.70691499  1
  Te2-  Te182  1  0.82668641  0.41295110  0.70561078  1
  Te2-  Te183  1  0.82529039  0.91053603  0.71181403  1
  Te2-  Te184  1  0.08927320  0.17370988  0.71198813  1
  Te2-  Te185  1  0.09044508  0.67379753  0.70551223  1
  Te2-  Te186  1  0.58765084  0.17225039  0.70616753  1
  Te2-  Te187  1  0.58771160  0.67106154  0.71243552  1
  Te2-  Te188  1  0.09082686  0.41287307  0.70853271  1
  Te2-  Te189  1  0.08686185  0.91423945  0.71061764  1
  Te2-  Te190  1  0.58739481  0.41444818  0.70867597  1
  Te2-  Te191  1  0.58702826  0.91378523  0.71149584  1
  Te2-  Te192  1  0.15623598  0.07720442  0.04787654  1
  Te2-  Te193  1  0.16125719  0.58203587  0.04484589  1
  Te2-  Te194  1  0.66072874  0.08128297  0.04404006  1
  Te2-  Te195  1  0.66244890  0.58035019  0.04426261  1
  Te2-  Te196  1  0.41665711  0.33811774  0.04323912  1
  Te2-  Te197  1  0.41905334  0.83942760  0.04110027  1
  Te2-  Te198  1  0.91579816  0.33900071  0.04656183  1
  Te2-  Te199  1  0.92101282  0.83792361  0.04877683  1
  Te2-  Te200  1  0.41639909  0.08199590  0.04456476  1
  Te2-  Te201  1  0.41881568  0.57765635  0.04218749  1
  Te2-  Te202  1  0.91982358  0.08025197  0.04926680  1
  Te2-  Te203  1  0.91900130  0.57909597  0.04625748  1
  Te2-  Te204  1  0.49658114  0.24663543  0.37709710  1
  Te2-  Te205  1  0.49373758  0.74709335  0.37784994  1
  Te2-  Te206  1  0.99150589  0.24884716  0.37901608  1
  Te2-  Te207  1  0.99092063  0.74492531  0.37527944  1
  Te2-  Te208  1  0.25679309  0.00525831  0.37488108  1
  Te2-  Te209  1  0.25083436  0.50685087  0.37681805  1
  Te2-  Te210  1  0.75103652  0.00641843  0.37758710  1
  Te2-  Te211  1  0.74988314  0.50476726  0.37580112  1
  Te2-  Te212  1  0.25620812  0.24767967  0.37392616  1
  Te2-  Te213  1  0.25116751  0.74660442  0.37691851  1
  Te2-  Te214  1  0.75201591  0.24569266  0.37773995  1
  Te2-  Te215  1  0.75096381  0.74461364  0.37544402  1
