# generated using pymatgen
data_Ti(CuTe)4
_symmetry_space_group_name_H-M   'P 1'
_cell_length_a   16.88766162
_cell_length_b   16.88846471
_cell_length_c   20.70797012
_cell_angle_alpha   90.01993732
_cell_angle_beta   89.96637731
_cell_angle_gamma   119.98951642
_symmetry_Int_Tables_number   1
_chemical_formula_structural   Ti(CuTe)4
_chemical_formula_sum   'Ti24 Cu96 Te96'
_cell_volume   5115.32985518
_cell_formula_units_Z   24
loop_
 _symmetry_equiv_pos_site_id
 _symmetry_equiv_pos_as_xyz
  1  'x, y, z'
loop_
 _atom_type_symbol
 _atom_type_oxidation_number
  Ti4+  4.0
  Cu+  1.0
  Te2-  -2.0
loop_
 _atom_site_type_symbol
 _atom_site_label
 _atom_site_symmetry_multiplicity
 _atom_site_fract_x
 _atom_site_fract_y
 _atom_site_fract_z
 _atom_site_occupancy
  Ti4+  Ti0  1  -0.00045613  0.00330747  0.25560564  1
  Ti4+  Ti1  1  0.00032555  0.50302688  0.26116575  1
  Ti4+  Ti2  1  0.49691193  -0.00095108  0.26108026  1
  Ti4+  Ti3  1  0.50081978  0.49895988  0.25340970  1
  Ti4+  Ti4  1  0.33508259  0.16539431  0.58983552  1
  Ti4+  Ti5  1  0.32841687  0.66382952  0.59283066  1
  Ti4+  Ti6  1  0.83355283  0.16663629  0.59106094  1
  Ti4+  Ti7  1  0.83295210  0.66965761  0.58865019  1
  Ti4+  Ti8  1  0.16733469  0.33260416  0.92444891  1
  Ti4+  Ti9  1  0.16871162  0.83163656  0.92579236  1
  Ti4+  Ti10  1  0.66935225  0.33243706  0.92717090  1
  Ti4+  Ti11  1  0.66798532  0.83534263  0.92183272  1
  Ti4+  Ti12  1  0.00011387  -0.00029042  0.75480444  1
  Ti4+  Ti13  1  -0.00004850  0.50050654  0.75729523  1
  Ti4+  Ti14  1  0.50116375  -0.00028175  0.75562561  1
  Ti4+  Ti15  1  0.49901013  0.49886149  0.75453625  1
  Ti4+  Ti16  1  0.33367459  0.16790381  0.08625694  1
  Ti4+  Ti17  1  0.33299464  0.66814541  0.09121160  1
  Ti4+  Ti18  1  0.83403790  0.16588931  0.09088265  1
  Ti4+  Ti19  1  0.83321955  0.66572716  0.08693678  1
  Ti4+  Ti20  1  0.16608495  0.33502296  0.42201061  1
  Ti4+  Ti21  1  0.16537493  0.83384820  0.42042955  1
  Ti4+  Ti22  1  0.66414835  0.33183108  0.42179309  1
  Ti4+  Ti23  1  0.66766788  0.83440601  0.42154329  1
  Cu+  Cu24  1  0.07303886  0.65428185  0.48054374  1
  Cu+  Cu25  1  0.51379397  0.25227750  0.14340144  1
  Cu+  Cu26  1  0.18363393  0.58724581  0.81277238  1
  Cu+  Cu27  1  0.41315910  0.81824048  0.81084921  1
  Cu+  Cu28  1  0.06788345  0.42276941  0.47533016  1
  Cu+  Cu29  1  0.85927033  0.93075673  0.47124099  1
  Cu+  Cu30  1  0.69098029  0.09649664  0.80754487  1
  Cu+  Cu31  1  0.57666772  0.14789414  0.47819478  1
  Cu+  Cu32  1  0.23641443  0.76326016  0.14423829  1
  Cu+  Cu33  1  0.23953050  0.26128239  0.13920731  1
  Cu+  Cu34  1  0.34380944  0.91757493  0.48043354  1
  Cu+  Cu35  1  0.74655897  0.48351973  0.14333775  1
  Cu+  Cu36  1  0.16225057  0.08752933  0.16788149  1
  Cu+  Cu37  1  0.16540727  0.58905300  0.17498924  1
  Cu+  Cu38  1  0.66502051  0.08324107  0.17431552  1
  Cu+  Cu39  1  0.66383018  0.57801959  0.16604320  1
  Cu+  Cu40  1  0.41862730  0.33773447  0.16475947  1
  Cu+  Cu41  1  0.41025517  0.83489151  0.17434917  1
  Cu+  Cu42  1  0.92095866  0.33513029  0.17408881  1
  Cu+  Cu43  1  0.91596451  0.83724120  0.16967381  1
  Cu+  Cu44  1  0.41952562  0.08071981  0.17188175  1
  Cu+  Cu45  1  0.41940376  0.58252418  0.16937130  1
  Cu+  Cu46  1  0.91718106  0.08077652  0.17056901  1
  Cu+  Cu47  1  0.91875530  0.58143380  0.17233171  1
  Cu+  Cu48  1  0.49618066  0.24313279  0.50275162  1
  Cu+  Cu49  1  0.49659000  0.74737225  0.50494905  1
  Cu+  Cu50  1  0.99617146  0.25179714  0.50405338  1
  Cu+  Cu51  1  0.99078569  0.74589564  0.50068937  1
  Cu+  Cu52  1  0.25597744  0.00482907  0.50157590  1
  Cu+  Cu53  1  0.24276562  0.50042238  0.50398815  1
  Cu+  Cu54  1  0.75548414  0.00205843  0.50330165  1
  Cu+  Cu55  1  0.74920370  0.50335595  0.50276965  1
  Cu+  Cu56  1  0.25251151  0.24902181  0.50429115  1
  Cu+  Cu57  1  0.24920341  0.74323486  0.50385250  1
  Cu+  Cu58  1  0.74842883  0.24548396  0.50447567  1
  Cu+  Cu59  1  0.75598295  0.75522111  0.50226059  1
  Cu+  Cu60  1  0.33041137  0.41297462  0.83699697  1
  Cu+  Cu61  1  0.33017973  0.90907296  0.83809422  1
  Cu+  Cu62  1  0.83091962  0.41540095  0.83986467  1
  Cu+  Cu63  1  0.83114428  0.91770187  0.83546235  1
  Cu+  Cu64  1  0.08491628  0.16813878  0.83808190  1
  Cu+  Cu65  1  0.09058165  0.66882531  0.83853143  1
  Cu+  Cu66  1  0.59130061  0.17036423  0.83909102  1
  Cu+  Cu67  1  0.58377077  0.66827972  0.83518491  1
  Cu+  Cu68  1  0.08690489  0.41492830  0.83931719  1
  Cu+  Cu69  1  0.08516370  0.91520888  0.83910566  1
  Cu+  Cu70  1  0.58552712  0.41538773  0.84006682  1
  Cu+  Cu71  1  0.58922805  0.91725249  0.83507853  1
  Cu+  Cu72  1  0.17115903  0.08410483  0.67320698  1
  Cu+  Cu73  1  0.16567058  0.58408611  0.68250996  1
  Cu+  Cu74  1  0.66928668  0.08473806  0.67900132  1
  Cu+  Cu75  1  0.66798308  0.58464839  0.67156705  1
  Cu+  Cu76  1  0.41725979  0.33021602  0.67317303  1
  Cu+  Cu77  1  0.41196552  0.82991800  0.68129015  1
  Cu+  Cu78  1  0.91348059  0.33259433  0.67727936  1
  Cu+  Cu79  1  0.91613050  0.83249293  0.67333912  1
  Cu+  Cu80  1  0.41695272  0.08483572  0.67658574  1
  Cu+  Cu81  1  0.41146771  0.58055424  0.67486498  1
  Cu+  Cu82  1  0.91700193  0.08491706  0.67474684  1
  Cu+  Cu83  1  0.91330398  0.58559917  0.67553755  1
  Cu+  Cu84  1  0.00278104  0.24937802  0.00853844  1
  Cu+  Cu85  1  0.00254189  0.74953079  0.00825098  1
  Cu+  Cu86  1  0.50490027  0.25057994  0.01277201  1
  Cu+  Cu87  1  0.50370998  0.75429246  0.00750149  1
  Cu+  Cu88  1  0.24909467  0.49867758  0.00966523  1
  Cu+  Cu89  1  0.25048340  0.99688024  0.00807153  1
  Cu+  Cu90  1  0.74931384  0.49584370  0.01404549  1
  Cu+  Cu91  1  0.74853400  0.99877405  0.00792897  1
  Cu+  Cu92  1  0.24826343  0.25110985  0.01022674  1
  Cu+  Cu93  1  0.24875826  0.75123883  0.01586524  1
  Cu+  Cu94  1  0.75160880  0.24984346  0.01130961  1
  Cu+  Cu95  1  0.74949012  0.75271599  0.00391560  1
  Cu+  Cu96  1  0.33607480  0.41813644  0.33921639  1
  Cu+  Cu97  1  0.33437367  0.91889118  0.34917027  1
  Cu+  Cu98  1  0.83355452  0.41778246  0.34399260  1
  Cu+  Cu99  1  0.83709537  0.92034174  0.34357550  1
  Cu+  Cu100  1  0.08284162  0.16889240  0.33994858  1
  Cu+  Cu101  1  0.08138794  0.66630039  0.34902900  1
  Cu+  Cu102  1  0.57900472  0.16249233  0.34908645  1
  Cu+  Cu103  1  0.58201107  0.66363018  0.33740611  1
  Cu+  Cu104  1  0.08304944  0.42266804  0.34726599  1
  Cu+  Cu105  1  0.08064159  0.92070664  0.33767659  1
  Cu+  Cu106  1  0.58080331  0.41588586  0.33894943  1
  Cu+  Cu107  1  0.58039258  0.91601800  0.34230691  1
  Cu+  Cu108  1  -0.00109921  -0.00335981  0.11134643  1
  Cu+  Cu109  1  0.00159610  0.49685732  0.11884587  1
  Cu+  Cu110  1  0.50426142  -0.00275693  0.11875486  1
  Cu+  Cu111  1  0.50130410  0.50465966  0.10789760  1
  Cu+  Cu112  1  0.33059998  0.16976756  0.44576725  1
  Cu+  Cu113  1  0.33779849  0.66347319  0.44884277  1
  Cu+  Cu114  1  0.83289186  0.16600819  0.44737324  1
  Cu+  Cu115  1  0.82478842  0.66315746  0.44439816  1
  Cu+  Cu116  1  0.16591857  0.32989315  0.78125872  1
  Cu+  Cu117  1  0.16376913  0.83380764  0.78289154  1
  Cu+  Cu118  1  0.66637470  0.33619572  0.78395127  1
  Cu+  Cu119  1  0.66892003  0.82884278  0.77751702  1
  Te2-  Te120  1  0.00362416  0.00550788  0.38640856  1
  Te2-  Te121  1  -0.00390048  0.50103728  0.39316825  1
  Te2-  Te122  1  0.49956362  -0.00342814  0.39305991  1
  Te2-  Te123  1  0.50050881  0.49993244  0.38214521  1
  Te2-  Te124  1  0.33455099  0.16696129  0.71873729  1
  Te2-  Te125  1  0.33213720  0.66370920  0.72448935  1
  Te2-  Te126  1  0.83628829  0.16798139  0.72104187  1
  Te2-  Te127  1  0.83128861  0.66849242  0.71738050  1
  Te2-  Te128  1  0.16611144  0.33466863  0.05495542  1
  Te2-  Te129  1  0.16504344  0.83463014  0.05655092  1
  Te2-  Te130  1  0.66927311  0.33051260  0.05934515  1
  Te2-  Te131  1  0.66806785  0.83413007  0.05078438  1
  Te2-  Te132  1  0.49945177  0.24646701  0.88481655  1
  Te2-  Te133  1  0.49428063  0.74598111  0.88167298  1
  Te2-  Te134  1  0.99629626  0.24745773  0.88266323  1
  Te2-  Te135  1  0.99922328  0.74588797  0.88224415  1
  Te2-  Te136  1  0.25464914  0.00143472  0.88216867  1
  Te2-  Te137  1  0.25763260  0.50675307  0.88396722  1
  Te2-  Te138  1  0.75697299  0.00984345  0.88213643  1
  Te2-  Te139  1  0.75304096  0.50345845  0.88668757  1
  Te2-  Te140  1  0.25233115  0.24642661  0.88333744  1
  Te2-  Te141  1  0.25757257  0.74282357  0.88823484  1
  Te2-  Te142  1  0.75970084  0.24874534  0.88543611  1
  Te2-  Te143  1  0.75236721  0.74926163  0.87817129  1
  Te2-  Te144  1  0.32725732  0.41484183  0.21334376  1
  Te2-  Te145  1  0.32316356  0.91630686  0.22135469  1
  Te2-  Te146  1  0.82815000  0.41126065  0.21804759  1
  Te2-  Te147  1  0.82733416  0.91480381  0.21688140  1
  Te2-  Te148  1  0.08441873  0.17784254  0.21466804  1
  Te2-  Te149  1  0.08399472  0.67654546  0.22129974  1
  Te2-  Te150  1  0.58711833  0.17236812  0.22132506  1
  Te2-  Te151  1  0.58770470  0.66964888  0.21158027  1
  Te2-  Te152  1  0.08797558  0.42068973  0.22000956  1
  Te2-  Te153  1  0.08541619  0.91882522  0.21193695  1
  Te2-  Te154  1  0.58776648  0.40917547  0.21353674  1
  Te2-  Te155  1  0.58040822  0.91368364  0.21632458  1
  Te2-  Te156  1  0.16442932  0.07992678  0.54719922  1
  Te2-  Te157  1  0.15199465  0.57668516  0.55438398  1
  Te2-  Te158  1  0.66106940  0.07561889  0.55130837  1
  Te2-  Te159  1  0.66271753  0.58526333  0.54545925  1
  Te2-  Te160  1  0.42131172  0.33594673  0.54724013  1
  Te2-  Te161  1  0.41812289  0.83616695  0.55302729  1
  Te2-  Te162  1  0.91468546  0.33987413  0.55114511  1
  Te2-  Te163  1  0.92497756  0.84431431  0.54777928  1
  Te2-  Te164  1  0.42310791  0.07481413  0.55111766  1
  Te2-  Te165  1  0.41152629  0.57844730  0.54850157  1
  Te2-  Te166  1  0.92415031  0.08479331  0.54865180  1
  Te2-  Te167  1  0.91573464  0.57747481  0.54974534  1
  Te2-  Te168  1  -0.00025643  -0.00086033  0.88100983  1
  Te2-  Te169  1  0.00060826  0.49913285  0.88416398  1
  Te2-  Te170  1  0.50123713  -0.00060397  0.88294224  1
  Te2-  Te171  1  0.50012842  0.49994830  0.88079718  1
  Te2-  Te172  1  0.33288324  0.16773257  0.21367089  1
  Te2-  Te173  1  0.33526394  0.66575224  0.21789901  1
  Te2-  Te174  1  0.83407217  0.16606027  0.21719440  1
  Te2-  Te175  1  0.83250630  0.66751717  0.21384420  1
  Te2-  Te176  1  0.16620128  0.33134041  0.54889890  1
  Te2-  Te177  1  0.16372739  0.83237992  0.54775754  1
  Te2-  Te178  1  0.66599034  0.33401560  0.54859180  1
  Te2-  Te179  1  0.66538567  0.83267569  0.54845959  1
  Te2-  Te180  1  0.32703926  0.41062905  0.71050644  1
  Te2-  Te181  1  0.32613586  0.91531190  0.71203824  1
  Te2-  Te182  1  0.82734435  0.41590626  0.71380384  1
  Te2-  Te183  1  0.82865764  0.91494620  0.70918277  1
  Te2-  Te184  1  0.08740334  0.17099035  0.71081542  1
  Te2-  Te185  1  0.08309869  0.67358222  0.71195804  1
  Te2-  Te186  1  0.58670635  0.17383084  0.71224450  1
  Te2-  Te187  1  0.58283245  0.66970079  0.70837095  1
  Te2-  Te188  1  0.08390073  0.41121287  0.71201103  1
  Te2-  Te189  1  0.08602334  0.91428469  0.71150614  1
  Te2-  Te190  1  0.58689800  0.41521664  0.71190263  1
  Te2-  Te191  1  0.58596788  0.91138254  0.70811770  1
  Te2-  Te192  1  0.16078113  0.07849048  0.04114971  1
  Te2-  Te193  1  0.16002565  0.57892080  0.04738211  1
  Te2-  Te194  1  0.66180165  0.08049933  0.04734410  1
  Te2-  Te195  1  0.66162381  0.58247944  0.03949872  1
  Te2-  Te196  1  0.42149339  0.34114301  0.03843163  1
  Te2-  Te197  1  0.42123107  0.84058223  0.04660376  1
  Te2-  Te198  1  0.92175081  0.33792776  0.04730635  1
  Te2-  Te199  1  0.91877139  0.83706231  0.04249726  1
  Te2-  Te200  1  0.41984480  0.07831458  0.04539004  1
  Te2-  Te201  1  0.41933883  0.58408485  0.04338739  1
  Te2-  Te202  1  0.91862583  0.07969300  0.04468920  1
  Te2-  Te203  1  0.92234755  0.57999581  0.04548540  1
  Te2-  Te204  1  0.49111234  0.24740426  0.37634019  1
  Te2-  Te205  1  0.49555523  0.74612910  0.37783397  1
  Te2-  Te206  1  0.99334931  0.24901843  0.37691428  1
  Te2-  Te207  1  0.99200847  0.75101469  0.37490673  1
  Te2-  Te208  1  0.24974453  0.00756199  0.37556691  1
  Te2-  Te209  1  0.25559536  0.50746937  0.37690305  1
  Te2-  Te210  1  0.75114292  0.00688568  0.37638451  1
  Te2-  Te211  1  0.74974481  0.50408245  0.37654240  1
  Te2-  Te212  1  0.25188290  0.24947586  0.37697855  1
  Te2-  Te213  1  0.25406162  0.74601696  0.37730891  1
  Te2-  Te214  1  0.75297880  0.24692791  0.37759764  1
  Te2-  Te215  1  0.75160490  0.74750589  0.37469105  1
