# generated using pymatgen
data_Ti(CuTe)4
_symmetry_space_group_name_H-M   'P 1'
_cell_length_a   16.87216184
_cell_length_b   16.86892051
_cell_length_c   20.68450448
_cell_angle_alpha   89.98607229
_cell_angle_beta   89.98746670
_cell_angle_gamma   120.00039759
_symmetry_Int_Tables_number   1
_chemical_formula_structural   Ti(CuTe)4
_chemical_formula_sum   'Ti24 Cu96 Te96'
_cell_volume   5098.37752574
_cell_formula_units_Z   24
loop_
 _symmetry_equiv_pos_site_id
 _symmetry_equiv_pos_as_xyz
  1  'x, y, z'
loop_
 _atom_type_symbol
 _atom_type_oxidation_number
  Ti4+  4.0
  Cu+  1.0
  Te2-  -2.0
loop_
 _atom_site_type_symbol
 _atom_site_label
 _atom_site_symmetry_multiplicity
 _atom_site_fract_x
 _atom_site_fract_y
 _atom_site_fract_z
 _atom_site_occupancy
  Ti4+  Ti0  1  0.00315116  0.00143017  0.25916105  1
  Ti4+  Ti1  1  0.00264461  0.50388364  0.25882823  1
  Ti4+  Ti2  1  0.50442924  0.00474284  0.25677411  1
  Ti4+  Ti3  1  0.50195563  0.50460753  0.25725021  1
  Ti4+  Ti4  1  0.33424835  0.16204769  0.58954370  1
  Ti4+  Ti5  1  0.33075313  0.66201661  0.59203422  1
  Ti4+  Ti6  1  0.83366306  0.16389478  0.58897561  1
  Ti4+  Ti7  1  0.83010987  0.66383343  0.59145232  1
  Ti4+  Ti8  1  0.16413656  0.33460390  0.92180587  1
  Ti4+  Ti9  1  0.16380420  0.83209995  0.92526673  1
  Ti4+  Ti10  1  0.66486846  0.33203856  0.92716462  1
  Ti4+  Ti11  1  0.66635009  0.83512369  0.92490801  1
  Ti4+  Ti12  1  -0.00243507  -0.00057971  0.75598392  1
  Ti4+  Ti13  1  -0.00034983  0.49773577  0.75477386  1
  Ti4+  Ti14  1  0.49959133  -0.00259336  0.75674656  1
  Ti4+  Ti15  1  0.49793660  0.49779144  0.75545230  1
  Ti4+  Ti16  1  0.33285952  0.16769326  0.08792667  1
  Ti4+  Ti17  1  0.33486834  0.66678849  0.09076182  1
  Ti4+  Ti18  1  0.83087304  0.16662993  0.09092842  1
  Ti4+  Ti19  1  0.83454204  0.66776615  0.08855638  1
  Ti4+  Ti20  1  0.16665561  0.33561949  0.42170181  1
  Ti4+  Ti21  1  0.16842739  0.83547337  0.42162565  1
  Ti4+  Ti22  1  0.66612561  0.33142673  0.42184386  1
  Ti4+  Ti23  1  0.66797455  0.83214627  0.42230226  1
  Cu+  Cu24  1  0.74747988  0.26763886  0.14356808  1
  Cu+  Cu25  1  0.57033038  0.63998227  0.47514635  1
  Cu+  Cu26  1  0.07954113  0.15179304  0.47722447  1
  Cu+  Cu27  1  0.90141939  0.09677809  0.80629207  1
  Cu+  Cu28  1  0.41128276  0.59670631  0.80848571  1
  Cu+  Cu29  1  0.57147373  0.13850756  0.47339050  1
  Cu+  Cu30  1  0.02602431  0.76476865  0.14059376  1
  Cu+  Cu31  1  0.52882726  0.76712071  0.14115601  1
  Cu+  Cu32  1  0.85021703  0.91768735  0.47523055  1
  Cu+  Cu33  1  0.07100024  0.42860596  0.47471666  1
  Cu+  Cu34  1  0.18053936  0.59576999  0.81079349  1
  Cu+  Cu35  1  0.51796748  0.26510758  0.14271727  1
  Cu+  Cu36  1  0.16240144  0.08422389  0.17054924  1
  Cu+  Cu37  1  0.16375442  0.58098664  0.17302941  1
  Cu+  Cu38  1  0.66469201  0.08900116  0.16997116  1
  Cu+  Cu39  1  0.66311580  0.58594806  0.16925620  1
  Cu+  Cu40  1  0.41909267  0.33815291  0.17038137  1
  Cu+  Cu41  1  0.42428318  0.83628612  0.17227011  1
  Cu+  Cu42  1  0.91867630  0.33724321  0.17444884  1
  Cu+  Cu43  1  0.92259568  0.83622414  0.17186608  1
  Cu+  Cu44  1  0.42212166  0.08834681  0.16935209  1
  Cu+  Cu45  1  0.42520711  0.59043946  0.17164367  1
  Cu+  Cu46  1  0.91978598  0.08283383  0.17457591  1
  Cu+  Cu47  1  0.92467956  0.58962347  0.16936320  1
  Cu+  Cu48  1  0.49766358  0.24037657  0.50263022  1
  Cu+  Cu49  1  0.49738742  0.74163064  0.50480028  1
  Cu+  Cu50  1  0.99851389  0.24957639  0.50165351  1
  Cu+  Cu51  1  0.99724389  0.74656799  0.50410643  1
  Cu+  Cu52  1  0.25481083  0.00373497  0.50187904  1
  Cu+  Cu53  1  0.24718843  0.50378869  0.50389839  1
  Cu+  Cu54  1  0.75612280  0.00130351  0.50132532  1
  Cu+  Cu55  1  0.75010990  0.50176935  0.50484498  1
  Cu+  Cu56  1  0.25190048  0.24559249  0.50283585  1
  Cu+  Cu57  1  0.24863617  0.74686535  0.50463252  1
  Cu+  Cu58  1  0.74591577  0.24146960  0.50202921  1
  Cu+  Cu59  1  0.74788555  0.74295454  0.50360582  1
  Cu+  Cu60  1  0.32958106  0.41889043  0.83459711  1
  Cu+  Cu61  1  0.32890951  0.91543648  0.83871299  1
  Cu+  Cu62  1  0.82839557  0.41250372  0.83982317  1
  Cu+  Cu63  1  0.82979071  0.92131115  0.83814176  1
  Cu+  Cu64  1  0.07787897  0.16922784  0.83608775  1
  Cu+  Cu65  1  0.08329173  0.67000200  0.83894746  1
  Cu+  Cu66  1  0.58431993  0.16794488  0.84122674  1
  Cu+  Cu67  1  0.58225398  0.66915586  0.83898682  1
  Cu+  Cu68  1  0.08772337  0.41667058  0.83329035  1
  Cu+  Cu69  1  0.08070325  0.91174417  0.83974368  1
  Cu+  Cu70  1  0.58238911  0.41121893  0.84023259  1
  Cu+  Cu71  1  0.58418249  0.91425839  0.83792452  1
  Cu+  Cu72  1  0.16910366  0.08059570  0.67412120  1
  Cu+  Cu73  1  0.16585702  0.58078341  0.68113917  1
  Cu+  Cu74  1  0.66585736  0.07998648  0.67516769  1
  Cu+  Cu75  1  0.66672768  0.58165231  0.67635915  1
  Cu+  Cu76  1  0.41634702  0.32567861  0.67180071  1
  Cu+  Cu77  1  0.41592334  0.82941497  0.67509737  1
  Cu+  Cu78  1  0.91411151  0.33049801  0.67356125  1
  Cu+  Cu79  1  0.91261456  0.82788587  0.67574850  1
  Cu+  Cu80  1  0.41783305  0.08204802  0.67564245  1
  Cu+  Cu81  1  0.41333322  0.58043364  0.67915025  1
  Cu+  Cu82  1  0.91583191  0.08311618  0.67881791  1
  Cu+  Cu83  1  0.91241166  0.58173467  0.67516745  1
  Cu+  Cu84  1  -0.00044318  0.24952325  0.00721772  1
  Cu+  Cu85  1  0.00346217  0.75142500  0.01188742  1
  Cu+  Cu86  1  0.50159811  0.25124121  0.01300069  1
  Cu+  Cu87  1  0.50399200  0.75066462  0.01373520  1
  Cu+  Cu88  1  0.24829598  0.49794841  0.00918844  1
  Cu+  Cu89  1  0.24510020  0.99778310  0.00785191  1
  Cu+  Cu90  1  0.74760040  0.49878812  0.00836389  1
  Cu+  Cu91  1  0.74930506  0.99964518  0.01044339  1
  Cu+  Cu92  1  0.24526800  0.25062852  0.00382092  1
  Cu+  Cu93  1  0.24623491  0.74797732  0.01035987  1
  Cu+  Cu94  1  0.74602395  0.25049040  0.01464759  1
  Cu+  Cu95  1  0.74899179  0.75103318  0.00622714  1
  Cu+  Cu96  1  0.33625655  0.42240887  0.33900410  1
  Cu+  Cu97  1  0.33799249  0.92003521  0.33934670  1
  Cu+  Cu98  1  0.83665431  0.42070935  0.34227850  1
  Cu+  Cu99  1  0.83876116  0.91879259  0.34563772  1
  Cu+  Cu100  1  0.08310692  0.16560015  0.34657118  1
  Cu+  Cu101  1  0.08522653  0.66902587  0.34176906  1
  Cu+  Cu102  1  0.58401657  0.16610469  0.34663056  1
  Cu+  Cu103  1  0.58176959  0.66536631  0.34681633  1
  Cu+  Cu104  1  0.08276488  0.42268932  0.34652156  1
  Cu+  Cu105  1  0.08582568  0.91901163  0.34189196  1
  Cu+  Cu106  1  0.58277602  0.41947557  0.34133737  1
  Cu+  Cu107  1  0.58522032  0.91884546  0.34147149  1
  Cu+  Cu108  1  -0.00349787  -0.00025978  0.11563812  1
  Cu+  Cu109  1  -0.00039183  0.49894617  0.11508752  1
  Cu+  Cu110  1  0.49265712  -0.00388229  0.11386058  1
  Cu+  Cu111  1  0.49604967  0.49828651  0.11306109  1
  Cu+  Cu112  1  0.33534238  0.17040068  0.44406218  1
  Cu+  Cu113  1  0.33614499  0.67317874  0.44877495  1
  Cu+  Cu114  1  0.83412545  0.16820190  0.44408806  1
  Cu+  Cu115  1  0.83671122  0.66456044  0.44681908  1
  Cu+  Cu116  1  0.16805934  0.32883829  0.77651407  1
  Cu+  Cu117  1  0.16683037  0.83601241  0.78198052  1
  Cu+  Cu118  1  0.66586535  0.33118105  0.78455127  1
  Cu+  Cu119  1  0.66744997  0.83094375  0.78096736  1
  Te2-  Te120  1  0.00389498  0.00003202  0.39152430  1
  Te2-  Te121  1  -0.00024149  0.50560621  0.38947562  1
  Te2-  Te122  1  0.50112401  -0.00147033  0.38679965  1
  Te2-  Te123  1  0.49840973  0.49846649  0.38786739  1
  Te2-  Te124  1  0.33325880  0.16264736  0.71866116  1
  Te2-  Te125  1  0.33258219  0.66596865  0.72394052  1
  Te2-  Te126  1  0.83106839  0.16608079  0.71883638  1
  Te2-  Te127  1  0.83082539  0.66410120  0.72070567  1
  Te2-  Te128  1  0.16429032  0.33262772  0.05086814  1
  Te2-  Te129  1  0.16947397  0.83504476  0.05586976  1
  Te2-  Te130  1  0.66675959  0.33704032  0.05941132  1
  Te2-  Te131  1  0.67094778  0.83538160  0.05535092  1
  Te2-  Te132  1  0.49368770  0.24500693  0.88580189  1
  Te2-  Te133  1  0.49243608  0.74900403  0.88598588  1
  Te2-  Te134  1  0.99035919  0.25069677  0.88136604  1
  Te2-  Te135  1  0.99199806  0.74511852  0.88484494  1
  Te2-  Te136  1  0.24883172  0.00326419  0.88206875  1
  Te2-  Te137  1  0.25455361  0.51175945  0.88267590  1
  Te2-  Te138  1  0.74991148  0.00952852  0.88436210  1
  Te2-  Te139  1  0.75037766  0.50261688  0.88305032  1
  Te2-  Te140  1  0.24837464  0.24948789  0.87778247  1
  Te2-  Te141  1  0.25396482  0.74866716  0.88450772  1
  Te2-  Te142  1  0.75126246  0.24676681  0.88722006  1
  Te2-  Te143  1  0.75167797  0.75124876  0.88047702  1
  Te2-  Te144  1  0.33244577  0.42022954  0.21336899  1
  Te2-  Te145  1  0.33561429  0.91869330  0.21312577  1
  Te2-  Te146  1  0.83031796  0.42202110  0.21637541  1
  Te2-  Te147  1  0.83263751  0.91420997  0.21791008  1
  Te2-  Te148  1  0.08690691  0.17316477  0.21909717  1
  Te2-  Te149  1  0.09275821  0.67739035  0.21627573  1
  Te2-  Te150  1  0.59027544  0.18131794  0.21881408  1
  Te2-  Te151  1  0.59295621  0.67952754  0.21899851  1
  Te2-  Te152  1  0.08590840  0.41553401  0.21926827  1
  Te2-  Te153  1  0.09260574  0.91822515  0.21644600  1
  Te2-  Te154  1  0.59036913  0.41997145  0.21564937  1
  Te2-  Te155  1  0.59456222  0.92132456  0.21588928  1
  Te2-  Te156  1  0.16048903  0.07501242  0.54823985  1
  Te2-  Te157  1  0.15708645  0.58078860  0.55291013  1
  Te2-  Te158  1  0.66041347  0.07270231  0.54881221  1
  Te2-  Te159  1  0.65592868  0.57401164  0.55034207  1
  Te2-  Te160  1  0.42038245  0.33233217  0.54588412  1
  Te2-  Te161  1  0.41754085  0.83123122  0.54890592  1
  Te2-  Te162  1  0.91475950  0.33639107  0.54742097  1
  Te2-  Te163  1  0.91982964  0.83670533  0.54960830  1
  Te2-  Te164  1  0.41950826  0.07248577  0.54964482  1
  Te2-  Te165  1  0.41407426  0.57244610  0.55137454  1
  Te2-  Te166  1  0.92322879  0.07811558  0.55054581  1
  Te2-  Te167  1  0.91700040  0.57936268  0.54922905  1
  Te2-  Te168  1  -0.00087977  0.00062167  0.88284855  1
  Te2-  Te169  1  -0.00067818  0.49816519  0.88182005  1
  Te2-  Te170  1  0.49804556  -0.00194770  0.88301683  1
  Te2-  Te171  1  0.49844570  0.49824637  0.88250680  1
  Te2-  Te172  1  0.33295549  0.16872981  0.21520948  1
  Te2-  Te173  1  0.33384238  0.66761186  0.21773816  1
  Te2-  Te174  1  0.83413973  0.16709280  0.21813020  1
  Te2-  Te175  1  0.83305937  0.66690800  0.21559324  1
  Te2-  Te176  1  0.16821392  0.33177142  0.54924709  1
  Te2-  Te177  1  0.16641571  0.83372168  0.54795381  1
  Te2-  Te178  1  0.66655917  0.33101600  0.54868316  1
  Te2-  Te179  1  0.66633410  0.83197033  0.54996273  1
  Te2-  Te180  1  0.32684555  0.40731788  0.70751952  1
  Te2-  Te181  1  0.32763527  0.91143691  0.71193698  1
  Te2-  Te182  1  0.82676073  0.41200170  0.71250574  1
  Te2-  Te183  1  0.82506002  0.91073539  0.71033239  1
  Te2-  Te184  1  0.08839359  0.17067588  0.70834452  1
  Te2-  Te185  1  0.08298198  0.67158116  0.71132072  1
  Te2-  Te186  1  0.58688047  0.17013870  0.71359533  1
  Te2-  Te187  1  0.58565161  0.67113802  0.71076618  1
  Te2-  Te188  1  0.08371169  0.40781356  0.70783572  1
  Te2-  Te189  1  0.08258200  0.91152071  0.71278743  1
  Te2-  Te190  1  0.58438263  0.41140418  0.71314157  1
  Te2-  Te191  1  0.58553034  0.91044244  0.71191167  1
  Te2-  Te192  1  0.15994772  0.08218297  0.04446486  1
  Te2-  Te193  1  0.16114467  0.57941643  0.04729028  1
  Te2-  Te194  1  0.65721850  0.07783985  0.04474767  1
  Te2-  Te195  1  0.66115823  0.58211696  0.04401576  1
  Te2-  Te196  1  0.41577132  0.33943389  0.04186986  1
  Te2-  Te197  1  0.41798459  0.83823533  0.04424866  1
  Te2-  Te198  1  0.91952993  0.33900546  0.04605037  1
  Te2-  Te199  1  0.91897315  0.84014955  0.04373990  1
  Te2-  Te200  1  0.41621150  0.07822483  0.04238203  1
  Te2-  Te201  1  0.41859031  0.57844587  0.04411233  1
  Te2-  Te202  1  0.91848379  0.08175575  0.04709030  1
  Te2-  Te203  1  0.91824133  0.57854370  0.04293815  1
  Te2-  Te204  1  0.49378906  0.24888945  0.37526431  1
  Te2-  Te205  1  0.49469498  0.74985004  0.37733597  1
  Te2-  Te206  1  0.99343459  0.24884660  0.37448880  1
  Te2-  Te207  1  0.99554003  0.74896977  0.37734608  1
  Te2-  Te208  1  0.25646022  0.00831101  0.37628673  1
  Te2-  Te209  1  0.25509937  0.50953915  0.37764899  1
  Te2-  Te210  1  0.75457176  0.00643660  0.37606197  1
  Te2-  Te211  1  0.75171801  0.50514112  0.37895053  1
  Te2-  Te212  1  0.25586709  0.25222076  0.37511597  1
  Te2-  Te213  1  0.25521859  0.74999748  0.37746299  1
  Te2-  Te214  1  0.75706429  0.24976751  0.37519409  1
  Te2-  Te215  1  0.75536674  0.74587172  0.37599633  1
