# generated using pymatgen
data_Ti(CuTe)4
_symmetry_space_group_name_H-M   'P 1'
_cell_length_a   16.87451745
_cell_length_b   16.87120715
_cell_length_c   20.68332607
_cell_angle_alpha   89.95556569
_cell_angle_beta   90.00197580
_cell_angle_gamma   120.01133255
_symmetry_Int_Tables_number   1
_chemical_formula_structural   Ti(CuTe)4
_chemical_formula_sum   'Ti24 Cu96 Te96'
_cell_volume   5098.92658179
_cell_formula_units_Z   24
loop_
 _symmetry_equiv_pos_site_id
 _symmetry_equiv_pos_as_xyz
  1  'x, y, z'
loop_
 _atom_type_symbol
 _atom_type_oxidation_number
  Ti4+  4.0
  Cu+  1.0
  Te2-  -2.0
loop_
 _atom_site_type_symbol
 _atom_site_label
 _atom_site_symmetry_multiplicity
 _atom_site_fract_x
 _atom_site_fract_y
 _atom_site_fract_z
 _atom_site_occupancy
  Ti4+  Ti0  1  0.00159681  0.00189493  0.25748363  1
  Ti4+  Ti1  1  0.00016899  0.49958363  0.25595943  1
  Ti4+  Ti2  1  0.50276219  0.00295790  0.26093070  1
  Ti4+  Ti3  1  0.50054223  0.50014620  0.26070699  1
  Ti4+  Ti4  1  0.33353709  0.16917624  0.59338311  1
  Ti4+  Ti5  1  0.32885884  0.66298964  0.58784507  1
  Ti4+  Ti6  1  0.82687871  0.16193138  0.59394793  1
  Ti4+  Ti7  1  0.83303835  0.66221134  0.58950165  1
  Ti4+  Ti8  1  0.16643622  0.33386221  0.92534335  1
  Ti4+  Ti9  1  0.17046746  0.83802935  0.92211241  1
  Ti4+  Ti10  1  0.66817201  0.33580736  0.92712514  1
  Ti4+  Ti11  1  0.66891190  0.83393566  0.92216248  1
  Ti4+  Ti12  1  -0.00109052  -0.00093847  0.75150720  1
  Ti4+  Ti13  1  -0.00181141  0.49719577  0.75618564  1
  Ti4+  Ti14  1  0.49762322  -0.00199305  0.75432742  1
  Ti4+  Ti15  1  0.50150458  0.49985544  0.75660729  1
  Ti4+  Ti16  1  0.33397795  0.16714203  0.09102602  1
  Ti4+  Ti17  1  0.33450549  0.66711458  0.08894805  1
  Ti4+  Ti18  1  0.83394832  0.16752812  0.08941603  1
  Ti4+  Ti19  1  0.83402430  0.66707400  0.08889120  1
  Ti4+  Ti20  1  0.16719339  0.33321494  0.42314173  1
  Ti4+  Ti21  1  0.16574230  0.83043692  0.42197593  1
  Ti4+  Ti22  1  0.66630446  0.33306158  0.42211330  1
  Ti4+  Ti23  1  0.66633227  0.83462724  0.42125211  1
  Cu+  Cu24  1  0.18190891  0.09648926  0.80958157  1
  Cu+  Cu25  1  0.56977257  0.92247828  0.47648884  1
  Cu+  Cu26  1  0.41441969  0.09772631  0.81106504  1
  Cu+  Cu27  1  0.73958842  0.26120076  0.14390090  1
  Cu+  Cu28  1  0.67822336  0.09287554  0.81477949  1
  Cu+  Cu29  1  0.56971423  0.15121478  0.47875688  1
  Cu+  Cu30  1  0.06706727  0.63620082  0.46977104  1
  Cu+  Cu31  1  0.02267149  0.26221062  0.14122598  1
  Cu+  Cu32  1  0.35155323  0.42811350  0.47479245  1
  Cu+  Cu33  1  0.91362551  0.09439579  0.81008473  1
  Cu+  Cu34  1  0.57749407  0.42645897  0.47690725  1
  Cu+  Cu35  1  0.69560832  0.59759989  0.80596589  1
  Cu+  Cu36  1  0.16356274  0.08251248  0.17169311  1
  Cu+  Cu37  1  0.16480524  0.58363033  0.17003204  1
  Cu+  Cu38  1  0.66330452  0.08597255  0.17332885  1
  Cu+  Cu39  1  0.66415887  0.58001949  0.17378787  1
  Cu+  Cu40  1  0.41848524  0.33637135  0.17574426  1
  Cu+  Cu41  1  0.42193490  0.83599927  0.17362337  1
  Cu+  Cu42  1  0.91849937  0.33677013  0.16978613  1
  Cu+  Cu43  1  0.91835988  0.83679101  0.17151032  1
  Cu+  Cu44  1  0.42140744  0.08586786  0.17372950  1
  Cu+  Cu45  1  0.41673334  0.58006858  0.17307026  1
  Cu+  Cu46  1  0.92435211  0.08610411  0.17045801  1
  Cu+  Cu47  1  0.92025977  0.58426446  0.17035548  1
  Cu+  Cu48  1  0.49494937  0.24972391  0.50438557  1
  Cu+  Cu49  1  0.49495480  0.74918749  0.50062777  1
  Cu+  Cu50  1  0.99482530  0.24530867  0.50761158  1
  Cu+  Cu51  1  0.99819905  0.74030089  0.50311710  1
  Cu+  Cu52  1  0.24899365  0.00193270  0.50659684  1
  Cu+  Cu53  1  0.25227736  0.50192153  0.50175881  1
  Cu+  Cu54  1  0.74546795  0.00071962  0.50559650  1
  Cu+  Cu55  1  0.75096923  0.50461610  0.50176555  1
  Cu+  Cu56  1  0.25319955  0.25254458  0.50582948  1
  Cu+  Cu57  1  0.24193965  0.73901430  0.50054262  1
  Cu+  Cu58  1  0.74484546  0.24114242  0.50420626  1
  Cu+  Cu59  1  0.74937247  0.74608083  0.50265542  1
  Cu+  Cu60  1  0.33110499  0.41712938  0.83908897  1
  Cu+  Cu61  1  0.32859075  0.91953924  0.83348947  1
  Cu+  Cu62  1  0.83071589  0.41498834  0.83937598  1
  Cu+  Cu63  1  0.82759332  0.91640433  0.83155572  1
  Cu+  Cu64  1  0.08647009  0.17375406  0.83643558  1
  Cu+  Cu65  1  0.08696961  0.66983880  0.83764243  1
  Cu+  Cu66  1  0.58568147  0.17273846  0.84021430  1
  Cu+  Cu67  1  0.59020540  0.66876728  0.83602014  1
  Cu+  Cu68  1  0.08436537  0.41540106  0.83837952  1
  Cu+  Cu69  1  0.09130628  0.91991628  0.83199360  1
  Cu+  Cu70  1  0.59033343  0.42251964  0.83867622  1
  Cu+  Cu71  1  0.58752825  0.91568617  0.83429210  1
  Cu+  Cu72  1  0.16821655  0.08539357  0.67923860  1
  Cu+  Cu73  1  0.16445470  0.57866202  0.67275394  1
  Cu+  Cu74  1  0.66428418  0.07955843  0.68381710  1
  Cu+  Cu75  1  0.66983482  0.58227856  0.67843643  1
  Cu+  Cu76  1  0.41679484  0.33363513  0.67897908  1
  Cu+  Cu77  1  0.41035278  0.82667354  0.67113125  1
  Cu+  Cu78  1  0.91205295  0.32762492  0.67571985  1
  Cu+  Cu79  1  0.91523584  0.82794083  0.67013753  1
  Cu+  Cu80  1  0.41402302  0.08378589  0.68199912  1
  Cu+  Cu81  1  0.41331780  0.58192577  0.67294051  1
  Cu+  Cu82  1  0.91004169  0.08030455  0.68005575  1
  Cu+  Cu83  1  0.91417003  0.57859565  0.67436085  1
  Cu+  Cu84  1  0.00271525  0.24981740  0.01296272  1
  Cu+  Cu85  1  0.00524593  0.75370109  0.00466079  1
  Cu+  Cu86  1  0.50161251  0.25197706  0.01132768  1
  Cu+  Cu87  1  0.50304243  0.74981910  0.00520455  1
  Cu+  Cu88  1  0.24906286  0.49937328  0.00870981  1
  Cu+  Cu89  1  0.25234422  1.00104318  0.00917234  1
  Cu+  Cu90  1  0.75092602  0.50042679  0.01130591  1
  Cu+  Cu91  1  0.74849241  0.99786475  0.00881039  1
  Cu+  Cu92  1  0.24932087  0.25046821  0.01053569  1
  Cu+  Cu93  1  0.25276225  0.75469535  0.00554080  1
  Cu+  Cu94  1  0.74603760  0.24920886  0.01587170  1
  Cu+  Cu95  1  0.74901641  0.74925463  0.00682081  1
  Cu+  Cu96  1  0.33775224  0.41737181  0.34712556  1
  Cu+  Cu97  1  0.33529636  0.91871335  0.34172904  1
  Cu+  Cu98  1  0.83396662  0.41598516  0.34014744  1
  Cu+  Cu99  1  0.83857057  0.92068232  0.33967416  1
  Cu+  Cu100  1  0.08207163  0.16402212  0.34215424  1
  Cu+  Cu101  1  0.08076444  0.66073146  0.34290428  1
  Cu+  Cu102  1  0.58430286  0.16580887  0.34923794  1
  Cu+  Cu103  1  0.58357300  0.66615168  0.34050687  1
  Cu+  Cu104  1  0.08141523  0.41369406  0.34008972  1
  Cu+  Cu105  1  0.08268398  0.91866064  0.34030333  1
  Cu+  Cu106  1  0.58211390  0.41828268  0.34768531  1
  Cu+  Cu107  1  0.58525762  0.92322229  0.34708250  1
  Cu+  Cu108  1  0.00033030  -0.00384608  0.11371448  1
  Cu+  Cu109  1  0.00296391  0.50440898  0.11208938  1
  Cu+  Cu110  1  0.49424261  -0.00439975  0.11819098  1
  Cu+  Cu111  1  0.50054743  0.50139585  0.11810370  1
  Cu+  Cu112  1  0.32702234  0.16188232  0.44987341  1
  Cu+  Cu113  1  0.33365310  0.66696224  0.44173896  1
  Cu+  Cu114  1  0.83717831  0.16719923  0.45064842  1
  Cu+  Cu115  1  0.83754664  0.67503310  0.44581155  1
  Cu+  Cu116  1  0.17024537  0.33984703  0.78093621  1
  Cu+  Cu117  1  0.16192325  0.82673409  0.77694657  1
  Cu+  Cu118  1  0.66730871  0.33554411  0.78280828  1
  Cu+  Cu119  1  0.66093741  0.82770521  0.77629988  1
  Te2-  Te120  1  0.00118613  0.00017993  0.38695308  1
  Te2-  Te121  1  -0.00246200  0.49361265  0.38619825  1
  Te2-  Te122  1  0.49683539  0.00003447  0.39330742  1
  Te2-  Te123  1  0.50326633  0.50487023  0.39295176  1
  Te2-  Te124  1  0.33374374  0.16990288  0.72518426  1
  Te2-  Te125  1  0.32939428  0.66267473  0.71641220  1
  Te2-  Te126  1  0.83028654  0.16555565  0.72615271  1
  Te2-  Te127  1  0.83735228  0.66583559  0.71981128  1
  Te2-  Te128  1  0.16956708  0.33536200  0.05553568  1
  Te2-  Te129  1  0.16911697  0.83529828  0.05087937  1
  Te2-  Te130  1  0.66578021  0.33600102  0.05726539  1
  Te2-  Te131  1  0.66719113  0.83228879  0.05073888  1
  Te2-  Te132  1  0.49609298  0.25378719  0.88487417  1
  Te2-  Te133  1  0.49906348  0.74771969  0.87876892  1
  Te2-  Te134  1  0.99297354  0.24863981  0.88523144  1
  Te2-  Te135  1  1.00000812  0.75295636  0.87837378  1
  Te2-  Te136  1  0.25814887  0.01574554  0.88282521  1
  Te2-  Te137  1  0.25161005  0.50474467  0.88274480  1
  Te2-  Te138  1  0.75607679  0.01118001  0.88265077  1
  Te2-  Te139  1  0.75825202  0.50902589  0.88501550  1
  Te2-  Te140  1  0.25575380  0.24993157  0.88420085  1
  Te2-  Te141  1  0.25630739  0.75284332  0.87945738  1
  Te2-  Te142  1  0.75478126  0.24895056  0.88785831  1
  Te2-  Te143  1  0.75989127  0.75117287  0.88069372  1
  Te2-  Te144  1  0.32884547  0.41383711  0.22009189  1
  Te2-  Te145  1  0.33343159  0.91703997  0.21582925  1
  Te2-  Te146  1  0.82693163  0.41626852  0.21457492  1
  Te2-  Te147  1  0.83062895  0.91798614  0.21380477  1
  Te2-  Te148  1  0.09205180  0.17722390  0.21669739  1
  Te2-  Te149  1  0.08638570  0.67139571  0.21610012  1
  Te2-  Te150  1  0.58701171  0.17740487  0.22138759  1
  Te2-  Te151  1  0.58544622  0.67017210  0.21512627  1
  Te2-  Te152  1  0.08925561  0.41562450  0.21438113  1
  Te2-  Te153  1  0.08630975  0.91506920  0.21463706  1
  Te2-  Te154  1  0.58575095  0.41358155  0.22042499  1
  Te2-  Te155  1  0.58963799  0.91926717  0.21954932  1
  Te2-  Te156  1  0.16358305  0.08471708  0.55141884  1
  Te2-  Te157  1  0.15518240  0.57119871  0.54690220  1
  Te2-  Te158  1  0.65060831  0.07445544  0.55464771  1
  Te2-  Te159  1  0.65887257  0.58040386  0.55105846  1
  Te2-  Te160  1  0.42211627  0.34465260  0.55269485  1
  Te2-  Te161  1  0.41038248  0.83562168  0.54545319  1
  Te2-  Te162  1  0.91191915  0.33165971  0.54988579  1
  Te2-  Te163  1  0.91892743  0.83154485  0.54415304  1
  Te2-  Te164  1  0.41633479  0.07954992  0.55364079  1
  Te2-  Te165  1  0.42196986  0.58270306  0.54729806  1
  Te2-  Te166  1  0.91254853  0.07735262  0.55234050  1
  Te2-  Te167  1  0.91586778  0.57113226  0.54863594  1
  Te2-  Te168  1  -0.00030698  -0.00080341  0.87911091  1
  Te2-  Te169  1  0.00133740  0.50152886  0.88269071  1
  Te2-  Te170  1  0.49937187  -0.00181293  0.88196872  1
  Te2-  Te171  1  0.50013286  0.50153963  0.88358362  1
  Te2-  Te172  1  0.33238259  0.16593552  0.21738824  1
  Te2-  Te173  1  0.33362276  0.66652408  0.21561572  1
  Te2-  Te174  1  0.83499928  0.16692913  0.21674641  1
  Te2-  Te175  1  0.83463067  0.66775896  0.21533284  1
  Te2-  Te176  1  0.16406062  0.33289219  0.55043498  1
  Te2-  Te177  1  0.16605730  0.83144043  0.54911856  1
  Te2-  Te178  1  0.66664783  0.33336922  0.54996328  1
  Te2-  Te179  1  0.66388282  0.82954693  0.54839592  1
  Te2-  Te180  1  0.32794464  0.41432458  0.71248963  1
  Te2-  Te181  1  0.32451528  0.91025666  0.70762876  1
  Te2-  Te182  1  0.82509813  0.41003001  0.71283192  1
  Te2-  Te183  1  0.82470661  0.90700580  0.70610487  1
  Te2-  Te184  1  0.08431374  0.17461001  0.70823907  1
  Te2-  Te185  1  0.08419746  0.66774556  0.70975169  1
  Te2-  Te186  1  0.58627334  0.17450133  0.71144165  1
  Te2-  Te187  1  0.58396143  0.66988503  0.70803044  1
  Te2-  Te188  1  0.08250731  0.40976923  0.71125495  1
  Te2-  Te189  1  0.08511187  0.91178382  0.70554135  1
  Te2-  Te190  1  0.58659122  0.41108356  0.71161895  1
  Te2-  Te191  1  0.57952303  0.90652892  0.70777210  1
  Te2-  Te192  1  0.16207894  0.08072474  0.04530249  1
  Te2-  Te193  1  0.16331418  0.58415608  0.04309861  1
  Te2-  Te194  1  0.65908347  0.07723698  0.04647147  1
  Te2-  Te195  1  0.66089590  0.58040889  0.04629964  1
  Te2-  Te196  1  0.41937869  0.33980309  0.04806714  1
  Te2-  Te197  1  0.42194113  0.83843739  0.04508763  1
  Te2-  Te198  1  0.92051139  0.34094017  0.04233805  1
  Te2-  Te199  1  0.91977523  0.83773919  0.04353777  1
  Te2-  Te200  1  0.42168220  0.08223819  0.04677049  1
  Te2-  Te201  1  0.41948456  0.58032241  0.04517104  1
  Te2-  Te202  1  0.91820480  0.07811501  0.04388195  1
  Te2-  Te203  1  0.92240598  0.58386637  0.04347221  1
  Te2-  Te204  1  0.49074347  0.24555827  0.37742634  1
  Te2-  Te205  1  0.49447938  0.74789404  0.37341541  1
  Te2-  Te206  1  0.99487870  0.24577097  0.37967106  1
  Te2-  Te207  1  0.99469020  0.74741658  0.37512728  1
  Te2-  Te208  1  0.25150209  0.00391338  0.37936263  1
  Te2-  Te209  1  0.25151958  0.50530120  0.37499332  1
  Te2-  Te210  1  0.75727340  0.00854194  0.37854264  1
  Te2-  Te211  1  0.75547532  0.50689002  0.37602397  1
  Te2-  Te212  1  0.25200017  0.24475626  0.37879153  1
  Te2-  Te213  1  0.25380304  0.74712073  0.37367372  1
  Te2-  Te214  1  0.75598394  0.24779725  0.37794229  1
  Te2-  Te215  1  0.75339346  0.74992302  0.37585087  1
