# generated using pymatgen
data_Ti(CuTe)4
_symmetry_space_group_name_H-M   'P 1'
_cell_length_a   16.85242995
_cell_length_b   16.84894180
_cell_length_c   20.65623617
_cell_angle_alpha   89.98098473
_cell_angle_beta   89.97595870
_cell_angle_gamma   119.99822303
_symmetry_Int_Tables_number   1
_chemical_formula_structural   Ti(CuTe)4
_chemical_formula_sum   'Ti24 Cu96 Te96'
_cell_volume   5079.54293740
_cell_formula_units_Z   24
loop_
 _symmetry_equiv_pos_site_id
 _symmetry_equiv_pos_as_xyz
  1  'x, y, z'
loop_
 _atom_type_symbol
 _atom_type_oxidation_number
  Ti4+  4.0
  Cu+  1.0
  Te2-  -2.0
loop_
 _atom_site_type_symbol
 _atom_site_label
 _atom_site_symmetry_multiplicity
 _atom_site_fract_x
 _atom_site_fract_y
 _atom_site_fract_z
 _atom_site_occupancy
  Ti4+  Ti0  1  0.00108453  0.00232143  0.26060129  1
  Ti4+  Ti1  1  -0.00093257  0.49867873  0.25415778  1
  Ti4+  Ti2  1  0.49883010  0.00140477  0.25734861  1
  Ti4+  Ti3  1  0.49803497  0.49791009  0.26013933  1
  Ti4+  Ti4  1  0.33309381  0.16982243  0.59360661  1
  Ti4+  Ti5  1  0.33461148  0.66916902  0.59005462  1
  Ti4+  Ti6  1  0.82909426  0.16629225  0.59129104  1
  Ti4+  Ti7  1  0.83489105  0.67134707  0.59022990  1
  Ti4+  Ti8  1  0.16667731  0.33098883  0.92278797  1
  Ti4+  Ti9  1  0.17008589  0.83194997  0.92456846  1
  Ti4+  Ti10  1  0.66913222  0.33339907  0.92301625  1
  Ti4+  Ti11  1  0.66869687  0.82955628  0.92507217  1
  Ti4+  Ti12  1  -0.00047959  0.00104095  0.75570715  1
  Ti4+  Ti13  1  -0.00037003  0.49851546  0.75606791  1
  Ti4+  Ti14  1  0.49767654  -0.00038225  0.75609148  1
  Ti4+  Ti15  1  0.50144339  0.50190413  0.75419674  1
  Ti4+  Ti16  1  0.33332302  0.16558949  0.09062874  1
  Ti4+  Ti17  1  0.33209873  0.66517983  0.08856688  1
  Ti4+  Ti18  1  0.83416260  0.16639336  0.08937501  1
  Ti4+  Ti19  1  0.83325841  0.66509520  0.08914175  1
  Ti4+  Ti20  1  0.16841003  0.33363072  0.42469844  1
  Ti4+  Ti21  1  0.16342126  0.83229832  0.42349356  1
  Ti4+  Ti22  1  0.66621693  0.33296981  0.42420065  1
  Ti4+  Ti23  1  0.66469065  0.83403474  0.41947753  1
  Cu+  Cu24  1  0.84509962  0.92888101  0.47626040  1
  Cu+  Cu25  1  0.36005263  0.43006151  0.47661746  1
  Cu+  Cu26  1  0.41559765  0.31978236  0.81063403  1
  Cu+  Cu27  1  0.23907371  0.76364251  0.14102616  1
  Cu+  Cu28  1  0.90563100  0.30621334  0.80830795  1
  Cu+  Cu29  1  0.73821097  0.26034423  0.13994725  1
  Cu+  Cu30  1  0.18383673  0.08782420  0.81017459  1
  Cu+  Cu31  1  0.57087869  0.93138250  0.47054915  1
  Cu+  Cu32  1  0.69436596  0.59512099  0.80441412  1
  Cu+  Cu33  1  0.19187310  0.59260086  0.80620620  1
  Cu+  Cu34  1  0.07839244  0.93424173  0.47656379  1
  Cu+  Cu35  1  0.02357655  0.26074700  0.13973976  1
  Cu+  Cu36  1  0.16404438  0.08094421  0.17420549  1
  Cu+  Cu37  1  0.16276959  0.58541168  0.16713503  1
  Cu+  Cu38  1  0.66247906  0.08540219  0.17119021  1
  Cu+  Cu39  1  0.66328259  0.58018176  0.17295861  1
  Cu+  Cu40  1  0.41505652  0.33473007  0.17417126  1
  Cu+  Cu41  1  0.41321764  0.83498381  0.17174122  1
  Cu+  Cu42  1  0.91746359  0.33537495  0.16754147  1
  Cu+  Cu43  1  0.91713316  0.83411805  0.17508772  1
  Cu+  Cu44  1  0.41930017  0.08239465  0.17111188  1
  Cu+  Cu45  1  0.41520144  0.57726526  0.17294575  1
  Cu+  Cu46  1  0.92341574  0.08548476  0.17270894  1
  Cu+  Cu47  1  0.91776385  0.58073522  0.16802787  1
  Cu+  Cu48  1  0.49815498  0.25200226  0.50764029  1
  Cu+  Cu49  1  0.49475092  0.75510883  0.49952009  1
  Cu+  Cu50  1  0.99623521  0.25219771  0.50555197  1
  Cu+  Cu51  1  0.99722382  0.75529094  0.50307878  1
  Cu+  Cu52  1  0.24815179  0.00170997  0.50831711  1
  Cu+  Cu53  1  0.25452570  0.50130461  0.50550657  1
  Cu+  Cu54  1  0.74615956  0.00426484  0.50159293  1
  Cu+  Cu55  1  0.75021373  0.50317776  0.50611539  1
  Cu+  Cu56  1  0.25582820  0.25414227  0.50700685  1
  Cu+  Cu57  1  0.24948223  0.74668542  0.50438268  1
  Cu+  Cu58  1  0.75169695  0.25063711  0.50554387  1
  Cu+  Cu59  1  0.75486225  0.75158844  0.50092283  1
  Cu+  Cu60  1  0.32884016  0.40940755  0.83308896  1
  Cu+  Cu61  1  0.33001203  0.91206862  0.83771807  1
  Cu+  Cu62  1  0.82996086  0.40821426  0.83527804  1
  Cu+  Cu63  1  0.82860508  0.91134146  0.83767488  1
  Cu+  Cu64  1  0.08816547  0.16860413  0.83560299  1
  Cu+  Cu65  1  0.09183405  0.66871500  0.83712145  1
  Cu+  Cu66  1  0.58622269  0.16812025  0.83702596  1
  Cu+  Cu67  1  0.59305277  0.66991364  0.83579507  1
  Cu+  Cu68  1  0.08296113  0.41385053  0.83694340  1
  Cu+  Cu69  1  0.08697639  0.91648188  0.83885168  1
  Cu+  Cu70  1  0.58914649  0.41868507  0.83593282  1
  Cu+  Cu71  1  0.58324317  0.91396884  0.83932361  1
  Cu+  Cu72  1  0.16795938  0.08814378  0.68147479  1
  Cu+  Cu73  1  0.17146481  0.58539338  0.67733558  1
  Cu+  Cu74  1  0.66430336  0.08385262  0.67473670  1
  Cu+  Cu75  1  0.67334741  0.59010637  0.67627673  1
  Cu+  Cu76  1  0.41392018  0.33381696  0.68178729  1
  Cu+  Cu77  1  0.41387562  0.83357367  0.67386819  1
  Cu+  Cu78  1  0.91062000  0.32792748  0.67942515  1
  Cu+  Cu79  1  0.91594895  0.83493364  0.67639646  1
  Cu+  Cu80  1  0.41292504  0.08363010  0.67689716  1
  Cu+  Cu81  1  0.41762790  0.58732529  0.67313434  1
  Cu+  Cu82  1  0.91125306  0.08225620  0.67469472  1
  Cu+  Cu83  1  0.91637002  0.58526970  0.67255645  1
  Cu+  Cu84  1  0.00291249  0.24764814  0.01155499  1
  Cu+  Cu85  1  0.00309401  0.75083331  0.00728251  1
  Cu+  Cu86  1  0.50135428  0.25139909  0.00913836  1
  Cu+  Cu87  1  0.50415357  0.74702050  0.00738902  1
  Cu+  Cu88  1  0.24996797  0.49670348  0.00648122  1
  Cu+  Cu89  1  0.25083649  0.99897032  0.01002563  1
  Cu+  Cu90  1  0.74979850  0.49851548  0.00664306  1
  Cu+  Cu91  1  0.74895767  0.99434105  0.00838562  1
  Cu+  Cu92  1  0.24871602  0.24689696  0.01059156  1
  Cu+  Cu93  1  0.24983284  0.75036599  0.01255960  1
  Cu+  Cu94  1  0.74744783  0.24869362  0.01175533  1
  Cu+  Cu95  1  0.74991533  0.74916701  0.00953839  1
  Cu+  Cu96  1  0.33814943  0.41766990  0.34790139  1
  Cu+  Cu97  1  0.33137352  0.91454845  0.34302011  1
  Cu+  Cu98  1  0.83443596  0.41578599  0.33966135  1
  Cu+  Cu99  1  0.83560098  0.91711222  0.34613500  1
  Cu+  Cu100  1  0.08396314  0.16796388  0.34449806  1
  Cu+  Cu101  1  0.08135693  0.66298973  0.33988356  1
  Cu+  Cu102  1  0.58350793  0.16644929  0.34345399  1
  Cu+  Cu103  1  0.57989682  0.66288080  0.34116951  1
  Cu+  Cu104  1  0.08127305  0.41591223  0.33821693  1
  Cu+  Cu105  1  0.07880572  0.91696468  0.34807115  1
  Cu+  Cu106  1  0.58099792  0.41577731  0.34213690  1
  Cu+  Cu107  1  0.57764441  0.91782709  0.34205308  1
  Cu+  Cu108  1  -0.00022978  -0.00448541  0.11891602  1
  Cu+  Cu109  1  -0.00006148  0.49925690  0.10797330  1
  Cu+  Cu110  1  0.49966380  -0.00338499  0.11370962  1
  Cu+  Cu111  1  0.50162666  0.49898088  0.11747623  1
  Cu+  Cu112  1  0.33502978  0.16385464  0.45122080  1
  Cu+  Cu113  1  0.32802291  0.66219300  0.44650871  1
  Cu+  Cu114  1  0.83495535  0.16946603  0.44697313  1
  Cu+  Cu115  1  0.83265569  0.66121337  0.44707877  1
  Cu+  Cu116  1  0.16469103  0.33447186  0.77774504  1
  Cu+  Cu117  1  0.16183470  0.83088275  0.78038150  1
  Cu+  Cu118  1  0.66526689  0.33276365  0.77787608  1
  Cu+  Cu119  1  0.66294042  0.83593077  0.78118975  1
  Te2-  Te120  1  0.00051712  0.00490182  0.39327374  1
  Te2-  Te121  1  -0.00070451  0.49823923  0.38315949  1
  Te2-  Te122  1  0.49569547  0.00191506  0.38797833  1
  Te2-  Te123  1  0.50473290  0.50162174  0.39149648  1
  Te2-  Te124  1  0.33440859  0.16759074  0.72613758  1
  Te2-  Te125  1  0.33777034  0.67024077  0.72098471  1
  Te2-  Te126  1  0.82751140  0.16149322  0.72215918  1
  Te2-  Te127  1  0.83961277  0.67068501  0.72060828  1
  Te2-  Te128  1  0.17002973  0.33327519  0.05296378  1
  Te2-  Te129  1  0.16637951  0.83432105  0.05500779  1
  Te2-  Te130  1  0.66615607  0.33466465  0.05324120  1
  Te2-  Te131  1  0.66733095  0.83083669  0.05457345  1
  Te2-  Te132  1  0.49664701  0.24685753  0.88272452  1
  Te2-  Te133  1  0.49817253  0.74302916  0.88093206  1
  Te2-  Te134  1  0.99393492  0.24170486  0.88356135  1
  Te2-  Te135  1  1.00029569  0.74754707  0.88040666  1
  Te2-  Te136  1  0.25718543  0.00590579  0.88423078  1
  Te2-  Te137  1  0.25574994  0.50312512  0.88026097  1
  Te2-  Te138  1  0.75223905  0.00161942  0.88277635  1
  Te2-  Te139  1  0.75852653  0.50583623  0.88034731  1
  Te2-  Te140  1  0.25619509  0.24346732  0.88426252  1
  Te2-  Te141  1  0.25917320  0.74609866  0.88518212  1
  Te2-  Te142  1  0.75205528  0.24156724  0.88477803  1
  Te2-  Te143  1  0.76003833  0.74554555  0.88368373  1
  Te2-  Te144  1  0.32516331  0.41154353  0.22091723  1
  Te2-  Te145  1  0.32447806  0.91584173  0.21716102  1
  Te2-  Te146  1  0.82547345  0.41355686  0.21361228  1
  Te2-  Te147  1  0.83034515  0.91750915  0.21860201  1
  Te2-  Te148  1  0.09138029  0.17593610  0.21871761  1
  Te2-  Te149  1  0.08355395  0.67358826  0.21451660  1
  Te2-  Te150  1  0.58524868  0.17635894  0.21753520  1
  Te2-  Te151  1  0.58347467  0.66907480  0.21556962  1
  Te2-  Te152  1  0.08881021  0.41585175  0.21200378  1
  Te2-  Te153  1  0.08489283  0.91416124  0.22107829  1
  Te2-  Te154  1  0.58360961  0.41221914  0.21648692  1
  Te2-  Te155  1  0.58331040  0.91569802  0.21482522  1
  Te2-  Te156  1  0.16055563  0.08637579  0.55370068  1
  Te2-  Te157  1  0.16324662  0.57919317  0.55023082  1
  Te2-  Te158  1  0.65610954  0.08202205  0.54871402  1
  Te2-  Te159  1  0.66327808  0.58592889  0.54951783  1
  Te2-  Te160  1  0.42397136  0.34406152  0.55491318  1
  Te2-  Te161  1  0.41677076  0.84330069  0.54836691  1
  Te2-  Te162  1  0.91740838  0.33898296  0.55285143  1
  Te2-  Te163  1  0.92215482  0.84858912  0.55030713  1
  Te2-  Te164  1  0.41610236  0.08260217  0.55072024  1
  Te2-  Te165  1  0.42660271  0.58830278  0.54722027  1
  Te2-  Te166  1  0.91751686  0.08272275  0.54864364  1
  Te2-  Te167  1  0.92073524  0.58647683  0.54687149  1
  Te2-  Te168  1  -0.00119266  -0.00153997  0.88293050  1
  Te2-  Te169  1  -0.00082073  0.49900956  0.88354348  1
  Te2-  Te170  1  0.49979003  -0.00110501  0.88283974  1
  Te2-  Te171  1  0.49865027  0.49863524  0.88175457  1
  Te2-  Te172  1  0.33340694  0.16536609  0.21737652  1
  Te2-  Te173  1  0.33123444  0.66440883  0.21559234  1
  Te2-  Te174  1  0.83321304  0.16672311  0.21676137  1
  Te2-  Te175  1  0.83236114  0.66370001  0.21587282  1
  Te2-  Te176  1  0.16446788  0.33328521  0.55193787  1
  Te2-  Te177  1  0.16518594  0.83115301  0.55089840  1
  Te2-  Te178  1  0.66747824  0.33522101  0.55105560  1
  Te2-  Te179  1  0.66514922  0.83336878  0.54708644  1
  Te2-  Te180  1  0.32631677  0.41846334  0.70766117  1
  Te2-  Te181  1  0.32470900  0.91334687  0.71145267  1
  Te2-  Te182  1  0.82684007  0.41628575  0.70898800  1
  Te2-  Te183  1  0.82587070  0.91378095  0.71165928  1
  Te2-  Te184  1  0.08128959  0.17440828  0.70903347  1
  Te2-  Te185  1  0.08530835  0.67132383  0.70986224  1
  Te2-  Te186  1  0.58349205  0.17232661  0.71069573  1
  Te2-  Te187  1  0.58689107  0.67547494  0.70910524  1
  Te2-  Te188  1  0.08476660  0.41192647  0.70832789  1
  Te2-  Te189  1  0.08633714  0.91439743  0.71035133  1
  Te2-  Te190  1  0.58904186  0.41614094  0.70750276  1
  Te2-  Te191  1  0.58357183  0.91404149  0.71110729  1
  Te2-  Te192  1  0.16011150  0.07775039  0.04707804  1
  Te2-  Te193  1  0.16010538  0.57671511  0.04022479  1
  Te2-  Te194  1  0.66114897  0.07664366  0.04395859  1
  Te2-  Te195  1  0.66091788  0.57867882  0.04531882  1
  Te2-  Te196  1  0.41875923  0.33823553  0.04663230  1
  Te2-  Te197  1  0.42312950  0.83738111  0.04352975  1
  Te2-  Te198  1  0.92065057  0.33887440  0.03993770  1
  Te2-  Te199  1  0.92049348  0.83763930  0.04683594  1
  Te2-  Te200  1  0.42113392  0.08107906  0.04484953  1
  Te2-  Te201  1  0.41821322  0.57792276  0.04591321  1
  Te2-  Te202  1  0.91806990  0.07621916  0.04571647  1
  Te2-  Te203  1  0.91988569  0.58042696  0.04161670  1
  Te2-  Te204  1  0.49384611  0.24688123  0.38045907  1
  Te2-  Te205  1  0.49123617  0.74499927  0.37354248  1
  Te2-  Te206  1  0.99564390  0.24906531  0.37908485  1
  Te2-  Te207  1  0.99154555  0.74334151  0.37609703  1
  Te2-  Te208  1  0.25215905  0.00566618  0.37971609  1
  Te2-  Te209  1  0.25042449  0.50437162  0.37717136  1
  Te2-  Te210  1  0.75161235  0.00819115  0.37370967  1
  Te2-  Te211  1  0.75179738  0.50320783  0.37788044  1
  Te2-  Te212  1  0.25350315  0.24486034  0.38023463  1
  Te2-  Te213  1  0.24932940  0.74551117  0.37822833  1
  Te2-  Te214  1  0.75303268  0.24758090  0.37889245  1
  Te2-  Te215  1  0.75013326  0.74429128  0.37500660  1
