# generated using pymatgen
data_Ti(CuTe)4
_symmetry_space_group_name_H-M   'P 1'
_cell_length_a   16.87417603
_cell_length_b   16.87097952
_cell_length_c   20.68378919
_cell_angle_alpha   89.95861988
_cell_angle_beta   89.99956136
_cell_angle_gamma   120.00907058
_symmetry_Int_Tables_number   1
_chemical_formula_structural   Ti(CuTe)4
_chemical_formula_sum   'Ti24 Cu96 Te96'
_cell_volume   5098.98521904
_cell_formula_units_Z   24
loop_
 _symmetry_equiv_pos_site_id
 _symmetry_equiv_pos_as_xyz
  1  'x, y, z'
loop_
 _atom_type_symbol
 _atom_type_oxidation_number
  Ti4+  4.0
  Cu+  1.0
  Te2-  -2.0
loop_
 _atom_site_type_symbol
 _atom_site_label
 _atom_site_symmetry_multiplicity
 _atom_site_fract_x
 _atom_site_fract_y
 _atom_site_fract_z
 _atom_site_occupancy
  Ti4+  Ti0  1  0.00035544  0.00303222  0.25475079  1
  Ti4+  Ti1  1  0.00053104  0.50201495  0.25807125  1
  Ti4+  Ti2  1  0.50003125  0.00137402  0.25651344  1
  Ti4+  Ti3  1  0.50072938  0.50123437  0.26253225  1
  Ti4+  Ti4  1  0.33796188  0.16913863  0.58865286  1
  Ti4+  Ti5  1  0.33210747  0.66705498  0.59322559  1
  Ti4+  Ti6  1  0.83343586  0.16532189  0.58949625  1
  Ti4+  Ti7  1  0.83609286  0.66486540  0.59360989  1
  Ti4+  Ti8  1  0.16880800  0.33606027  0.92338594  1
  Ti4+  Ti9  1  0.16215000  0.83010692  0.92609164  1
  Ti4+  Ti10  1  0.66458096  0.33128967  0.92590407  1
  Ti4+  Ti11  1  0.66550529  0.83105338  0.92329437  1
  Ti4+  Ti12  1  0.00015723  -0.00207486  0.75450548  1
  Ti4+  Ti13  1  -0.00000150  0.49883397  0.75566337  1
  Ti4+  Ti14  1  0.50000997  -0.00079893  0.75604895  1
  Ti4+  Ti15  1  0.49995082  0.50049820  0.75470392  1
  Ti4+  Ti16  1  0.33168770  0.16466154  0.08807858  1
  Ti4+  Ti17  1  0.33154177  0.66566823  0.09117162  1
  Ti4+  Ti18  1  0.83334640  0.16699906  0.08647197  1
  Ti4+  Ti19  1  0.83302125  0.66553910  0.09015410  1
  Ti4+  Ti20  1  0.16690161  0.33419263  0.42137718  1
  Ti4+  Ti21  1  0.16668487  0.83194139  0.42486283  1
  Ti4+  Ti22  1  0.66594934  0.33342163  0.42033278  1
  Ti4+  Ti23  1  0.66736712  0.83447907  0.42163205  1
  Cu+  Cu24  1  0.58150976  0.42961709  0.47835272  1
  Cu+  Cu25  1  0.24339588  0.76396531  0.14369416  1
  Cu+  Cu26  1  0.01700813  0.76260585  0.14541498  1
  Cu+  Cu27  1  0.02395580  0.26550809  0.13752820  1
  Cu+  Cu28  1  0.35823437  0.92755280  0.47346760  1
  Cu+  Cu29  1  0.17976641  0.59465073  0.81248445  1
  Cu+  Cu30  1  0.90490611  0.58485100  0.81414586  1
  Cu+  Cu31  1  0.74041567  0.26314165  0.14042499  1
  Cu+  Cu32  1  0.35063604  0.43041636  0.47823990  1
  Cu+  Cu33  1  0.41040978  0.59504001  0.80972100  1
  Cu+  Cu34  1  0.07166016  0.64129174  0.47736503  1
  Cu+  Cu35  1  0.90129419  0.81108095  0.80753027  1
  Cu+  Cu36  1  0.16126913  0.08271909  0.16743685  1
  Cu+  Cu37  1  0.16394234  0.58808973  0.17123950  1
  Cu+  Cu38  1  0.66314726  0.08565404  0.16831359  1
  Cu+  Cu39  1  0.66305601  0.58092818  0.17544958  1
  Cu+  Cu40  1  0.41726698  0.33472376  0.17530862  1
  Cu+  Cu41  1  0.41563949  0.83622182  0.17207475  1
  Cu+  Cu42  1  0.91752221  0.33504019  0.16935175  1
  Cu+  Cu43  1  0.91932066  0.83786437  0.17039713  1
  Cu+  Cu44  1  0.41705944  0.08045823  0.16904607  1
  Cu+  Cu45  1  0.41841547  0.58138389  0.17601243  1
  Cu+  Cu46  1  0.92278640  0.08690324  0.16646340  1
  Cu+  Cu47  1  0.92271594  0.58653949  0.17047404  1
  Cu+  Cu48  1  0.49678197  0.25081387  0.50006767  1
  Cu+  Cu49  1  0.49860454  0.74938899  0.50407822  1
  Cu+  Cu50  1  0.99431809  0.24700782  0.50352213  1
  Cu+  Cu51  1  0.99792733  0.74212698  0.50778874  1
  Cu+  Cu52  1  0.25815517  0.00305842  0.50409752  1
  Cu+  Cu53  1  0.25146259  0.50366505  0.50587739  1
  Cu+  Cu54  1  0.75217934  0.00360548  0.50313045  1
  Cu+  Cu55  1  0.75430750  0.50357134  0.50496167  1
  Cu+  Cu56  1  0.25607906  0.25343660  0.50165247  1
  Cu+  Cu57  1  0.24920454  0.74745375  0.50613156  1
  Cu+  Cu58  1  0.75264361  0.24730706  0.50283187  1
  Cu+  Cu59  1  0.75637515  0.75375622  0.50521812  1
  Cu+  Cu60  1  0.33105283  0.41948458  0.83563185  1
  Cu+  Cu61  1  0.33073975  0.91413654  0.83888007  1
  Cu+  Cu62  1  0.82606249  0.41261392  0.83911568  1
  Cu+  Cu63  1  0.83008355  0.91035390  0.83645269  1
  Cu+  Cu64  1  0.08536349  0.17018331  0.83755674  1
  Cu+  Cu65  1  0.08295350  0.67180054  0.83754763  1
  Cu+  Cu66  1  0.58379952  0.16733341  0.84017326  1
  Cu+  Cu67  1  0.58292186  0.67084827  0.83541970  1
  Cu+  Cu68  1  0.08989011  0.41810147  0.83609230  1
  Cu+  Cu69  1  0.07699790  0.90944547  0.83678596  1
  Cu+  Cu70  1  0.58273914  0.41287629  0.83822495  1
  Cu+  Cu71  1  0.58413960  0.91372319  0.83660258  1
  Cu+  Cu72  1  0.17222619  0.08590852  0.67092695  1
  Cu+  Cu73  1  0.16794662  0.58175486  0.68210699  1
  Cu+  Cu74  1  0.67039362  0.08448939  0.67270487  1
  Cu+  Cu75  1  0.66782759  0.58261495  0.67644504  1
  Cu+  Cu76  1  0.41794695  0.33231996  0.67500949  1
  Cu+  Cu77  1  0.41523224  0.83314562  0.67556470  1
  Cu+  Cu78  1  0.91373218  0.32672018  0.67332696  1
  Cu+  Cu79  1  0.91799779  0.82801911  0.67937475  1
  Cu+  Cu80  1  0.41811070  0.08461280  0.67350087  1
  Cu+  Cu81  1  0.41467610  0.58373753  0.68163058  1
  Cu+  Cu82  1  0.91609606  0.08391406  0.67177810  1
  Cu+  Cu83  1  0.91640214  0.58126216  0.68262404  1
  Cu+  Cu84  1  0.00533154  0.25257492  0.00881971  1
  Cu+  Cu85  1  -0.00131792  0.74693156  0.01560339  1
  Cu+  Cu86  1  0.49943441  0.24793672  0.00893080  1
  Cu+  Cu87  1  0.50090599  0.74818134  0.00960405  1
  Cu+  Cu88  1  0.25137617  0.49990327  0.01069110  1
  Cu+  Cu89  1  0.24679463  0.99720015  0.00747981  1
  Cu+  Cu90  1  0.74646567  0.49610832  0.01074110  1
  Cu+  Cu91  1  0.74772980  0.99480266  0.00413903  1
  Cu+  Cu92  1  0.25100752  0.25152466  0.00622010  1
  Cu+  Cu93  1  0.24542985  0.74794496  0.01506886  1
  Cu+  Cu94  1  0.74617662  0.25072894  0.01154467  1
  Cu+  Cu95  1  0.74534657  0.74747735  0.00845846  1
  Cu+  Cu96  1  0.33733610  0.41990387  0.34863144  1
  Cu+  Cu97  1  0.33597969  0.91694891  0.34605099  1
  Cu+  Cu98  1  0.83409866  0.41750504  0.34102087  1
  Cu+  Cu99  1  0.83607647  0.91942110  0.33660815  1
  Cu+  Cu100  1  0.08039450  0.16593567  0.33914588  1
  Cu+  Cu101  1  0.08031438  0.66453277  0.35019263  1
  Cu+  Cu102  1  0.58319461  0.16578556  0.34007011  1
  Cu+  Cu103  1  0.58445952  0.66675084  0.34395332  1
  Cu+  Cu104  1  0.08272406  0.41804226  0.34086978  1
  Cu+  Cu105  1  0.07950993  0.91723461  0.34117194  1
  Cu+  Cu106  1  0.58145449  0.41880770  0.34881197  1
  Cu+  Cu107  1  0.58157040  0.91710912  0.33868423  1
  Cu+  Cu108  1  -0.00245817  -0.00072382  0.10896476  1
  Cu+  Cu109  1  -0.00121134  0.49715370  0.11359515  1
  Cu+  Cu110  1  0.50097690  -0.00182738  0.11191864  1
  Cu+  Cu111  1  0.49834226  0.49712209  0.12064399  1
  Cu+  Cu112  1  0.32795980  0.16315404  0.44411823  1
  Cu+  Cu113  1  0.33537661  0.66825439  0.44902045  1
  Cu+  Cu114  1  0.83189247  0.16491305  0.44504194  1
  Cu+  Cu115  1  0.83328926  0.66957087  0.45018951  1
  Cu+  Cu116  1  0.16640368  0.32783557  0.77933674  1
  Cu+  Cu117  1  0.17161908  0.84195300  0.78216920  1
  Cu+  Cu118  1  0.66116682  0.32803469  0.78301677  1
  Cu+  Cu119  1  0.66984932  0.83890581  0.77809476  1
  Te2-  Te120  1  -0.00092535  0.00163073  0.38358635  1
  Te2-  Te121  1  -0.00226515  0.49653477  0.38838821  1
  Te2-  Te122  1  0.50342262  0.00179858  0.38686143  1
  Te2-  Te123  1  0.50255180  0.50505082  0.39473079  1
  Te2-  Te124  1  0.33563109  0.16703336  0.71715114  1
  Te2-  Te125  1  0.33409103  0.66992677  0.72486088  1
  Te2-  Te126  1  0.83331732  0.16350647  0.71913982  1
  Te2-  Te127  1  0.83097998  0.66222363  0.72546415  1
  Te2-  Te128  1  0.17083737  0.33499457  0.05396902  1
  Te2-  Te129  1  0.16522037  0.83449348  0.05786031  1
  Te2-  Te130  1  0.66279502  0.33250351  0.05668707  1
  Te2-  Te131  1  0.66595567  0.83244094  0.05221583  1
  Te2-  Te132  1  0.49381623  0.24597280  0.88295329  1
  Te2-  Te133  1  0.49129562  0.74783557  0.88348040  1
  Te2-  Te134  1  0.99819985  0.25118248  0.88158975  1
  Te2-  Te135  1  0.98648817  0.74224846  0.88703597  1
  Te2-  Te136  1  0.24599220  -0.00113452  0.88121880  1
  Te2-  Te137  1  0.25692558  0.51361991  0.88460327  1
  Te2-  Te138  1  0.75236973  0.00114300  0.87827419  1
  Te2-  Te139  1  0.74875276  0.50583078  0.88498571  1
  Te2-  Te140  1  0.25439457  0.25163529  0.88016505  1
  Te2-  Te141  1  0.25248895  0.74791519  0.88695425  1
  Te2-  Te142  1  0.75127875  0.24656000  0.88458027  1
  Te2-  Te143  1  0.74830668  0.73999603  0.88259151  1
  Te2-  Te144  1  0.32957537  0.41468268  0.22102337  1
  Te2-  Te145  1  0.32558229  0.91604181  0.21857880  1
  Te2-  Te146  1  0.82905086  0.41810313  0.21498778  1
  Te2-  Te147  1  0.83023206  0.91808433  0.21079209  1
  Te2-  Te148  1  0.09022440  0.17765034  0.21329399  1
  Te2-  Te149  1  0.08875455  0.67920129  0.22164522  1
  Te2-  Te150  1  0.58385264  0.17493557  0.21429980  1
  Te2-  Te151  1  0.58662418  0.67223239  0.21856377  1
  Te2-  Te152  1  0.08885008  0.41894899  0.21470882  1
  Te2-  Te153  1  0.08990470  0.91764821  0.21551721  1
  Te2-  Te154  1  0.58500737  0.41436608  0.22110215  1
  Te2-  Te155  1  0.58524571  0.91676062  0.21271798  1
  Te2-  Te156  1  0.16835370  0.08405601  0.54458142  1
  Te2-  Te157  1  0.15929021  0.57722827  0.55375270  1
  Te2-  Te158  1  0.66145515  0.08032277  0.54701356  1
  Te2-  Te159  1  0.66453201  0.58528184  0.55040249  1
  Te2-  Te160  1  0.42475179  0.34632433  0.54934874  1
  Te2-  Te161  1  0.42084517  0.83881213  0.54964426  1
  Te2-  Te162  1  0.91904959  0.33833000  0.54799655  1
  Te2-  Te163  1  0.92291437  0.83537858  0.55197282  1
  Te2-  Te164  1  0.42768390  0.08465880  0.54767421  1
  Te2-  Te165  1  0.42169980  0.58396153  0.55343493  1
  Te2-  Te166  1  0.91977791  0.07967780  0.54630080  1
  Te2-  Te167  1  0.91875752  0.57360388  0.55449387  1
  Te2-  Te168  1  -0.00052201  0.00101672  0.88173267  1
  Te2-  Te169  1  -0.00132573  0.49841431  0.88331975  1
  Te2-  Te170  1  0.49962151  -0.00204679  0.88271989  1
  Te2-  Te171  1  0.50005137  0.50022105  0.88172738  1
  Te2-  Te172  1  0.33044641  0.16381178  0.21455054  1
  Te2-  Te173  1  0.33358641  0.66699386  0.21819914  1
  Te2-  Te174  1  0.83230021  0.16512365  0.21416963  1
  Te2-  Te175  1  0.83410575  0.66818486  0.21713988  1
  Te2-  Te176  1  0.16486514  0.33157178  0.54826329  1
  Te2-  Te177  1  0.16780149  0.83515540  0.55240236  1
  Te2-  Te178  1  0.66691998  0.33169411  0.54728672  1
  Te2-  Te179  1  0.66844230  0.83517602  0.54833756  1
  Te2-  Te180  1  0.32639908  0.41093885  0.70908178  1
  Te2-  Te181  1  0.32795961  0.91507645  0.71130833  1
  Te2-  Te182  1  0.82632841  0.40836157  0.71200667  1
  Te2-  Te183  1  0.82860067  0.91309212  0.70798281  1
  Te2-  Te184  1  0.08590047  0.16906171  0.70951330  1
  Te2-  Te185  1  0.08876214  0.67507263  0.71082943  1
  Te2-  Te186  1  0.58717937  0.17054049  0.71235376  1
  Te2-  Te187  1  0.58873390  0.67438361  0.70904950  1
  Te2-  Te188  1  0.08353929  0.40904263  0.71001314  1
  Te2-  Te189  1  0.09070391  0.91595426  0.70909987  1
  Te2-  Te190  1  0.58670639  0.41332139  0.71201305  1
  Te2-  Te191  1  0.58589967  0.91411137  0.70973129  1
  Te2-  Te192  1  0.16005650  0.08095912  0.04140944  1
  Te2-  Te193  1  0.15805916  0.57633760  0.04487276  1
  Te2-  Te194  1  0.66062780  0.07757373  0.04096262  1
  Te2-  Te195  1  0.65984683  0.57895274  0.04849403  1
  Te2-  Te196  1  0.41937159  0.33771687  0.04710695  1
  Te2-  Te197  1  0.41895242  0.83725999  0.04413507  1
  Te2-  Te198  1  0.91998516  0.33996094  0.04074338  1
  Te2-  Te199  1  0.91587272  0.83748287  0.04267122  1
  Te2-  Te200  1  0.41695253  0.07726766  0.04309718  1
  Te2-  Te201  1  0.41960202  0.58020845  0.04912323  1
  Te2-  Te202  1  0.91799036  0.07973421  0.03925817  1
  Te2-  Te203  1  0.91649306  0.57504708  0.04436010  1
  Te2-  Te204  1  0.49208578  0.24470508  0.37461797  1
  Te2-  Te205  1  0.49455793  0.74790035  0.37766450  1
  Te2-  Te206  1  0.99444082  0.24855052  0.37673958  1
  Te2-  Te207  1  0.99297435  0.74905662  0.38036565  1
  Te2-  Te208  1  0.24974318  0.00322259  0.37688104  1
  Te2-  Te209  1  0.25228587  0.50836151  0.37820068  1
  Te2-  Te210  1  0.75198675  0.00481592  0.37543460  1
  Te2-  Te211  1  0.75541685  0.50825615  0.37776950  1
  Te2-  Te212  1  0.25077249  0.24593931  0.37483799  1
  Te2-  Te213  1  0.25356862  0.74530585  0.37818257  1
  Te2-  Te214  1  0.75270537  0.24760089  0.37587251  1
  Te2-  Te215  1  0.75539907  0.75049086  0.37792757  1
