# generated using pymatgen
data_Ti(CuTe)4
_symmetry_space_group_name_H-M   'P 1'
_cell_length_a   16.89413012
_cell_length_b   16.88735418
_cell_length_c   20.71357508
_cell_angle_alpha   89.99710619
_cell_angle_beta   89.90805196
_cell_angle_gamma   119.98749478
_symmetry_Int_Tables_number   1
_chemical_formula_structural   Ti(CuTe)4
_chemical_formula_sum   'Ti24 Cu96 Te96'
_cell_volume   5118.43372039
_cell_formula_units_Z   24
loop_
 _symmetry_equiv_pos_site_id
 _symmetry_equiv_pos_as_xyz
  1  'x, y, z'
loop_
 _atom_type_symbol
 _atom_type_oxidation_number
  Ti4+  4.0
  Cu+  1.0
  Te2-  -2.0
loop_
 _atom_site_type_symbol
 _atom_site_label
 _atom_site_symmetry_multiplicity
 _atom_site_fract_x
 _atom_site_fract_y
 _atom_site_fract_z
 _atom_site_occupancy
  Ti4+  Ti0  1  -0.00000667  -0.00213550  0.26123068  1
  Ti4+  Ti1  1  -0.00024456  0.50286231  0.25714675  1
  Ti4+  Ti2  1  0.49868498  -0.00163149  0.25643001  1
  Ti4+  Ti3  1  0.49849397  0.49877694  0.26144731  1
  Ti4+  Ti4  1  0.33311863  0.16875598  0.59282511  1
  Ti4+  Ti5  1  0.33193276  0.66675092  0.59048883  1
  Ti4+  Ti6  1  0.83573253  0.16718904  0.58713057  1
  Ti4+  Ti7  1  0.83235019  0.66432093  0.59308168  1
  Ti4+  Ti8  1  0.16835709  0.33634475  0.92449956  1
  Ti4+  Ti9  1  0.16813831  0.83569567  0.92320574  1
  Ti4+  Ti10  1  0.66662560  0.33117935  0.92247645  1
  Ti4+  Ti11  1  0.67087273  0.83426209  0.92174895  1
  Ti4+  Ti12  1  -0.00184713  -0.00119208  0.75482193  1
  Ti4+  Ti13  1  0.00123375  0.50077372  0.75528123  1
  Ti4+  Ti14  1  0.50135461  0.00159127  0.75244368  1
  Ti4+  Ti15  1  0.49909135  0.49887169  0.75484908  1
  Ti4+  Ti16  1  0.33278584  0.16688390  0.09094812  1
  Ti4+  Ti17  1  0.33346469  0.66730682  0.08799266  1
  Ti4+  Ti18  1  0.83222564  0.16563228  0.08908845  1
  Ti4+  Ti19  1  0.83423863  0.66641454  0.09117578  1
  Ti4+  Ti20  1  0.16434358  0.33225654  0.41960293  1
  Ti4+  Ti21  1  0.16509680  0.83319205  0.42452617  1
  Ti4+  Ti22  1  0.66672360  0.33304049  0.42229943  1
  Ti4+  Ti23  1  0.66499377  0.83195501  0.42142504  1
  Cu+  Cu24  1  0.85658106  0.42826392  0.47205935  1
  Cu+  Cu25  1  0.84943942  0.91980348  0.47651014  1
  Cu+  Cu26  1  0.07924718  0.15123150  0.47620743  1
  Cu+  Cu27  1  0.19214520  0.59663911  0.80684413  1
  Cu+  Cu28  1  0.57822461  0.42777383  0.47670688  1
  Cu+  Cu29  1  0.41274701  0.09581307  0.80807660  1
  Cu+  Cu30  1  0.18029446  0.09472962  0.81231850  1
  Cu+  Cu31  1  0.68366457  0.58788779  0.81045850  1
  Cu+  Cu32  1  0.69271854  0.09527034  0.80200563  1
  Cu+  Cu33  1  0.02582611  0.76450208  0.14104562  1
  Cu+  Cu34  1  0.91194570  0.81801902  0.81233469  1
  Cu+  Cu35  1  0.34418801  0.42601251  0.47737551  1
  Cu+  Cu36  1  0.16345335  0.08209968  0.17407423  1
  Cu+  Cu37  1  0.16342504  0.58491472  0.16964752  1
  Cu+  Cu38  1  0.66143357  0.07952469  0.17047647  1
  Cu+  Cu39  1  0.66220150  0.57850715  0.17514062  1
  Cu+  Cu40  1  0.41763278  0.33581892  0.17539509  1
  Cu+  Cu41  1  0.41693929  0.83611428  0.16976417  1
  Cu+  Cu42  1  0.91408818  0.33512285  0.17242539  1
  Cu+  Cu43  1  0.92168898  0.83459969  0.17439886  1
  Cu+  Cu44  1  0.41657037  0.08024251  0.17227906  1
  Cu+  Cu45  1  0.41580412  0.58104819  0.17333989  1
  Cu+  Cu46  1  0.91556549  0.08058594  0.17470322  1
  Cu+  Cu47  1  0.92253075  0.58732901  0.17161403  1
  Cu+  Cu48  1  0.49737616  0.25258556  0.50465969  1
  Cu+  Cu49  1  0.49429349  0.74769419  0.50283753  1
  Cu+  Cu50  1  0.99369827  0.24288100  0.49857116  1
  Cu+  Cu51  1  0.99596682  0.74841308  0.50646278  1
  Cu+  Cu52  1  0.25150413  0.00285418  0.50728115  1
  Cu+  Cu53  1  0.25099411  0.50555760  0.50317735  1
  Cu+  Cu54  1  0.75340636  0.00093392  0.50126630  1
  Cu+  Cu55  1  0.75197084  0.50109073  0.50517716  1
  Cu+  Cu56  1  0.25270400  0.24840527  0.50309887  1
  Cu+  Cu57  1  0.24774438  0.74723379  0.50639160  1
  Cu+  Cu58  1  0.75656651  0.25277386  0.50166241  1
  Cu+  Cu59  1  0.75148691  0.74803316  0.50587828  1
  Cu+  Cu60  1  0.32780105  0.41457317  0.83687013  1
  Cu+  Cu61  1  0.33038587  0.92076891  0.83338125  1
  Cu+  Cu62  1  0.82928445  0.41273177  0.83575016  1
  Cu+  Cu63  1  0.82727684  0.90892713  0.83446816  1
  Cu+  Cu64  1  0.08613632  0.17171126  0.83873916  1
  Cu+  Cu65  1  0.08826188  0.66948063  0.83685963  1
  Cu+  Cu66  1  0.58710663  0.16903730  0.83390033  1
  Cu+  Cu67  1  0.58870265  0.66792648  0.83534800  1
  Cu+  Cu68  1  0.08923444  0.42158907  0.83800414  1
  Cu+  Cu69  1  0.08639242  0.91599338  0.83586290  1
  Cu+  Cu70  1  0.58647354  0.41486960  0.83633279  1
  Cu+  Cu71  1  0.59153945  0.92200617  0.83426135  1
  Cu+  Cu72  1  0.16763950  0.08442069  0.68174777  1
  Cu+  Cu73  1  0.17079964  0.58588635  0.67822493  1
  Cu+  Cu74  1  0.67200506  0.08578903  0.67318521  1
  Cu+  Cu75  1  0.66827041  0.58267238  0.68046021  1
  Cu+  Cu76  1  0.41270047  0.33224789  0.67680617  1
  Cu+  Cu77  1  0.41458833  0.83138952  0.67257688  1
  Cu+  Cu78  1  0.91718115  0.33302360  0.67195305  1
  Cu+  Cu79  1  0.91076490  0.82876287  0.68253360  1
  Cu+  Cu80  1  0.41499812  0.08621529  0.67882736  1
  Cu+  Cu81  1  0.41187473  0.58177563  0.67517182  1
  Cu+  Cu82  1  0.91476503  0.08221627  0.67388621  1
  Cu+  Cu83  1  0.91471337  0.58134887  0.67578297  1
  Cu+  Cu84  1  0.00439731  0.25275658  0.00830022  1
  Cu+  Cu85  1  0.00349704  0.75191458  0.01284215  1
  Cu+  Cu86  1  0.50197215  0.25129316  0.00844941  1
  Cu+  Cu87  1  0.50540945  0.75149117  0.00544621  1
  Cu+  Cu88  1  0.25005936  0.50026601  0.00901960  1
  Cu+  Cu89  1  0.24836398  1.00158669  0.00987459  1
  Cu+  Cu90  1  0.74757159  0.49670902  0.00944082  1
  Cu+  Cu91  1  0.75146789  0.99851359  0.00639098  1
  Cu+  Cu92  1  0.24911457  0.25247219  0.01116193  1
  Cu+  Cu93  1  0.25061833  0.75160253  0.00712083  1
  Cu+  Cu94  1  0.74748560  0.24778584  0.00700169  1
  Cu+  Cu95  1  0.74970359  0.74837075  0.01047860  1
  Cu+  Cu96  1  0.33405425  0.41666982  0.34760833  1
  Cu+  Cu97  1  0.33567528  0.91757521  0.34105961  1
  Cu+  Cu98  1  0.83643407  0.41914547  0.34377281  1
  Cu+  Cu99  1  0.83552643  0.91626747  0.34702431  1
  Cu+  Cu100  1  0.07778307  0.16161086  0.34730081  1
  Cu+  Cu101  1  0.08071243  0.66694338  0.34278543  1
  Cu+  Cu102  1  0.57991826  0.16116914  0.33918134  1
  Cu+  Cu103  1  0.57948341  0.66288364  0.34310273  1
  Cu+  Cu104  1  0.07997774  0.41833950  0.33915154  1
  Cu+  Cu105  1  0.08273135  0.91645707  0.34492989  1
  Cu+  Cu106  1  0.57839278  0.41567840  0.34844628  1
  Cu+  Cu107  1  0.57875320  0.91551510  0.33902639  1
  Cu+  Cu108  1  -0.00224021  0.00118062  0.11919234  1
  Cu+  Cu109  1  -0.00101590  0.49679275  0.11463996  1
  Cu+  Cu110  1  0.49835799  -0.00099242  0.11306086  1
  Cu+  Cu111  1  0.49931934  0.50064192  0.11933473  1
  Cu+  Cu112  1  0.33450254  0.16292414  0.44884769  1
  Cu+  Cu113  1  0.33124688  0.67018033  0.44693118  1
  Cu+  Cu114  1  0.82639593  0.16284492  0.44234011  1
  Cu+  Cu115  1  0.83215624  0.66579808  0.44944425  1
  Cu+  Cu116  1  0.16142308  0.33211953  0.78137694  1
  Cu+  Cu117  1  0.16739535  0.83224055  0.77856559  1
  Cu+  Cu118  1  0.66750716  0.33277627  0.77802818  1
  Cu+  Cu119  1  0.65818130  0.82927711  0.77783618  1
  Te2-  Te120  1  0.00050604  -0.00322347  0.39370079  1
  Te2-  Te121  1  0.00248885  0.50285856  0.38793270  1
  Te2-  Te122  1  0.49927869  -0.00137626  0.38616185  1
  Te2-  Te123  1  0.49892362  0.50147175  0.39442088  1
  Te2-  Te124  1  0.33349444  0.16982098  0.72487559  1
  Te2-  Te125  1  0.33687906  0.66970362  0.72137390  1
  Te2-  Te126  1  0.83778010  0.16932813  0.71745223  1
  Te2-  Te127  1  0.83388663  0.66269850  0.72498243  1
  Te2-  Te128  1  0.16781691  0.33620288  0.05323896  1
  Te2-  Te129  1  0.17117281  0.83637510  0.05293049  1
  Te2-  Te130  1  0.66667451  0.33133949  0.05101246  1
  Te2-  Te131  1  0.66920894  0.83397094  0.05011610  1
  Te2-  Te132  1  0.49391285  0.24807139  0.88212153  1
  Te2-  Te133  1  0.50195577  0.75119684  0.87821555  1
  Te2-  Te134  1  0.99797503  0.25152579  0.88174403  1
  Te2-  Te135  1  0.99598232  0.74560909  0.88464806  1
  Te2-  Te136  1  0.25464079  0.01187575  0.88365310  1
  Te2-  Te137  1  0.25852202  0.51089228  0.88334223  1
  Te2-  Te138  1  0.76021340  0.00809246  0.88047751  1
  Te2-  Te139  1  0.75608770  0.50548478  0.88335118  1
  Te2-  Te140  1  0.25665510  0.24967579  0.88516588  1
  Te2-  Te141  1  0.25804743  0.75366501  0.88086530  1
  Te2-  Te142  1  0.75481567  0.24581527  0.88094812  1
  Te2-  Te143  1  0.75715992  0.74220763  0.88445950  1
  Te2-  Te144  1  0.32770078  0.41373801  0.22029718  1
  Te2-  Te145  1  0.32620845  0.91238163  0.21546457  1
  Te2-  Te146  1  0.82892468  0.41845539  0.21671138  1
  Te2-  Te147  1  0.83015548  0.91184881  0.21935099  1
  Te2-  Te148  1  0.08326774  0.16883202  0.22029301  1
  Te2-  Te149  1  0.09045334  0.67756504  0.21721331  1
  Te2-  Te150  1  0.58490476  0.17087397  0.21404156  1
  Te2-  Te151  1  0.58407947  0.66911720  0.21745854  1
  Te2-  Te152  1  0.08387256  0.41655926  0.21354647  1
  Te2-  Te153  1  0.09070028  0.91506041  0.21910999  1
  Te2-  Te154  1  0.58395263  0.41211230  0.22185182  1
  Te2-  Te155  1  0.58424839  0.91170198  0.21382702  1
  Te2-  Te156  1  0.16084881  0.07992137  0.55335365  1
  Te2-  Te157  1  0.15999796  0.57953659  0.55127814  1
  Te2-  Te158  1  0.66645955  0.08311323  0.54562625  1
  Te2-  Te159  1  0.66049815  0.58070767  0.55269214  1
  Te2-  Te160  1  0.42026589  0.34446813  0.55103726  1
  Te2-  Te161  1  0.41722461  0.83782846  0.54724267  1
  Te2-  Te162  1  0.92576296  0.34063203  0.54650113  1
  Te2-  Te163  1  0.91968825  0.83785365  0.55464516  1
  Te2-  Te164  1  0.41960440  0.08559380  0.55135591  1
  Te2-  Te165  1  0.42061243  0.58137772  0.54981746  1
  Te2-  Te166  1  0.92230080  0.07653133  0.54860986  1
  Te2-  Te167  1  0.92088283  0.58044192  0.55004111  1
  Te2-  Te168  1  -0.00140251  -0.00022145  0.88232415  1
  Te2-  Te169  1  -0.00160672  0.50003010  0.88200785  1
  Te2-  Te170  1  0.49951988  -0.00082069  0.87996976  1
  Te2-  Te171  1  0.49913195  0.49840694  0.88155457  1
  Te2-  Te172  1  0.33292972  0.16569459  0.21716703  1
  Te2-  Te173  1  0.33196407  0.66743578  0.21420466  1
  Te2-  Te174  1  0.83020908  0.16544813  0.21532788  1
  Te2-  Te175  1  0.83145049  0.66465482  0.21788533  1
  Te2-  Te176  1  0.16421748  0.33316091  0.54715188  1
  Te2-  Te177  1  0.16556816  0.83351187  0.55066367  1
  Te2-  Te178  1  0.66661848  0.33061139  0.54987563  1
  Te2-  Te179  1  0.66391307  0.83201689  0.54831076  1
  Te2-  Te180  1  0.32492781  0.41339314  0.71170269  1
  Te2-  Te181  1  0.32715070  0.91343637  0.70735898  1
  Te2-  Te182  1  0.82861694  0.41242592  0.70995292  1
  Te2-  Te183  1  0.82337210  0.91364332  0.70915967  1
  Te2-  Te184  1  0.08362269  0.17296682  0.71096569  1
  Te2-  Te185  1  0.08512873  0.67302704  0.70977520  1
  Te2-  Te186  1  0.58847491  0.17460304  0.70600103  1
  Te2-  Te187  1  0.58308699  0.67099886  0.70841087  1
  Te2-  Te188  1  0.08581958  0.41350087  0.71019953  1
  Te2-  Te189  1  0.08474348  0.91096868  0.70890223  1
  Te2-  Te190  1  0.58342508  0.40973344  0.70952693  1
  Te2-  Te191  1  0.58549281  0.91368514  0.70651647  1
  Te2-  Te192  1  0.16022227  0.08233521  0.04772828  1
  Te2-  Te193  1  0.16127346  0.58204664  0.04356599  1
  Te2-  Te194  1  0.66136166  0.07831316  0.04375360  1
  Te2-  Te195  1  0.66147891  0.57923955  0.04837802  1
  Te2-  Te196  1  0.41980803  0.33889375  0.04821796  1
  Te2-  Te197  1  0.42123776  0.83842079  0.04263728  1
  Te2-  Te198  1  0.91761716  0.33673614  0.04497551  1
  Te2-  Te199  1  0.91948023  0.83968907  0.04700499  1
  Te2-  Te200  1  0.41857852  0.08138121  0.04537779  1
  Te2-  Te201  1  0.42053113  0.58195904  0.04594803  1
  Te2-  Te202  1  0.92054975  0.08215030  0.04669226  1
  Te2-  Te203  1  0.91845424  0.57883940  0.04465418  1
  Te2-  Te204  1  0.49323668  0.24324428  0.37810628  1
  Te2-  Te205  1  0.49273418  0.74640098  0.37711903  1
  Te2-  Te206  1  0.99082024  0.24823112  0.37331589  1
  Te2-  Te207  1  0.99275908  0.74727705  0.38053081  1
  Te2-  Te208  1  0.25293643  0.00434470  0.38018715  1
  Te2-  Te209  1  0.24981114  0.50641170  0.37618580  1
  Te2-  Te210  1  0.74897917  0.00341184  0.37442604  1
  Te2-  Te211  1  0.75187574  0.50679032  0.37736007  1
  Te2-  Te212  1  0.25125873  0.24333024  0.37627189  1
  Te2-  Te213  1  0.25040141  0.74809275  0.37928904  1
  Te2-  Te214  1  0.75036479  0.24591161  0.37437755  1
  Te2-  Te215  1  0.74997016  0.74306455  0.37849024  1
