# generated using pymatgen
data_Ti(CuTe)4
_symmetry_space_group_name_H-M   'P 1'
_cell_length_a   16.86598550
_cell_length_b   16.86301433
_cell_length_c   20.67832744
_cell_angle_alpha   90.05140771
_cell_angle_beta   89.93371538
_cell_angle_gamma   119.97788491
_symmetry_Int_Tables_number   1
_chemical_formula_structural   Ti(CuTe)4
_chemical_formula_sum   'Ti24 Cu96 Te96'
_cell_volume   5094.35715561
_cell_formula_units_Z   24
loop_
 _symmetry_equiv_pos_site_id
 _symmetry_equiv_pos_as_xyz
  1  'x, y, z'
loop_
 _atom_type_symbol
 _atom_type_oxidation_number
  Ti4+  4.0
  Cu+  1.0
  Te2-  -2.0
loop_
 _atom_site_type_symbol
 _atom_site_label
 _atom_site_symmetry_multiplicity
 _atom_site_fract_x
 _atom_site_fract_y
 _atom_site_fract_z
 _atom_site_occupancy
  Ti4+  Ti0  1  0.00192657  0.00254803  0.25756308  1
  Ti4+  Ti1  1  -0.00109643  0.49897678  0.25899162  1
  Ti4+  Ti2  1  0.49494233  -0.00143938  0.25738015  1
  Ti4+  Ti3  1  0.49955934  0.50110439  0.25994646  1
  Ti4+  Ti4  1  0.33203408  0.16799725  0.59532933  1
  Ti4+  Ti5  1  0.33373022  0.66626612  0.59383399  1
  Ti4+  Ti6  1  0.83528374  0.16875969  0.58928241  1
  Ti4+  Ti7  1  0.83314748  0.66819833  0.58779134  1
  Ti4+  Ti8  1  0.16971561  0.33105700  0.92772119  1
  Ti4+  Ti9  1  0.16529739  0.82867888  0.92243124  1
  Ti4+  Ti10  1  0.66895186  0.33202866  0.92260419  1
  Ti4+  Ti11  1  0.66914603  0.83354250  0.92116277  1
  Ti4+  Ti12  1  -0.00156784  -0.00106839  0.75663442  1
  Ti4+  Ti13  1  0.00080076  0.50218756  0.75580546  1
  Ti4+  Ti14  1  0.50205617  0.00229746  0.75233974  1
  Ti4+  Ti15  1  0.49780923  0.49861527  0.75480667  1
  Ti4+  Ti16  1  0.33187630  0.16393497  0.08764516  1
  Ti4+  Ti17  1  0.33374124  0.66678151  0.08927355  1
  Ti4+  Ti18  1  0.83497488  0.16775794  0.08852518  1
  Ti4+  Ti19  1  0.83258092  0.66637674  0.09046952  1
  Ti4+  Ti20  1  0.16528697  0.33335509  0.42489374  1
  Ti4+  Ti21  1  0.16521698  0.83446446  0.42469667  1
  Ti4+  Ti22  1  0.66701132  0.33458421  0.42178576  1
  Ti4+  Ti23  1  0.66608199  0.83330241  0.42226799  1
  Cu+  Cu24  1  0.01874777  0.26454164  0.14368272  1
  Cu+  Cu25  1  0.69345557  0.09517009  0.80308429  1
  Cu+  Cu26  1  0.18072189  0.08506220  0.81321361  1
  Cu+  Cu27  1  0.57095805  0.64523609  0.47518394  1
  Cu+  Cu28  1  0.23477899  0.97319400  0.13718215  1
  Cu+  Cu29  1  0.41188620  0.31418468  0.81102918  1
  Cu+  Cu30  1  0.85763233  0.42878339  0.47280090  1
  Cu+  Cu31  1  0.41468144  0.82054679  0.80882959  1
  Cu+  Cu32  1  0.24764164  0.25893985  0.14770294  1
  Cu+  Cu33  1  0.18516646  0.58492363  0.80995138  1
  Cu+  Cu34  1  0.90554184  0.80640835  0.80420512  1
  Cu+  Cu35  1  0.85625519  0.92894469  0.47216630  1
  Cu+  Cu36  1  0.16263497  0.08015564  0.16772285  1
  Cu+  Cu37  1  0.16366830  0.58269160  0.17176850  1
  Cu+  Cu38  1  0.66065964  0.08239081  0.17101629  1
  Cu+  Cu39  1  0.66355688  0.58397181  0.17416410  1
  Cu+  Cu40  1  0.41898319  0.34016035  0.17114432  1
  Cu+  Cu41  1  0.41540234  0.83689421  0.17057414  1
  Cu+  Cu42  1  0.91989813  0.33790644  0.17201049  1
  Cu+  Cu43  1  0.91717616  0.83699212  0.17186683  1
  Cu+  Cu44  1  0.41055336  0.07389728  0.16859551  1
  Cu+  Cu45  1  0.41861721  0.58381297  0.17291327  1
  Cu+  Cu46  1  0.92081057  0.08705703  0.17054464  1
  Cu+  Cu47  1  0.91561043  0.58065913  0.17424865  1
  Cu+  Cu48  1  0.49573124  0.25159508  0.50718958  1
  Cu+  Cu49  1  0.49480935  0.74424856  0.50556276  1
  Cu+  Cu50  1  0.99534450  0.24833104  0.50361173  1
  Cu+  Cu51  1  0.99607253  0.75106261  0.50289296  1
  Cu+  Cu52  1  0.24805826  0.00390136  0.50925363  1
  Cu+  Cu53  1  0.24870709  0.50214772  0.50752124  1
  Cu+  Cu54  1  0.75553397  0.00386401  0.50317448  1
  Cu+  Cu55  1  0.75590697  0.50321876  0.50071717  1
  Cu+  Cu56  1  0.25030397  0.24971257  0.50975050  1
  Cu+  Cu57  1  0.24939671  0.74936500  0.50937238  1
  Cu+  Cu58  1  0.75482944  0.25384830  0.50348601  1
  Cu+  Cu59  1  0.75104499  0.75036105  0.50175246  1
  Cu+  Cu60  1  0.33133751  0.40926023  0.83735755  1
  Cu+  Cu61  1  0.32925897  0.91037885  0.83285457  1
  Cu+  Cu62  1  0.82955073  0.41449164  0.83612789  1
  Cu+  Cu63  1  0.82907173  0.90802343  0.83414468  1
  Cu+  Cu64  1  0.08878609  0.16876174  0.84004192  1
  Cu+  Cu65  1  0.08888196  0.66815783  0.83449034  1
  Cu+  Cu66  1  0.59389383  0.17211548  0.83247783  1
  Cu+  Cu67  1  0.58771808  0.67077561  0.83412579  1
  Cu+  Cu68  1  0.08506819  0.41505333  0.84207579  1
  Cu+  Cu69  1  0.08042202  0.91005293  0.83742144  1
  Cu+  Cu70  1  0.58409518  0.41471419  0.83662010  1
  Cu+  Cu71  1  0.58901970  0.91926148  0.83351721  1
  Cu+  Cu72  1  0.16860673  0.08693067  0.68287028  1
  Cu+  Cu73  1  0.17039804  0.58717685  0.68148296  1
  Cu+  Cu74  1  0.67347474  0.09010259  0.67396563  1
  Cu+  Cu75  1  0.66645272  0.58492035  0.67082498  1
  Cu+  Cu76  1  0.41156344  0.32916175  0.68172589  1
  Cu+  Cu77  1  0.41449007  0.83119924  0.67860669  1
  Cu+  Cu78  1  0.91637344  0.33539026  0.67448910  1
  Cu+  Cu79  1  0.91160761  0.83050836  0.67678141  1
  Cu+  Cu80  1  0.41638301  0.08698768  0.67472988  1
  Cu+  Cu81  1  0.41480484  0.58300266  0.67661301  1
  Cu+  Cu82  1  0.91593190  0.08522762  0.67452370  1
  Cu+  Cu83  1  0.91512062  0.58511910  0.67279585  1
  Cu+  Cu84  1  0.00561633  0.25166809  0.01473108  1
  Cu+  Cu85  1  -0.00149618  0.74799715  0.00796392  1
  Cu+  Cu86  1  0.50346534  0.24969492  0.00648932  1
  Cu+  Cu87  1  0.50320218  0.75251044  0.00646633  1
  Cu+  Cu88  1  0.25233084  0.49928285  0.01142408  1
  Cu+  Cu89  1  0.24760043  0.99359639  0.01040693  1
  Cu+  Cu90  1  0.74680352  0.49590933  0.00714651  1
  Cu+  Cu91  1  0.74921426  0.99826222  0.00508173  1
  Cu+  Cu92  1  0.25116322  0.24892003  0.01782565  1
  Cu+  Cu93  1  0.24990824  0.74754665  0.00920033  1
  Cu+  Cu94  1  0.75034438  0.25037083  0.00685943  1
  Cu+  Cu95  1  0.74998156  0.75027019  0.00712325  1
  Cu+  Cu96  1  0.33406564  0.41787818  0.34494942  1
  Cu+  Cu97  1  0.33323163  0.91829906  0.34322207  1
  Cu+  Cu98  1  0.83712596  0.41740770  0.34437766  1
  Cu+  Cu99  1  0.83844067  0.92280680  0.34392645  1
  Cu+  Cu100  1  0.08486085  0.16798766  0.34476004  1
  Cu+  Cu101  1  0.08144686  0.66550996  0.34254096  1
  Cu+  Cu102  1  0.57654964  0.16236326  0.33949544  1
  Cu+  Cu103  1  0.57952780  0.66334023  0.34662339  1
  Cu+  Cu104  1  0.08147933  0.41604703  0.34398157  1
  Cu+  Cu105  1  0.08444240  0.91911268  0.34210866  1
  Cu+  Cu106  1  0.58009360  0.41720221  0.34176900  1
  Cu+  Cu107  1  0.57854768  0.91783704  0.34006725  1
  Cu+  Cu108  1  -0.00633546  -0.00383809  0.11316489  1
  Cu+  Cu109  1  0.00066596  0.50455047  0.11590156  1
  Cu+  Cu110  1  0.50301222  -0.00067225  0.11267317  1
  Cu+  Cu111  1  0.50337363  0.50473389  0.11669559  1
  Cu+  Cu112  1  0.33254291  0.16655607  0.45343574  1
  Cu+  Cu113  1  0.32928549  0.66743053  0.45207661  1
  Cu+  Cu114  1  0.82825266  0.16549418  0.44560246  1
  Cu+  Cu115  1  0.83116177  0.66632690  0.44271183  1
  Cu+  Cu116  1  0.16273001  0.33314018  0.78460569  1
  Cu+  Cu117  1  0.16537029  0.83378417  0.77717079  1
  Cu+  Cu118  1  0.66821676  0.33857141  0.77722893  1
  Cu+  Cu119  1  0.66443293  0.83249131  0.77477389  1
  Te2-  Te120  1  0.00401039  0.00284213  0.38794810  1
  Te2-  Te121  1  0.00288758  0.50180803  0.38941210  1
  Te2-  Te122  1  0.49767869  -0.00017968  0.38694163  1
  Te2-  Te123  1  0.49800169  0.49751616  0.39069629  1
  Te2-  Te124  1  0.33343635  0.16426638  0.72790178  1
  Te2-  Te125  1  0.33600489  0.66668357  0.72615306  1
  Te2-  Te126  1  0.83856465  0.17152259  0.71989461  1
  Te2-  Te127  1  0.82956937  0.66341293  0.71804252  1
  Te2-  Te128  1  0.17130817  0.33572642  0.05949797  1
  Te2-  Te129  1  0.16333133  0.82651213  0.05228658  1
  Te2-  Te130  1  0.66721544  0.33151976  0.05173136  1
  Te2-  Te131  1  0.66822476  0.83405567  0.04984623  1
  Te2-  Te132  1  0.49632657  0.24173550  0.88058331  1
  Te2-  Te133  1  0.49645198  0.74687514  0.88012992  1
  Te2-  Te134  1  0.99960312  0.24725655  0.88687683  1
  Te2-  Te135  1  0.99259085  0.73994872  0.88148101  1
  Te2-  Te136  1  0.25406431  0.00118738  0.88284146  1
  Te2-  Te137  1  0.25794081  0.50319258  0.88517069  1
  Te2-  Te138  1  0.75846403  0.00643335  0.87900501  1
  Te2-  Te139  1  0.75138855  0.50350858  0.88104836  1
  Te2-  Te140  1  0.25716021  0.24253000  0.88884940  1
  Te2-  Te141  1  0.25615505  0.74308141  0.88293468  1
  Te2-  Te142  1  0.75983223  0.24807718  0.88120786  1
  Te2-  Te143  1  0.75257838  0.74160845  0.88144769  1
  Te2-  Te144  1  0.32597109  0.41652048  0.21878538  1
  Te2-  Te145  1  0.31994583  0.90773668  0.21701747  1
  Te2-  Te146  1  0.82764307  0.41231276  0.21735293  1
  Te2-  Te147  1  0.83149292  0.91945579  0.21655570  1
  Te2-  Te148  1  0.09021213  0.17800160  0.21770062  1
  Te2-  Te149  1  0.08414828  0.67027928  0.21663486  1
  Te2-  Te150  1  0.57850955  0.16943321  0.21344649  1
  Te2-  Te151  1  0.58488222  0.67290023  0.21933709  1
  Te2-  Te152  1  0.09005771  0.41613848  0.21817296  1
  Te2-  Te153  1  0.08537090  0.91259016  0.21600831  1
  Te2-  Te154  1  0.58465646  0.41496969  0.21629875  1
  Te2-  Te155  1  0.58277275  0.91446943  0.21450529  1
  Te2-  Te156  1  0.16025697  0.08273948  0.55552422  1
  Te2-  Te157  1  0.16209097  0.58168988  0.55437223  1
  Te2-  Te158  1  0.66563724  0.08399972  0.54653646  1
  Te2-  Te159  1  0.66130535  0.57805753  0.54512631  1
  Te2-  Te160  1  0.41766781  0.33951520  0.55458277  1
  Te2-  Te161  1  0.41920409  0.83651740  0.55112544  1
  Te2-  Te162  1  0.92405347  0.34314368  0.54909409  1
  Te2-  Te163  1  0.92067797  0.84201794  0.54944017  1
  Te2-  Te164  1  0.41758555  0.08340314  0.54955313  1
  Te2-  Te165  1  0.41627693  0.57554054  0.55119460  1
  Te2-  Te166  1  0.92390285  0.08252545  0.54908728  1
  Te2-  Te167  1  0.92330024  0.58429580  0.54751011  1
  Te2-  Te168  1  -0.00197898  -0.00237792  0.88424662  1
  Te2-  Te169  1  -0.00150089  0.49958633  0.88312315  1
  Te2-  Te170  1  0.50030059  0.00097644  0.87981207  1
  Te2-  Te171  1  0.50202117  0.50180170  0.88197043  1
  Te2-  Te172  1  0.33330121  0.16798622  0.21501452  1
  Te2-  Te173  1  0.33268764  0.66807546  0.21549764  1
  Te2-  Te174  1  0.83010782  0.16650435  0.21548673  1
  Te2-  Te175  1  0.83297001  0.66817783  0.21684088  1
  Te2-  Te176  1  0.16334319  0.33300753  0.55122823  1
  Te2-  Te177  1  0.16404064  0.83418910  0.55116945  1
  Te2-  Te178  1  0.66642390  0.33500385  0.54886046  1
  Te2-  Te179  1  0.66549056  0.83399586  0.54973525  1
  Te2-  Te180  1  0.32279659  0.41307692  0.71156257  1
  Te2-  Te181  1  0.32722168  0.91640745  0.70724763  1
  Te2-  Te182  1  0.82858389  0.41647581  0.71002790  1
  Te2-  Te183  1  0.82604235  0.91589041  0.70844145  1
  Te2-  Te184  1  0.08396420  0.17380560  0.71348648  1
  Te2-  Te185  1  0.08463142  0.67487572  0.70856301  1
  Te2-  Te186  1  0.58717129  0.17575316  0.70661101  1
  Te2-  Te187  1  0.58510863  0.67151144  0.70870898  1
  Te2-  Te188  1  0.08591009  0.41379342  0.71301097  1
  Te2-  Te189  1  0.08433642  0.91236026  0.70897442  1
  Te2-  Te190  1  0.58637815  0.41532845  0.70838237  1
  Te2-  Te191  1  0.58888504  0.91648046  0.70513227  1
  Te2-  Te192  1  0.15651941  0.07491772  0.04126309  1
  Te2-  Te193  1  0.16043980  0.57798216  0.04505609  1
  Te2-  Te194  1  0.66317957  0.08095146  0.04365613  1
  Te2-  Te195  1  0.66146279  0.58066006  0.04600746  1
  Te2-  Te196  1  0.42424838  0.33937855  0.04431440  1
  Te2-  Te197  1  0.41983776  0.83878539  0.04381418  1
  Te2-  Te198  1  0.92063093  0.34089637  0.04427189  1
  Te2-  Te199  1  0.91899425  0.83788145  0.04456622  1
  Te2-  Te200  1  0.42012974  0.07932728  0.04200561  1
  Te2-  Te201  1  0.42274469  0.58288673  0.04583137  1
  Te2-  Te202  1  0.91850191  0.07830881  0.04317911  1
  Te2-  Te203  1  0.91651664  0.57857812  0.04623288  1
  Te2-  Te204  1  0.49367942  0.24815939  0.38012043  1
  Te2-  Te205  1  0.49246447  0.74880918  0.37868651  1
  Te2-  Te206  1  0.99266792  0.24619835  0.37834926  1
  Te2-  Te207  1  0.99403019  0.74873105  0.37704124  1
  Te2-  Te208  1  0.25249412  0.00707559  0.38170403  1
  Te2-  Te209  1  0.25165977  0.50596364  0.38101720  1
  Te2-  Te210  1  0.74900974  0.00539048  0.37584687  1
  Te2-  Te211  1  0.75166305  0.50609654  0.37392509  1
  Te2-  Te212  1  0.25377640  0.24839508  0.38246892  1
  Te2-  Te213  1  0.25087596  0.74803388  0.38152717  1
  Te2-  Te214  1  0.74808750  0.24432147  0.37554862  1
  Te2-  Te215  1  0.75408598  0.74925900  0.37390625  1
