# generated using pymatgen
data_Ti(CuTe)4
_symmetry_space_group_name_H-M   'P 1'
_cell_length_a   16.89726442
_cell_length_b   16.89083119
_cell_length_c   20.71574155
_cell_angle_alpha   89.94781141
_cell_angle_beta   89.99869923
_cell_angle_gamma   120.01782704
_symmetry_Int_Tables_number   1
_chemical_formula_structural   Ti(CuTe)4
_chemical_formula_sum   'Ti24 Cu96 Te96'
_cell_volume   5119.41395194
_cell_formula_units_Z   24
loop_
 _symmetry_equiv_pos_site_id
 _symmetry_equiv_pos_as_xyz
  1  'x, y, z'
loop_
 _atom_type_symbol
 _atom_type_oxidation_number
  Ti4+  4.0
  Cu+  1.0
  Te2-  -2.0
loop_
 _atom_site_type_symbol
 _atom_site_label
 _atom_site_symmetry_multiplicity
 _atom_site_fract_x
 _atom_site_fract_y
 _atom_site_fract_z
 _atom_site_occupancy
  Ti4+  Ti0  1  0.00141508  0.00503791  0.25572919  1
  Ti4+  Ti1  1  0.00130706  0.50208350  0.25868097  1
  Ti4+  Ti2  1  0.49957443  -0.00253797  0.25750395  1
  Ti4+  Ti3  1  0.50023035  0.50132955  0.25971316  1
  Ti4+  Ti4  1  0.33452576  0.16836246  0.58640292  1
  Ti4+  Ti5  1  0.33195381  0.66658187  0.59496463  1
  Ti4+  Ti6  1  0.83301716  0.16577601  0.59239937  1
  Ti4+  Ti7  1  0.83572579  0.66878596  0.58720183  1
  Ti4+  Ti8  1  0.16592561  0.33395558  0.92664921  1
  Ti4+  Ti9  1  0.16591830  0.83233936  0.92523175  1
  Ti4+  Ti10  1  0.66651466  0.33073208  0.92252847  1
  Ti4+  Ti11  1  0.66471157  0.82971504  0.92574506  1
  Ti4+  Ti12  1  0.00121895  0.00013828  0.75612589  1
  Ti4+  Ti13  1  -0.00173952  0.49794463  0.75474819  1
  Ti4+  Ti14  1  0.49873911  -0.00093691  0.75502441  1
  Ti4+  Ti15  1  0.50068291  0.50058751  0.75635306  1
  Ti4+  Ti16  1  0.33201064  0.16585262  0.08912708  1
  Ti4+  Ti17  1  0.33253743  0.66631536  0.09042769  1
  Ti4+  Ti18  1  0.83320540  0.16502340  0.08791638  1
  Ti4+  Ti19  1  0.83287099  0.66492159  0.08907049  1
  Ti4+  Ti20  1  0.16693900  0.33399962  0.42337209  1
  Ti4+  Ti21  1  0.16641337  0.83369504  0.42045196  1
  Ti4+  Ti22  1  0.66630017  0.33319302  0.41933380  1
  Ti4+  Ti23  1  0.66707804  0.83332334  0.42239665  1
  Cu+  Cu24  1  0.90497911  0.30909576  0.80797295  1
  Cu+  Cu25  1  0.52036778  0.75981953  0.14284966  1
  Cu+  Cu26  1  0.24588060  0.26486504  0.14409517  1
  Cu+  Cu27  1  0.07353257  0.92990544  0.46926172  1
  Cu+  Cu28  1  0.41083057  0.59225659  0.81491114  1
  Cu+  Cu29  1  0.01770527  0.26468292  0.14210064  1
  Cu+  Cu30  1  0.35249890  0.92467902  0.47462898  1
  Cu+  Cu31  1  0.17736864  0.59098872  0.81459853  1
  Cu+  Cu32  1  0.57933041  0.42884362  0.47532933  1
  Cu+  Cu33  1  0.35091509  0.43107325  0.47846491  1
  Cu+  Cu34  1  0.07582613  0.64719555  0.47495342  1
  Cu+  Cu35  1  0.23927979  0.76160905  0.14185886  1
  Cu+  Cu36  1  0.16392671  0.08846524  0.16936853  1
  Cu+  Cu37  1  0.16243766  0.58676857  0.17208036  1
  Cu+  Cu38  1  0.66340700  0.07803611  0.16985995  1
  Cu+  Cu39  1  0.66507122  0.58098831  0.17181761  1
  Cu+  Cu40  1  0.41588867  0.33655509  0.17341468  1
  Cu+  Cu41  1  0.41748015  0.83523958  0.17102124  1
  Cu+  Cu42  1  0.92022004  0.33608590  0.17182185  1
  Cu+  Cu43  1  0.91763031  0.83646167  0.17129670  1
  Cu+  Cu44  1  0.41734530  0.07978676  0.17132361  1
  Cu+  Cu45  1  0.42162228  0.58397994  0.17173894  1
  Cu+  Cu46  1  0.92343866  0.08791792  0.16750372  1
  Cu+  Cu47  1  0.91921700  0.58334541  0.17174113  1
  Cu+  Cu48  1  0.49664642  0.25135893  0.49874398  1
  Cu+  Cu49  1  0.49878737  0.74793183  0.50655074  1
  Cu+  Cu50  1  0.99539955  0.24849135  0.50708832  1
  Cu+  Cu51  1  0.99809431  0.74976801  0.49957915  1
  Cu+  Cu52  1  0.25122259  0.00352800  0.49945445  1
  Cu+  Cu53  1  0.25238915  0.50399847  0.50826831  1
  Cu+  Cu54  1  0.75197075  0.00216961  0.50597022  1
  Cu+  Cu55  1  0.75176796  0.50494689  0.50070147  1
  Cu+  Cu56  1  0.25575252  0.25277970  0.50098295  1
  Cu+  Cu57  1  0.25018323  0.74729067  0.50520974  1
  Cu+  Cu58  1  0.75256718  0.24829257  0.50492869  1
  Cu+  Cu59  1  0.75558027  0.75150481  0.50053189  1
  Cu+  Cu60  1  0.33179623  0.41738346  0.83989635  1
  Cu+  Cu61  1  0.32985715  0.91322562  0.83784365  1
  Cu+  Cu62  1  0.82760741  0.40757677  0.83529919  1
  Cu+  Cu63  1  0.83143571  0.91191381  0.83924433  1
  Cu+  Cu64  1  0.08585653  0.16867371  0.83954654  1
  Cu+  Cu65  1  0.08699652  0.67225434  0.83806372  1
  Cu+  Cu66  1  0.58341865  0.16856285  0.83596908  1
  Cu+  Cu67  1  0.58282861  0.67004475  0.83917064  1
  Cu+  Cu68  1  0.08220215  0.41233604  0.83695223  1
  Cu+  Cu69  1  0.08411774  0.91482199  0.83882094  1
  Cu+  Cu70  1  0.58688015  0.41465233  0.83751751  1
  Cu+  Cu71  1  0.58185190  0.91237634  0.83814352  1
  Cu+  Cu72  1  0.16918688  0.08475460  0.67195411  1
  Cu+  Cu73  1  0.16733579  0.58344961  0.68268223  1
  Cu+  Cu74  1  0.66818258  0.08334264  0.67531115  1
  Cu+  Cu75  1  0.66969287  0.58569285  0.67324949  1
  Cu+  Cu76  1  0.41777025  0.33321356  0.67426097  1
  Cu+  Cu77  1  0.41411481  0.83171283  0.67675617  1
  Cu+  Cu78  1  0.91263454  0.32766224  0.67938150  1
  Cu+  Cu79  1  0.91886595  0.83307251  0.67285275  1
  Cu+  Cu80  1  0.41482053  0.08306417  0.67131010  1
  Cu+  Cu81  1  0.41435316  0.58398959  0.68489135  1
  Cu+  Cu82  1  0.91670642  0.08456857  0.67603626  1
  Cu+  Cu83  1  0.91514971  0.58466862  0.67149100  1
  Cu+  Cu84  1  0.00105758  0.24994983  0.01327004  1
  Cu+  Cu85  1  0.00134031  0.74863509  0.00790863  1
  Cu+  Cu86  1  0.50277321  0.24974517  0.00662679  1
  Cu+  Cu87  1  0.50134809  0.74833983  0.01443584  1
  Cu+  Cu88  1  0.24769582  0.49942196  0.01136722  1
  Cu+  Cu89  1  0.24878664  0.99673836  0.00834622  1
  Cu+  Cu90  1  0.74876964  0.49395408  0.00630996  1
  Cu+  Cu91  1  0.74643062  0.99383211  0.00801404  1
  Cu+  Cu92  1  0.24848516  0.25137128  0.01438843  1
  Cu+  Cu93  1  0.24672207  0.75017789  0.01355385  1
  Cu+  Cu94  1  0.74731761  0.24793654  0.00675100  1
  Cu+  Cu95  1  0.74604937  0.74639588  0.00879670  1
  Cu+  Cu96  1  0.33602561  0.41946175  0.34837140  1
  Cu+  Cu97  1  0.33622097  0.91553901  0.34531995  1
  Cu+  Cu98  1  0.83589745  0.41671108  0.34067750  1
  Cu+  Cu99  1  0.83517374  0.92036812  0.33897749  1
  Cu+  Cu100  1  0.08151340  0.16831379  0.34274660  1
  Cu+  Cu101  1  0.08154730  0.66402651  0.34623220  1
  Cu+  Cu102  1  0.58349291  0.16232691  0.34042139  1
  Cu+  Cu103  1  0.58311012  0.66674447  0.34275132  1
  Cu+  Cu104  1  0.08245994  0.41879256  0.34352167  1
  Cu+  Cu105  1  0.08113191  0.92138327  0.34089074  1
  Cu+  Cu106  1  0.58017714  0.41713739  0.34550848  1
  Cu+  Cu107  1  0.58098021  0.91456410  0.34291632  1
  Cu+  Cu108  1  -0.00208558  -0.00431808  0.11266564  1
  Cu+  Cu109  1  -0.00506390  0.49735167  0.11535504  1
  Cu+  Cu110  1  0.50171744  0.00339212  0.11337455  1
  Cu+  Cu111  1  0.50288538  0.49801911  0.11585639  1
  Cu+  Cu112  1  0.33342127  0.16628534  0.44085184  1
  Cu+  Cu113  1  0.33598998  0.66781922  0.45147510  1
  Cu+  Cu114  1  0.83211735  0.16481473  0.45002228  1
  Cu+  Cu115  1  0.83331571  0.66731748  0.44154550  1
  Cu+  Cu116  1  0.16813998  0.32983070  0.78320056  1
  Cu+  Cu117  1  0.16736088  0.83777019  0.78192065  1
  Cu+  Cu118  1  0.66324051  0.33214417  0.77794777  1
  Cu+  Cu119  1  0.67066012  0.83766891  0.78310982  1
  Te2-  Te120  1  -0.00186355  0.00363382  0.38623199  1
  Te2-  Te121  1  -0.00180369  0.49793688  0.38931308  1
  Te2-  Te122  1  0.50216454  -0.00051544  0.38813046  1
  Te2-  Te123  1  0.50205089  0.50408718  0.39139989  1
  Te2-  Te124  1  0.33417709  0.16713369  0.71462129  1
  Te2-  Te125  1  0.33278254  0.66913293  0.72637768  1
  Te2-  Te126  1  0.83104514  0.16182957  0.72342476  1
  Te2-  Te127  1  0.83467191  0.66800898  0.71577483  1
  Te2-  Te128  1  0.16732160  0.33642681  0.05838761  1
  Te2-  Te129  1  0.16397989  0.83386078  0.05600879  1
  Te2-  Te130  1  0.66628303  0.33048864  0.05170161  1
  Te2-  Te131  1  0.66802862  0.83128718  0.05636419  1
  Te2-  Te132  1  0.49461674  0.24671174  0.88096189  1
  Te2-  Te133  1  0.49018674  0.74662343  0.88714675  1
  Te2-  Te134  1  0.99430152  0.24475973  0.88562895  1
  Te2-  Te135  1  0.99506517  0.74632810  0.88220460  1
  Te2-  Te136  1  0.25230869  0.00310285  0.88246383  1
  Te2-  Te137  1  0.25275871  0.50939413  0.88517998  1
  Te2-  Te138  1  0.75007605  -0.00018204  0.88196783  1
  Te2-  Te139  1  0.75499824  0.50235003  0.88054020  1
  Te2-  Te140  1  0.25274804  0.25055380  0.88651684  1
  Te2-  Te141  1  0.25576720  0.74752622  0.88646658  1
  Te2-  Te142  1  0.75044320  0.23933591  0.88144412  1
  Te2-  Te143  1  0.74948662  0.74369647  0.88310017  1
  Te2-  Te144  1  0.32719792  0.41824951  0.22049984  1
  Te2-  Te145  1  0.32597904  0.91305640  0.21804777  1
  Te2-  Te146  1  0.83121205  0.41461924  0.21480363  1
  Te2-  Te147  1  0.83167065  0.92014389  0.21312626  1
  Te2-  Te148  1  0.09007204  0.18259196  0.21700997  1
  Te2-  Te149  1  0.08515411  0.67647922  0.21923045  1
  Te2-  Te150  1  0.58586869  0.16806263  0.21449857  1
  Te2-  Te151  1  0.59023973  0.67409895  0.21686339  1
  Te2-  Te152  1  0.09131559  0.41921455  0.21765704  1
  Te2-  Te153  1  0.08672876  0.92008025  0.21409206  1
  Te2-  Te154  1  0.58325862  0.41401987  0.21808214  1
  Te2-  Te155  1  0.58764307  0.91217308  0.21714249  1
  Te2-  Te156  1  0.16183472  0.08421894  0.54571958  1
  Te2-  Te157  1  0.15937289  0.57816908  0.55436305  1
  Te2-  Te158  1  0.66193828  0.08050416  0.54956076  1
  Te2-  Te159  1  0.66193740  0.58499710  0.54735072  1
  Te2-  Te160  1  0.42372932  0.34596884  0.54853108  1
  Te2-  Te161  1  0.42030425  0.83831371  0.55049696  1
  Te2-  Te162  1  0.91849796  0.33835525  0.55272158  1
  Te2-  Te163  1  0.92190081  0.84236645  0.54678840  1
  Te2-  Te164  1  0.42196225  0.08313194  0.54522305  1
  Te2-  Te165  1  0.42137793  0.58256625  0.55622329  1
  Te2-  Te166  1  0.91970057  0.08079461  0.55038171  1
  Te2-  Te167  1  0.91911382  0.57905697  0.54585609  1
  Te2-  Te168  1  0.00031053  -0.00086356  0.88238336  1
  Te2-  Te169  1  -0.00198721  0.49949187  0.88202324  1
  Te2-  Te170  1  0.49907843  -0.00070800  0.88116055  1
  Te2-  Te171  1  0.50216114  0.49884942  0.88316243  1
  Te2-  Te172  1  0.33330495  0.16564877  0.21592734  1
  Te2-  Te173  1  0.33273501  0.66513705  0.21757901  1
  Te2-  Te174  1  0.83247006  0.16537275  0.21486201  1
  Te2-  Te175  1  0.83415952  0.66749993  0.21524559  1
  Te2-  Te176  1  0.16636100  0.33222509  0.55001652  1
  Te2-  Te177  1  0.16677335  0.83491295  0.54869006  1
  Te2-  Te178  1  0.66635684  0.33388869  0.54606464  1
  Te2-  Te179  1  0.66896401  0.83265267  0.54854759  1
  Te2-  Te180  1  0.32689637  0.41088813  0.71268244  1
  Te2-  Te181  1  0.32645452  0.91410349  0.71101708  1
  Te2-  Te182  1  0.82620317  0.41457326  0.70865787  1
  Te2-  Te183  1  0.83019694  0.91384350  0.71203559  1
  Te2-  Te184  1  0.08702139  0.17168912  0.71228152  1
  Te2-  Te185  1  0.08350656  0.67243557  0.71113109  1
  Te2-  Te186  1  0.58444799  0.17032608  0.70969208  1
  Te2-  Te187  1  0.58842617  0.67381408  0.71206684  1
  Te2-  Te188  1  0.08545962  0.41022921  0.71035104  1
  Te2-  Te189  1  0.08750388  0.91573405  0.71118763  1
  Te2-  Te190  1  0.58710966  0.41613046  0.71053649  1
  Te2-  Te191  1  0.58493106  0.91268546  0.71177383  1
  Te2-  Te192  1  0.15959653  0.07813828  0.04287218  1
  Te2-  Te193  1  0.15788739  0.57855804  0.04592292  1
  Te2-  Te194  1  0.66102754  0.07814906  0.04373249  1
  Te2-  Te195  1  0.66157774  0.57673470  0.04515594  1
  Te2-  Te196  1  0.42136749  0.33849754  0.04519711  1
  Te2-  Te197  1  0.41944522  0.83949177  0.04400911  1
  Te2-  Te198  1  0.91708369  0.33829844  0.04385238  1
  Te2-  Te199  1  0.91729386  0.83545331  0.04393494  1
  Te2-  Te200  1  0.41830000  0.08032000  0.04493186  1
  Te2-  Te201  1  0.41716952  0.57626587  0.04576721  1
  Te2-  Te202  1  0.91738319  0.07655438  0.04148848  1
  Te2-  Te203  1  0.91822262  0.57912226  0.04493951  1
  Te2-  Te204  1  0.49377295  0.24380187  0.37265518  1
  Te2-  Te205  1  0.49364412  0.74579451  0.38014992  1
  Te2-  Te206  1  0.99402399  0.24932356  0.38057542  1
  Te2-  Te207  1  0.99330934  0.74918934  0.37267606  1
  Te2-  Te208  1  0.25306259  0.00627359  0.37228281  1
  Te2-  Te209  1  0.25214846  0.50793296  0.38089206  1
  Te2-  Te210  1  0.75153145  0.00505589  0.37890943  1
  Te2-  Te211  1  0.75406678  0.50600330  0.37374633  1
  Te2-  Te212  1  0.25149252  0.24637584  0.37505922  1
  Te2-  Te213  1  0.25308578  0.74433080  0.37786428  1
  Te2-  Te214  1  0.75317799  0.24689975  0.37812259  1
  Te2-  Te215  1  0.75434019  0.75016298  0.37471018  1
