# generated using pymatgen
data_Ti(CuTe)4
_symmetry_space_group_name_H-M   'P 1'
_cell_length_a   16.89240486
_cell_length_b   16.89524736
_cell_length_c   20.72010170
_cell_angle_alpha   90.09484996
_cell_angle_beta   89.95034207
_cell_angle_gamma   119.98136099
_symmetry_Int_Tables_number   1
_chemical_formula_structural   Ti(CuTe)4
_chemical_formula_sum   'Ti24 Cu96 Te96'
_cell_volume   5122.23492817
_cell_formula_units_Z   24
loop_
 _symmetry_equiv_pos_site_id
 _symmetry_equiv_pos_as_xyz
  1  'x, y, z'
loop_
 _atom_type_symbol
 _atom_type_oxidation_number
  Ti4+  4.0
  Cu+  1.0
  Te2-  -2.0
loop_
 _atom_site_type_symbol
 _atom_site_label
 _atom_site_symmetry_multiplicity
 _atom_site_fract_x
 _atom_site_fract_y
 _atom_site_fract_z
 _atom_site_occupancy
  Ti4+  Ti0  1  -0.00459521  -0.00236571  0.25877523  1
  Ti4+  Ti1  1  -0.00084502  0.49966688  0.25736221  1
  Ti4+  Ti2  1  0.49898973  -0.00016853  0.25591276  1
  Ti4+  Ti3  1  0.49652298  0.49844848  0.25768020  1
  Ti4+  Ti4  1  0.33716216  0.16874716  0.58895131  1
  Ti4+  Ti5  1  0.33662729  0.66691696  0.59066394  1
  Ti4+  Ti6  1  0.83528283  0.16736751  0.58894407  1
  Ti4+  Ti7  1  0.83590747  0.66627604  0.59148558  1
  Ti4+  Ti8  1  0.16588225  0.33209268  0.92496571  1
  Ti4+  Ti9  1  0.16610030  0.83186641  0.92139553  1
  Ti4+  Ti10  1  0.66688286  0.33369635  0.93117006  1
  Ti4+  Ti11  1  0.66567352  0.83158119  0.92400445  1
  Ti4+  Ti12  1  0.00082730  0.00068235  0.75490347  1
  Ti4+  Ti13  1  0.00193178  0.50144472  0.75647036  1
  Ti4+  Ti14  1  0.50122404  0.00069906  0.75669096  1
  Ti4+  Ti15  1  0.50182787  0.50118751  0.75726666  1
  Ti4+  Ti16  1  0.33258390  0.16720397  0.08779601  1
  Ti4+  Ti17  1  0.33129398  0.66491193  0.08890198  1
  Ti4+  Ti18  1  0.83124084  0.16459028  0.08806341  1
  Ti4+  Ti19  1  0.83383771  0.66840629  0.08913844  1
  Ti4+  Ti20  1  0.16738914  0.33496550  0.42044245  1
  Ti4+  Ti21  1  0.16524682  0.83395315  0.42136709  1
  Ti4+  Ti22  1  0.66672802  0.33303941  0.42202793  1
  Ti4+  Ti23  1  0.66574978  0.83415260  0.42191303  1
  Cu+  Cu24  1  0.84869138  0.92051901  0.47811594  1
  Cu+  Cu25  1  0.74400952  0.49104079  0.14815141  1
  Cu+  Cu26  1  0.90458646  0.81046604  0.80764195  1
  Cu+  Cu27  1  0.74514570  0.25287347  0.15016562  1
  Cu+  Cu28  1  0.50795581  0.25498194  0.14900299  1
  Cu+  Cu29  1  0.08218923  0.15381772  0.47478417  1
  Cu+  Cu30  1  0.57450008  0.14420805  0.47329197  1
  Cu+  Cu31  1  0.23508269  0.47403737  0.13956228  1
  Cu+  Cu32  1  0.73612590  0.97431389  0.13844359  1
  Cu+  Cu33  1  0.40552786  0.80910739  0.80643444  1
  Cu+  Cu34  1  0.35731437  0.42921062  0.47467985  1
  Cu+  Cu35  1  0.85680085  0.42773426  0.47481767  1
  Cu+  Cu36  1  0.16150597  0.08184081  0.17159048  1
  Cu+  Cu37  1  0.16420867  0.57816041  0.17084930  1
  Cu+  Cu38  1  0.66049993  0.07690244  0.16800296  1
  Cu+  Cu39  1  0.66281088  0.58271691  0.17108135  1
  Cu+  Cu40  1  0.41756806  0.33875814  0.16973622  1
  Cu+  Cu41  1  0.41637052  0.83647494  0.16967259  1
  Cu+  Cu42  1  0.91816842  0.34064342  0.16903774  1
  Cu+  Cu43  1  0.91527512  0.83828404  0.17116607  1
  Cu+  Cu44  1  0.41770522  0.08230345  0.16857203  1
  Cu+  Cu45  1  0.40951692  0.57649157  0.17155104  1
  Cu+  Cu46  1  0.91006986  0.07452523  0.17110216  1
  Cu+  Cu47  1  0.91684600  0.58233502  0.17088997  1
  Cu+  Cu48  1  0.49802050  0.24510846  0.50223393  1
  Cu+  Cu49  1  0.49665279  0.74855594  0.50422779  1
  Cu+  Cu50  1  0.99758056  0.24661254  0.50103081  1
  Cu+  Cu51  1  0.99706432  0.74729333  0.50355351  1
  Cu+  Cu52  1  0.25448106  0.00443978  0.50184735  1
  Cu+  Cu53  1  0.25921756  0.50546571  0.50261890  1
  Cu+  Cu54  1  0.75558853  0.00458322  0.50210174  1
  Cu+  Cu55  1  0.75672445  0.50287189  0.50467621  1
  Cu+  Cu56  1  0.25685456  0.25332205  0.50172638  1
  Cu+  Cu57  1  0.25240211  0.75071503  0.50527070  1
  Cu+  Cu58  1  0.75256663  0.24971755  0.50210439  1
  Cu+  Cu59  1  0.75260093  0.74890308  0.50561167  1
  Cu+  Cu60  1  0.33102749  0.41599715  0.83954176  1
  Cu+  Cu61  1  0.33166582  0.91128943  0.83630669  1
  Cu+  Cu62  1  0.83210595  0.41581164  0.84309954  1
  Cu+  Cu63  1  0.83181254  0.91293584  0.83790040  1
  Cu+  Cu64  1  0.08600247  0.17172160  0.83863477  1
  Cu+  Cu65  1  0.08593634  0.67160600  0.83497598  1
  Cu+  Cu66  1  0.58590207  0.17191525  0.84318047  1
  Cu+  Cu67  1  0.58588445  0.67074938  0.83679448  1
  Cu+  Cu68  1  0.08550722  0.41590689  0.83960057  1
  Cu+  Cu69  1  0.08012964  0.91150928  0.83555461  1
  Cu+  Cu70  1  0.58466559  0.41590484  0.84340535  1
  Cu+  Cu71  1  0.58102785  0.91258002  0.83883355  1
  Cu+  Cu72  1  0.17189069  0.08901471  0.67358145  1
  Cu+  Cu73  1  0.17118237  0.58497020  0.67358532  1
  Cu+  Cu74  1  0.67013610  0.08785048  0.67454843  1
  Cu+  Cu75  1  0.67068566  0.58398890  0.67589884  1
  Cu+  Cu76  1  0.41863939  0.33325325  0.67449700  1
  Cu+  Cu77  1  0.41703755  0.83030147  0.67816015  1
  Cu+  Cu78  1  0.91648353  0.33281431  0.67494521  1
  Cu+  Cu79  1  0.91543322  0.83094916  0.67912540  1
  Cu+  Cu80  1  0.42081481  0.08816595  0.67512123  1
  Cu+  Cu81  1  0.41900234  0.58424226  0.67568792  1
  Cu+  Cu82  1  0.91888335  0.08633561  0.67548377  1
  Cu+  Cu83  1  0.91765589  0.58287302  0.67676424  1
  Cu+  Cu84  1  0.00162350  0.25010050  0.00760784  1
  Cu+  Cu85  1  0.00273651  0.75429473  0.00721739  1
  Cu+  Cu86  1  0.50298767  0.25276089  0.01707857  1
  Cu+  Cu87  1  0.50010511  0.75035154  0.00861081  1
  Cu+  Cu88  1  0.24568340  0.49363386  0.01196242  1
  Cu+  Cu89  1  0.24655442  0.99611914  0.00338871  1
  Cu+  Cu90  1  0.74915286  0.49770252  0.01661292  1
  Cu+  Cu91  1  0.74722455  0.99430020  0.01000441  1
  Cu+  Cu92  1  0.24866938  0.25045864  0.00749477  1
  Cu+  Cu93  1  0.24852009  0.75092625  0.00646359  1
  Cu+  Cu94  1  0.74810977  0.25120116  0.01702385  1
  Cu+  Cu95  1  0.75172448  0.75303311  0.00888661  1
  Cu+  Cu96  1  0.33428160  0.41826941  0.34531596  1
  Cu+  Cu97  1  0.33320318  0.91857503  0.33937064  1
  Cu+  Cu98  1  0.83520247  0.41944829  0.34726918  1
  Cu+  Cu99  1  0.83274216  0.91718814  0.34742851  1
  Cu+  Cu100  1  0.07715758  0.16236750  0.34451504  1
  Cu+  Cu101  1  0.08130759  0.66595155  0.34023106  1
  Cu+  Cu102  1  0.58032147  0.16409292  0.34509917  1
  Cu+  Cu103  1  0.57829865  0.66442716  0.34051984  1
  Cu+  Cu104  1  0.08234157  0.42008997  0.34145619  1
  Cu+  Cu105  1  0.07950422  0.91654879  0.34175391  1
  Cu+  Cu106  1  0.58082378  0.41775599  0.34443494  1
  Cu+  Cu107  1  0.58113491  0.91768480  0.34116722  1
  Cu+  Cu108  1  0.00295498  0.00236259  0.11431307  1
  Cu+  Cu109  1  0.00320034  0.50673976  0.11403342  1
  Cu+  Cu110  1  0.49388905  -0.00329135  0.11057444  1
  Cu+  Cu111  1  0.50111667  0.50626597  0.11485112  1
  Cu+  Cu112  1  0.33239333  0.16569060  0.44415937  1
  Cu+  Cu113  1  0.33096005  0.66994592  0.44766974  1
  Cu+  Cu114  1  0.83368045  0.16755672  0.44432350  1
  Cu+  Cu115  1  0.83079374  0.66612054  0.44827863  1
  Cu+  Cu116  1  0.16866394  0.33607863  0.78248961  1
  Cu+  Cu117  1  0.17011376  0.83916359  0.77766995  1
  Cu+  Cu118  1  0.66879618  0.33624404  0.78867583  1
  Cu+  Cu119  1  0.66866224  0.83755774  0.78105995  1
  Te2-  Te120  1  -0.00136564  -0.00206825  0.39094692  1
  Te2-  Te121  1  0.00257998  0.50325982  0.38762183  1
  Te2-  Te122  1  0.49666740  -0.00277713  0.38615261  1
  Te2-  Te123  1  0.50067859  0.50187035  0.38787414  1
  Te2-  Te124  1  0.33614655  0.16863667  0.71757527  1
  Te2-  Te125  1  0.33419743  0.66370722  0.72091579  1
  Te2-  Te126  1  0.83495260  0.16778602  0.71734057  1
  Te2-  Te127  1  0.83436769  0.66433376  0.72157846  1
  Te2-  Te128  1  0.16367400  0.32776163  0.05635012  1
  Te2-  Te129  1  0.16704613  0.83379655  0.05043499  1
  Te2-  Te130  1  0.66690295  0.33370401  0.06500282  1
  Te2-  Te131  1  0.66376701  0.82870939  0.05459390  1
  Te2-  Te132  1  0.49600870  0.24891096  0.88943392  1
  Te2-  Te133  1  0.49192838  0.74297587  0.88287172  1
  Te2-  Te134  1  0.99424974  0.24753210  0.88237899  1
  Te2-  Te135  1  0.99127746  0.74291226  0.88166783  1
  Te2-  Te136  1  0.25054353  0.00135828  0.87736253  1
  Te2-  Te137  1  0.25218695  0.50413190  0.88527486  1
  Te2-  Te138  1  0.75077911  0.00122306  0.88254347  1
  Te2-  Te139  1  0.75238360  0.50396750  0.88885816  1
  Te2-  Te140  1  0.25331398  0.24782634  0.88237673  1
  Te2-  Te141  1  0.25154201  0.74241218  0.88115499  1
  Te2-  Te142  1  0.75270204  0.24855559  0.88930682  1
  Te2-  Te143  1  0.75193666  0.74374838  0.88332937  1
  Te2-  Te144  1  0.32309982  0.40864493  0.21828321  1
  Te2-  Te145  1  0.32853562  0.91619287  0.21362411  1
  Te2-  Te146  1  0.82246301  0.41260561  0.21987078  1
  Te2-  Te147  1  0.82041971  0.90811806  0.21989938  1
  Te2-  Te148  1  0.07893168  0.16773973  0.21655953  1
  Te2-  Te149  1  0.08475520  0.66866124  0.21402954  1
  Te2-  Te150  1  0.58759763  0.17564512  0.21779424  1
  Te2-  Te151  1  0.57965847  0.66758619  0.21438044  1
  Te2-  Te152  1  0.08237328  0.40935881  0.21607178  1
  Te2-  Te153  1  0.08232624  0.91384041  0.21599823  1
  Te2-  Te154  1  0.58659223  0.41215328  0.21848073  1
  Te2-  Te155  1  0.58299995  0.91042240  0.21541566  1
  Te2-  Te156  1  0.16437684  0.08180647  0.54751917  1
  Te2-  Te157  1  0.16637650  0.58098044  0.54739916  1
  Te2-  Te158  1  0.66251250  0.07917866  0.54827811  1
  Te2-  Te159  1  0.66557810  0.58048475  0.54954841  1
  Te2-  Te160  1  0.42630885  0.34165162  0.54820352  1
  Te2-  Te161  1  0.42044072  0.83847925  0.55083521  1
  Te2-  Te162  1  0.92347149  0.33987696  0.54842690  1
  Te2-  Te163  1  0.92327311  0.83957751  0.55147163  1
  Te2-  Te164  1  0.42088967  0.07781500  0.54905912  1
  Te2-  Te165  1  0.42718070  0.58252763  0.55011127  1
  Te2-  Te166  1  0.92441839  0.07930721  0.54943184  1
  Te2-  Te167  1  0.92515296  0.58135810  0.55073116  1
  Te2-  Te168  1  0.00141268  0.00160995  0.88159044  1
  Te2-  Te169  1  0.00270998  0.50272980  0.88224922  1
  Te2-  Te170  1  0.49973704  0.00072346  0.88339842  1
  Te2-  Te171  1  0.50010670  0.50194904  0.88305100  1
  Te2-  Te172  1  0.33151460  0.16688668  0.21497572  1
  Te2-  Te173  1  0.33241446  0.66845495  0.21565643  1
  Te2-  Te174  1  0.83226540  0.16804696  0.21559644  1
  Te2-  Te175  1  0.83279871  0.66854363  0.21635976  1
  Te2-  Te176  1  0.16775394  0.33512099  0.54773415  1
  Te2-  Te177  1  0.16774627  0.83535257  0.54723743  1
  Te2-  Te178  1  0.66712113  0.33353724  0.54914111  1
  Te2-  Te179  1  0.66743970  0.83486342  0.54877693  1
  Te2-  Te180  1  0.33028674  0.41459784  0.71247578  1
  Te2-  Te181  1  0.33049475  0.91684162  0.70899168  1
  Te2-  Te182  1  0.82867913  0.41371037  0.71539450  1
  Te2-  Te183  1  0.82795662  0.91599391  0.71032686  1
  Te2-  Te184  1  0.08807645  0.17373830  0.71223265  1
  Te2-  Te185  1  0.08877269  0.67291078  0.70975490  1
  Te2-  Te186  1  0.58860621  0.17415388  0.71601956  1
  Te2-  Te187  1  0.58904486  0.67291124  0.71137533  1
  Te2-  Te188  1  0.08711213  0.41514313  0.71215679  1
  Te2-  Te189  1  0.08921633  0.91766026  0.70821512  1
  Te2-  Te190  1  0.58774424  0.41450997  0.71551410  1
  Te2-  Te191  1  0.58937526  0.91720844  0.71097883  1
  Te2-  Te192  1  0.16142004  0.08015108  0.04399786  1
  Te2-  Te193  1  0.16001041  0.58090594  0.04327090  1
  Te2-  Te194  1  0.65746036  0.07738699  0.04136644  1
  Te2-  Te195  1  0.66067356  0.58261799  0.04416839  1
  Te2-  Te196  1  0.41811546  0.34139765  0.04398650  1
  Te2-  Te197  1  0.41717403  0.83666182  0.04359174  1
  Te2-  Te198  1  0.92126258  0.33943634  0.04366831  1
  Te2-  Te199  1  0.92033104  0.84081688  0.04540409  1
  Te2-  Te200  1  0.41622022  0.07850843  0.04164048  1
  Te2-  Te201  1  0.41841570  0.58000039  0.04393644  1
  Te2-  Te202  1  0.91926520  0.07965765  0.04394102  1
  Te2-  Te203  1  0.92224342  0.58402452  0.04387832  1
  Te2-  Te204  1  0.49253480  0.24816812  0.37621344  1
  Te2-  Te205  1  0.49310492  0.74814030  0.37832090  1
  Te2-  Te206  1  0.99320375  0.25027702  0.37508132  1
  Te2-  Te207  1  0.99254052  0.74666449  0.37767788  1
  Te2-  Te208  1  0.25051549  0.00537420  0.37571661  1
  Te2-  Te209  1  0.25222556  0.50858271  0.37601617  1
  Te2-  Te210  1  0.75038974  0.00726320  0.37588564  1
  Te2-  Te211  1  0.75072033  0.50708719  0.37793949  1
  Te2-  Te212  1  0.25067626  0.24508134  0.37390427  1
  Te2-  Te213  1  0.25149320  0.74889579  0.37732475  1
  Te2-  Te214  1  0.75300167  0.24625592  0.37473474  1
  Te2-  Te215  1  0.74856642  0.74415774  0.37756185  1
