# generated using pymatgen
data_Ti(CuTe)4
_symmetry_space_group_name_H-M   'P 1'
_cell_length_a   16.88480830
_cell_length_b   16.88444139
_cell_length_c   20.70544444
_cell_angle_alpha   90.04414216
_cell_angle_beta   89.95310535
_cell_angle_gamma   119.99072694
_symmetry_Int_Tables_number   1
_chemical_formula_structural   Ti(CuTe)4
_chemical_formula_sum   'Ti24 Cu96 Te96'
_cell_volume   5112.55991171
_cell_formula_units_Z   24
loop_
 _symmetry_equiv_pos_site_id
 _symmetry_equiv_pos_as_xyz
  1  'x, y, z'
loop_
 _atom_type_symbol
 _atom_type_oxidation_number
  Ti4+  4.0
  Cu+  1.0
  Te2-  -2.0
loop_
 _atom_site_type_symbol
 _atom_site_label
 _atom_site_symmetry_multiplicity
 _atom_site_fract_x
 _atom_site_fract_y
 _atom_site_fract_z
 _atom_site_occupancy
  Ti4+  Ti0  1  -0.00257636  -0.00420095  0.25551559  1
  Ti4+  Ti1  1  0.00361331  0.50125330  0.25950651  1
  Ti4+  Ti2  1  0.50490466  0.00243337  0.25828923  1
  Ti4+  Ti3  1  0.49782426  0.49722898  0.25698982  1
  Ti4+  Ti4  1  0.33353273  0.16718806  0.58778275  1
  Ti4+  Ti5  1  0.33314016  0.66697798  0.59173306  1
  Ti4+  Ti6  1  0.83218376  0.16864441  0.59585203  1
  Ti4+  Ti7  1  0.83187117  0.66500855  0.58952031  1
  Ti4+  Ti8  1  0.16448519  0.33220728  0.92437126  1
  Ti4+  Ti9  1  0.16828167  0.83293651  0.92340472  1
  Ti4+  Ti10  1  0.66872038  0.33720245  0.92521845  1
  Ti4+  Ti11  1  0.66605580  0.83277034  0.92291294  1
  Ti4+  Ti12  1  -0.00055044  0.00103419  0.75377507  1
  Ti4+  Ti13  1  -0.00103018  0.50102623  0.75463434  1
  Ti4+  Ti14  1  0.49692221  -0.00191673  0.75507294  1
  Ti4+  Ti15  1  0.50123845  0.50098085  0.75551950  1
  Ti4+  Ti16  1  0.33656795  0.16946649  0.08755256  1
  Ti4+  Ti17  1  0.33129081  0.66390369  0.08923796  1
  Ti4+  Ti18  1  0.83053276  0.16421311  0.09047413  1
  Ti4+  Ti19  1  0.83616947  0.66998437  0.08969147  1
  Ti4+  Ti20  1  0.16594888  0.33245040  0.42281330  1
  Ti4+  Ti21  1  0.16788341  0.83378561  0.42075904  1
  Ti4+  Ti22  1  0.66725460  0.33437506  0.42113352  1
  Ti4+  Ti23  1  0.66610306  0.83267962  0.42408065  1
  Cu+  Cu24  1  0.73624039  0.97205657  0.14107591  1
  Cu+  Cu25  1  0.52643246  0.26266603  0.14190714  1
  Cu+  Cu26  1  0.40326661  0.80883646  0.80698163  1
  Cu+  Cu27  1  0.57610957  0.15006374  0.47675693  1
  Cu+  Cu28  1  0.69212942  0.59569938  0.80647624  1
  Cu+  Cu29  1  0.67145894  0.08695827  0.81729955  1
  Cu+  Cu30  1  0.23605718  0.47277818  0.14046847  1
  Cu+  Cu31  1  0.91074725  0.08943983  0.81455734  1
  Cu+  Cu32  1  0.91154410  0.32508390  0.81632088  1
  Cu+  Cu33  1  0.85329139  0.42531443  0.47590815  1
  Cu+  Cu34  1  0.57293867  0.42614050  0.47381988  1
  Cu+  Cu35  1  0.02723747  0.76155171  0.14004567  1
  Cu+  Cu36  1  0.16384170  0.08188216  0.16882254  1
  Cu+  Cu37  1  0.16386851  0.57581760  0.17086341  1
  Cu+  Cu38  1  0.66332492  0.07653367  0.17136093  1
  Cu+  Cu39  1  0.66400846  0.58301827  0.17180662  1
  Cu+  Cu40  1  0.42399405  0.33711213  0.16911948  1
  Cu+  Cu41  1  0.41985331  0.83508222  0.17157946  1
  Cu+  Cu42  1  0.91746956  0.33563719  0.17422505  1
  Cu+  Cu43  1  0.92273606  0.83699840  0.16926639  1
  Cu+  Cu44  1  0.42600163  0.09016036  0.17117004  1
  Cu+  Cu45  1  0.41084436  0.57541725  0.17042981  1
  Cu+  Cu46  1  0.91019015  0.07423740  0.17083094  1
  Cu+  Cu47  1  0.92351956  0.58828309  0.17375701  1
  Cu+  Cu48  1  0.49436710  0.24777650  0.50030204  1
  Cu+  Cu49  1  0.49644208  0.74929639  0.50655531  1
  Cu+  Cu50  1  0.99822957  0.25065907  0.50762413  1
  Cu+  Cu51  1  0.99856361  0.74829000  0.50262389  1
  Cu+  Cu52  1  0.25161562  0.00266188  0.50131979  1
  Cu+  Cu53  1  0.25130456  0.50259624  0.50576159  1
  Cu+  Cu54  1  0.74999190  0.00182306  0.50909018  1
  Cu+  Cu55  1  0.75143935  0.50409354  0.50178281  1
  Cu+  Cu56  1  0.25086393  0.24881057  0.50239003  1
  Cu+  Cu57  1  0.25281803  0.75037272  0.50514323  1
  Cu+  Cu58  1  0.75271716  0.24890624  0.50569482  1
  Cu+  Cu59  1  0.74751819  0.74559426  0.50478828  1
  Cu+  Cu60  1  0.33037437  0.41657785  0.83846848  1
  Cu+  Cu61  1  0.32793934  0.90850519  0.83567887  1
  Cu+  Cu62  1  0.82761763  0.41479582  0.83638722  1
  Cu+  Cu63  1  0.82881311  0.91661827  0.83492563  1
  Cu+  Cu64  1  0.08394044  0.17154989  0.83603367  1
  Cu+  Cu65  1  0.08509140  0.67215067  0.83613605  1
  Cu+  Cu66  1  0.58325136  0.17200628  0.83835040  1
  Cu+  Cu67  1  0.58984057  0.66923440  0.83566771  1
  Cu+  Cu68  1  0.08500109  0.41486659  0.83674536  1
  Cu+  Cu69  1  0.08445055  0.91490515  0.83707825  1
  Cu+  Cu70  1  0.58890620  0.42120228  0.83876847  1
  Cu+  Cu71  1  0.58073350  0.91161335  0.83543421  1
  Cu+  Cu72  1  0.16881597  0.08483331  0.67192238  1
  Cu+  Cu73  1  0.16843045  0.58671957  0.67429668  1
  Cu+  Cu74  1  0.66704346  0.08623261  0.68340866  1
  Cu+  Cu75  1  0.66939354  0.58304998  0.67807592  1
  Cu+  Cu76  1  0.41502876  0.33101053  0.67269978  1
  Cu+  Cu77  1  0.41210841  0.82890462  0.67847733  1
  Cu+  Cu78  1  0.91443961  0.33282776  0.68313001  1
  Cu+  Cu79  1  0.91486814  0.83155854  0.67239687  1
  Cu+  Cu80  1  0.41328528  0.08430887  0.67204881  1
  Cu+  Cu81  1  0.41514519  0.58486693  0.67476517  1
  Cu+  Cu82  1  0.91504213  0.08707403  0.68310404  1
  Cu+  Cu83  1  0.91496716  0.58411815  0.67390194  1
  Cu+  Cu84  1  -0.00075508  0.25058509  0.01064811  1
  Cu+  Cu85  1  0.00627790  0.75463171  0.01196443  1
  Cu+  Cu86  1  0.50660239  0.25566341  0.01244369  1
  Cu+  Cu87  1  0.49928404  0.74946282  0.00712856  1
  Cu+  Cu88  1  0.24502253  0.49433438  0.01189252  1
  Cu+  Cu89  1  0.25153224  0.99897131  0.00537052  1
  Cu+  Cu90  1  0.75133222  0.50215405  0.00936168  1
  Cu+  Cu91  1  0.74493886  0.99664433  0.01298523  1
  Cu+  Cu92  1  0.24997090  0.25221289  0.00665526  1
  Cu+  Cu93  1  0.24885681  0.74919474  0.00846253  1
  Cu+  Cu94  1  0.74883592  0.25088367  0.01180184  1
  Cu+  Cu95  1  0.75097560  0.75276576  0.00810142  1
  Cu+  Cu96  1  0.33244337  0.41459481  0.34079751  1
  Cu+  Cu97  1  0.33942196  0.92069722  0.34059717  1
  Cu+  Cu98  1  0.84002099  0.42164295  0.34665199  1
  Cu+  Cu99  1  0.83348264  0.91550450  0.34122418  1
  Cu+  Cu100  1  0.07716244  0.16024697  0.33971560  1
  Cu+  Cu101  1  0.08584899  0.66575358  0.34239603  1
  Cu+  Cu102  1  0.58601720  0.16578227  0.34579556  1
  Cu+  Cu103  1  0.57900893  0.66248978  0.34132308  1
  Cu+  Cu104  1  0.08269817  0.41615462  0.34471005  1
  Cu+  Cu105  1  0.08177054  0.91594943  0.33996210  1
  Cu+  Cu106  1  0.58139411  0.41769520  0.34494128  1
  Cu+  Cu107  1  0.58580664  0.91898588  0.34457290  1
  Cu+  Cu108  1  0.00401495  0.00549274  0.11208937  1
  Cu+  Cu109  1  -0.00417012  0.49765921  0.11766010  1
  Cu+  Cu110  1  0.49214095  -0.00478553  0.11540723  1
  Cu+  Cu111  1  0.50290094  0.50482436  0.11401407  1
  Cu+  Cu112  1  0.32795967  0.16446398  0.44356355  1
  Cu+  Cu113  1  0.33292931  0.66585010  0.44961432  1
  Cu+  Cu114  1  0.83628429  0.16296268  0.45291165  1
  Cu+  Cu115  1  0.83680390  0.67395596  0.44631979  1
  Cu+  Cu116  1  0.17107194  0.33581781  0.77986518  1
  Cu+  Cu117  1  0.16377184  0.83581841  0.77845408  1
  Cu+  Cu118  1  0.66177216  0.33260710  0.78086134  1
  Cu+  Cu119  1  0.66605988  0.83222905  0.77796022  1
  Te2-  Te120  1  -0.00189662  -0.00353679  0.38450519  1
  Te2-  Te121  1  0.00564100  0.50284411  0.39019468  1
  Te2-  Te122  1  0.50212991  -0.00015135  0.38881878  1
  Te2-  Te123  1  0.49609415  0.49892387  0.38738335  1
  Te2-  Te124  1  0.33236945  0.16699580  0.71703320  1
  Te2-  Te125  1  0.33062022  0.66288643  0.72299379  1
  Te2-  Te126  1  0.83142904  0.16805749  0.72963882  1
  Te2-  Te127  1  0.83645506  0.66899564  0.72026781  1
  Te2-  Te128  1  0.16345420  0.32783920  0.05451573  1
  Te2-  Te129  1  0.17301106  0.83682709  0.05409305  1
  Te2-  Te130  1  0.67255058  0.33875826  0.05560306  1
  Te2-  Te131  1  0.66304665  0.82879617  0.05288539  1
  Te2-  Te132  1  0.49860944  0.25295939  0.88484084  1
  Te2-  Te133  1  0.49436611  0.74303437  0.88091040  1
  Te2-  Te134  1  0.98765051  0.24469634  0.88491241  1
  Te2-  Te135  1  0.99582281  0.74830620  0.88477153  1
  Te2-  Te136  1  0.25412328  0.00336986  0.87940134  1
  Te2-  Te137  1  0.24992228  0.50364905  0.88458118  1
  Te2-  Te138  1  0.75167516  0.00865408  0.88527274  1
  Te2-  Te139  1  0.75873924  0.51048881  0.88360549  1
  Te2-  Te140  1  0.25048210  0.24763067  0.88080273  1
  Te2-  Te141  1  0.25084768  0.74070079  0.88294759  1
  Te2-  Te142  1  0.75382036  0.24563119  0.88576942  1
  Te2-  Te143  1  0.75803179  0.75144991  0.88210652  1
  Te2-  Te144  1  0.32494511  0.40598834  0.21499775  1
  Te2-  Te145  1  0.33556272  0.92025840  0.21411901  1
  Te2-  Te146  1  0.83281106  0.41915096  0.21902340  1
  Te2-  Te147  1  0.82305170  0.90490010  0.21554078  1
  Te2-  Te148  1  0.07990175  0.16656176  0.21321418  1
  Te2-  Te149  1  0.09405300  0.67378561  0.21651017  1
  Te2-  Te150  1  0.59522182  0.17600470  0.21819288  1
  Te2-  Te151  1  0.57980090  0.66746431  0.21495935  1
  Te2-  Te152  1  0.08481789  0.40834898  0.21874359  1
  Te2-  Te153  1  0.09098497  0.91478573  0.21449617  1
  Te2-  Te154  1  0.59109831  0.41587661  0.21793612  1
  Te2-  Te155  1  0.58620949  0.90926353  0.21857714  1
  Te2-  Te156  1  0.16218514  0.08084367  0.54612853  1
  Te2-  Te157  1  0.16200126  0.58210318  0.54876411  1
  Te2-  Te158  1  0.65970605  0.08028047  0.55441959  1
  Te2-  Te159  1  0.65794223  0.57865574  0.55093601  1
  Te2-  Te160  1  0.41845231  0.34112727  0.54709185  1
  Te2-  Te161  1  0.41923358  0.83937410  0.55208578  1
  Te2-  Te162  1  0.92109026  0.34133120  0.55455151  1
  Te2-  Te163  1  0.91693254  0.83529718  0.54645726  1
  Te2-  Te164  1  0.41883158  0.07832903  0.54680658  1
  Te2-  Te165  1  0.41913464  0.58118322  0.54942477  1
  Te2-  Te166  1  0.91741811  0.08397520  0.55513696  1
  Te2-  Te167  1  0.92075449  0.58053932  0.54830558  1
  Te2-  Te168  1  -0.00025181  0.00013869  0.88099703  1
  Te2-  Te169  1  -0.00058395  0.50140294  0.88164881  1
  Te2-  Te170  1  0.49795981  0.00025083  0.88283720  1
  Te2-  Te171  1  0.49921127  0.50100131  0.88233789  1
  Te2-  Te172  1  0.33297913  0.16731653  0.21435665  1
  Te2-  Te173  1  0.33332052  0.66643821  0.21610821  1
  Te2-  Te174  1  0.83275805  0.16581927  0.21714149  1
  Te2-  Te175  1  0.83318608  0.66829379  0.21646085  1
  Te2-  Te176  1  0.16762433  0.33339295  0.54926213  1
  Te2-  Te177  1  0.16706633  0.83464145  0.54714681  1
  Te2-  Te178  1  0.66442665  0.33317820  0.54901552  1
  Te2-  Te179  1  0.66551079  0.83188284  0.55052573  1
  Te2-  Te180  1  0.32969650  0.41522088  0.71132229  1
  Te2-  Te181  1  0.32485606  0.91459382  0.70898726  1
  Te2-  Te182  1  0.82416437  0.41535134  0.71023315  1
  Te2-  Te183  1  0.82616423  0.91290518  0.70824606  1
  Te2-  Te184  1  0.08860107  0.17433470  0.70929941  1
  Te2-  Te185  1  0.08505325  0.67327695  0.71027127  1
  Te2-  Te186  1  0.58121382  0.17266656  0.71132101  1
  Te2-  Te187  1  0.58546357  0.67245917  0.70891337  1
  Te2-  Te188  1  0.08820921  0.41634417  0.71014572  1
  Te2-  Te189  1  0.08473734  0.91495662  0.70963293  1
  Te2-  Te190  1  0.58379625  0.41144129  0.71086397  1
  Te2-  Te191  1  0.58547750  0.91250699  0.70846656  1
  Te2-  Te192  1  0.16473145  0.08208227  0.04230292  1
  Te2-  Te193  1  0.15822035  0.57956559  0.04449316  1
  Te2-  Te194  1  0.65705787  0.08064941  0.04523533  1
  Te2-  Te195  1  0.66369906  0.58365278  0.04530977  1
  Te2-  Te196  1  0.42005656  0.34219626  0.04262893  1
  Te2-  Te197  1  0.41820920  0.83660947  0.04484198  1
  Te2-  Te198  1  0.91806373  0.33798141  0.04769544  1
  Te2-  Te199  1  0.92072837  0.84213494  0.04295159  1
  Te2-  Te200  1  0.42151923  0.08202167  0.04289889  1
  Te2-  Te201  1  0.41844913  0.57930954  0.04284290  1
  Te2-  Te202  1  0.91813519  0.07975051  0.04350020  1
  Te2-  Te203  1  0.92126457  0.58214271  0.04591396  1
  Te2-  Te204  1  0.49284180  0.24549076  0.37375111  1
  Te2-  Te205  1  0.49489716  0.74796833  0.37974769  1
  Te2-  Te206  1  0.99364889  0.24570452  0.38046710  1
  Te2-  Te207  1  0.99586912  0.74645803  0.37628139  1
  Te2-  Te208  1  0.25267692  0.00477034  0.37488274  1
  Te2-  Te209  1  0.25312741  0.50448780  0.37902694  1
  Te2-  Te210  1  0.75462067  0.00513115  0.38187149  1
  Te2-  Te211  1  0.75401585  0.50883392  0.37526202  1
  Te2-  Te212  1  0.24820899  0.24443734  0.37574412  1
  Te2-  Te213  1  0.25646356  0.75004993  0.37818886  1
  Te2-  Te214  1  0.75778494  0.24887632  0.37857500  1
  Te2-  Te215  1  0.74920438  0.74530159  0.37789162  1
