# generated using pymatgen
data_Ti(CuTe)4
_symmetry_space_group_name_H-M   'P 1'
_cell_length_a   16.85550655
_cell_length_b   16.85618092
_cell_length_c   20.66324259
_cell_angle_alpha   90.00001867
_cell_angle_beta   89.96999014
_cell_angle_gamma   119.99705956
_symmetry_Int_Tables_number   1
_chemical_formula_structural   Ti(CuTe)4
_chemical_formula_sum   'Ti24 Cu96 Te96'
_cell_volume   5084.43718720
_cell_formula_units_Z   24
loop_
 _symmetry_equiv_pos_site_id
 _symmetry_equiv_pos_as_xyz
  1  'x, y, z'
loop_
 _atom_type_symbol
 _atom_type_oxidation_number
  Ti4+  4.0
  Cu+  1.0
  Te2-  -2.0
loop_
 _atom_site_type_symbol
 _atom_site_label
 _atom_site_symmetry_multiplicity
 _atom_site_fract_x
 _atom_site_fract_y
 _atom_site_fract_z
 _atom_site_occupancy
  Ti4+  Ti0  1  0.00192030  0.00013891  0.25791362  1
  Ti4+  Ti1  1  0.00345269  0.50391298  0.25834894  1
  Ti4+  Ti2  1  0.50209092  0.00407519  0.25638480  1
  Ti4+  Ti3  1  0.49741502  0.49720782  0.25894133  1
  Ti4+  Ti4  1  0.33230303  0.16679120  0.59374297  1
  Ti4+  Ti5  1  0.32917123  0.66308067  0.59140272  1
  Ti4+  Ti6  1  0.83255278  0.16266089  0.59096549  1
  Ti4+  Ti7  1  0.83027117  0.66414094  0.58878400  1
  Ti4+  Ti8  1  0.17098776  0.33567784  0.92719377  1
  Ti4+  Ti9  1  0.16467265  0.83213174  0.92241700  1
  Ti4+  Ti10  1  0.67000596  0.33582618  0.92409222  1
  Ti4+  Ti11  1  0.66853791  0.83689528  0.92357681  1
  Ti4+  Ti12  1  0.00034792  -0.00147349  0.75605801  1
  Ti4+  Ti13  1  -0.00195104  0.50047699  0.75669596  1
  Ti4+  Ti14  1  0.50149970  -0.00092010  0.75370760  1
  Ti4+  Ti15  1  0.49708090  0.49816788  0.75775665  1
  Ti4+  Ti16  1  0.33537282  0.16765407  0.08763328  1
  Ti4+  Ti17  1  0.33151801  0.66565746  0.08871279  1
  Ti4+  Ti18  1  0.83328861  0.16682425  0.08786361  1
  Ti4+  Ti19  1  0.83546417  0.66832450  0.09171841  1
  Ti4+  Ti20  1  0.16681487  0.33349030  0.42352133  1
  Ti4+  Ti21  1  0.16492953  0.83054883  0.42410637  1
  Ti4+  Ti22  1  0.66532495  0.33393758  0.42238997  1
  Ti4+  Ti23  1  0.66793156  0.83415168  0.42047002  1
  Cu+  Cu24  1  0.18926449  0.59480114  0.80845588  1
  Cu+  Cu25  1  0.69461127  0.09933136  0.80533157  1
  Cu+  Cu26  1  0.90398732  0.59788137  0.80582621  1
  Cu+  Cu27  1  0.57091599  0.65042429  0.47548501  1
  Cu+  Cu28  1  0.24156171  0.25384261  0.14554189  1
  Cu+  Cu29  1  0.02976034  0.76598961  0.13919542  1
  Cu+  Cu30  1  0.23773151  0.48399333  0.14553270  1
  Cu+  Cu31  1  0.06641704  0.63656012  0.47569630  1
  Cu+  Cu32  1  0.85757813  0.92873057  0.47200111  1
  Cu+  Cu33  1  0.52651340  0.26588048  0.13835175  1
  Cu+  Cu34  1  0.19249668  0.09640366  0.80945606  1
  Cu+  Cu35  1  0.56852552  0.42077058  0.47727110  1
  Cu+  Cu36  1  0.16000461  0.08065261  0.16868594  1
  Cu+  Cu37  1  0.16143815  0.58121836  0.17071037  1
  Cu+  Cu38  1  0.66274094  0.08283552  0.16915755  1
  Cu+  Cu39  1  0.66285802  0.58101462  0.17421371  1
  Cu+  Cu40  1  0.42011878  0.33623303  0.16941343  1
  Cu+  Cu41  1  0.41718627  0.83799677  0.17045654  1
  Cu+  Cu42  1  0.91787809  0.33473754  0.17075070  1
  Cu+  Cu43  1  0.92299910  0.83478047  0.17307372  1
  Cu+  Cu44  1  0.42537404  0.08844189  0.16819162  1
  Cu+  Cu45  1  0.41415560  0.57996309  0.17119219  1
  Cu+  Cu46  1  0.91646715  0.08163079  0.17084566  1
  Cu+  Cu47  1  0.92553433  0.59091690  0.17280633  1
  Cu+  Cu48  1  0.49457892  0.24943973  0.50612316  1
  Cu+  Cu49  1  0.49408685  0.74571525  0.50339710  1
  Cu+  Cu50  1  0.99676362  0.24691594  0.50525543  1
  Cu+  Cu51  1  0.99526540  0.74076669  0.50334097  1
  Cu+  Cu52  1  0.24895979  0.00170518  0.50811872  1
  Cu+  Cu53  1  0.24940350  0.50229527  0.50474416  1
  Cu+  Cu54  1  0.75626924  0.00380448  0.50254452  1
  Cu+  Cu55  1  0.74651693  0.50150640  0.50155156  1
  Cu+  Cu56  1  0.24811031  0.24585858  0.50691945  1
  Cu+  Cu57  1  0.24228008  0.74074437  0.50537758  1
  Cu+  Cu58  1  0.74804880  0.24484629  0.50559180  1
  Cu+  Cu59  1  0.75040645  0.74914087  0.49951054  1
  Cu+  Cu60  1  0.32983112  0.41586170  0.84136321  1
  Cu+  Cu61  1  0.32948902  0.91440053  0.83474853  1
  Cu+  Cu62  1  0.82922369  0.42136615  0.83596792  1
  Cu+  Cu63  1  0.82752163  0.91356403  0.83657468  1
  Cu+  Cu64  1  0.09022882  0.16730001  0.84078290  1
  Cu+  Cu65  1  0.08202346  0.66874443  0.83618292  1
  Cu+  Cu66  1  0.58970353  0.16813494  0.83742786  1
  Cu+  Cu67  1  0.58443197  0.66893772  0.83921808  1
  Cu+  Cu68  1  0.09052480  0.42169677  0.84021353  1
  Cu+  Cu69  1  0.08688117  0.91805100  0.83604931  1
  Cu+  Cu70  1  0.58441395  0.41557204  0.83953639  1
  Cu+  Cu71  1  0.59141532  0.92167939  0.83480729  1
  Cu+  Cu72  1  0.17108056  0.08346397  0.68082714  1
  Cu+  Cu73  1  0.16657555  0.58375844  0.68029754  1
  Cu+  Cu74  1  0.67166671  0.08314866  0.67620831  1
  Cu+  Cu75  1  0.66375083  0.58101063  0.67588225  1
  Cu+  Cu76  1  0.41294460  0.33147365  0.67814085  1
  Cu+  Cu77  1  0.41294273  0.82875606  0.67279552  1
  Cu+  Cu78  1  0.91427193  0.32993219  0.67482348  1
  Cu+  Cu79  1  0.91424289  0.83060080  0.67200058  1
  Cu+  Cu80  1  0.41533944  0.08348385  0.67505431  1
  Cu+  Cu81  1  0.41186717  0.58014051  0.67640037  1
  Cu+  Cu82  1  0.91560541  0.08059815  0.67586633  1
  Cu+  Cu83  1  0.91042873  0.58110043  0.67808500  1
  Cu+  Cu84  1  0.00406590  0.25109782  0.00808838  1
  Cu+  Cu85  1  0.00297537  0.75265048  0.01105667  1
  Cu+  Cu86  1  0.50721989  0.25146356  0.01033956  1
  Cu+  Cu87  1  0.50396016  0.75414084  0.00551558  1
  Cu+  Cu88  1  0.24981252  0.49892225  0.01627371  1
  Cu+  Cu89  1  0.24935325  0.99931303  0.00731878  1
  Cu+  Cu90  1  0.75042548  0.50184581  0.00961860  1
  Cu+  Cu91  1  0.74885514  0.99920530  0.00701459  1
  Cu+  Cu92  1  0.25147050  0.25142241  0.01584862  1
  Cu+  Cu93  1  0.24689667  0.74807385  0.00688363  1
  Cu+  Cu94  1  0.75123275  0.25159857  0.00715771  1
  Cu+  Cu95  1  0.74700733  0.75140848  0.00817533  1
  Cu+  Cu96  1  0.33167848  0.41464591  0.34476382  1
  Cu+  Cu97  1  0.33845574  0.92125608  0.33969755  1
  Cu+  Cu98  1  0.83624085  0.41845032  0.34050387  1
  Cu+  Cu99  1  0.83903993  0.92083344  0.34343406  1
  Cu+  Cu100  1  0.08359141  0.16629855  0.34215442  1
  Cu+  Cu101  1  0.08334480  0.66420139  0.34664421  1
  Cu+  Cu102  1  0.58294943  0.16611168  0.34079505  1
  Cu+  Cu103  1  0.57980074  0.66316187  0.34563597  1
  Cu+  Cu104  1  0.08556903  0.41889756  0.34359713  1
  Cu+  Cu105  1  0.08395953  0.91710296  0.34287625  1
  Cu+  Cu106  1  0.58164879  0.41679361  0.34776686  1
  Cu+  Cu107  1  0.58352667  0.92077183  0.33870414  1
  Cu+  Cu108  1  -0.00783001  -0.00373765  0.11473244  1
  Cu+  Cu109  1  -0.00781239  0.49579931  0.11495365  1
  Cu+  Cu110  1  0.49972344  -0.00340725  0.11173347  1
  Cu+  Cu111  1  0.50211968  0.50463769  0.11503880  1
  Cu+  Cu112  1  0.33057489  0.16309981  0.45041773  1
  Cu+  Cu113  1  0.33386147  0.67061737  0.44703474  1
  Cu+  Cu114  1  0.83452690  0.17108603  0.44791297  1
  Cu+  Cu115  1  0.83352662  0.66826051  0.44303216  1
  Cu+  Cu116  1  0.15953248  0.32889319  0.78495971  1
  Cu+  Cu117  1  0.16624770  0.83313730  0.77749313  1
  Cu+  Cu118  1  0.65957219  0.32946299  0.78093781  1
  Cu+  Cu119  1  0.66113679  0.82782831  0.77920973  1
  Te2-  Te120  1  0.00491220  0.00223696  0.38853030  1
  Te2-  Te121  1  -0.00096455  0.49678043  0.38877355  1
  Te2-  Te122  1  0.50193241  0.00210074  0.38585186  1
  Te2-  Te123  1  0.49597251  0.49770355  0.39106916  1
  Te2-  Te124  1  0.33745307  0.16778284  0.72456408  1
  Te2-  Te125  1  0.33380451  0.66634054  0.72205680  1
  Te2-  Te126  1  0.83790488  0.16687009  0.72149122  1
  Te2-  Te127  1  0.82898643  0.66709802  0.71879691  1
  Te2-  Te128  1  0.16573443  0.33219451  0.05964254  1
  Te2-  Te129  1  0.17054323  0.83545345  0.05277397  1
  Te2-  Te130  1  0.67354116  0.33745047  0.05464651  1
  Te2-  Te131  1  0.66681552  0.83544984  0.05297234  1
  Te2-  Te132  1  0.49947931  0.24653175  0.88301080  1
  Te2-  Te133  1  0.49814596  0.75290003  0.87939588  1
  Te2-  Te134  1  1.00274417  0.25098359  0.88158948  1
  Te2-  Te135  1  0.99196927  0.74963162  0.88289197  1
  Te2-  Te136  1  0.25597757  0.00603699  0.88200098  1
  Te2-  Te137  1  0.25785485  0.50981808  0.88862091  1
  Te2-  Te138  1  0.75942981  0.01141573  0.88144362  1
  Te2-  Te139  1  0.75188983  0.51056802  0.88383141  1
  Te2-  Te140  1  0.25881478  0.24962681  0.88831046  1
  Te2-  Te141  1  0.25335186  0.74782207  0.88105039  1
  Te2-  Te142  1  0.76077722  0.25376069  0.88124806  1
  Te2-  Te143  1  0.75229588  0.74800569  0.88255892  1
  Te2-  Te144  1  0.32312657  0.40990139  0.21797928  1
  Te2-  Te145  1  0.33084517  0.92046404  0.21352275  1
  Te2-  Te146  1  0.83413260  0.42003557  0.21410277  1
  Te2-  Te147  1  0.83172609  0.91366164  0.21605798  1
  Te2-  Te148  1  0.08403531  0.17347689  0.21641818  1
  Te2-  Te149  1  0.09424620  0.67845250  0.21882809  1
  Te2-  Te150  1  0.59270344  0.17895593  0.21513092  1
  Te2-  Te151  1  0.58087126  0.66741220  0.21832502  1
  Te2-  Te152  1  0.08435402  0.41127307  0.21780332  1
  Te2-  Te153  1  0.09307226  0.91680185  0.21694620  1
  Te2-  Te154  1  0.58748963  0.41351383  0.21972476  1
  Te2-  Te155  1  0.58538997  0.91556409  0.21316172  1
  Te2-  Te156  1  0.16004665  0.07954806  0.55369271  1
  Te2-  Te157  1  0.15428845  0.57260907  0.55291706  1
  Te2-  Te158  1  0.66134639  0.07614382  0.54888163  1
  Te2-  Te159  1  0.65495637  0.57886624  0.54906601  1
  Te2-  Te160  1  0.41509678  0.34015466  0.55215126  1
  Te2-  Te161  1  0.41288542  0.83256238  0.54667138  1
  Te2-  Te162  1  0.91637544  0.33450127  0.54910677  1
  Te2-  Te163  1  0.92023441  0.83597630  0.54596532  1
  Te2-  Te164  1  0.41837268  0.08202224  0.54928359  1
  Te2-  Te165  1  0.41579271  0.57605551  0.55047236  1
  Te2-  Te166  1  0.92392029  0.07973584  0.55004734  1
  Te2-  Te167  1  0.91215393  0.57205121  0.55074834  1
  Te2-  Te168  1  -0.00279390  -0.00273499  0.88311002  1
  Te2-  Te169  1  -0.00112261  0.50020398  0.88422395  1
  Te2-  Te170  1  0.49906179  -0.00170835  0.88075980  1
  Te2-  Te171  1  0.50077802  0.50091956  0.88462772  1
  Te2-  Te172  1  0.33175611  0.16534457  0.21511013  1
  Te2-  Te173  1  0.33312294  0.66892104  0.21595775  1
  Te2-  Te174  1  0.83166993  0.16596409  0.21472354  1
  Te2-  Te175  1  0.83234103  0.66616225  0.21887341  1
  Te2-  Te176  1  0.16514414  0.33268623  0.55029724  1
  Te2-  Te177  1  0.16393767  0.83151261  0.55119788  1
  Te2-  Te178  1  0.66522895  0.33184753  0.54966601  1
  Te2-  Te179  1  0.66487065  0.83246799  0.54809860  1
  Te2-  Te180  1  0.32344962  0.41153662  0.71509388  1
  Te2-  Te181  1  0.32822876  0.91336043  0.70902451  1
  Te2-  Te182  1  0.82471566  0.40974741  0.71018527  1
  Te2-  Te183  1  0.82718283  0.91146114  0.71077421  1
  Te2-  Te184  1  0.08604096  0.17154875  0.71235764  1
  Te2-  Te185  1  0.08305899  0.67333386  0.70836909  1
  Te2-  Te186  1  0.58646339  0.17154574  0.70896006  1
  Te2-  Te187  1  0.58232189  0.66916494  0.71139160  1
  Te2-  Te188  1  0.08317249  0.41183649  0.71256560  1
  Te2-  Te189  1  0.08355598  0.90980066  0.70877719  1
  Te2-  Te190  1  0.58350469  0.41229699  0.71241041  1
  Te2-  Te191  1  0.58407497  0.90978960  0.70716087  1
  Te2-  Te192  1  0.15988797  0.07823313  0.04289617  1
  Te2-  Te193  1  0.15700400  0.57981153  0.04408178  1
  Te2-  Te194  1  0.66110419  0.08163099  0.04253232  1
  Te2-  Te195  1  0.66291066  0.58293336  0.04729544  1
  Te2-  Te196  1  0.42556215  0.34271079  0.04238470  1
  Te2-  Te197  1  0.41716955  0.83680407  0.04291165  1
  Te2-  Te198  1  0.92156691  0.33908390  0.04337059  1
  Te2-  Te199  1  0.91730940  0.83925174  0.04468125  1
  Te2-  Te200  1  0.41968404  0.07903245  0.04139375  1
  Te2-  Te201  1  0.42365743  0.58462101  0.04379625  1
  Te2-  Te202  1  0.91944866  0.08081263  0.04351679  1
  Te2-  Te203  1  0.92007296  0.58107327  0.04473908  1
  Te2-  Te204  1  0.49172597  0.24421445  0.37830938  1
  Te2-  Te205  1  0.49469273  0.75067935  0.37556926  1
  Te2-  Te206  1  0.99509776  0.24782261  0.37819406  1
  Te2-  Te207  1  0.99320186  0.74696188  0.37599353  1
  Te2-  Te208  1  0.25256840  0.00340166  0.38080246  1
  Te2-  Te209  1  0.25445808  0.50738298  0.37890810  1
  Te2-  Te210  1  0.75305014  0.00729305  0.37563655  1
  Te2-  Te211  1  0.75500531  0.50697188  0.37515742  1
  Te2-  Te212  1  0.25214940  0.24526257  0.38008796  1
  Te2-  Te213  1  0.25609116  0.75071693  0.37726914  1
  Te2-  Te214  1  0.75253882  0.24911796  0.37810910  1
  Te2-  Te215  1  0.75357227  0.74689395  0.37210940  1
