# generated using pymatgen
data_Ti(CuTe)4
_symmetry_space_group_name_H-M   'P 1'
_cell_length_a   16.90278404
_cell_length_b   16.89654713
_cell_length_c   20.72356508
_cell_angle_alpha   89.99668655
_cell_angle_beta   89.94984435
_cell_angle_gamma   119.99755020
_symmetry_Int_Tables_number   1
_chemical_formula_structural   Ti(CuTe)4
_chemical_formula_sum   'Ti24 Cu96 Te96'
_cell_volume   5125.80157952
_cell_formula_units_Z   24
loop_
 _symmetry_equiv_pos_site_id
 _symmetry_equiv_pos_as_xyz
  1  'x, y, z'
loop_
 _atom_type_symbol
 _atom_type_oxidation_number
  Ti4+  4.0
  Cu+  1.0
  Te2-  -2.0
loop_
 _atom_site_type_symbol
 _atom_site_label
 _atom_site_symmetry_multiplicity
 _atom_site_fract_x
 _atom_site_fract_y
 _atom_site_fract_z
 _atom_site_occupancy
  Ti4+  Ti0  1  0.00161798  -0.00092281  0.26231397  1
  Ti4+  Ti1  1  0.00178501  0.50294405  0.26002199  1
  Ti4+  Ti2  1  0.50379782  0.00249573  0.25458782  1
  Ti4+  Ti3  1  0.50353833  0.50156499  0.25647382  1
  Ti4+  Ti4  1  0.33240749  0.16248209  0.58808037  1
  Ti4+  Ti5  1  0.33377771  0.66394773  0.58858257  1
  Ti4+  Ti6  1  0.83335786  0.16820870  0.58694403  1
  Ti4+  Ti7  1  0.83118885  0.66608367  0.59386796  1
  Ti4+  Ti8  1  0.16446274  0.33158489  0.92442706  1
  Ti4+  Ti9  1  0.16464935  0.83252416  0.92626450  1
  Ti4+  Ti10  1  0.66711120  0.33606178  0.92387351  1
  Ti4+  Ti11  1  0.66635878  0.83417699  0.92532543  1
  Ti4+  Ti12  1  -0.00137736  -0.00030956  0.75636878  1
  Ti4+  Ti13  1  -0.00144630  0.49936215  0.75572284  1
  Ti4+  Ti14  1  0.49893329  -0.00133400  0.75559215  1
  Ti4+  Ti15  1  0.49808441  0.49784332  0.75522508  1
  Ti4+  Ti16  1  0.33380819  0.16749427  0.08875223  1
  Ti4+  Ti17  1  0.33394423  0.66689264  0.08806922  1
  Ti4+  Ti18  1  0.83237807  0.16717491  0.08981069  1
  Ti4+  Ti19  1  0.83442639  0.66797155  0.09175995  1
  Ti4+  Ti20  1  0.16713853  0.33467887  0.41763586  1
  Ti4+  Ti21  1  0.16876435  0.83480382  0.42127227  1
  Ti4+  Ti22  1  0.66708183  0.33223616  0.42135313  1
  Ti4+  Ti23  1  0.66601382  0.83139125  0.42114824  1
  Cu+  Cu24  1  0.07945822  0.42757032  0.47519676  1
  Cu+  Cu25  1  0.02378421  0.76307304  0.14461879  1
  Cu+  Cu26  1  0.57050463  0.14218353  0.47047877  1
  Cu+  Cu27  1  0.52450732  0.26341502  0.13861235  1
  Cu+  Cu28  1  0.91063443  0.59414528  0.81371610  1
  Cu+  Cu29  1  0.67844513  0.59282195  0.81509922  1
  Cu+  Cu30  1  0.07737086  0.91937923  0.48339628  1
  Cu+  Cu31  1  0.57071728  0.64152845  0.47262248  1
  Cu+  Cu32  1  0.84083957  0.91900785  0.48282623  1
  Cu+  Cu33  1  0.52315513  0.76155807  0.13989384  1
  Cu+  Cu34  1  0.07990130  0.15883883  0.47886942  1
  Cu+  Cu35  1  0.84896984  0.42815779  0.47658537  1
  Cu+  Cu36  1  0.16333858  0.08031297  0.17378354  1
  Cu+  Cu37  1  0.16370979  0.58170138  0.17136677  1
  Cu+  Cu38  1  0.66350029  0.08354875  0.16867005  1
  Cu+  Cu39  1  0.66330872  0.58278282  0.17134460  1
  Cu+  Cu40  1  0.42367354  0.33620888  0.17009601  1
  Cu+  Cu41  1  0.42238876  0.83629941  0.16874158  1
  Cu+  Cu42  1  0.91732670  0.33703814  0.17403504  1
  Cu+  Cu43  1  0.92325624  0.83683442  0.17532790  1
  Cu+  Cu44  1  0.42397272  0.08867650  0.16873101  1
  Cu+  Cu45  1  0.42423816  0.58833735  0.16985058  1
  Cu+  Cu46  1  0.91634522  0.08141462  0.17595310  1
  Cu+  Cu47  1  0.92233493  0.58659833  0.17388060  1
  Cu+  Cu48  1  0.49669029  0.24178877  0.50200535  1
  Cu+  Cu49  1  0.49638099  0.74175017  0.50191531  1
  Cu+  Cu50  1  0.99484249  0.25020657  0.49779993  1
  Cu+  Cu51  1  0.99637320  0.74707117  0.50561875  1
  Cu+  Cu52  1  0.25244628  0.00484881  0.50091976  1
  Cu+  Cu53  1  0.25273343  0.50718952  0.49972878  1
  Cu+  Cu54  1  0.75270455  0.00523468  0.50022833  1
  Cu+  Cu55  1  0.75241627  0.50387164  0.50675630  1
  Cu+  Cu56  1  0.25256733  0.24658758  0.50003519  1
  Cu+  Cu57  1  0.25425456  0.74915061  0.50193456  1
  Cu+  Cu58  1  0.75017636  0.24823022  0.49996486  1
  Cu+  Cu59  1  0.74652080  0.74345533  0.50475917  1
  Cu+  Cu60  1  0.32644723  0.41169050  0.83751425  1
  Cu+  Cu61  1  0.32988198  0.91432144  0.83939668  1
  Cu+  Cu62  1  0.82928973  0.41865006  0.83671450  1
  Cu+  Cu63  1  0.82944154  0.91646320  0.83825399  1
  Cu+  Cu64  1  0.08265892  0.16930441  0.83861450  1
  Cu+  Cu65  1  0.08138796  0.67047143  0.83937704  1
  Cu+  Cu66  1  0.58366788  0.16896477  0.83826640  1
  Cu+  Cu67  1  0.58500763  0.67081988  0.83911507  1
  Cu+  Cu68  1  0.08268696  0.41217239  0.83822314  1
  Cu+  Cu69  1  0.08199537  0.91422133  0.83947380  1
  Cu+  Cu70  1  0.58632741  0.41743354  0.83676400  1
  Cu+  Cu71  1  0.58402336  0.91616388  0.83906240  1
  Cu+  Cu72  1  0.16632806  0.08196966  0.67538455  1
  Cu+  Cu73  1  0.16823835  0.58218798  0.67418533  1
  Cu+  Cu74  1  0.66771943  0.08383946  0.67303481  1
  Cu+  Cu75  1  0.66671597  0.58241337  0.68263963  1
  Cu+  Cu76  1  0.41167050  0.32621613  0.67217209  1
  Cu+  Cu77  1  0.41514966  0.82827602  0.67331911  1
  Cu+  Cu78  1  0.91628368  0.33184171  0.67348005  1
  Cu+  Cu79  1  0.91397390  0.83161764  0.67860304  1
  Cu+  Cu80  1  0.41425559  0.08025980  0.67338731  1
  Cu+  Cu81  1  0.41323275  0.57999730  0.67331672  1
  Cu+  Cu82  1  0.91618119  0.08448431  0.67457832  1
  Cu+  Cu83  1  0.91405748  0.58387738  0.68285675  1
  Cu+  Cu84  1  0.00138577  0.25036458  0.00917828  1
  Cu+  Cu85  1  0.00244256  0.75145324  0.01562830  1
  Cu+  Cu86  1  0.50346500  0.25363636  0.01021085  1
  Cu+  Cu87  1  0.50345420  0.75149098  0.01105869  1
  Cu+  Cu88  1  0.24632199  0.49562589  0.00707087  1
  Cu+  Cu89  1  0.24550323  0.99769776  0.00892690  1
  Cu+  Cu90  1  0.74842531  0.50106473  0.01061267  1
  Cu+  Cu91  1  0.74854920  0.99915778  0.00928653  1
  Cu+  Cu92  1  0.24528302  0.24920188  0.00808258  1
  Cu+  Cu93  1  0.24518803  0.74823462  0.00859059  1
  Cu+  Cu94  1  0.74967602  0.25266700  0.00760016  1
  Cu+  Cu95  1  0.74876283  0.75096307  0.01057455  1
  Cu+  Cu96  1  0.33776314  0.42048376  0.33723005  1
  Cu+  Cu97  1  0.33817997  0.91951861  0.33728601  1
  Cu+  Cu98  1  0.83870248  0.42126391  0.34705128  1
  Cu+  Cu99  1  0.83723554  0.91655578  0.34939951  1
  Cu+  Cu100  1  0.08322799  0.16359433  0.34734461  1
  Cu+  Cu101  1  0.08509123  0.66751197  0.34321870  1
  Cu+  Cu102  1  0.58204891  0.16418972  0.34248470  1
  Cu+  Cu103  1  0.58105101  0.66280848  0.34503911  1
  Cu+  Cu104  1  0.08314200  0.42079487  0.34569983  1
  Cu+  Cu105  1  0.08335709  0.91798574  0.35067805  1
  Cu+  Cu106  1  0.58429605  0.41834019  0.34133878  1
  Cu+  Cu107  1  0.58296791  0.91702713  0.33867324  1
  Cu+  Cu108  1  -0.00144417  0.00273734  0.12003309  1
  Cu+  Cu109  1  -0.00122124  0.49779221  0.11674257  1
  Cu+  Cu110  1  0.49565414  -0.00126212  0.11101992  1
  Cu+  Cu111  1  0.49561692  0.49834440  0.11301810  1
  Cu+  Cu112  1  0.33635675  0.17030285  0.44305001  1
  Cu+  Cu113  1  0.33589381  0.67150323  0.44349934  1
  Cu+  Cu114  1  0.83109171  0.16495633  0.44159621  1
  Cu+  Cu115  1  0.83392811  0.66527137  0.45047942  1
  Cu+  Cu116  1  0.16441827  0.33206716  0.78079164  1
  Cu+  Cu117  1  0.16799004  0.83538714  0.78391575  1
  Cu+  Cu118  1  0.66354118  0.32875222  0.78075616  1
  Cu+  Cu119  1  0.66428019  0.83493997  0.78251341  1
  Te2-  Te120  1  0.00089191  0.00007069  0.39638149  1
  Te2-  Te121  1  0.00335428  0.50555728  0.39257362  1
  Te2-  Te122  1  0.50052964  -0.00233267  0.38475123  1
  Te2-  Te123  1  0.49902009  0.49629515  0.38691175  1
  Te2-  Te124  1  0.33154027  0.16220829  0.71639109  1
  Te2-  Te125  1  0.33273363  0.66384208  0.71701821  1
  Te2-  Te126  1  0.83268242  0.16668674  0.71499928  1
  Te2-  Te127  1  0.83255027  0.66840290  0.72537001  1
  Te2-  Te128  1  0.16539185  0.33268384  0.05360329  1
  Te2-  Te129  1  0.16930380  0.83499305  0.05693025  1
  Te2-  Te130  1  0.66967785  0.33628729  0.05415935  1
  Te2-  Te131  1  0.66927513  0.83547604  0.05572888  1
  Te2-  Te132  1  0.49684681  0.25091810  0.88306376  1
  Te2-  Te133  1  0.49559698  0.74764695  0.88395462  1
  Te2-  Te134  1  0.99208607  0.24573888  0.88347137  1
  Te2-  Te135  1  0.99018597  0.74831093  0.88804418  1
  Te2-  Te136  1  0.24985712  0.00266631  0.88311213  1
  Te2-  Te137  1  0.25058287  0.50336148  0.88144958  1
  Te2-  Te138  1  0.75147389  0.00494800  0.88355938  1
  Te2-  Te139  1  0.75511725  0.51305079  0.88479412  1
  Te2-  Te140  1  0.25010035  0.24501955  0.88257449  1
  Te2-  Te141  1  0.24798649  0.74562161  0.88276900  1
  Te2-  Te142  1  0.75269061  0.25175474  0.88153375  1
  Te2-  Te143  1  0.75603110  0.74980010  0.88469962  1
  Te2-  Te144  1  0.33459434  0.41783075  0.21126431  1
  Te2-  Te145  1  0.33413193  0.91813970  0.21110456  1
  Te2-  Te146  1  0.83136880  0.41920210  0.21984969  1
  Te2-  Te147  1  0.83196213  0.91284798  0.22144128  1
  Te2-  Te148  1  0.08494056  0.16856098  0.22020476  1
  Te2-  Te149  1  0.09207457  0.67632800  0.21777234  1
  Te2-  Te150  1  0.59156301  0.17694002  0.21610837  1
  Te2-  Te151  1  0.59147531  0.67625972  0.21859818  1
  Te2-  Te152  1  0.08547057  0.41618632  0.21894459  1
  Te2-  Te153  1  0.09110290  0.91523999  0.22276834  1
  Te2-  Te154  1  0.59242424  0.41624627  0.21607193  1
  Te2-  Te155  1  0.59147982  0.91657089  0.21370069  1
  Te2-  Te156  1  0.15596377  0.07763060  0.54984034  1
  Te2-  Te157  1  0.15946874  0.58219374  0.54850774  1
  Te2-  Te158  1  0.66005797  0.07868251  0.54659521  1
  Te2-  Te159  1  0.65867097  0.57696603  0.55377563  1
  Te2-  Te160  1  0.41860285  0.33308921  0.54586888  1
  Te2-  Te161  1  0.42164070  0.83491596  0.54709974  1
  Te2-  Te162  1  0.92108017  0.34366198  0.54760919  1
  Te2-  Te163  1  0.91802908  0.83987685  0.55261558  1
  Te2-  Te164  1  0.41747901  0.07281934  0.54766325  1
  Te2-  Te165  1  0.41697967  0.57245249  0.54761940  1
  Te2-  Te166  1  0.92193428  0.08124025  0.54871228  1
  Te2-  Te167  1  0.92113230  0.58270547  0.55479450  1
  Te2-  Te168  1  -0.00167387  0.00019923  0.88236741  1
  Te2-  Te169  1  -0.00097966  0.49876520  0.88235431  1
  Te2-  Te170  1  0.49917100  0.00030665  0.88207851  1
  Te2-  Te171  1  0.49687504  0.49850744  0.88191860  1
  Te2-  Te172  1  0.33400556  0.16701641  0.21552568  1
  Te2-  Te173  1  0.33378787  0.66732819  0.21481098  1
  Te2-  Te174  1  0.83166193  0.16712717  0.21629583  1
  Te2-  Te175  1  0.83228820  0.66623638  0.21835535  1
  Te2-  Te176  1  0.16698234  0.33396796  0.54539446  1
  Te2-  Te177  1  0.16895944  0.83363663  0.54819457  1
  Te2-  Te178  1  0.66576835  0.33227473  0.54896012  1
  Te2-  Te179  1  0.66627730  0.83530908  0.54888224  1
  Te2-  Te180  1  0.32656205  0.41031879  0.71062479  1
  Te2-  Te181  1  0.32761356  0.91085042  0.71199706  1
  Te2-  Te182  1  0.82567795  0.41069950  0.71004061  1
  Te2-  Te183  1  0.82619106  0.91456976  0.71174943  1
  Te2-  Te184  1  0.08534112  0.17116682  0.71145969  1
  Te2-  Te185  1  0.08760289  0.67219818  0.71180229  1
  Te2-  Te186  1  0.58412152  0.16979859  0.71077915  1
  Te2-  Te187  1  0.58244311  0.67126952  0.71163424  1
  Te2-  Te188  1  0.08459394  0.41306520  0.71134726  1
  Te2-  Te189  1  0.08419972  0.91227147  0.71278786  1
  Te2-  Te190  1  0.58151546  0.40867513  0.70986188  1
  Te2-  Te191  1  0.58517599  0.91376660  0.71139450  1
  Te2-  Te192  1  0.16001928  0.08055503  0.04752675  1
  Te2-  Te193  1  0.16067483  0.57913231  0.04545064  1
  Te2-  Te194  1  0.66092483  0.08242103  0.04310933  1
  Te2-  Te195  1  0.66100038  0.58220019  0.04628561  1
  Te2-  Te196  1  0.41656076  0.33888691  0.04285270  1
  Te2-  Te197  1  0.41679373  0.83831059  0.04154179  1
  Te2-  Te198  1  0.91898351  0.33863065  0.04660854  1
  Te2-  Te199  1  0.91852805  0.84064063  0.04797581  1
  Te2-  Te200  1  0.41757036  0.08033026  0.04143674  1
  Te2-  Te201  1  0.41727250  0.57870243  0.04244865  1
  Te2-  Te202  1  0.91805223  0.08064501  0.04838557  1
  Te2-  Te203  1  0.91784484  0.57866765  0.04679910  1
  Te2-  Te204  1  0.49500833  0.24844481  0.37499962  1
  Te2-  Te205  1  0.49418012  0.74833874  0.37483823  1
  Te2-  Te206  1  0.99253467  0.24684624  0.37169867  1
  Te2-  Te207  1  0.99364335  0.74509321  0.37893316  1
  Te2-  Te208  1  0.25743212  0.00756695  0.37483003  1
  Te2-  Te209  1  0.25660542  0.50839317  0.37353101  1
  Te2-  Te210  1  0.75183224  0.00465289  0.37410713  1
  Te2-  Te211  1  0.75257452  0.50707116  0.37945282  1
  Te2-  Te212  1  0.25659099  0.25036804  0.37316833  1
  Te2-  Te213  1  0.25560132  0.75026636  0.37533661  1
  Te2-  Te214  1  0.75454317  0.24745775  0.37309117  1
  Te2-  Te215  1  0.75335952  0.74383358  0.37769658  1
