# generated using pymatgen
data_Ti(CuTe)4
_symmetry_space_group_name_H-M   'P 1'
_cell_length_a   16.86484092
_cell_length_b   16.86900860
_cell_length_c   20.68039938
_cell_angle_alpha   89.99058992
_cell_angle_beta   90.06662524
_cell_angle_gamma   120.00642781
_symmetry_Int_Tables_number   1
_chemical_formula_structural   Ti(CuTe)4
_chemical_formula_sum   'Ti24 Cu96 Te96'
_cell_volume   5094.86738826
_cell_formula_units_Z   24
loop_
 _symmetry_equiv_pos_site_id
 _symmetry_equiv_pos_as_xyz
  1  'x, y, z'
loop_
 _atom_type_symbol
 _atom_type_oxidation_number
  Ti4+  4.0
  Cu+  1.0
  Te2-  -2.0
loop_
 _atom_site_type_symbol
 _atom_site_label
 _atom_site_symmetry_multiplicity
 _atom_site_fract_x
 _atom_site_fract_y
 _atom_site_fract_z
 _atom_site_occupancy
  Ti4+  Ti0  1  0.00000525  0.00238543  0.25737826  1
  Ti4+  Ti1  1  -0.00202127  0.49927040  0.25915559  1
  Ti4+  Ti2  1  0.50092549  0.00087625  0.26219127  1
  Ti4+  Ti3  1  0.50187185  0.50083733  0.25450745  1
  Ti4+  Ti4  1  0.33006486  0.16525051  0.59073591  1
  Ti4+  Ti5  1  0.33089862  0.66474138  0.59055386  1
  Ti4+  Ti6  1  0.83125018  0.16551198  0.59216357  1
  Ti4+  Ti7  1  0.83306236  0.66708808  0.59192357  1
  Ti4+  Ti8  1  0.16926153  0.33365577  0.92290591  1
  Ti4+  Ti9  1  0.16476724  0.83166951  0.92472380  1
  Ti4+  Ti10  1  0.66823919  0.33138679  0.92254810  1
  Ti4+  Ti11  1  0.66418745  0.83310714  0.92492427  1
  Ti4+  Ti12  1  0.00083987  0.00016658  0.75583059  1
  Ti4+  Ti13  1  -0.00069285  0.50121008  0.75438685  1
  Ti4+  Ti14  1  0.50298371  0.00056198  0.75539375  1
  Ti4+  Ti15  1  0.49809913  0.49859425  0.75579156  1
  Ti4+  Ti16  1  0.33445550  0.16843723  0.08945503  1
  Ti4+  Ti17  1  0.33469254  0.66699408  0.08952088  1
  Ti4+  Ti18  1  0.83553165  0.16736384  0.09217038  1
  Ti4+  Ti19  1  0.83202390  0.66487743  0.08747294  1
  Ti4+  Ti20  1  0.16729969  0.33408117  0.42424303  1
  Ti4+  Ti21  1  0.16726792  0.83394106  0.41983600  1
  Ti4+  Ti22  1  0.66753862  0.33352160  0.42396347  1
  Ti4+  Ti23  1  0.66736635  0.83427408  0.42291679  1
  Cu+  Cu24  1  0.40361881  0.59476624  0.80481404  1
  Cu+  Cu25  1  0.73894589  0.76269052  0.13818904  1
  Cu+  Cu26  1  0.90340599  0.59536967  0.80726460  1
  Cu+  Cu27  1  0.23674973  0.26339310  0.13985976  1
  Cu+  Cu28  1  0.91376487  0.31942739  0.80975710  1
  Cu+  Cu29  1  0.40579554  0.30860563  0.80600535  1
  Cu+  Cu30  1  0.06964442  0.14441044  0.47473003  1
  Cu+  Cu31  1  0.68540828  0.08788274  0.81162396  1
  Cu+  Cu32  1  0.06847458  0.42602995  0.47528062  1
  Cu+  Cu33  1  0.56939658  0.92051578  0.47729515  1
  Cu+  Cu34  1  0.57143702  0.14980770  0.47966026  1
  Cu+  Cu35  1  0.73770324  0.47442733  0.13763045  1
  Cu+  Cu36  1  0.16572521  0.08881427  0.17141558  1
  Cu+  Cu37  1  0.16589917  0.58256456  0.17322748  1
  Cu+  Cu38  1  0.66538050  0.08329320  0.17711604  1
  Cu+  Cu39  1  0.66546489  0.58185661  0.16697479  1
  Cu+  Cu40  1  0.41486201  0.33714040  0.16797500  1
  Cu+  Cu41  1  0.41930521  0.83604841  0.17464079  1
  Cu+  Cu42  1  0.91974352  0.33720995  0.17386921  1
  Cu+  Cu43  1  0.91326576  0.83627869  0.16963204  1
  Cu+  Cu44  1  0.42137861  0.08404588  0.17480690  1
  Cu+  Cu45  1  0.42098490  0.58255493  0.16844748  1
  Cu+  Cu46  1  0.92043837  0.08326385  0.17220148  1
  Cu+  Cu47  1  0.91309467  0.57529850  0.16968202  1
  Cu+  Cu48  1  0.49670462  0.24858834  0.50615395  1
  Cu+  Cu49  1  0.49651992  0.74755297  0.50558834  1
  Cu+  Cu50  1  0.99851856  0.24955979  0.50617527  1
  Cu+  Cu51  1  0.99860944  0.74916089  0.50399704  1
  Cu+  Cu52  1  0.24882065  0.00315648  0.50089015  1
  Cu+  Cu53  1  0.24729974  0.50286756  0.50484372  1
  Cu+  Cu54  1  0.74540578  0.00131002  0.50370637  1
  Cu+  Cu55  1  0.75325480  0.50579402  0.50633399  1
  Cu+  Cu56  1  0.24777943  0.24397231  0.50453468  1
  Cu+  Cu57  1  0.24978355  0.74646965  0.50108762  1
  Cu+  Cu58  1  0.74746741  0.24516119  0.50546222  1
  Cu+  Cu59  1  0.75243646  0.74771600  0.50533935  1
  Cu+  Cu60  1  0.33270207  0.41512780  0.83625658  1
  Cu+  Cu61  1  0.33127375  0.91363404  0.83899310  1
  Cu+  Cu62  1  0.83198993  0.41628117  0.83468815  1
  Cu+  Cu63  1  0.83244205  0.91566382  0.83860664  1
  Cu+  Cu64  1  0.08680850  0.16945675  0.83642280  1
  Cu+  Cu65  1  0.08057506  0.67110053  0.83633086  1
  Cu+  Cu66  1  0.59051936  0.16941286  0.83487901  1
  Cu+  Cu67  1  0.57813125  0.66910435  0.83786954  1
  Cu+  Cu68  1  0.08632085  0.41334636  0.83503070  1
  Cu+  Cu69  1  0.08624018  0.91486289  0.83799587  1
  Cu+  Cu70  1  0.58098233  0.40968555  0.83565699  1
  Cu+  Cu71  1  0.58830784  0.91580951  0.83699075  1
  Cu+  Cu72  1  0.16601381  0.08359257  0.67463542  1
  Cu+  Cu73  1  0.16665076  0.58437618  0.67440761  1
  Cu+  Cu74  1  0.66842339  0.08372703  0.68322476  1
  Cu+  Cu75  1  0.66799135  0.58441196  0.67419730  1
  Cu+  Cu76  1  0.41374553  0.32732508  0.67706753  1
  Cu+  Cu77  1  0.41749852  0.83152327  0.67537861  1
  Cu+  Cu78  1  0.91552124  0.33160260  0.68008424  1
  Cu+  Cu79  1  0.91602121  0.83106225  0.67434943  1
  Cu+  Cu80  1  0.41608749  0.08436200  0.67501511  1
  Cu+  Cu81  1  0.41323265  0.58549917  0.67651629  1
  Cu+  Cu82  1  0.91647889  0.08365062  0.67531952  1
  Cu+  Cu83  1  0.91479362  0.58805550  0.67831753  1
  Cu+  Cu84  1  0.00170946  0.25016207  0.00888732  1
  Cu+  Cu85  1  0.00201556  0.74999824  0.00854816  1
  Cu+  Cu86  1  0.50178331  0.24755995  0.00740887  1
  Cu+  Cu87  1  0.49982984  0.75188816  0.00875909  1
  Cu+  Cu88  1  0.25165236  0.50002936  0.00733660  1
  Cu+  Cu89  1  0.25012286  0.99642636  0.00882163  1
  Cu+  Cu90  1  0.75032035  0.49573226  0.00959486  1
  Cu+  Cu91  1  0.75052222  1.00041902  0.01198969  1
  Cu+  Cu92  1  0.25174911  0.25326610  0.01130741  1
  Cu+  Cu93  1  0.24762184  0.75130139  0.00759780  1
  Cu+  Cu94  1  0.75337056  0.25019243  0.01146955  1
  Cu+  Cu95  1  0.74662964  0.75231690  0.00968855  1
  Cu+  Cu96  1  0.33777861  0.41919571  0.34022714  1
  Cu+  Cu97  1  0.33539959  0.91791024  0.34263252  1
  Cu+  Cu98  1  0.83482442  0.41837048  0.34332859  1
  Cu+  Cu99  1  0.83548076  0.91777154  0.34240862  1
  Cu+  Cu100  1  0.08504982  0.16579742  0.34687146  1
  Cu+  Cu101  1  0.08201395  0.66463851  0.33962161  1
  Cu+  Cu102  1  0.58359567  0.16429383  0.34950968  1
  Cu+  Cu103  1  0.58612646  0.66562894  0.33966267  1
  Cu+  Cu104  1  0.08363526  0.42218983  0.34692976  1
  Cu+  Cu105  1  0.08253495  0.91907938  0.33809370  1
  Cu+  Cu106  1  0.58542244  0.41996563  0.33892601  1
  Cu+  Cu107  1  0.58251830  0.91882400  0.34819934  1
  Cu+  Cu108  1  0.00353657  -0.00202398  0.11376578  1
  Cu+  Cu109  1  0.00517023  0.50153587  0.11640660  1
  Cu+  Cu110  1  0.50075130  -0.00060701  0.12043125  1
  Cu+  Cu111  1  0.50134336  0.49974112  0.10826174  1
  Cu+  Cu112  1  0.33540998  0.16802697  0.44611466  1
  Cu+  Cu113  1  0.33486451  0.66662218  0.44619968  1
  Cu+  Cu114  1  0.83631927  0.16715030  0.44849405  1
  Cu+  Cu115  1  0.83669765  0.66927652  0.44843141  1
  Cu+  Cu116  1  0.16815686  0.33264743  0.77783749  1
  Cu+  Cu117  1  0.17167779  0.83723086  0.78076706  1
  Cu+  Cu118  1  0.66672912  0.33433029  0.77738767  1
  Cu+  Cu119  1  0.67089116  0.83075184  0.78146387  1
  Te2-  Te120  1  -0.00029643  -0.00134400  0.38786286  1
  Te2-  Te121  1  -0.00166884  0.50285708  0.39001187  1
  Te2-  Te122  1  0.49702242  -0.00130989  0.39453442  1
  Te2-  Te123  1  0.50244500  0.50120908  0.38347794  1
  Te2-  Te124  1  0.33006187  0.16192270  0.72141813  1
  Te2-  Te125  1  0.33018025  0.66789117  0.72129952  1
  Te2-  Te126  1  0.83547130  0.16585269  0.72396939  1
  Te2-  Te127  1  0.83012001  0.66865988  0.72291182  1
  Te2-  Te128  1  0.16712026  0.33573315  0.05296933  1
  Te2-  Te129  1  0.16558839  0.83260723  0.05409553  1
  Te2-  Te130  1  0.66629701  0.32934321  0.05252239  1
  Te2-  Te131  1  0.66394182  0.83499740  0.05526333  1
  Te2-  Te132  1  0.49494646  0.24079660  0.88151063  1
  Te2-  Te133  1  0.49029255  0.75001524  0.88300433  1
  Te2-  Te134  1  0.99546422  0.24475151  0.88290515  1
  Te2-  Te135  1  0.98996912  0.74796721  0.88305597  1
  Te2-  Te136  1  0.25351135  0.00353013  0.88292681  1
  Te2-  Te137  1  0.25276132  0.50643340  0.88130190  1
  Te2-  Te138  1  0.75704195  0.00701932  0.88561261  1
  Te2-  Te139  1  0.74969161  0.50370483  0.88201991  1
  Te2-  Te140  1  0.25388739  0.24510421  0.88324401  1
  Te2-  Te141  1  0.24885403  0.74480030  0.88150249  1
  Te2-  Te142  1  0.75871539  0.24593706  0.88416012  1
  Te2-  Te143  1  0.74761859  0.74670717  0.88210736  1
  Te2-  Te144  1  0.32706095  0.41684478  0.21463525  1
  Te2-  Te145  1  0.33071151  0.91586534  0.21729949  1
  Te2-  Te146  1  0.82355770  0.40866839  0.21752830  1
  Te2-  Te147  1  0.82562642  0.91627522  0.21671573  1
  Te2-  Te148  1  0.08631450  0.17725472  0.21929919  1
  Te2-  Te149  1  0.08191495  0.66885421  0.21373593  1
  Te2-  Te150  1  0.58724475  0.17258475  0.22209938  1
  Te2-  Te151  1  0.58783086  0.67422993  0.21375654  1
  Te2-  Te152  1  0.08658070  0.41577294  0.21973891  1
  Te2-  Te153  1  0.08370015  0.91738264  0.21180275  1
  Te2-  Te154  1  0.58453605  0.41109493  0.21261192  1
  Te2-  Te155  1  0.58623109  0.91511377  0.22092925  1
  Te2-  Te156  1  0.15581495  0.07519866  0.54898605  1
  Te2-  Te157  1  0.15666446  0.58133014  0.54890214  1
  Te2-  Te158  1  0.65530214  0.07725089  0.55492311  1
  Te2-  Te159  1  0.66081960  0.58085481  0.54914197  1
  Te2-  Te160  1  0.41606607  0.33602180  0.54990946  1
  Te2-  Te161  1  0.41554764  0.83798666  0.54963647  1
  Te2-  Te162  1  0.91548240  0.33773249  0.55202964  1
  Te2-  Te163  1  0.91996816  0.83826979  0.54877185  1
  Te2-  Te164  1  0.41464484  0.07673568  0.54929373  1
  Te2-  Te165  1  0.41620340  0.57940008  0.54950961  1
  Te2-  Te166  1  0.91429245  0.07714012  0.54921228  1
  Te2-  Te167  1  0.92028518  0.58242280  0.55110160  1
  Te2-  Te168  1  0.00207999  0.00037046  0.88211427  1
  Te2-  Te169  1  0.00228284  0.50019409  0.88179816  1
  Te2-  Te170  1  0.50151790  -0.00006707  0.88247216  1
  Te2-  Te171  1  0.50179840  0.49958018  0.88324008  1
  Te2-  Te172  1  0.33538413  0.16882001  0.21640545  1
  Te2-  Te173  1  0.33546031  0.66599659  0.21567168  1
  Te2-  Te174  1  0.83592550  0.16799778  0.21823257  1
  Te2-  Te175  1  0.83449426  0.66673013  0.21480458  1
  Te2-  Te176  1  0.16815779  0.33351234  0.55173219  1
  Te2-  Te177  1  0.16784992  0.83397136  0.54613913  1
  Te2-  Te178  1  0.66687358  0.33542829  0.55103180  1
  Te2-  Te179  1  0.66676201  0.83148052  0.55009732  1
  Te2-  Te180  1  0.32595540  0.41255828  0.70814251  1
  Te2-  Te181  1  0.33060083  0.91465475  0.71183835  1
  Te2-  Te182  1  0.82549343  0.41463568  0.70755215  1
  Te2-  Te183  1  0.82842332  0.91375575  0.71141733  1
  Te2-  Te184  1  0.08611872  0.17300261  0.71025840  1
  Te2-  Te185  1  0.08722553  0.67465540  0.70978246  1
  Te2-  Te186  1  0.58587125  0.17452608  0.70893390  1
  Te2-  Te187  1  0.58516991  0.67137259  0.71042038  1
  Te2-  Te188  1  0.08776110  0.41506491  0.70875666  1
  Te2-  Te189  1  0.08617860  0.91337656  0.71138397  1
  Te2-  Te190  1  0.58604656  0.41423925  0.70890205  1
  Te2-  Te191  1  0.58712459  0.91019935  0.71053559  1
  Te2-  Te192  1  0.16261860  0.08039997  0.04351293  1
  Te2-  Te193  1  0.16284124  0.58101003  0.04526262  1
  Te2-  Te194  1  0.66207586  0.08118099  0.04960442  1
  Te2-  Te195  1  0.65993636  0.57899622  0.03896996  1
  Te2-  Te196  1  0.42411857  0.34007972  0.04107632  1
  Te2-  Te197  1  0.41792318  0.83959255  0.04692443  1
  Te2-  Te198  1  0.92269352  0.33999956  0.04718120  1
  Te2-  Te199  1  0.91888164  0.83798137  0.04239905  1
  Te2-  Te200  1  0.41941863  0.07981303  0.04777809  1
  Te2-  Te201  1  0.42127430  0.58152247  0.04259063  1
  Te2-  Te202  1  0.92130695  0.08078336  0.04646888  1
  Te2-  Te203  1  0.92133231  0.58010364  0.04314804  1
  Te2-  Te204  1  0.49564339  0.25038948  0.37795049  1
  Te2-  Te205  1  0.49517977  0.74489659  0.37740739  1
  Te2-  Te206  1  0.99453815  0.24873642  0.37783536  1
  Te2-  Te207  1  0.99517425  0.74859914  0.37608890  1
  Te2-  Te208  1  0.25271067  0.00685723  0.37513587  1
  Te2-  Te209  1  0.25590916  0.50641001  0.37790710  1
  Te2-  Te210  1  0.75561121  0.00793926  0.37760389  1
  Te2-  Te211  1  0.75312205  0.50598837  0.37969129  1
  Te2-  Te212  1  0.25678169  0.25074552  0.37790585  1
  Te2-  Te213  1  0.25273041  0.74636893  0.37538246  1
  Te2-  Te214  1  0.75635821  0.24854168  0.37927112  1
  Te2-  Te215  1  0.75417902  0.74844673  0.37880794  1
