# generated using pymatgen
data_Ti(CuTe)4
_symmetry_space_group_name_H-M   'P 1'
_cell_length_a   16.89192288
_cell_length_b   16.89549113
_cell_length_c   20.71417816
_cell_angle_alpha   90.01723340
_cell_angle_beta   90.01394437
_cell_angle_gamma   119.99761202
_symmetry_Int_Tables_number   1
_chemical_formula_structural   Ti(CuTe)4
_chemical_formula_sum   'Ti24 Cu96 Te96'
_cell_volume   5119.86647931
_cell_formula_units_Z   24
loop_
 _symmetry_equiv_pos_site_id
 _symmetry_equiv_pos_as_xyz
  1  'x, y, z'
loop_
 _atom_type_symbol
 _atom_type_oxidation_number
  Ti4+  4.0
  Cu+  1.0
  Te2-  -2.0
loop_
 _atom_site_type_symbol
 _atom_site_label
 _atom_site_symmetry_multiplicity
 _atom_site_fract_x
 _atom_site_fract_y
 _atom_site_fract_z
 _atom_site_occupancy
  Ti4+  Ti0  1  0.00301366  0.00272420  0.25925984  1
  Ti4+  Ti1  1  -0.00165594  0.50069788  0.25822245  1
  Ti4+  Ti2  1  0.50400528  0.00327709  0.25777500  1
  Ti4+  Ti3  1  0.50177399  0.50252272  0.25979572  1
  Ti4+  Ti4  1  0.33354828  0.16567495  0.59475940  1
  Ti4+  Ti5  1  0.33058435  0.66210820  0.58554813  1
  Ti4+  Ti6  1  0.82995866  0.16567316  0.59057110  1
  Ti4+  Ti7  1  0.83435262  0.66981746  0.58903185  1
  Ti4+  Ti8  1  0.16393758  0.33024709  0.92344147  1
  Ti4+  Ti9  1  0.16745054  0.83310304  0.92303725  1
  Ti4+  Ti10  1  0.66657807  0.33180097  0.92505170  1
  Ti4+  Ti11  1  0.66563369  0.83125675  0.92522030  1
  Ti4+  Ti12  1  0.00026971  0.00053922  0.75369297  1
  Ti4+  Ti13  1  -0.00171122  0.49737732  0.75517842  1
  Ti4+  Ti14  1  0.49832444  -0.00231642  0.75425349  1
  Ti4+  Ti15  1  0.50022834  0.50108246  0.75515129  1
  Ti4+  Ti16  1  0.33241475  0.16595585  0.09104023  1
  Ti4+  Ti17  1  0.33530829  0.66619091  0.08977716  1
  Ti4+  Ti18  1  0.83186820  0.16746174  0.08969954  1
  Ti4+  Ti19  1  0.83458432  0.66677314  0.08910343  1
  Ti4+  Ti20  1  0.16799456  0.33659997  0.42113940  1
  Ti4+  Ti21  1  0.16700151  0.83564162  0.42052733  1
  Ti4+  Ti22  1  0.66682670  0.33221693  0.42388951  1
  Ti4+  Ti23  1  0.66749460  0.83367639  0.41944157  1
  Cu+  Cu24  1  0.52597494  0.76297004  0.14224172  1
  Cu+  Cu25  1  0.34992326  0.41871434  0.47579817  1
  Cu+  Cu26  1  0.17619161  0.08717024  0.81528331  1
  Cu+  Cu27  1  0.90274871  0.30601198  0.80695170  1
  Cu+  Cu28  1  0.73872258  0.26469214  0.14206888  1
  Cu+  Cu29  1  0.56919384  0.14135003  0.47613566  1
  Cu+  Cu30  1  0.41244518  0.32437353  0.81651199  1
  Cu+  Cu31  1  0.06821718  0.42084731  0.47276697  1
  Cu+  Cu32  1  0.41267767  0.08655080  0.81757947  1
  Cu+  Cu33  1  0.07127663  0.65286605  0.47353729  1
  Cu+  Cu34  1  0.07439471  0.93127417  0.47461185  1
  Cu+  Cu35  1  0.57849460  0.65048729  0.47502224  1
  Cu+  Cu36  1  0.16400363  0.08176515  0.17402983  1
  Cu+  Cu37  1  0.16397051  0.58111916  0.17299112  1
  Cu+  Cu38  1  0.66422862  0.08970227  0.17030094  1
  Cu+  Cu39  1  0.66564607  0.58336349  0.17185049  1
  Cu+  Cu40  1  0.41600404  0.33633299  0.17453097  1
  Cu+  Cu41  1  0.42436359  0.83574075  0.17158941  1
  Cu+  Cu42  1  0.91357026  0.33689204  0.17179316  1
  Cu+  Cu43  1  0.92205391  0.83744101  0.17255202  1
  Cu+  Cu44  1  0.42134469  0.08602942  0.17277684  1
  Cu+  Cu45  1  0.42340448  0.58655126  0.17284627  1
  Cu+  Cu46  1  0.92047785  0.08443816  0.17319459  1
  Cu+  Cu47  1  0.92031939  0.58373037  0.17089782  1
  Cu+  Cu48  1  0.49839073  0.24471334  0.50694046  1
  Cu+  Cu49  1  0.49661289  0.74413703  0.49875046  1
  Cu+  Cu50  1  0.99558103  0.25167114  0.50463254  1
  Cu+  Cu51  1  0.99719307  0.75293391  0.50184084  1
  Cu+  Cu52  1  0.24909265  0.00403936  0.50496757  1
  Cu+  Cu53  1  0.25095092  0.50326707  0.49819189  1
  Cu+  Cu54  1  0.75064954  0.00293972  0.50302541  1
  Cu+  Cu55  1  0.75179332  0.50404548  0.50357571  1
  Cu+  Cu56  1  0.25384573  0.24886788  0.50632004  1
  Cu+  Cu57  1  0.24711244  0.74398201  0.49898067  1
  Cu+  Cu58  1  0.74599495  0.24350061  0.50469959  1
  Cu+  Cu59  1  0.75143356  0.74719207  0.50131465  1
  Cu+  Cu60  1  0.32927712  0.41404640  0.83660565  1
  Cu+  Cu61  1  0.32747415  0.91291768  0.83498086  1
  Cu+  Cu62  1  0.83147703  0.40981280  0.83821347  1
  Cu+  Cu63  1  0.82915466  0.91374809  0.83800873  1
  Cu+  Cu64  1  0.08659384  0.17167533  0.83450624  1
  Cu+  Cu65  1  0.08504775  0.66914365  0.83765075  1
  Cu+  Cu66  1  0.58604455  0.17081050  0.83685271  1
  Cu+  Cu67  1  0.58455268  0.67145144  0.83826017  1
  Cu+  Cu68  1  0.07775329  0.40867796  0.83697406  1
  Cu+  Cu69  1  0.08643291  0.91428238  0.83502552  1
  Cu+  Cu70  1  0.58552426  0.41581954  0.83782677  1
  Cu+  Cu71  1  0.58172358  0.90979831  0.83814926  1
  Cu+  Cu72  1  0.16912180  0.08523351  0.68249519  1
  Cu+  Cu73  1  0.16572541  0.58124129  0.67197209  1
  Cu+  Cu74  1  0.66442255  0.08070886  0.67559836  1
  Cu+  Cu75  1  0.67014189  0.58892530  0.67550140  1
  Cu+  Cu76  1  0.41748288  0.33162980  0.68316739  1
  Cu+  Cu77  1  0.41397427  0.82673057  0.66976561  1
  Cu+  Cu78  1  0.91148735  0.32797299  0.67825346  1
  Cu+  Cu79  1  0.91583437  0.83312268  0.67276063  1
  Cu+  Cu80  1  0.41445088  0.08174843  0.68294061  1
  Cu+  Cu81  1  0.41684651  0.58377565  0.67211453  1
  Cu+  Cu82  1  0.91453052  0.08470220  0.67364851  1
  Cu+  Cu83  1  0.91554428  0.58620504  0.67428109  1
  Cu+  Cu84  1  0.00045899  0.24968457  0.00853586  1
  Cu+  Cu85  1  0.00363136  0.75169184  0.00686710  1
  Cu+  Cu86  1  0.49955843  0.25020690  0.01157838  1
  Cu+  Cu87  1  0.50411929  0.74921918  0.01333048  1
  Cu+  Cu88  1  0.24790002  0.49518213  0.00697757  1
  Cu+  Cu89  1  0.24870884  0.99771606  0.01006204  1
  Cu+  Cu90  1  0.75061755  0.49802193  0.00872156  1
  Cu+  Cu91  1  0.74718620  0.99619669  0.00838191  1
  Cu+  Cu92  1  0.24687250  0.24829704  0.01089513  1
  Cu+  Cu93  1  0.24884357  0.75047225  0.00702357  1
  Cu+  Cu94  1  0.74815418  0.25137448  0.01319167  1
  Cu+  Cu95  1  0.74993260  0.75012084  0.00821802  1
  Cu+  Cu96  1  0.33787137  0.42147409  0.34652182  1
  Cu+  Cu97  1  0.33900231  0.92278342  0.33926781  1
  Cu+  Cu98  1  0.83368103  0.41701685  0.34229198  1
  Cu+  Cu99  1  0.83958458  0.92037998  0.34135406  1
  Cu+  Cu100  1  0.08537697  0.16724245  0.34189482  1
  Cu+  Cu101  1  0.08238514  0.66533425  0.34428282  1
  Cu+  Cu102  1  0.58366428  0.16504341  0.34797184  1
  Cu+  Cu103  1  0.58329702  0.66536927  0.34593915  1
  Cu+  Cu104  1  0.08056383  0.41952171  0.34417554  1
  Cu+  Cu105  1  0.08470778  0.92311508  0.34631087  1
  Cu+  Cu106  1  0.58241323  0.41759671  0.34257388  1
  Cu+  Cu107  1  0.58674909  0.92193145  0.34015078  1
  Cu+  Cu108  1  -0.00221497  -0.00032860  0.11669672  1
  Cu+  Cu109  1  0.00372657  0.50204710  0.11466358  1
  Cu+  Cu110  1  0.49473408  -0.00296944  0.11522214  1
  Cu+  Cu111  1  0.50081198  0.49770211  0.11716857  1
  Cu+  Cu112  1  0.33537118  0.16803224  0.45009223  1
  Cu+  Cu113  1  0.33555946  0.67240446  0.44035559  1
  Cu+  Cu114  1  0.83475522  0.16550397  0.44715683  1
  Cu+  Cu115  1  0.83353489  0.66508727  0.44437190  1
  Cu+  Cu116  1  0.16824597  0.33843286  0.77923262  1
  Cu+  Cu117  1  0.16418790  0.82809560  0.77779519  1
  Cu+  Cu118  1  0.66958378  0.33781650  0.78165746  1
  Cu+  Cu119  1  0.66779392  0.83483270  0.78128269  1
  Te2-  Te120  1  0.00146438  0.00535418  0.39070839  1
  Te2-  Te121  1  -0.00377276  0.50013014  0.39045079  1
  Te2-  Te122  1  0.50028202  -0.00208328  0.38854723  1
  Te2-  Te123  1  0.50277721  0.49986429  0.39212367  1
  Te2-  Te124  1  0.33399626  0.16633608  0.72734139  1
  Te2-  Te125  1  0.33088250  0.66284447  0.71408246  1
  Te2-  Te126  1  0.82855415  0.16161396  0.72097903  1
  Te2-  Te127  1  0.83488198  0.66972932  0.71795415  1
  Te2-  Te128  1  0.16482983  0.33174820  0.05219321  1
  Te2-  Te129  1  0.16734294  0.83267188  0.05178405  1
  Te2-  Te130  1  0.66467227  0.33463507  0.05500935  1
  Te2-  Te131  1  0.67041262  0.83351045  0.05611532  1
  Te2-  Te132  1  0.49048659  0.24505371  0.88535078  1
  Te2-  Te133  1  0.49264067  0.74449984  0.88644191  1
  Te2-  Te134  1  0.99024522  0.23988886  0.88267016  1
  Te2-  Te135  1  0.99638506  0.74878410  0.88088769  1
  Te2-  Te136  1  0.25564266  0.01058753  0.88420825  1
  Te2-  Te137  1  0.24774473  0.49998021  0.88028953  1
  Te2-  Te138  1  0.74991478  0.00250244  0.88240183  1
  Te2-  Te139  1  0.75293627  0.50098893  0.88217620  1
  Te2-  Te140  1  0.25457457  0.24392818  0.88474696  1
  Te2-  Te141  1  0.25304589  0.74744948  0.88110388  1
  Te2-  Te142  1  0.75033556  0.24190755  0.88572829  1
  Te2-  Te143  1  0.75220228  0.74627520  0.88253227  1
  Te2-  Te144  1  0.33082900  0.41881798  0.21936669  1
  Te2-  Te145  1  0.33433458  0.91636495  0.21346138  1
  Te2-  Te146  1  0.82482377  0.41721646  0.21684092  1
  Te2-  Te147  1  0.83207689  0.91601694  0.21581551  1
  Te2-  Te148  1  0.08852151  0.17441483  0.21669665  1
  Te2-  Te149  1  0.08675076  0.67182785  0.21732712  1
  Te2-  Te150  1  0.58687974  0.17804417  0.22057931  1
  Te2-  Te151  1  0.59172805  0.67589146  0.21883566  1
  Te2-  Te152  1  0.08171595  0.41321218  0.21725648  1
  Te2-  Te153  1  0.08834918  0.91560135  0.21980947  1
  Te2-  Te154  1  0.58524181  0.41553815  0.21681595  1
  Te2-  Te155  1  0.59468751  0.92141007  0.21469068  1
  Te2-  Te156  1  0.16065029  0.08310917  0.55404698  1
  Te2-  Te157  1  0.15414467  0.57542915  0.54628567  1
  Te2-  Te158  1  0.65591588  0.07434545  0.54993843  1
  Te2-  Te159  1  0.66018501  0.57879268  0.54978291  1
  Te2-  Te160  1  0.42332264  0.33766509  0.55419785  1
  Te2-  Te161  1  0.41597693  0.83210616  0.54340313  1
  Te2-  Te162  1  0.91358034  0.33907969  0.55112856  1
  Te2-  Te163  1  0.91801858  0.84294035  0.54728181  1
  Te2-  Te164  1  0.41583482  0.07565265  0.55384704  1
  Te2-  Te165  1  0.42013460  0.57532182  0.54660039  1
  Te2-  Te166  1  0.91836855  0.08348022  0.54777842  1
  Te2-  Te167  1  0.91894091  0.58139575  0.54827670  1
  Te2-  Te168  1  0.00030761  -0.00004652  0.88068952  1
  Te2-  Te169  1  0.00071236  0.50034244  0.88187853  1
  Te2-  Te170  1  0.49887085  -0.00217541  0.88127400  1
  Te2-  Te171  1  0.49987126  0.50105716  0.88230050  1
  Te2-  Te172  1  0.33378672  0.16728225  0.21734579  1
  Te2-  Te173  1  0.33355674  0.66676688  0.21655651  1
  Te2-  Te174  1  0.83387989  0.16759667  0.21642609  1
  Te2-  Te175  1  0.83556560  0.66807155  0.21527486  1
  Te2-  Te176  1  0.16691425  0.33428499  0.54864185  1
  Te2-  Te177  1  0.16760844  0.83268428  0.54794044  1
  Te2-  Te178  1  0.66825583  0.33521580  0.55063788  1
  Te2-  Te179  1  0.66582066  0.83235543  0.54628029  1
  Te2-  Te180  1  0.32725962  0.41476023  0.70931907  1
  Te2-  Te181  1  0.32570670  0.90796160  0.70815314  1
  Te2-  Te182  1  0.82642530  0.41538188  0.71051763  1
  Te2-  Te183  1  0.82794690  0.91471594  0.71100695  1
  Te2-  Te184  1  0.08471643  0.17451252  0.70860569  1
  Te2-  Te185  1  0.08473925  0.66895174  0.71055084  1
  Te2-  Te186  1  0.58722552  0.17288104  0.71087878  1
  Te2-  Te187  1  0.58523649  0.67333233  0.71181241  1
  Te2-  Te188  1  0.08449368  0.41206117  0.70905117  1
  Te2-  Te189  1  0.08533265  0.91183202  0.70854409  1
  Te2-  Te190  1  0.59055017  0.41810647  0.71084246  1
  Te2-  Te191  1  0.58260501  0.91002843  0.71100952  1
  Te2-  Te192  1  0.16016828  0.07880453  0.04754373  1
  Te2-  Te193  1  0.16378773  0.58080749  0.04562283  1
  Te2-  Te194  1  0.65906638  0.07850323  0.04418878  1
  Te2-  Te195  1  0.66221405  0.58012026  0.04540876  1
  Te2-  Te196  1  0.41713090  0.33785818  0.04740971  1
  Te2-  Te197  1  0.41901251  0.83762212  0.04400720  1
  Te2-  Te198  1  0.92083046  0.34000187  0.04460261  1
  Te2-  Te199  1  0.92041435  0.83827718  0.04540808  1
  Te2-  Te200  1  0.41879078  0.08043774  0.04627019  1
  Te2-  Te201  1  0.41791091  0.57649481  0.04545870  1
  Te2-  Te202  1  0.91723044  0.08039396  0.04640761  1
  Te2-  Te203  1  0.92112557  0.58160999  0.04457699  1
  Te2-  Te204  1  0.49396214  0.24817932  0.37965261  1
  Te2-  Te205  1  0.49529691  0.75087215  0.37225698  1
  Te2-  Te206  1  0.99480122  0.24754811  0.37696652  1
  Te2-  Te207  1  0.99358676  0.74908964  0.37432969  1
  Te2-  Te208  1  0.25722072  0.00982130  0.37806952  1
  Te2-  Te209  1  0.25333952  0.51006759  0.37236509  1
  Te2-  Te210  1  0.75568046  0.00675432  0.37702977  1
  Te2-  Te211  1  0.75183352  0.50449264  0.37787157  1
  Te2-  Te212  1  0.25496545  0.24883543  0.37908634  1
  Te2-  Te213  1  0.25526771  0.75195180  0.37256895  1
  Te2-  Te214  1  0.75601071  0.24839823  0.37837413  1
  Te2-  Te215  1  0.75676913  0.74961912  0.37496343  1
