# generated using pymatgen
data_Ti(CuTe)4
_symmetry_space_group_name_H-M   'P 1'
_cell_length_a   16.88405066
_cell_length_b   16.88524323
_cell_length_c   20.70524437
_cell_angle_alpha   90.03345071
_cell_angle_beta   89.97956864
_cell_angle_gamma   119.98955233
_symmetry_Int_Tables_number   1
_chemical_formula_structural   Ti(CuTe)4
_chemical_formula_sum   'Ti24 Cu96 Te96'
_cell_volume   5112.58564796
_cell_formula_units_Z   24
loop_
 _symmetry_equiv_pos_site_id
 _symmetry_equiv_pos_as_xyz
  1  'x, y, z'
loop_
 _atom_type_symbol
 _atom_type_oxidation_number
  Ti4+  4.0
  Cu+  1.0
  Te2-  -2.0
loop_
 _atom_site_type_symbol
 _atom_site_label
 _atom_site_symmetry_multiplicity
 _atom_site_fract_x
 _atom_site_fract_y
 _atom_site_fract_z
 _atom_site_occupancy
  Ti4+  Ti0  1  -0.00361852  0.00225516  0.26121104  1
  Ti4+  Ti1  1  0.00277542  0.50328212  0.25482148  1
  Ti4+  Ti2  1  0.49843276  0.00206364  0.25485763  1
  Ti4+  Ti3  1  0.50298389  0.49966600  0.25714863  1
  Ti4+  Ti4  1  0.33228742  0.16614355  0.59149118  1
  Ti4+  Ti5  1  0.33534587  0.66588764  0.58897306  1
  Ti4+  Ti6  1  0.83444980  0.16518724  0.59391515  1
  Ti4+  Ti7  1  0.83241158  0.66600147  0.59174128  1
  Ti4+  Ti8  1  0.16686781  0.33326338  0.92591976  1
  Ti4+  Ti9  1  0.16454135  0.83393251  0.92206357  1
  Ti4+  Ti10  1  0.66596497  0.32952184  0.92171887  1
  Ti4+  Ti11  1  0.66794966  0.83236463  0.92767398  1
  Ti4+  Ti12  1  -0.00160872  -0.00250408  0.75772809  1
  Ti4+  Ti13  1  0.00131785  0.49924359  0.75396231  1
  Ti4+  Ti14  1  0.49970839  0.00127188  0.75488972  1
  Ti4+  Ti15  1  0.50014982  0.49948890  0.75651260  1
  Ti4+  Ti16  1  0.33502611  0.16733688  0.08927534  1
  Ti4+  Ti17  1  0.33130721  0.66826905  0.08687517  1
  Ti4+  Ti18  1  0.83515475  0.16690477  0.08864446  1
  Ti4+  Ti19  1  0.83096340  0.66561940  0.08885710  1
  Ti4+  Ti20  1  0.16713439  0.33467636  0.42127352  1
  Ti4+  Ti21  1  0.16722548  0.83598402  0.42161977  1
  Ti4+  Ti22  1  0.66819787  0.33381184  0.42358696  1
  Ti4+  Ti23  1  0.66471893  0.83224238  0.42212869  1
  Cu+  Cu24  1  0.57248949  0.64224164  0.47385520  1
  Cu+  Cu25  1  0.91313802  0.31550810  0.80965574  1
  Cu+  Cu26  1  0.68173752  0.08544471  0.81076555  1
  Cu+  Cu27  1  0.02330209  0.26166770  0.14252280  1
  Cu+  Cu28  1  0.07868899  0.15211283  0.47963248  1
  Cu+  Cu29  1  0.84256024  0.91867111  0.48330345  1
  Cu+  Cu30  1  0.52750056  0.26460567  0.13797238  1
  Cu+  Cu31  1  0.23591985  0.76497373  0.13706536  1
  Cu+  Cu32  1  0.40303339  0.09355761  0.80626379  1
  Cu+  Cu33  1  0.74094438  0.98673278  0.14711064  1
  Cu+  Cu34  1  0.73901367  0.75675163  0.14632017  1
  Cu+  Cu35  1  0.90168695  0.80656462  0.80888032  1
  Cu+  Cu36  1  0.16469743  0.08600789  0.17385731  1
  Cu+  Cu37  1  0.16293293  0.58867309  0.16708482  1
  Cu+  Cu38  1  0.66108361  0.08030464  0.16917416  1
  Cu+  Cu39  1  0.66130643  0.58238442  0.17020649  1
  Cu+  Cu40  1  0.42553666  0.33554341  0.17044850  1
  Cu+  Cu41  1  0.41109352  0.83681913  0.16724525  1
  Cu+  Cu42  1  0.92440727  0.33811411  0.16926556  1
  Cu+  Cu43  1  0.91138775  0.83536026  0.17320389  1
  Cu+  Cu44  1  0.42373843  0.08858184  0.16836869  1
  Cu+  Cu45  1  0.41732137  0.58265396  0.17062258  1
  Cu+  Cu46  1  0.91881921  0.08308978  0.17195004  1
  Cu+  Cu47  1  0.91735916  0.58073587  0.16907228  1
  Cu+  Cu48  1  0.49867258  0.24810997  0.50676765  1
  Cu+  Cu49  1  0.49566553  0.74176374  0.50211465  1
  Cu+  Cu50  1  0.99850523  0.24696252  0.50468212  1
  Cu+  Cu51  1  0.99925173  0.75216962  0.50480422  1
  Cu+  Cu52  1  0.25259796  0.00423128  0.50422391  1
  Cu+  Cu53  1  0.25528951  0.50505159  0.50171744  1
  Cu+  Cu54  1  0.75328623  0.00463437  0.50541279  1
  Cu+  Cu55  1  0.75158099  0.50156992  0.50521498  1
  Cu+  Cu56  1  0.25089940  0.24669057  0.50399702  1
  Cu+  Cu57  1  0.25311401  0.75031352  0.50380427  1
  Cu+  Cu58  1  0.75223244  0.24867134  0.50778051  1
  Cu+  Cu59  1  0.74966980  0.74442544  0.50418268  1
  Cu+  Cu60  1  0.33128609  0.41551170  0.83965795  1
  Cu+  Cu61  1  0.32903547  0.91975396  0.83624150  1
  Cu+  Cu62  1  0.83242968  0.41104552  0.83453022  1
  Cu+  Cu63  1  0.82997039  0.90946390  0.84059644  1
  Cu+  Cu64  1  0.08497530  0.16955145  0.84028866  1
  Cu+  Cu65  1  0.08665340  0.67048569  0.83536697  1
  Cu+  Cu66  1  0.58302063  0.16882951  0.83413647  1
  Cu+  Cu67  1  0.58656297  0.66743708  0.84042761  1
  Cu+  Cu68  1  0.08345265  0.41167609  0.83843628  1
  Cu+  Cu69  1  0.07876603  0.90935812  0.83656303  1
  Cu+  Cu70  1  0.58262340  0.41204098  0.83667288  1
  Cu+  Cu71  1  0.58768390  0.91642402  0.84013086  1
  Cu+  Cu72  1  0.16703996  0.08370703  0.67649635  1
  Cu+  Cu73  1  0.17139123  0.58435978  0.67194022  1
  Cu+  Cu74  1  0.66995434  0.08487240  0.68077204  1
  Cu+  Cu75  1  0.66721896  0.58451474  0.67594595  1
  Cu+  Cu76  1  0.41414897  0.33080736  0.67414527  1
  Cu+  Cu77  1  0.41575825  0.82922210  0.67178476  1
  Cu+  Cu78  1  0.91690106  0.32916315  0.68005124  1
  Cu+  Cu79  1  0.91232912  0.82861818  0.68055578  1
  Cu+  Cu80  1  0.41332056  0.08457286  0.67824875  1
  Cu+  Cu81  1  0.41740763  0.58513341  0.67538930  1
  Cu+  Cu82  1  0.91646213  0.08204610  0.67860276  1
  Cu+  Cu83  1  0.91786045  0.58624113  0.67433665  1
  Cu+  Cu84  1  0.00514944  0.25257551  0.01414103  1
  Cu+  Cu85  1  -0.00143781  0.74972291  0.00757876  1
  Cu+  Cu86  1  0.50291933  0.24898543  0.01039914  1
  Cu+  Cu87  1  0.50198588  0.75112357  0.00848244  1
  Cu+  Cu88  1  0.24706131  0.49835526  0.00774144  1
  Cu+  Cu89  1  0.24698790  0.99938052  0.00688871  1
  Cu+  Cu90  1  0.74729468  0.49615333  0.00520716  1
  Cu+  Cu91  1  0.75155216  0.99681744  0.01559215  1
  Cu+  Cu92  1  0.24914743  0.25179233  0.00951694  1
  Cu+  Cu93  1  0.24699728  0.75383413  0.00868702  1
  Cu+  Cu94  1  0.74963653  0.24843343  0.00651357  1
  Cu+  Cu95  1  0.74749515  0.74981724  0.01658533  1
  Cu+  Cu96  1  0.33717403  0.41839786  0.33956941  1
  Cu+  Cu97  1  0.33338046  0.92048077  0.33887857  1
  Cu+  Cu98  1  0.83890970  0.41843369  0.34007339  1
  Cu+  Cu99  1  0.83241834  0.92052838  0.35100323  1
  Cu+  Cu100  1  0.07946708  0.16664410  0.34939286  1
  Cu+  Cu101  1  0.08336887  0.66812166  0.33981519  1
  Cu+  Cu102  1  0.58389194  0.16600740  0.34113318  1
  Cu+  Cu103  1  0.58195157  0.66356449  0.34593328  1
  Cu+  Cu104  1  0.08514972  0.42190026  0.33895045  1
  Cu+  Cu105  1  0.08086272  0.92076685  0.34366310  1
  Cu+  Cu106  1  0.58555247  0.41772785  0.34223541  1
  Cu+  Cu107  1  0.57854109  0.91801139  0.33987021  1
  Cu+  Cu108  1  0.00477275  -0.00250860  0.11851938  1
  Cu+  Cu109  1  -0.00309094  0.49978169  0.11040443  1
  Cu+  Cu110  1  0.49942900  -0.00014328  0.11041669  1
  Cu+  Cu111  1  0.49362905  0.49814687  0.11414622  1
  Cu+  Cu112  1  0.33755351  0.16978439  0.44831233  1
  Cu+  Cu113  1  0.33037927  0.66820704  0.44472044  1
  Cu+  Cu114  1  0.83345814  0.17061208  0.45010876  1
  Cu+  Cu115  1  0.83800197  0.66352609  0.44881795  1
  Cu+  Cu116  1  0.16986693  0.33355234  0.78312890  1
  Cu+  Cu117  1  0.16726108  0.83158571  0.77760419  1
  Cu+  Cu118  1  0.66980719  0.33832339  0.77793890  1
  Cu+  Cu119  1  0.66237772  0.83007456  0.78439828  1
  Te2-  Te120  1  -0.00146300  0.00053214  0.39297293  1
  Te2-  Te121  1  0.00328897  0.50379859  0.38367121  1
  Te2-  Te122  1  0.49746148  0.00115844  0.38353472  1
  Te2-  Te123  1  0.49997348  0.49635775  0.38740107  1
  Te2-  Te124  1  0.33082281  0.16820025  0.72222703  1
  Te2-  Te125  1  0.33422915  0.66658521  0.71833197  1
  Te2-  Te126  1  0.83521987  0.16384349  0.72606796  1
  Te2-  Te127  1  0.83057969  0.66163788  0.72237664  1
  Te2-  Te128  1  0.17121394  0.33665335  0.05694360  1
  Te2-  Te129  1  0.16261674  0.83584622  0.05242087  1
  Te2-  Te130  1  0.67049505  0.33318999  0.05201645  1
  Te2-  Te131  1  0.66319766  0.83157499  0.05994964  1
  Te2-  Te132  1  0.49227066  0.24549805  0.88339818  1
  Te2-  Te133  1  0.49840465  0.74869866  0.88259068  1
  Te2-  Te134  1  0.99225370  0.24283595  0.88714011  1
  Te2-  Te135  1  0.99032319  0.74079667  0.88204142  1
  Te2-  Te136  1  0.24724379  0.00750907  0.88120396  1
  Te2-  Te137  1  0.25052072  0.50371768  0.88206573  1
  Te2-  Te138  1  0.75804579  0.00514628  0.88735506  1
  Te2-  Te139  1  0.75181157  0.49920680  0.87911706  1
  Te2-  Te140  1  0.25255296  0.24750572  0.88388865  1
  Te2-  Te141  1  0.25346325  0.75185052  0.88156342  1
  Te2-  Te142  1  0.75391006  0.24152437  0.88107136  1
  Te2-  Te143  1  0.75203846  0.74226925  0.88885636  1
  Te2-  Te144  1  0.33337687  0.41345076  0.21335997  1
  Te2-  Te145  1  0.32552428  0.92002137  0.21299137  1
  Te2-  Te146  1  0.83128158  0.41320375  0.21384696  1
  Te2-  Te147  1  0.82027485  0.91357214  0.22203938  1
  Te2-  Te148  1  0.08636093  0.17487759  0.22128614  1
  Te2-  Te149  1  0.08429136  0.67788816  0.21410831  1
  Te2-  Te150  1  0.59182624  0.17652230  0.21512879  1
  Te2-  Te151  1  0.58401491  0.67376545  0.21866498  1
  Te2-  Te152  1  0.09407892  0.42053525  0.21342032  1
  Te2-  Te153  1  0.07999200  0.91680499  0.21715256  1
  Te2-  Te154  1  0.59398033  0.41668602  0.21639132  1
  Te2-  Te155  1  0.57945471  0.90961520  0.21412285  1
  Te2-  Te156  1  0.15835523  0.07637863  0.55081777  1
  Te2-  Te157  1  0.16400947  0.58099899  0.54617343  1
  Te2-  Te158  1  0.66377126  0.08067237  0.55318940  1
  Te2-  Te159  1  0.65910048  0.57674051  0.55008965  1
  Te2-  Te160  1  0.41773002  0.33680115  0.54824112  1
  Te2-  Te161  1  0.42250853  0.83702781  0.54606813  1
  Te2-  Te162  1  0.92060577  0.33514540  0.55249322  1
  Te2-  Te163  1  0.92000465  0.83949072  0.55306754  1
  Te2-  Te164  1  0.41847548  0.08046021  0.55142260  1
  Te2-  Te165  1  0.42025758  0.57469182  0.54975666  1
  Te2-  Te166  1  0.92248086  0.07734258  0.55251332  1
  Te2-  Te167  1  0.92015833  0.58355740  0.54830526  1
  Te2-  Te168  1  0.00042875  -0.00054576  0.88443028  1
  Te2-  Te169  1  0.00141454  0.50113481  0.88093368  1
  Te2-  Te170  1  0.49900128  -0.00050336  0.88245981  1
  Te2-  Te171  1  0.50032732  0.49791211  0.88279286  1
  Te2-  Te172  1  0.33397320  0.16709340  0.21617910  1
  Te2-  Te173  1  0.33223623  0.66787449  0.21365580  1
  Te2-  Te174  1  0.83161128  0.16808576  0.21592701  1
  Te2-  Te175  1  0.83176641  0.66428912  0.21578543  1
  Te2-  Te176  1  0.16911580  0.33560934  0.54824395  1
  Te2-  Te177  1  0.16841199  0.83457898  0.54790951  1
  Te2-  Te178  1  0.66783196  0.33319442  0.55002688  1
  Te2-  Te179  1  0.66550979  0.83286605  0.54955050  1
  Te2-  Te180  1  0.32896310  0.41481099  0.71249421  1
  Te2-  Te181  1  0.32786336  0.91161730  0.70895589  1
  Te2-  Te182  1  0.82888485  0.41503772  0.70765644  1
  Te2-  Te183  1  0.82429360  0.91237670  0.71384404  1
  Te2-  Te184  1  0.08572410  0.17113060  0.71427187  1
  Te2-  Te185  1  0.08793530  0.67102777  0.70912982  1
  Te2-  Te186  1  0.58657202  0.17490381  0.70777247  1
  Te2-  Te187  1  0.58619512  0.67194197  0.71370449  1
  Te2-  Te188  1  0.08979870  0.41450619  0.71066289  1
  Te2-  Te189  1  0.08592451  0.91318960  0.71024813  1
  Te2-  Te190  1  0.58440745  0.41322116  0.71008266  1
  Te2-  Te191  1  0.58470218  0.91221663  0.71207337  1
  Te2-  Te192  1  0.16202347  0.08273244  0.04689575  1
  Te2-  Te193  1  0.15909457  0.58111070  0.04071356  1
  Te2-  Te194  1  0.66124804  0.08006883  0.04244397  1
  Te2-  Te195  1  0.65791181  0.57601394  0.04365490  1
  Te2-  Te196  1  0.42015614  0.33898213  0.04318852  1
  Te2-  Te197  1  0.41984173  0.84032754  0.04043126  1
  Te2-  Te198  1  0.91895353  0.33954581  0.04224691  1
  Te2-  Te199  1  0.92008662  0.83987019  0.04585430  1
  Te2-  Te200  1  0.41682048  0.07739971  0.04182197  1
  Te2-  Te201  1  0.41748060  0.58121019  0.04401772  1
  Te2-  Te202  1  0.92379943  0.07990126  0.04540593  1
  Te2-  Te203  1  0.91665390  0.57991560  0.04269638  1
  Te2-  Te204  1  0.49688399  0.24823950  0.37940240  1
  Te2-  Te205  1  0.49253911  0.74773507  0.37550269  1
  Te2-  Te206  1  0.99314087  0.25283833  0.37785348  1
  Te2-  Te207  1  0.99513629  0.74986432  0.37782794  1
  Te2-  Te208  1  0.25187598  0.00815991  0.37784933  1
  Te2-  Te209  1  0.25500810  0.50628812  0.37563756  1
  Te2-  Te210  1  0.74701336  0.00738413  0.37903621  1
  Te2-  Te211  1  0.75528846  0.50483266  0.37847451  1
  Te2-  Te212  1  0.25398527  0.24833124  0.37643953  1
  Te2-  Te213  1  0.25298002  0.75091675  0.37643604  1
  Te2-  Te214  1  0.75378349  0.24873368  0.37964373  1
  Te2-  Te215  1  0.75437204  0.74691070  0.37709843  1
