# generated using pymatgen
data_Ti(CuTe)4
_symmetry_space_group_name_H-M   'P 1'
_cell_length_a   16.89277446
_cell_length_b   16.89299377
_cell_length_c   20.71229145
_cell_angle_alpha   89.97834386
_cell_angle_beta   90.03723844
_cell_angle_gamma   120.01136521
_symmetry_Int_Tables_number   1
_chemical_formula_structural   Ti(CuTe)4
_chemical_formula_sum   'Ti24 Cu96 Te96'
_cell_volume   5118.19166378
_cell_formula_units_Z   24
loop_
 _symmetry_equiv_pos_site_id
 _symmetry_equiv_pos_as_xyz
  1  'x, y, z'
loop_
 _atom_type_symbol
 _atom_type_oxidation_number
  Ti4+  4.0
  Cu+  1.0
  Te2-  -2.0
loop_
 _atom_site_type_symbol
 _atom_site_label
 _atom_site_symmetry_multiplicity
 _atom_site_fract_x
 _atom_site_fract_y
 _atom_site_fract_z
 _atom_site_occupancy
  Ti4+  Ti0  1  -0.00304894  0.00113480  0.26102124  1
  Ti4+  Ti1  1  -0.00353128  0.49859804  0.25775429  1
  Ti4+  Ti2  1  0.49771806  -0.00319395  0.25519508  1
  Ti4+  Ti3  1  0.49895826  0.49881909  0.25770992  1
  Ti4+  Ti4  1  0.33517661  0.17091532  0.58731039  1
  Ti4+  Ti5  1  0.33545482  0.66777983  0.59071699  1
  Ti4+  Ti6  1  0.83623307  0.16961058  0.59111706  1
  Ti4+  Ti7  1  0.83581719  0.66841039  0.59038244  1
  Ti4+  Ti8  1  0.16617188  0.33434986  0.92638070  1
  Ti4+  Ti9  1  0.16504531  0.83293658  0.92289516  1
  Ti4+  Ti10  1  0.66714764  0.33045974  0.92473792  1
  Ti4+  Ti11  1  0.66629541  0.82963847  0.92525955  1
  Ti4+  Ti12  1  0.00151567  -0.00128456  0.75721179  1
  Ti4+  Ti13  1  0.00078480  0.49882459  0.75566662  1
  Ti4+  Ti14  1  0.50146232  0.00225350  0.75325713  1
  Ti4+  Ti15  1  0.50105896  0.50252792  0.75739538  1
  Ti4+  Ti16  1  0.33198210  0.16685081  0.08918218  1
  Ti4+  Ti17  1  0.33296915  0.66657666  0.08812347  1
  Ti4+  Ti18  1  0.83280435  0.16452887  0.08974040  1
  Ti4+  Ti19  1  0.83206869  0.66404475  0.09082361  1
  Ti4+  Ti20  1  0.16788769  0.33493723  0.42047834  1
  Ti4+  Ti21  1  0.16567222  0.83362177  0.41927281  1
  Ti4+  Ti22  1  0.66789206  0.33364264  0.42087254  1
  Ti4+  Ti23  1  0.66551537  0.83230581  0.42201355  1
  Cu+  Cu24  1  0.23525842  0.26047697  0.14355665  1
  Cu+  Cu25  1  0.73950989  0.75994286  0.14365099  1
  Cu+  Cu26  1  0.07822570  0.92554760  0.47714011  1
  Cu+  Cu27  1  0.85664037  0.42916837  0.47431095  1
  Cu+  Cu28  1  0.35041642  0.43005168  0.47638312  1
  Cu+  Cu29  1  0.90609387  0.30973814  0.80988504  1
  Cu+  Cu30  1  0.90425457  0.80780787  0.80982205  1
  Cu+  Cu31  1  0.73555473  0.47408746  0.14000409  1
  Cu+  Cu32  1  0.84418183  0.92347203  0.48174480  1
  Cu+  Cu33  1  0.40411165  0.59506383  0.80957648  1
  Cu+  Cu34  1  0.58163853  0.43099355  0.47355626  1
  Cu+  Cu35  1  0.08212343  0.16402136  0.48569335  1
  Cu+  Cu36  1  0.16348263  0.08709515  0.17385778  1
  Cu+  Cu37  1  0.16319548  0.58329171  0.17144775  1
  Cu+  Cu38  1  0.66207430  0.07831368  0.17051090  1
  Cu+  Cu39  1  0.66397860  0.58012405  0.17125458  1
  Cu+  Cu40  1  0.41255498  0.33510971  0.17117594  1
  Cu+  Cu41  1  0.41748185  0.83550175  0.16954836  1
  Cu+  Cu42  1  0.91451123  0.33424096  0.17222663  1
  Cu+  Cu43  1  0.91275381  0.83580149  0.17418076  1
  Cu+  Cu44  1  0.41642324  0.07906888  0.16970613  1
  Cu+  Cu45  1  0.41590873  0.58074595  0.17021173  1
  Cu+  Cu46  1  0.91680769  0.08016730  0.17332636  1
  Cu+  Cu47  1  0.91038416  0.57390380  0.17185423  1
  Cu+  Cu48  1  0.49885178  0.25493376  0.50006582  1
  Cu+  Cu49  1  0.49622588  0.74653646  0.50372222  1
  Cu+  Cu50  1  0.99408859  0.24944591  0.50321007  1
  Cu+  Cu51  1  0.99697392  0.75183666  0.50160360  1
  Cu+  Cu52  1  0.25132842  0.00523799  0.49986964  1
  Cu+  Cu53  1  0.25784175  0.50871623  0.50294676  1
  Cu+  Cu54  1  0.75226640  0.00415162  0.50442848  1
  Cu+  Cu55  1  0.75449188  0.50386003  0.50317893  1
  Cu+  Cu56  1  0.25797864  0.25189990  0.49954749  1
  Cu+  Cu57  1  0.25155608  0.74867802  0.50316149  1
  Cu+  Cu58  1  0.75802940  0.25531506  0.50341697  1
  Cu+  Cu59  1  0.75457100  0.75018088  0.50328083  1
  Cu+  Cu60  1  0.33204308  0.41980776  0.84062385  1
  Cu+  Cu61  1  0.33119787  0.91775225  0.83568658  1
  Cu+  Cu62  1  0.83120105  0.41070837  0.83799010  1
  Cu+  Cu63  1  0.83210769  0.90862013  0.83952282  1
  Cu+  Cu64  1  0.08686280  0.16928132  0.84043903  1
  Cu+  Cu65  1  0.08453046  0.66986694  0.83692338  1
  Cu+  Cu66  1  0.58535715  0.17009853  0.83578237  1
  Cu+  Cu67  1  0.58220041  0.66989954  0.83842812  1
  Cu+  Cu68  1  0.08131411  0.41014342  0.83753643  1
  Cu+  Cu69  1  0.08021428  0.90893933  0.83727617  1
  Cu+  Cu70  1  0.58682432  0.41623837  0.84017969  1
  Cu+  Cu71  1  0.58515694  0.91667595  0.83680114  1
  Cu+  Cu72  1  0.17063622  0.08634179  0.67510963  1
  Cu+  Cu73  1  0.17164226  0.58473029  0.67437179  1
  Cu+  Cu74  1  0.67083077  0.08785885  0.67393928  1
  Cu+  Cu75  1  0.67014139  0.58586413  0.67589496  1
  Cu+  Cu76  1  0.41820207  0.33487093  0.67462869  1
  Cu+  Cu77  1  0.41843089  0.83370048  0.67309390  1
  Cu+  Cu78  1  0.91699018  0.33150665  0.68024716  1
  Cu+  Cu79  1  0.91793397  0.83163849  0.68083558  1
  Cu+  Cu80  1  0.41757470  0.08738757  0.67038925  1
  Cu+  Cu81  1  0.41661576  0.58615976  0.68074499  1
  Cu+  Cu82  1  0.91943267  0.08611657  0.67814412  1
  Cu+  Cu83  1  0.91864256  0.58501663  0.67448597  1
  Cu+  Cu84  1  0.00117280  0.24913165  0.01133660  1
  Cu+  Cu85  1  0.00222651  0.75039645  0.00920536  1
  Cu+  Cu86  1  0.50186178  0.24988154  0.00783066  1
  Cu+  Cu87  1  0.50163637  0.74897652  0.00925165  1
  Cu+  Cu88  1  0.24855113  0.49880952  0.00915901  1
  Cu+  Cu89  1  0.24647333  0.99723876  0.00582655  1
  Cu+  Cu90  1  0.74958676  0.49249273  0.01202030  1
  Cu+  Cu91  1  0.75097236  0.99492668  0.00868669  1
  Cu+  Cu92  1  0.24781954  0.25288458  0.01420378  1
  Cu+  Cu93  1  0.24893343  0.75256888  0.00619626  1
  Cu+  Cu94  1  0.74991340  0.24829905  0.00851315  1
  Cu+  Cu95  1  0.74916357  0.74887785  0.01359419  1
  Cu+  Cu96  1  0.33511259  0.41785154  0.34659211  1
  Cu+  Cu97  1  0.33428493  0.91527040  0.33766530  1
  Cu+  Cu98  1  0.83577368  0.41664304  0.34587963  1
  Cu+  Cu99  1  0.83297217  0.91674767  0.34915687  1
  Cu+  Cu100  1  0.08028136  0.16520083  0.35042901  1
  Cu+  Cu101  1  0.08049528  0.66413109  0.33964219  1
  Cu+  Cu102  1  0.58138841  0.15917360  0.33808662  1
  Cu+  Cu103  1  0.58110079  0.66455490  0.34152138  1
  Cu+  Cu104  1  0.08140940  0.41899945  0.34071131  1
  Cu+  Cu105  1  0.07974063  0.91865879  0.34601180  1
  Cu+  Cu106  1  0.58064753  0.41586259  0.34448051  1
  Cu+  Cu107  1  0.57846510  0.91497956  0.33947294  1
  Cu+  Cu108  1  0.00128312  -0.00265129  0.11793711  1
  Cu+  Cu109  1  0.00161356  0.49886558  0.11532337  1
  Cu+  Cu110  1  0.49949125  0.00026905  0.11172708  1
  Cu+  Cu111  1  0.49883382  0.49961804  0.11443295  1
  Cu+  Cu112  1  0.33761015  0.16503853  0.44214975  1
  Cu+  Cu113  1  0.33364932  0.67164181  0.44589047  1
  Cu+  Cu114  1  0.82833355  0.16502580  0.44687343  1
  Cu+  Cu115  1  0.83350035  0.66674854  0.44633019  1
  Cu+  Cu116  1  0.16947682  0.33130944  0.78376160  1
  Cu+  Cu117  1  0.17091947  0.83368257  0.77928254  1
  Cu+  Cu118  1  0.66633248  0.33564661  0.78167462  1
  Cu+  Cu119  1  0.66911486  0.83871599  0.78254688  1
  Te2-  Te120  1  -0.00208298  0.00026116  0.39490649  1
  Te2-  Te121  1  0.00213368  0.50209345  0.38858640  1
  Te2-  Te122  1  0.49696283  -0.00320499  0.38475897  1
  Te2-  Te123  1  0.50137029  0.50229180  0.38982111  1
  Te2-  Te124  1  0.33615043  0.16950444  0.71572012  1
  Te2-  Te125  1  0.33451209  0.67102643  0.72132675  1
  Te2-  Te126  1  0.83354289  0.16477794  0.72133070  1
  Te2-  Te127  1  0.83418975  0.66418345  0.72041784  1
  Te2-  Te128  1  0.16481591  0.33591996  0.05697564  1
  Te2-  Te129  1  0.16680468  0.83398169  0.05198807  1
  Te2-  Te130  1  0.66454341  0.32633702  0.05545742  1
  Te2-  Te131  1  0.66533687  0.83166581  0.05564366  1
  Te2-  Te132  1  0.49629517  0.24755010  0.88213269  1
  Te2-  Te133  1  0.49293416  0.74924357  0.88338684  1
  Te2-  Te134  1  0.99246365  0.24223093  0.88526914  1
  Te2-  Te135  1  0.98937536  0.74038364  0.88372455  1
  Te2-  Te136  1  0.24873979  0.00382738  0.88001186  1
  Te2-  Te137  1  0.24862440  0.50708629  0.88329526  1
  Te2-  Te138  1  0.75351891  -0.00075548  0.88227597  1
  Te2-  Te139  1  0.75497818  0.50182750  0.88499463  1
  Te2-  Te140  1  0.25407801  0.25138680  0.88653325  1
  Te2-  Te141  1  0.25239210  0.74932023  0.88031441  1
  Te2-  Te142  1  0.75149979  0.24106156  0.88280125  1
  Te2-  Te143  1  0.74963065  0.73926369  0.88590308  1
  Te2-  Te144  1  0.32528304  0.41535060  0.21930320  1
  Te2-  Te145  1  0.32562286  0.91136319  0.21260723  1
  Te2-  Te146  1  0.82093044  0.40703515  0.21926734  1
  Te2-  Te147  1  0.82371887  0.91454131  0.22148123  1
  Te2-  Te148  1  0.08243301  0.17426033  0.22177157  1
  Te2-  Te149  1  0.07955011  0.66875569  0.21406080  1
  Te2-  Te150  1  0.58446667  0.16899094  0.21289164  1
  Te2-  Te151  1  0.58371746  0.67078155  0.21568148  1
  Te2-  Te152  1  0.08326651  0.41478166  0.21521644  1
  Te2-  Te153  1  0.08197805  0.91728862  0.21796162  1
  Te2-  Te154  1  0.58174274  0.40974679  0.21697189  1
  Te2-  Te155  1  0.58428927  0.91086102  0.21436262  1
  Te2-  Te156  1  0.15885178  0.08174058  0.54944399  1
  Te2-  Te157  1  0.16429183  0.58085081  0.54846312  1
  Te2-  Te158  1  0.66679359  0.08637669  0.54758798  1
  Te2-  Te159  1  0.66322386  0.58380928  0.54960841  1
  Te2-  Te160  1  0.42452490  0.34794399  0.54880916  1
  Te2-  Te161  1  0.41993816  0.83819336  0.54723176  1
  Te2-  Te162  1  0.92551219  0.34415643  0.55265183  1
  Te2-  Te163  1  0.92310224  0.84465016  0.55306547  1
  Te2-  Te164  1  0.41937567  0.08578271  0.54380543  1
  Te2-  Te165  1  0.42528742  0.58218094  0.55328653  1
  Te2-  Te166  1  0.92305233  0.08023768  0.55216709  1
  Te2-  Te167  1  0.92431752  0.58474780  0.54820994  1
  Te2-  Te168  1  0.00181590  -0.00050908  0.88391583  1
  Te2-  Te169  1  0.00114687  0.50018145  0.88237460  1
  Te2-  Te170  1  0.49999378  0.00082223  0.87977398  1
  Te2-  Te171  1  0.50187390  0.50033784  0.88417487  1
  Te2-  Te172  1  0.33397226  0.16544675  0.21587101  1
  Te2-  Te173  1  0.33241588  0.66655361  0.21431986  1
  Te2-  Te174  1  0.83073772  0.16457151  0.21581306  1
  Te2-  Te175  1  0.83290675  0.66583527  0.21828820  1
  Te2-  Te176  1  0.16867599  0.33581732  0.54824946  1
  Te2-  Te177  1  0.16804438  0.83524400  0.54642347  1
  Te2-  Te178  1  0.66705873  0.33364986  0.54863510  1
  Te2-  Te179  1  0.66660586  0.83318956  0.54915015  1
  Te2-  Te180  1  0.32847493  0.41364054  0.71284995  1
  Te2-  Te181  1  0.33066287  0.91710589  0.70820626  1
  Te2-  Te182  1  0.82790400  0.41539235  0.71069751  1
  Te2-  Te183  1  0.82887738  0.91522289  0.71195727  1
  Te2-  Te184  1  0.08850001  0.17231123  0.71378970  1
  Te2-  Te185  1  0.08799540  0.67131468  0.71060338  1
  Te2-  Te186  1  0.58705269  0.17433511  0.70925688  1
  Te2-  Te187  1  0.59000093  0.67519576  0.71186682  1
  Te2-  Te188  1  0.08990391  0.41501470  0.71102601  1
  Te2-  Te189  1  0.09075822  0.91619015  0.71031552  1
  Te2-  Te190  1  0.58718295  0.41661913  0.71287427  1
  Te2-  Te191  1  0.58849902  0.91709938  0.70990450  1
  Te2-  Te192  1  0.15956865  0.07941933  0.04568565  1
  Te2-  Te193  1  0.16138494  0.58238123  0.04433593  1
  Te2-  Te194  1  0.66202948  0.07736962  0.04363823  1
  Te2-  Te195  1  0.65968658  0.57568481  0.04380882  1
  Te2-  Te196  1  0.42123988  0.33925114  0.04427392  1
  Te2-  Te197  1  0.41914580  0.83792342  0.04302180  1
  Te2-  Te198  1  0.91880070  0.33730986  0.04595554  1
  Te2-  Te199  1  0.92065108  0.83757147  0.04686232  1
  Te2-  Te200  1  0.41630538  0.07977070  0.04321276  1
  Te2-  Te201  1  0.41849570  0.57906923  0.04421539  1
  Te2-  Te202  1  0.92007349  0.07866763  0.04710785  1
  Te2-  Te203  1  0.92106385  0.58039221  0.04534398  1
  Te2-  Te204  1  0.49579554  0.24364067  0.37357275  1
  Te2-  Te205  1  0.49340629  0.74597814  0.37742319  1
  Te2-  Te206  1  0.99242237  0.24997534  0.37739543  1
  Te2-  Te207  1  0.99208922  0.74569075  0.37488877  1
  Te2-  Te208  1  0.25360389  0.00535427  0.37271945  1
  Te2-  Te209  1  0.25205649  0.50810959  0.37606695  1
  Te2-  Te210  1  0.74823275  0.00491161  0.37725827  1
  Te2-  Te211  1  0.75313910  0.50736858  0.37538584  1
  Te2-  Te212  1  0.25370679  0.24522042  0.37377997  1
  Te2-  Te213  1  0.25045681  0.74643358  0.37607241  1
  Te2-  Te214  1  0.75048735  0.24380459  0.37617118  1
  Te2-  Te215  1  0.75067058  0.74391819  0.37660730  1
