# generated using pymatgen
data_Ti(CuTe)4
_symmetry_space_group_name_H-M   'P 1'
_cell_length_a   16.88320668
_cell_length_b   16.88004829
_cell_length_c   20.69052417
_cell_angle_alpha   89.97004827
_cell_angle_beta   90.01379208
_cell_angle_gamma   120.01149785
_symmetry_Int_Tables_number   1
_chemical_formula_structural   Ti(CuTe)4
_chemical_formula_sum   'Ti24 Cu96 Te96'
_cell_volume   5105.99468394
_cell_formula_units_Z   24
loop_
 _symmetry_equiv_pos_site_id
 _symmetry_equiv_pos_as_xyz
  1  'x, y, z'
loop_
 _atom_type_symbol
 _atom_type_oxidation_number
  Ti4+  4.0
  Cu+  1.0
  Te2-  -2.0
loop_
 _atom_site_type_symbol
 _atom_site_label
 _atom_site_symmetry_multiplicity
 _atom_site_fract_x
 _atom_site_fract_y
 _atom_site_fract_z
 _atom_site_occupancy
  Ti4+  Ti0  1  -0.00126024  -0.00084866  0.25749556  1
  Ti4+  Ti1  1  0.00343946  0.50273293  0.25986710  1
  Ti4+  Ti2  1  0.50017917  0.00010342  0.25725581  1
  Ti4+  Ti3  1  0.49922647  0.49959602  0.25291845  1
  Ti4+  Ti4  1  0.33410349  0.16455521  0.58824769  1
  Ti4+  Ti5  1  0.33091931  0.66542379  0.59052854  1
  Ti4+  Ti6  1  0.83383128  0.16504616  0.59463316  1
  Ti4+  Ti7  1  0.83330554  0.66576537  0.59303332  1
  Ti4+  Ti8  1  0.16739498  0.33392707  0.92405733  1
  Ti4+  Ti9  1  0.16417728  0.83207452  0.92750874  1
  Ti4+  Ti10  1  0.66689452  0.33489445  0.92187794  1
  Ti4+  Ti11  1  0.66831656  0.83850607  0.92791449  1
  Ti4+  Ti12  1  -0.00010860  -0.00045416  0.75597108  1
  Ti4+  Ti13  1  -0.00111655  0.50054680  0.75677559  1
  Ti4+  Ti14  1  0.50118495  -0.00131115  0.75726529  1
  Ti4+  Ti15  1  0.49916633  0.49944031  0.75525813  1
  Ti4+  Ti16  1  0.33373294  0.16665108  0.08656243  1
  Ti4+  Ti17  1  0.33124711  0.66454335  0.08565337  1
  Ti4+  Ti18  1  0.83350299  0.16710875  0.08963350  1
  Ti4+  Ti19  1  0.83489081  0.66886221  0.08677567  1
  Ti4+  Ti20  1  0.16579423  0.33284083  0.42119274  1
  Ti4+  Ti21  1  0.16876633  0.83311006  0.42073907  1
  Ti4+  Ti22  1  0.66702540  0.33348641  0.42130265  1
  Ti4+  Ti23  1  0.66648682  0.83270438  0.42472789  1
  Cu+  Cu24  1  0.68688000  0.09740032  0.81035533  1
  Cu+  Cu25  1  0.91199264  0.09608312  0.81062369  1
  Cu+  Cu26  1  0.50406117  0.75217983  0.14806052  1
  Cu+  Cu27  1  0.23593581  0.47772121  0.13999994  1
  Cu+  Cu28  1  0.35770377  0.92701345  0.47326797  1
  Cu+  Cu29  1  0.07473620  0.65455598  0.48132019  1
  Cu+  Cu30  1  0.74371632  0.98855156  0.14760883  1
  Cu+  Cu31  1  0.24598438  0.75804189  0.14526997  1
  Cu+  Cu32  1  0.06942462  0.41868314  0.47887167  1
  Cu+  Cu33  1  0.74538782  0.75649578  0.14500593  1
  Cu+  Cu34  1  0.90528758  0.59832488  0.80922688  1
  Cu+  Cu35  1  0.01696473  0.76183238  0.14485173  1
  Cu+  Cu36  1  0.16439079  0.08351087  0.16938593  1
  Cu+  Cu37  1  0.16060742  0.57957942  0.16847902  1
  Cu+  Cu38  1  0.66495396  0.08245454  0.17045737  1
  Cu+  Cu39  1  0.66323074  0.58289177  0.16569189  1
  Cu+  Cu40  1  0.41987079  0.33639385  0.16664129  1
  Cu+  Cu41  1  0.42016088  0.84310128  0.16667474  1
  Cu+  Cu42  1  0.92042378  0.33616553  0.17265967  1
  Cu+  Cu43  1  0.92045110  0.84017574  0.16812917  1
  Cu+  Cu44  1  0.41780257  0.08278816  0.16974757  1
  Cu+  Cu45  1  0.41526131  0.57527514  0.16295021  1
  Cu+  Cu46  1  0.91614448  0.08020669  0.17028573  1
  Cu+  Cu47  1  0.92316305  0.58700897  0.17011670  1
  Cu+  Cu48  1  0.49621405  0.24718070  0.50162054  1
  Cu+  Cu49  1  0.49667876  0.74764136  0.50500742  1
  Cu+  Cu50  1  0.99544860  0.24628073  0.50686554  1
  Cu+  Cu51  1  0.99294683  0.74475942  0.50496905  1
  Cu+  Cu52  1  0.25811744  0.00397362  0.50132584  1
  Cu+  Cu53  1  0.24697401  0.50066694  0.50230816  1
  Cu+  Cu54  1  0.75220873  0.00123409  0.50975730  1
  Cu+  Cu55  1  0.75181467  0.50128635  0.50483996  1
  Cu+  Cu56  1  0.25007157  0.24464658  0.50253130  1
  Cu+  Cu57  1  0.25327576  0.74800329  0.50140197  1
  Cu+  Cu58  1  0.74832244  0.24545980  0.50601250  1
  Cu+  Cu59  1  0.75068371  0.74814794  0.50757349  1
  Cu+  Cu60  1  0.33082423  0.41716227  0.83810339  1
  Cu+  Cu61  1  0.32993881  0.91215500  0.84146582  1
  Cu+  Cu62  1  0.82986632  0.42116041  0.83569845  1
  Cu+  Cu63  1  0.83123862  0.92105324  0.83921430  1
  Cu+  Cu64  1  0.08400643  0.17010758  0.83685697  1
  Cu+  Cu65  1  0.07926019  0.66894638  0.84112367  1
  Cu+  Cu66  1  0.58756345  0.16929705  0.83743353  1
  Cu+  Cu67  1  0.58338896  0.66972463  0.84136479  1
  Cu+  Cu68  1  0.08783620  0.41737493  0.83866076  1
  Cu+  Cu69  1  0.08318637  0.91304885  0.83898451  1
  Cu+  Cu70  1  0.58324876  0.41387037  0.83554233  1
  Cu+  Cu71  1  0.59010780  0.92109819  0.83980422  1
  Cu+  Cu72  1  0.17059948  0.08137865  0.67150275  1
  Cu+  Cu73  1  0.16728873  0.58442466  0.67681127  1
  Cu+  Cu74  1  0.67012441  0.08103701  0.68174153  1
  Cu+  Cu75  1  0.66751727  0.58413343  0.67579750  1
  Cu+  Cu76  1  0.41321214  0.32894304  0.67138194  1
  Cu+  Cu77  1  0.41460592  0.83026315  0.67599680  1
  Cu+  Cu78  1  0.91796138  0.33244011  0.67789640  1
  Cu+  Cu79  1  0.91665834  0.83065363  0.67602245  1
  Cu+  Cu80  1  0.41412592  0.08083482  0.67351942  1
  Cu+  Cu81  1  0.41469383  0.58417028  0.67345985  1
  Cu+  Cu82  1  0.91585668  0.08320128  0.68104341  1
  Cu+  Cu83  1  0.91559523  0.58593432  0.68111581  1
  Cu+  Cu84  1  0.00212739  0.25186275  0.00807015  1
  Cu+  Cu85  1  0.00224032  0.74987553  0.01550685  1
  Cu+  Cu86  1  0.50325360  0.24976222  0.00388643  1
  Cu+  Cu87  1  0.50130648  0.75307893  0.01439537  1
  Cu+  Cu88  1  0.24718067  0.49445781  0.01133414  1
  Cu+  Cu89  1  0.24876657  0.99716082  0.00789462  1
  Cu+  Cu90  1  0.74944598  0.49777241  0.00612320  1
  Cu+  Cu91  1  0.74929494  1.00084832  0.01758720  1
  Cu+  Cu92  1  0.24920675  0.25112514  0.00515429  1
  Cu+  Cu93  1  0.24331606  0.74732662  0.01408228  1
  Cu+  Cu94  1  0.75067691  0.25434852  0.00688270  1
  Cu+  Cu95  1  0.74998256  0.75443638  0.01359011  1
  Cu+  Cu96  1  0.33508240  0.41660067  0.33728269  1
  Cu+  Cu97  1  0.33756269  0.91862764  0.34521484  1
  Cu+  Cu98  1  0.83549774  0.41769273  0.34217580  1
  Cu+  Cu99  1  0.83433314  0.91678605  0.34517360  1
  Cu+  Cu100  1  0.08008711  0.16335762  0.34010000  1
  Cu+  Cu101  1  0.08455367  0.66600998  0.34981210  1
  Cu+  Cu102  1  0.58460190  0.16686996  0.34033361  1
  Cu+  Cu103  1  0.58280684  0.66550349  0.34000118  1
  Cu+  Cu104  1  0.08287330  0.41788633  0.34899688  1
  Cu+  Cu105  1  0.08073526  0.91630563  0.34219327  1
  Cu+  Cu106  1  0.58441933  0.41952704  0.33717204  1
  Cu+  Cu107  1  0.58437959  0.91745944  0.34452075  1
  Cu+  Cu108  1  0.00522800  0.00732781  0.11211456  1
  Cu+  Cu109  1  -0.00700103  0.49488293  0.11504716  1
  Cu+  Cu110  1  0.50405847  0.00994496  0.11283936  1
  Cu+  Cu111  1  0.50149656  0.49548281  0.10629921  1
  Cu+  Cu112  1  0.33504849  0.17099566  0.44315901  1
  Cu+  Cu113  1  0.33758125  0.66316488  0.44581338  1
  Cu+  Cu114  1  0.82969477  0.16412175  0.45194896  1
  Cu+  Cu115  1  0.82522333  0.66325739  0.45017882  1
  Cu+  Cu116  1  0.17026714  0.33257286  0.78062296  1
  Cu+  Cu117  1  0.16983145  0.83469516  0.78491455  1
  Cu+  Cu118  1  0.66204215  0.33095688  0.77746987  1
  Cu+  Cu119  1  0.66525573  0.82850878  0.78500288  1
  Te2-  Te120  1  -0.00018344  -0.00023429  0.38624762  1
  Te2-  Te121  1  -0.00164849  0.49958700  0.39163417  1
  Te2-  Te122  1  0.50445609  0.00279214  0.38727728  1
  Te2-  Te123  1  0.49971564  0.49962516  0.38130648  1
  Te2-  Te124  1  0.33405239  0.16518840  0.71735549  1
  Te2-  Te125  1  0.33235007  0.66559805  0.71927864  1
  Te2-  Te126  1  0.83617680  0.16911663  0.72648586  1
  Te2-  Te127  1  0.83078632  0.66796527  0.72358166  1
  Te2-  Te128  1  0.16496916  0.32877104  0.05491784  1
  Te2-  Te129  1  0.16747534  0.83573101  0.05995575  1
  Te2-  Te130  1  0.66626704  0.33391967  0.05083328  1
  Te2-  Te131  1  0.66600900  0.83502208  0.06107312  1
  Te2-  Te132  1  0.49614301  0.24627244  0.87831276  1
  Te2-  Te133  1  0.49897183  0.75380049  0.88609055  1
  Te2-  Te134  1  0.99366197  0.25058646  0.88273781  1
  Te2-  Te135  1  0.99004344  0.74859345  0.88772399  1
  Te2-  Te136  1  0.25062513  0.00196376  0.88250551  1
  Te2-  Te137  1  0.25327322  0.50607141  0.88418914  1
  Te2-  Te138  1  0.75713916  0.01434549  0.88886077  1
  Te2-  Te139  1  0.74972024  0.50921248  0.88082606  1
  Te2-  Te140  1  0.25183728  0.24822433  0.87958566  1
  Te2-  Te141  1  0.24716223  0.74447420  0.88623226  1
  Te2-  Te142  1  0.75903711  0.25354017  0.88136485  1
  Te2-  Te143  1  0.75259554  0.75370407  0.88547011  1
  Te2-  Te144  1  0.32515582  0.40901376  0.21152958  1
  Te2-  Te145  1  0.32688137  0.91628765  0.21751398  1
  Te2-  Te146  1  0.83410292  0.41891809  0.21584737  1
  Te2-  Te147  1  0.82266989  0.91064002  0.21853079  1
  Te2-  Te148  1  0.08303020  0.16955777  0.21410546  1
  Te2-  Te149  1  0.09098891  0.67802503  0.22023228  1
  Te2-  Te150  1  0.58570917  0.17033442  0.21430292  1
  Te2-  Te151  1  0.58628721  0.67565973  0.21397229  1
  Te2-  Te152  1  0.08639431  0.41261575  0.22028669  1
  Te2-  Te153  1  0.08917899  0.91645549  0.21603318  1
  Te2-  Te154  1  0.58735523  0.41665822  0.21102859  1
  Te2-  Te155  1  0.58718163  0.91148977  0.21789181  1
  Te2-  Te156  1  0.16267947  0.07642628  0.54571542  1
  Te2-  Te157  1  0.15499969  0.57756414  0.55027122  1
  Te2-  Te158  1  0.66296606  0.07942567  0.55402968  1
  Te2-  Te159  1  0.66281496  0.57966904  0.54970134  1
  Te2-  Te160  1  0.41773566  0.33613617  0.54546227  1
  Te2-  Te161  1  0.42114580  0.83927864  0.54974095  1
  Te2-  Te162  1  0.91590179  0.33778955  0.55180053  1
  Te2-  Te163  1  0.91904108  0.83682338  0.55032793  1
  Te2-  Te164  1  0.42551889  0.08081749  0.54786566  1
  Te2-  Te165  1  0.41491490  0.57916738  0.54722445  1
  Te2-  Te166  1  0.91975009  0.08009375  0.55375558  1
  Te2-  Te167  1  0.91774091  0.57616106  0.55324815  1
  Te2-  Te168  1  0.00172220  0.00149594  0.88317075  1
  Te2-  Te169  1  -0.00120012  0.49856371  0.88345841  1
  Te2-  Te170  1  0.49947665  0.00051711  0.88440498  1
  Te2-  Te171  1  0.49972886  0.49920095  0.88184505  1
  Te2-  Te172  1  0.33402598  0.16821859  0.21308947  1
  Te2-  Te173  1  0.33438627  0.66670496  0.21405658  1
  Te2-  Te174  1  0.83373460  0.16710791  0.21719282  1
  Te2-  Te175  1  0.83269959  0.66726570  0.21478496  1
  Te2-  Te176  1  0.16728831  0.33109208  0.54816719  1
  Te2-  Te177  1  0.16642703  0.83264472  0.54799577  1
  Te2-  Te178  1  0.66448889  0.33168141  0.54785243  1
  Te2-  Te179  1  0.66478487  0.83068618  0.55102236  1
  Te2-  Te180  1  0.32838137  0.41387402  0.71024410  1
  Te2-  Te181  1  0.32874585  0.91301603  0.71395346  1
  Te2-  Te182  1  0.82638338  0.41207188  0.70971953  1
  Te2-  Te183  1  0.82625202  0.91065159  0.71215193  1
  Te2-  Te184  1  0.08975071  0.17103160  0.70918080  1
  Te2-  Te185  1  0.08754835  0.67409452  0.71348699  1
  Te2-  Te186  1  0.58470552  0.16986372  0.70972393  1
  Te2-  Te187  1  0.58444578  0.67146518  0.71263534  1
  Te2-  Te188  1  0.08714490  0.41500967  0.71305454  1
  Te2-  Te189  1  0.08610132  0.91313124  0.71271286  1
  Te2-  Te190  1  0.58349543  0.41287666  0.70905124  1
  Te2-  Te191  1  0.58468921  0.90884289  0.71295610  1
  Te2-  Te192  1  0.16184217  0.08105226  0.04221082  1
  Te2-  Te193  1  0.15538440  0.57495310  0.04209193  1
  Te2-  Te194  1  0.66051639  0.08491193  0.04322655  1
  Te2-  Te195  1  0.66212677  0.58100256  0.03938704  1
  Te2-  Te196  1  0.41983258  0.33692908  0.03973600  1
  Te2-  Te197  1  0.41713537  0.84125665  0.04061231  1
  Te2-  Te198  1  0.91966397  0.33859564  0.04550805  1
  Te2-  Te199  1  0.92243835  0.84425161  0.04136335  1
  Te2-  Te200  1  0.41942657  0.08053042  0.04235756  1
  Te2-  Te201  1  0.42079735  0.57956328  0.03720445  1
  Te2-  Te202  1  0.92220714  0.08248332  0.04331757  1
  Te2-  Te203  1  0.91788805  0.57750234  0.04337580  1
  Te2-  Te204  1  0.49642801  0.24925237  0.37472986  1
  Te2-  Te205  1  0.49558367  0.74717389  0.37802776  1
  Te2-  Te206  1  0.99175323  0.24418295  0.37876376  1
  Te2-  Te207  1  0.99312170  0.74715637  0.37807108  1
  Te2-  Te208  1  0.25203726  0.00595021  0.37494587  1
  Te2-  Te209  1  0.25601572  0.50592283  0.37525920  1
  Te2-  Te210  1  0.75352231  0.00556008  0.38199259  1
  Te2-  Te211  1  0.75317346  0.50577643  0.37741135  1
  Te2-  Te212  1  0.25078147  0.24712672  0.37518857  1
  Te2-  Te213  1  0.25750243  0.74642453  0.37491318  1
  Te2-  Te214  1  0.75390208  0.24741013  0.37858051  1
  Te2-  Te215  1  0.75137551  0.74631511  0.37970121  1
