# generated using pymatgen
data_Ti(CuTe)4
_symmetry_space_group_name_H-M   'P 1'
_cell_length_a   16.88107110
_cell_length_b   16.88275354
_cell_length_c   20.69704177
_cell_angle_alpha   90.02703370
_cell_angle_beta   89.98539345
_cell_angle_gamma   119.99351529
_symmetry_Int_Tables_number   1
_chemical_formula_structural   Ti(CuTe)4
_chemical_formula_sum   'Ti24 Cu96 Te96'
_cell_volume   5108.70133765
_cell_formula_units_Z   24
loop_
 _symmetry_equiv_pos_site_id
 _symmetry_equiv_pos_as_xyz
  1  'x, y, z'
loop_
 _atom_type_symbol
 _atom_type_oxidation_number
  Ti4+  4.0
  Cu+  1.0
  Te2-  -2.0
loop_
 _atom_site_type_symbol
 _atom_site_label
 _atom_site_symmetry_multiplicity
 _atom_site_fract_x
 _atom_site_fract_y
 _atom_site_fract_z
 _atom_site_occupancy
  Ti4+  Ti0  1  -0.00011647  0.00012113  0.25793714  1
  Ti4+  Ti1  1  -0.00097786  0.50081181  0.25945337  1
  Ti4+  Ti2  1  0.50026666  -0.00145778  0.25647132  1
  Ti4+  Ti3  1  0.49646651  0.49833729  0.25522924  1
  Ti4+  Ti4  1  0.32981040  0.16634871  0.58820004  1
  Ti4+  Ti5  1  0.33494197  0.67046895  0.59320225  1
  Ti4+  Ti6  1  0.83289510  0.16764409  0.59115087  1
  Ti4+  Ti7  1  0.83259666  0.66649921  0.59344334  1
  Ti4+  Ti8  1  0.16619282  0.33459887  0.92550228  1
  Ti4+  Ti9  1  0.16867782  0.83266349  0.92243697  1
  Ti4+  Ti10  1  0.66841660  0.33138007  0.92088106  1
  Ti4+  Ti11  1  0.67138814  0.83195507  0.92950920  1
  Ti4+  Ti12  1  -0.00149454  -0.00085489  0.75728201  1
  Ti4+  Ti13  1  0.00095584  0.50036377  0.75363912  1
  Ti4+  Ti14  1  0.50039108  0.00143101  0.75592943  1
  Ti4+  Ti15  1  0.50067678  0.50114208  0.75587972  1
  Ti4+  Ti16  1  0.33301449  0.16733544  0.08720651  1
  Ti4+  Ti17  1  0.33462016  0.66625256  0.08602356  1
  Ti4+  Ti18  1  0.83402796  0.16626878  0.08882737  1
  Ti4+  Ti19  1  0.83435430  0.66578169  0.08853721  1
  Ti4+  Ti20  1  0.16554214  0.33096031  0.42350319  1
  Ti4+  Ti21  1  0.16641006  0.83400009  0.42151791  1
  Ti4+  Ti22  1  0.66884337  0.33574177  0.42157969  1
  Ti4+  Ti23  1  0.66393177  0.83378991  0.42498285  1
  Cu+  Cu24  1  0.18972347  0.59323358  0.80748084  1
  Cu+  Cu25  1  0.06711993  0.13984779  0.47500845  1
  Cu+  Cu26  1  0.23622439  0.48533927  0.14319401  1
  Cu+  Cu27  1  0.91080022  0.81332915  0.81043163  1
  Cu+  Cu28  1  0.74547283  0.75346903  0.15043600  1
  Cu+  Cu29  1  0.50885342  0.75348737  0.14734766  1
  Cu+  Cu30  1  0.56855786  0.93104686  0.47500513  1
  Cu+  Cu31  1  0.85873116  0.43094608  0.47690929  1
  Cu+  Cu32  1  0.74550223  0.98870372  0.14899540  1
  Cu+  Cu33  1  0.23439552  0.25527797  0.14053870  1
  Cu+  Cu34  1  0.68613567  0.58952123  0.80980977  1
  Cu+  Cu35  1  0.90884841  0.31190230  0.80578027  1
  Cu+  Cu36  1  0.16378660  0.08457630  0.17082525  1
  Cu+  Cu37  1  0.16087438  0.58093004  0.17089977  1
  Cu+  Cu38  1  0.66352652  0.07952484  0.16926689  1
  Cu+  Cu39  1  0.66206680  0.58004516  0.16816853  1
  Cu+  Cu40  1  0.41157886  0.33507384  0.16715153  1
  Cu+  Cu41  1  0.42151295  0.83879633  0.16753840  1
  Cu+  Cu42  1  0.91552198  0.33801324  0.17244134  1
  Cu+  Cu43  1  0.91922469  0.83660268  0.17023393  1
  Cu+  Cu44  1  0.41758393  0.08033464  0.17036518  1
  Cu+  Cu45  1  0.41607572  0.57705870  0.16477857  1
  Cu+  Cu46  1  0.91902189  0.08092196  0.17010915  1
  Cu+  Cu47  1  0.91702365  0.58038561  0.17255876  1
  Cu+  Cu48  1  0.49550294  0.25096699  0.50283027  1
  Cu+  Cu49  1  0.49669360  0.75532974  0.50645160  1
  Cu+  Cu50  1  0.99718162  0.24432383  0.50516484  1
  Cu+  Cu51  1  0.99637281  0.75283373  0.50527868  1
  Cu+  Cu52  1  0.25060356  0.00484052  0.50137399  1
  Cu+  Cu53  1  0.25226849  0.50382449  0.50846672  1
  Cu+  Cu54  1  0.74491996  0.00219066  0.50511742  1
  Cu+  Cu55  1  0.75376174  0.50348394  0.50532012  1
  Cu+  Cu56  1  0.24470307  0.24206202  0.50283731  1
  Cu+  Cu57  1  0.25133701  0.74959873  0.50553424  1
  Cu+  Cu58  1  0.75611568  0.25508865  0.50371535  1
  Cu+  Cu59  1  0.74868986  0.74720928  0.50882156  1
  Cu+  Cu60  1  0.32978335  0.41550180  0.83870301  1
  Cu+  Cu61  1  0.33153083  0.91622191  0.83661926  1
  Cu+  Cu62  1  0.82901507  0.40788069  0.83253665  1
  Cu+  Cu63  1  0.83234888  0.91091089  0.84096976  1
  Cu+  Cu64  1  0.08617134  0.17047633  0.83915400  1
  Cu+  Cu65  1  0.09199434  0.67089882  0.83437930  1
  Cu+  Cu66  1  0.58667513  0.16985972  0.83525500  1
  Cu+  Cu67  1  0.59084882  0.66901536  0.84011398  1
  Cu+  Cu68  1  0.08530805  0.41681609  0.83669323  1
  Cu+  Cu69  1  0.08242564  0.91235785  0.83758162  1
  Cu+  Cu70  1  0.58722874  0.41691724  0.83558516  1
  Cu+  Cu71  1  0.58748136  0.91790392  0.84295829  1
  Cu+  Cu72  1  0.16669594  0.08561784  0.67337652  1
  Cu+  Cu73  1  0.17272215  0.58765804  0.67955255  1
  Cu+  Cu74  1  0.66754655  0.08468635  0.67554397  1
  Cu+  Cu75  1  0.66910322  0.58528239  0.67986883  1
  Cu+  Cu76  1  0.41038862  0.32997483  0.67097103  1
  Cu+  Cu77  1  0.41806062  0.83431267  0.67762902  1
  Cu+  Cu78  1  0.91666848  0.33158893  0.67798641  1
  Cu+  Cu79  1  0.91186900  0.83015282  0.68126568  1
  Cu+  Cu80  1  0.41343407  0.08634767  0.67151945  1
  Cu+  Cu81  1  0.41668996  0.58649180  0.67609973  1
  Cu+  Cu82  1  0.91521683  0.08362106  0.67715462  1
  Cu+  Cu83  1  0.91658830  0.58444559  0.67516745  1
  Cu+  Cu84  1  -0.00016526  0.25302640  0.00863227  1
  Cu+  Cu85  1  0.00524818  0.74928288  0.00691839  1
  Cu+  Cu86  1  0.50416761  0.25085050  0.00379250  1
  Cu+  Cu87  1  0.50542413  0.75158552  0.01496436  1
  Cu+  Cu88  1  0.24829479  0.49933151  0.01307266  1
  Cu+  Cu89  1  0.24856658  0.99683017  0.00524590  1
  Cu+  Cu90  1  0.75120252  0.49515312  0.00480277  1
  Cu+  Cu91  1  0.75231849  0.99719056  0.01641650  1
  Cu+  Cu92  1  0.24798545  0.25289925  0.01239411  1
  Cu+  Cu93  1  0.25073819  0.75181006  0.00675107  1
  Cu+  Cu94  1  0.75013842  0.25003752  0.00608604  1
  Cu+  Cu95  1  0.75234368  0.74997855  0.01848793  1
  Cu+  Cu96  1  0.33294824  0.41744836  0.34223392  1
  Cu+  Cu97  1  0.33494050  0.91527232  0.33977889  1
  Cu+  Cu98  1  0.83778661  0.42165212  0.34756192  1
  Cu+  Cu99  1  0.83236519  0.91502142  0.34577296  1
  Cu+  Cu100  1  0.08096084  0.16279073  0.34669128  1
  Cu+  Cu101  1  0.08131464  0.66546430  0.34212354  1
  Cu+  Cu102  1  0.58427767  0.16533557  0.33947409  1
  Cu+  Cu103  1  0.58050058  0.66464123  0.34364896  1
  Cu+  Cu104  1  0.08248925  0.41811255  0.34337256  1
  Cu+  Cu105  1  0.08299693  0.91765906  0.34032253  1
  Cu+  Cu106  1  0.58216981  0.41895660  0.33760544  1
  Cu+  Cu107  1  0.58121489  0.91701381  0.34740142  1
  Cu+  Cu108  1  0.00353515  -0.00107988  0.11301487  1
  Cu+  Cu109  1  -0.00284108  0.50013799  0.11513007  1
  Cu+  Cu110  1  0.50049518  0.00521937  0.11134262  1
  Cu+  Cu111  1  0.50250756  0.49558769  0.10887560  1
  Cu+  Cu112  1  0.33721931  0.16767707  0.44337063  1
  Cu+  Cu113  1  0.33079492  0.66387789  0.45081178  1
  Cu+  Cu114  1  0.83161035  0.16648663  0.44768695  1
  Cu+  Cu115  1  0.83150731  0.66828018  0.45028861  1
  Cu+  Cu116  1  0.16768591  0.33184204  0.78126339  1
  Cu+  Cu117  1  0.16914705  0.83857904  0.77840493  1
  Cu+  Cu118  1  0.66111358  0.33138088  0.77618658  1
  Cu+  Cu119  1  0.66357197  0.83477857  0.78713398  1
  Te2-  Te120  1  -0.00221308  -0.00409769  0.38813085  1
  Te2-  Te121  1  0.00371890  0.50277972  0.39019288  1
  Te2-  Te122  1  0.49863950  0.00196671  0.38693878  1
  Te2-  Te123  1  0.49838638  0.49873280  0.38356146  1
  Te2-  Te124  1  0.33071670  0.16711898  0.71740219  1
  Te2-  Te125  1  0.33835066  0.67066669  0.72389977  1
  Te2-  Te126  1  0.83200633  0.16505506  0.72112744  1
  Te2-  Te127  1  0.83438549  0.66444617  0.72534750  1
  Te2-  Te128  1  0.16288914  0.33365311  0.05725558  1
  Te2-  Te129  1  0.16883804  0.83379246  0.05145998  1
  Te2-  Te130  1  0.66732611  0.33172591  0.04974745  1
  Te2-  Te131  1  0.66943845  0.83229661  0.06258575  1
  Te2-  Te132  1  0.49746691  0.24830937  0.87806343  1
  Te2-  Te133  1  0.50271004  0.74868843  0.88644520  1
  Te2-  Te134  1  0.99359108  0.24583824  0.88286162  1
  Te2-  Te135  1  0.99508388  0.74079930  0.88132688  1
  Te2-  Te136  1  0.25115718  0.00353213  0.87949225  1
  Te2-  Te137  1  0.25505645  0.50743471  0.88496794  1
  Te2-  Te138  1  0.75563973  0.00124452  0.88818629  1
  Te2-  Te139  1  0.75907911  0.50478390  0.87937617  1
  Te2-  Te140  1  0.25246858  0.24927295  0.88494893  1
  Te2-  Te141  1  0.25954426  0.74920807  0.88120091  1
  Te2-  Te142  1  0.75305257  0.24124747  0.88044322  1
  Te2-  Te143  1  0.75843543  0.74325717  0.88931534  1
  Te2-  Te144  1  0.32001235  0.41124198  0.21555455  1
  Te2-  Te145  1  0.32965331  0.91237989  0.21396957  1
  Te2-  Te146  1  0.82692582  0.41487640  0.21979927  1
  Te2-  Te147  1  0.82424402  0.91133922  0.21926596  1
  Te2-  Te148  1  0.08336627  0.17327349  0.21892445  1
  Te2-  Te149  1  0.08476140  0.67162871  0.21630939  1
  Te2-  Te150  1  0.58580718  0.16883781  0.21354923  1
  Te2-  Te151  1  0.58564725  0.67424633  0.21686395  1
  Te2-  Te152  1  0.08265267  0.41060463  0.21748926  1
  Te2-  Te153  1  0.08629068  0.91631863  0.21453467  1
  Te2-  Te154  1  0.58041880  0.41260554  0.21144091  1
  Te2-  Te155  1  0.58862510  0.91013264  0.21951524  1
  Te2-  Te156  1  0.15433327  0.07393099  0.54815853  1
  Te2-  Te157  1  0.16371944  0.58324223  0.55208300  1
  Te2-  Te158  1  0.66019457  0.08659825  0.54951504  1
  Te2-  Te159  1  0.66205075  0.57958023  0.55229354  1
  Te2-  Te160  1  0.41386386  0.33753919  0.54538406  1
  Te2-  Te161  1  0.41766074  0.84481275  0.55180095  1
  Te2-  Te162  1  0.92511931  0.34041404  0.55051019  1
  Te2-  Te163  1  0.91586437  0.83777796  0.55361318  1
  Te2-  Te164  1  0.41767526  0.08282437  0.54564110  1
  Te2-  Te165  1  0.42116744  0.58618559  0.55017994  1
  Te2-  Te166  1  0.91349542  0.07513634  0.55082987  1
  Te2-  Te167  1  0.92411094  0.58499991  0.54947044  1
  Te2-  Te168  1  0.00308356  0.00130031  0.88431463  1
  Te2-  Te169  1  -0.00138038  0.50069570  0.88086751  1
  Te2-  Te170  1  0.50061398  0.00190556  0.88217175  1
  Te2-  Te171  1  0.50007495  0.49791795  0.88292381  1
  Te2-  Te172  1  0.33387396  0.16637722  0.21423338  1
  Te2-  Te173  1  0.33341455  0.66634772  0.21399545  1
  Te2-  Te174  1  0.83339584  0.16694255  0.21602866  1
  Te2-  Te175  1  0.83192573  0.66554742  0.21589139  1
  Te2-  Te176  1  0.16718633  0.33328536  0.55022283  1
  Te2-  Te177  1  0.16691421  0.83618499  0.54763755  1
  Te2-  Te178  1  0.66452290  0.33356913  0.54843477  1
  Te2-  Te179  1  0.66544840  0.83376341  0.55179073  1
  Te2-  Te180  1  0.32837672  0.41602118  0.71206133  1
  Te2-  Te181  1  0.32904387  0.91670810  0.71038661  1
  Te2-  Te182  1  0.82672085  0.41428190  0.70708081  1
  Te2-  Te183  1  0.82415019  0.91394385  0.71426740  1
  Te2-  Te184  1  0.08486467  0.17172268  0.71283716  1
  Te2-  Te185  1  0.08678275  0.67468424  0.70880060  1
  Te2-  Te186  1  0.58382676  0.17195368  0.70891513  1
  Te2-  Te187  1  0.58686770  0.67508222  0.71289017  1
  Te2-  Te188  1  0.08915976  0.41447063  0.70907706  1
  Te2-  Te189  1  0.08582194  0.91538190  0.70988082  1
  Te2-  Te190  1  0.58125184  0.41135051  0.70763179  1
  Te2-  Te191  1  0.58783894  0.91558718  0.71446018  1
  Te2-  Te192  1  0.16061539  0.07923681  0.04233977  1
  Te2-  Te193  1  0.15989662  0.58263113  0.04363132  1
  Te2-  Te194  1  0.66145515  0.08015175  0.04241645  1
  Te2-  Te195  1  0.66197120  0.57595552  0.04131982  1
  Te2-  Te196  1  0.42166550  0.33882810  0.03996238  1
  Te2-  Te197  1  0.42116267  0.84065709  0.04156576  1
  Te2-  Te198  1  0.91789770  0.33943826  0.04606918  1
  Te2-  Te199  1  0.92559337  0.83958076  0.04356145  1
  Te2-  Te200  1  0.41858311  0.08149858  0.04273711  1
  Te2-  Te201  1  0.42177186  0.57802893  0.03914069  1
  Te2-  Te202  1  0.92508555  0.08295817  0.04416200  1
  Te2-  Te203  1  0.91980535  0.57967918  0.04520157  1
  Te2-  Te204  1  0.49783115  0.24933414  0.37542737  1
  Te2-  Te205  1  0.49126103  0.74515034  0.37944439  1
  Te2-  Te206  1  0.99277948  0.24738025  0.37839475  1
  Te2-  Te207  1  0.99354542  0.74813849  0.37857543  1
  Te2-  Te208  1  0.25358363  0.00514203  0.37504532  1
  Te2-  Te209  1  0.25144000  0.50419627  0.38100380  1
  Te2-  Te210  1  0.75344540  0.00652367  0.37861021  1
  Te2-  Te211  1  0.75113454  0.50840439  0.37740929  1
  Te2-  Te212  1  0.25370702  0.24704695  0.37608505  1
  Te2-  Te213  1  0.25185513  0.74650111  0.37882814  1
  Te2-  Te214  1  0.75360948  0.24757113  0.37657048  1
  Te2-  Te215  1  0.74924719  0.74593901  0.38181063  1
