# generated using pymatgen
data_Ti(CuTe)4
_symmetry_space_group_name_H-M   'P 1'
_cell_length_a   16.85409617
_cell_length_b   16.85373367
_cell_length_c   20.65753563
_cell_angle_alpha   89.97777142
_cell_angle_beta   90.00997848
_cell_angle_gamma   120.00338325
_symmetry_Int_Tables_number   1
_chemical_formula_structural   Ti(CuTe)4
_chemical_formula_sum   'Ti24 Cu96 Te96'
_cell_volume   5081.54641985
_cell_formula_units_Z   24
loop_
 _symmetry_equiv_pos_site_id
 _symmetry_equiv_pos_as_xyz
  1  'x, y, z'
loop_
 _atom_type_symbol
 _atom_type_oxidation_number
  Ti4+  4.0
  Cu+  1.0
  Te2-  -2.0
loop_
 _atom_site_type_symbol
 _atom_site_label
 _atom_site_symmetry_multiplicity
 _atom_site_fract_x
 _atom_site_fract_y
 _atom_site_fract_z
 _atom_site_occupancy
  Ti4+  Ti0  1  0.00204910  0.00322466  0.25561595  1
  Ti4+  Ti1  1  0.00322660  0.50598435  0.26021909  1
  Ti4+  Ti2  1  0.50203360  0.00254871  0.25709919  1
  Ti4+  Ti3  1  0.50132791  0.50135786  0.25522283  1
  Ti4+  Ti4  1  0.33365488  0.16897798  0.59076452  1
  Ti4+  Ti5  1  0.33341103  0.66893819  0.59350742  1
  Ti4+  Ti6  1  0.83085675  0.16502144  0.58997312  1
  Ti4+  Ti7  1  0.83435976  0.66607888  0.59426974  1
  Ti4+  Ti8  1  0.16484194  0.33060685  0.92280003  1
  Ti4+  Ti9  1  0.16359703  0.82698048  0.92487743  1
  Ti4+  Ti10  1  0.66523061  0.32994433  0.92406716  1
  Ti4+  Ti11  1  0.66590503  0.83184176  0.92571815  1
  Ti4+  Ti12  1  -0.00124588  -0.00230430  0.75603679  1
  Ti4+  Ti13  1  0.00030273  0.50031197  0.75452512  1
  Ti4+  Ti14  1  0.49863329  -0.00208048  0.75745977  1
  Ti4+  Ti15  1  0.49990680  0.50027216  0.75575521  1
  Ti4+  Ti16  1  0.33305355  0.16587294  0.08651077  1
  Ti4+  Ti17  1  0.33250871  0.66574497  0.08888255  1
  Ti4+  Ti18  1  0.83236309  0.16441437  0.08758650  1
  Ti4+  Ti19  1  0.83399919  0.66587863  0.08785607  1
  Ti4+  Ti20  1  0.16818404  0.33426070  0.42135571  1
  Ti4+  Ti21  1  0.16642436  0.83206156  0.42463791  1
  Ti4+  Ti22  1  0.66781265  0.33469659  0.42088727  1
  Ti4+  Ti23  1  0.66692550  0.83649520  0.42500165  1
  Cu+  Cu24  1  0.24183952  0.26589405  0.13776360  1
  Cu+  Cu25  1  0.56607050  0.93055669  0.47464392  1
  Cu+  Cu26  1  0.40915928  0.80963990  0.81048533  1
  Cu+  Cu27  1  0.18114176  0.58798174  0.81175000  1
  Cu+  Cu28  1  0.74699001  0.76188199  0.14402950  1
  Cu+  Cu29  1  0.52416789  0.26471022  0.13907239  1
  Cu+  Cu30  1  0.51659198  0.76271685  0.14461172  1
  Cu+  Cu31  1  0.90036672  0.80960771  0.80984669  1
  Cu+  Cu32  1  0.07112471  0.64139647  0.48099169  1
  Cu+  Cu33  1  0.24769952  0.76391536  0.14621245  1
  Cu+  Cu34  1  0.90653734  0.58701974  0.81244240  1
  Cu+  Cu35  1  0.01757914  0.76356170  0.14501196  1
  Cu+  Cu36  1  0.16386481  0.08801374  0.16576897  1
  Cu+  Cu37  1  0.16230602  0.58759809  0.17038796  1
  Cu+  Cu38  1  0.66431284  0.08210185  0.16934472  1
  Cu+  Cu39  1  0.66283653  0.58518143  0.16692364  1
  Cu+  Cu40  1  0.41808918  0.33564748  0.16794052  1
  Cu+  Cu41  1  0.42069262  0.84010638  0.17144368  1
  Cu+  Cu42  1  0.91707674  0.33411941  0.17259846  1
  Cu+  Cu43  1  0.92091343  0.84042515  0.16904005  1
  Cu+  Cu44  1  0.42452288  0.08830882  0.16727313  1
  Cu+  Cu45  1  0.42400386  0.58647344  0.16737445  1
  Cu+  Cu46  1  0.92083995  0.08372989  0.16748147  1
  Cu+  Cu47  1  0.92593327  0.58765748  0.17011465  1
  Cu+  Cu48  1  0.49704722  0.24983717  0.50330609  1
  Cu+  Cu49  1  0.49914771  0.75592548  0.50778514  1
  Cu+  Cu50  1  0.99746398  0.24739749  0.50399847  1
  Cu+  Cu51  1  0.99709232  0.74408768  0.50792705  1
  Cu+  Cu52  1  0.25151706  0.00449645  0.50556450  1
  Cu+  Cu53  1  0.25085835  0.50172542  0.50609334  1
  Cu+  Cu54  1  0.74524670  0.00398537  0.50432965  1
  Cu+  Cu55  1  0.75098972  0.50246833  0.50594937  1
  Cu+  Cu56  1  0.25301366  0.24911583  0.50336622  1
  Cu+  Cu57  1  0.24810553  0.74490469  0.50658565  1
  Cu+  Cu58  1  0.75130844  0.24770194  0.50270853  1
  Cu+  Cu59  1  0.75328963  0.75097176  0.50894407  1
  Cu+  Cu60  1  0.33034554  0.41214562  0.83681149  1
  Cu+  Cu61  1  0.33143017  0.90816594  0.83803845  1
  Cu+  Cu62  1  0.82762333  0.41254492  0.83630324  1
  Cu+  Cu63  1  0.83049659  0.91226724  0.83879711  1
  Cu+  Cu64  1  0.08412359  0.16862445  0.83725582  1
  Cu+  Cu65  1  0.08504564  0.66970771  0.83563386  1
  Cu+  Cu66  1  0.58357982  0.16801126  0.83932835  1
  Cu+  Cu67  1  0.58381846  0.66795604  0.83857350  1
  Cu+  Cu68  1  0.08572673  0.41339296  0.83521221  1
  Cu+  Cu69  1  0.07690725  0.90841943  0.83719763  1
  Cu+  Cu70  1  0.58079730  0.41147536  0.83796757  1
  Cu+  Cu71  1  0.58144420  0.91146032  0.83952809  1
  Cu+  Cu72  1  0.17029082  0.08660747  0.67384190  1
  Cu+  Cu73  1  0.16867000  0.58518637  0.68224084  1
  Cu+  Cu74  1  0.66778970  0.08397436  0.67573480  1
  Cu+  Cu75  1  0.66739309  0.58435309  0.67673694  1
  Cu+  Cu76  1  0.41517750  0.33169164  0.67276438  1
  Cu+  Cu77  1  0.41460222  0.83174064  0.68113774  1
  Cu+  Cu78  1  0.91434424  0.32897010  0.67274839  1
  Cu+  Cu79  1  0.91599498  0.82894227  0.68052497  1
  Cu+  Cu80  1  0.41505294  0.08693742  0.67433628  1
  Cu+  Cu81  1  0.41794876  0.58644609  0.67612793  1
  Cu+  Cu82  1  0.91377625  0.08367870  0.67245794  1
  Cu+  Cu83  1  0.91656681  0.58448832  0.68244775  1
  Cu+  Cu84  1  -0.00005048  0.24859284  0.00523647  1
  Cu+  Cu85  1  0.00083711  0.74593290  0.01533688  1
  Cu+  Cu86  1  0.50322855  0.24805930  0.01039896  1
  Cu+  Cu87  1  0.50121835  0.74862827  0.01476857  1
  Cu+  Cu88  1  0.24665910  0.49604905  0.00754040  1
  Cu+  Cu89  1  0.24697882  0.99328588  0.00555994  1
  Cu+  Cu90  1  0.74940057  0.49537723  0.00824089  1
  Cu+  Cu91  1  0.74784361  0.99623032  0.00695431  1
  Cu+  Cu92  1  0.24502290  0.24842738  0.00893536  1
  Cu+  Cu93  1  0.24635349  0.74639936  0.01619929  1
  Cu+  Cu94  1  0.74742150  0.24717223  0.00663223  1
  Cu+  Cu95  1  0.74736634  0.74850586  0.01405097  1
  Cu+  Cu96  1  0.33611052  0.41884125  0.33949346  1
  Cu+  Cu97  1  0.33452382  0.91684406  0.34257329  1
  Cu+  Cu98  1  0.83764524  0.42210159  0.34248968  1
  Cu+  Cu99  1  0.83618222  0.91784274  0.34179828  1
  Cu+  Cu100  1  0.08460098  0.16683077  0.33955232  1
  Cu+  Cu101  1  0.08390591  0.66692966  0.35118335  1
  Cu+  Cu102  1  0.58503927  0.16790153  0.34077250  1
  Cu+  Cu103  1  0.58514315  0.66760229  0.34417038  1
  Cu+  Cu104  1  0.08533073  0.42197316  0.34233837  1
  Cu+  Cu105  1  0.08255056  0.91785117  0.34098518  1
  Cu+  Cu106  1  0.58433657  0.41928905  0.33961139  1
  Cu+  Cu107  1  0.58151119  0.91859620  0.34666746  1
  Cu+  Cu108  1  0.00104457  0.00152412  0.10781008  1
  Cu+  Cu109  1  -0.00384438  0.49175504  0.11647838  1
  Cu+  Cu110  1  0.50021309  0.00184680  0.11097558  1
  Cu+  Cu111  1  0.49790572  0.49583126  0.10901770  1
  Cu+  Cu112  1  0.33496934  0.16813519  0.44634308  1
  Cu+  Cu113  1  0.33637954  0.66423153  0.45102156  1
  Cu+  Cu114  1  0.83780838  0.17012208  0.44527201  1
  Cu+  Cu115  1  0.83107845  0.66730091  0.45197773  1
  Cu+  Cu116  1  0.16827672  0.33063428  0.77904985  1
  Cu+  Cu117  1  0.17042228  0.84103993  0.78131447  1
  Cu+  Cu118  1  0.66281496  0.33117522  0.78090635  1
  Cu+  Cu119  1  0.66869751  0.83652331  0.78159414  1
  Te2-  Te120  1  0.00170822  0.00236767  0.38408453  1
  Te2-  Te121  1  0.00015675  0.49915988  0.39099667  1
  Te2-  Te122  1  0.49894707  0.00429590  0.38728829  1
  Te2-  Te123  1  0.50109049  0.50102799  0.38335263  1
  Te2-  Te124  1  0.33345328  0.16877912  0.72062845  1
  Te2-  Te125  1  0.33487049  0.66515870  0.72597131  1
  Te2-  Te126  1  0.83248554  0.16565456  0.71935810  1
  Te2-  Te127  1  0.82922287  0.66312106  0.72704310  1
  Te2-  Te128  1  0.16276814  0.33246278  0.05373815  1
  Te2-  Te129  1  0.16717267  0.83372808  0.05727536  1
  Te2-  Te130  1  0.66958843  0.33206509  0.05503645  1
  Te2-  Te131  1  0.66771137  0.83502943  0.05833134  1
  Te2-  Te132  1  0.49307996  0.24450499  0.88395602  1
  Te2-  Te133  1  0.49209980  0.74190803  0.88735839  1
  Te2-  Te134  1  0.99390035  0.24719445  0.87963566  1
  Te2-  Te135  1  0.98777955  0.74051719  0.88704486  1
  Te2-  Te136  1  0.24753700  -0.00496484  0.87967091  1
  Te2-  Te137  1  0.25498738  0.50490260  0.88201705  1
  Te2-  Te138  1  0.75045309  0.00111664  0.88078904  1
  Te2-  Te139  1  0.74936332  0.50392798  0.88269910  1
  Te2-  Te140  1  0.25111309  0.24496072  0.88233544  1
  Te2-  Te141  1  0.25301741  0.74039868  0.88761708  1
  Te2-  Te142  1  0.75256106  0.24629109  0.88097723  1
  Te2-  Te143  1  0.74980754  0.74231065  0.88668548  1
  Te2-  Te144  1  0.32924672  0.41884698  0.21301009  1
  Te2-  Te145  1  0.32959489  0.92066696  0.21598409  1
  Te2-  Te146  1  0.83380503  0.42078074  0.21614951  1
  Te2-  Te147  1  0.82833950  0.91719935  0.21560579  1
  Te2-  Te148  1  0.08682157  0.17737716  0.21392726  1
  Te2-  Te149  1  0.09236529  0.68417359  0.22167476  1
  Te2-  Te150  1  0.59147175  0.17589407  0.21514076  1
  Te2-  Te151  1  0.59073035  0.67959098  0.21776571  1
  Te2-  Te152  1  0.08708135  0.42054818  0.21600784  1
  Te2-  Te153  1  0.09193958  0.92038432  0.21440935  1
  Te2-  Te154  1  0.59021010  0.41806329  0.21318790  1
  Te2-  Te155  1  0.58944654  0.91621111  0.21902581  1
  Te2-  Te156  1  0.16126391  0.08186986  0.54810890  1
  Te2-  Te157  1  0.15941782  0.57636306  0.55484262  1
  Te2-  Te158  1  0.65499848  0.08205767  0.54994196  1
  Te2-  Te159  1  0.66398534  0.58256392  0.55107160  1
  Te2-  Te160  1  0.42045046  0.34085959  0.54702108  1
  Te2-  Te161  1  0.41538513  0.84197414  0.55339673  1
  Te2-  Te162  1  0.91837510  0.33654480  0.54728655  1
  Te2-  Te163  1  0.92155629  0.83674573  0.55325952  1
  Te2-  Te164  1  0.41922518  0.08232724  0.54844356  1
  Te2-  Te165  1  0.41989397  0.58611221  0.54987615  1
  Te2-  Te166  1  0.91462368  0.07810675  0.54646058  1
  Te2-  Te167  1  0.91711694  0.57472365  0.55475973  1
  Te2-  Te168  1  0.00016036  0.00004092  0.88331751  1
  Te2-  Te169  1  -0.00117985  0.49737022  0.88244814  1
  Te2-  Te170  1  0.49956667  -0.00088655  0.88471695  1
  Te2-  Te171  1  0.49852529  0.49785569  0.88256022  1
  Te2-  Te172  1  0.33326850  0.16651976  0.21420235  1
  Te2-  Te173  1  0.33398749  0.66732359  0.21664822  1
  Te2-  Te174  1  0.83393925  0.16554192  0.21433885  1
  Te2-  Te175  1  0.83421187  0.66810211  0.21557492  1
  Te2-  Te176  1  0.16655799  0.33168828  0.54807581  1
  Te2-  Te177  1  0.16767179  0.83511209  0.55150228  1
  Te2-  Te178  1  0.66603459  0.33211929  0.54750764  1
  Te2-  Te179  1  0.66831191  0.83531041  0.55200791  1
  Te2-  Te180  1  0.32869859  0.41517782  0.70979825  1
  Te2-  Te181  1  0.32708182  0.91677592  0.71046387  1
  Te2-  Te182  1  0.82669164  0.41046776  0.70958797  1
  Te2-  Te183  1  0.82694034  0.91367493  0.71042355  1
  Te2-  Te184  1  0.08327299  0.16879261  0.71049910  1
  Te2-  Te185  1  0.08896680  0.67765852  0.70957243  1
  Te2-  Te186  1  0.58363892  0.16939227  0.71262853  1
  Te2-  Te187  1  0.58725026  0.67399754  0.71230497  1
  Te2-  Te188  1  0.08404670  0.41094477  0.70859774  1
  Te2-  Te189  1  0.08888896  0.91610161  0.70974132  1
  Te2-  Te190  1  0.58478678  0.41348489  0.71093996  1
  Te2-  Te191  1  0.58719844  0.91414455  0.71154918  1
  Te2-  Te192  1  0.16036152  0.07614657  0.03919123  1
  Te2-  Te193  1  0.15741014  0.57478581  0.04409651  1
  Te2-  Te194  1  0.66001164  0.07785051  0.04270890  1
  Te2-  Te195  1  0.66001616  0.57589920  0.04102753  1
  Te2-  Te196  1  0.41866693  0.33765720  0.03938530  1
  Te2-  Te197  1  0.42008881  0.84039144  0.04296575  1
  Te2-  Te198  1  0.91763941  0.33574126  0.04397913  1
  Te2-  Te199  1  0.92077237  0.84004052  0.04074014  1
  Te2-  Te200  1  0.41606741  0.07564313  0.04046402  1
  Te2-  Te201  1  0.41618702  0.57598726  0.04139073  1
  Te2-  Te202  1  0.91820060  0.07896913  0.04089123  1
  Te2-  Te203  1  0.91792140  0.57439330  0.04376728  1
  Te2-  Te204  1  0.49593080  0.24911674  0.37588830  1
  Te2-  Te205  1  0.49439731  0.74672294  0.37962840  1
  Te2-  Te206  1  0.99726957  0.25004615  0.37595835  1
  Te2-  Te207  1  0.99298297  0.74945698  0.38018286  1
  Te2-  Te208  1  0.25173035  0.00367282  0.37866014  1
  Te2-  Te209  1  0.25493026  0.50699446  0.37848150  1
  Te2-  Te210  1  0.75507916  0.00743982  0.37686440  1
  Te2-  Te211  1  0.75363443  0.50794493  0.37863886  1
  Te2-  Te212  1  0.25426855  0.24889145  0.37609465  1
  Te2-  Te213  1  0.25718450  0.74860059  0.37965031  1
  Te2-  Te214  1  0.75529138  0.25007172  0.37580896  1
  Te2-  Te215  1  0.75357750  0.75032356  0.38155326  1
