# generated using pymatgen
data_Ti(CuTe)4
_symmetry_space_group_name_H-M   'P 1'
_cell_length_a   16.87191012
_cell_length_b   16.87378652
_cell_length_c   20.68761358
_cell_angle_alpha   90.05276262
_cell_angle_beta   89.97185977
_cell_angle_gamma   119.98568192
_symmetry_Int_Tables_number   1
_chemical_formula_structural   Ti(CuTe)4
_chemical_formula_sum   'Ti24 Cu96 Te96'
_cell_volume   5101.29322257
_cell_formula_units_Z   24
loop_
 _symmetry_equiv_pos_site_id
 _symmetry_equiv_pos_as_xyz
  1  'x, y, z'
loop_
 _atom_type_symbol
 _atom_type_oxidation_number
  Ti4+  4.0
  Cu+  1.0
  Te2-  -2.0
loop_
 _atom_site_type_symbol
 _atom_site_label
 _atom_site_symmetry_multiplicity
 _atom_site_fract_x
 _atom_site_fract_y
 _atom_site_fract_z
 _atom_site_occupancy
  Ti4+  Ti0  1  -0.00200211  -0.00265873  0.25611595  1
  Ti4+  Ti1  1  0.00032263  0.50002827  0.26126110  1
  Ti4+  Ti2  1  0.49816609  0.00012329  0.25857410  1
  Ti4+  Ti3  1  0.50362598  0.50056814  0.25560394  1
  Ti4+  Ti4  1  0.33501595  0.16895078  0.59068479  1
  Ti4+  Ti5  1  0.33031514  0.66316335  0.58703253  1
  Ti4+  Ti6  1  0.82910446  0.16633479  0.59311105  1
  Ti4+  Ti7  1  0.83330878  0.66813259  0.59391643  1
  Ti4+  Ti8  1  0.16758906  0.33326495  0.92230093  1
  Ti4+  Ti9  1  0.16777645  0.83501956  0.92382386  1
  Ti4+  Ti10  1  0.67025714  0.33187070  0.92894504  1
  Ti4+  Ti11  1  0.66735287  0.83259163  0.92316761  1
  Ti4+  Ti12  1  0.00058956  0.00075351  0.75352940  1
  Ti4+  Ti13  1  -0.00132551  0.49932284  0.75615177  1
  Ti4+  Ti14  1  0.49969569  0.00102394  0.75634884  1
  Ti4+  Ti15  1  0.49980595  0.50080695  0.75682828  1
  Ti4+  Ti16  1  0.33412975  0.16534121  0.08797751  1
  Ti4+  Ti17  1  0.33332319  0.66653388  0.08957490  1
  Ti4+  Ti18  1  0.83482450  0.16800801  0.09052492  1
  Ti4+  Ti19  1  0.83303862  0.66874309  0.08745962  1
  Ti4+  Ti20  1  0.16939511  0.33629462  0.42099108  1
  Ti4+  Ti21  1  0.16438915  0.83284652  0.42196803  1
  Ti4+  Ti22  1  0.66518041  0.33135190  0.42412045  1
  Ti4+  Ti23  1  0.66670948  0.83432127  0.42283626  1
  Cu+  Cu24  1  0.90870188  0.81303668  0.80875026  1
  Cu+  Cu25  1  0.23829797  0.97464234  0.14013209  1
  Cu+  Cu26  1  0.68354627  0.08854951  0.81163323  1
  Cu+  Cu27  1  0.91075368  0.31433081  0.80927173  1
  Cu+  Cu28  1  0.36093153  0.42933007  0.46968107  1
  Cu+  Cu29  1  0.07052271  0.41966461  0.47701519  1
  Cu+  Cu30  1  0.06637917  0.64855838  0.47673125  1
  Cu+  Cu31  1  0.51574918  0.25273360  0.14449455  1
  Cu+  Cu32  1  0.19068320  0.09402844  0.80574758  1
  Cu+  Cu33  1  0.74933640  0.48805522  0.14488386  1
  Cu+  Cu34  1  0.56967747  0.14013093  0.47510523  1
  Cu+  Cu35  1  0.73712871  0.76257247  0.13812378  1
  Cu+  Cu36  1  0.16297385  0.07507359  0.16921547  1
  Cu+  Cu37  1  0.16494376  0.58294954  0.17514711  1
  Cu+  Cu38  1  0.66586100  0.08469839  0.17261880  1
  Cu+  Cu39  1  0.66464345  0.58376076  0.16618063  1
  Cu+  Cu40  1  0.42333221  0.33628953  0.16869384  1
  Cu+  Cu41  1  0.41712661  0.83548314  0.17149820  1
  Cu+  Cu42  1  0.92106630  0.33662447  0.17426143  1
  Cu+  Cu43  1  0.91339190  0.83887303  0.16741161  1
  Cu+  Cu44  1  0.41703887  0.07888719  0.17041039  1
  Cu+  Cu45  1  0.41711148  0.57970684  0.17025401  1
  Cu+  Cu46  1  0.91701181  0.08133762  0.17077795  1
  Cu+  Cu47  1  0.91992340  0.58170722  0.17326643  1
  Cu+  Cu48  1  0.49719831  0.24415267  0.50342933  1
  Cu+  Cu49  1  0.49543784  0.74691540  0.50172418  1
  Cu+  Cu50  1  0.99524310  0.25048529  0.50569534  1
  Cu+  Cu51  1  0.99488728  0.74802604  0.50715989  1
  Cu+  Cu52  1  0.24887748  0.00538523  0.50434738  1
  Cu+  Cu53  1  0.25267847  0.50379252  0.49858290  1
  Cu+  Cu54  1  0.74623205  0.00227457  0.50626331  1
  Cu+  Cu55  1  0.74984104  0.50329097  0.50692611  1
  Cu+  Cu56  1  0.25763761  0.25562264  0.50365561  1
  Cu+  Cu57  1  0.24521889  0.74505599  0.50102828  1
  Cu+  Cu58  1  0.74461612  0.24344966  0.50616572  1
  Cu+  Cu59  1  0.75202764  0.75101489  0.50791372  1
  Cu+  Cu60  1  0.33016587  0.41644752  0.83683395  1
  Cu+  Cu61  1  0.32982956  0.91571809  0.83749953  1
  Cu+  Cu62  1  0.83200548  0.41173685  0.84001656  1
  Cu+  Cu63  1  0.82876064  0.90954050  0.83460857  1
  Cu+  Cu64  1  0.09117045  0.17166758  0.83340442  1
  Cu+  Cu65  1  0.08751064  0.67103692  0.83760699  1
  Cu+  Cu66  1  0.58917052  0.16950668  0.84023183  1
  Cu+  Cu67  1  0.58581391  0.66959695  0.83763241  1
  Cu+  Cu68  1  0.08293709  0.41338983  0.83653824  1
  Cu+  Cu69  1  0.08611053  0.91712581  0.83593883  1
  Cu+  Cu70  1  0.58560280  0.41634464  0.84375182  1
  Cu+  Cu71  1  0.58499947  0.91596503  0.83723552  1
  Cu+  Cu72  1  0.17200959  0.08933104  0.67701296  1
  Cu+  Cu73  1  0.16589665  0.58294797  0.67323347  1
  Cu+  Cu74  1  0.66564220  0.08511192  0.68301931  1
  Cu+  Cu75  1  0.66875375  0.58550301  0.67677819  1
  Cu+  Cu76  1  0.41849629  0.33442024  0.67464406  1
  Cu+  Cu77  1  0.41094177  0.82880202  0.67068869  1
  Cu+  Cu78  1  0.91127394  0.33110147  0.68065209  1
  Cu+  Cu79  1  0.91550642  0.83053078  0.67962729  1
  Cu+  Cu80  1  0.41557285  0.08386604  0.67527592  1
  Cu+  Cu81  1  0.41479481  0.58330989  0.67221550  1
  Cu+  Cu82  1  0.91423144  0.08445887  0.67427173  1
  Cu+  Cu83  1  0.91624152  0.58598002  0.67854610  1
  Cu+  Cu84  1  0.00329417  0.25256860  0.00672561  1
  Cu+  Cu85  1  0.00181393  0.75294731  0.00771284  1
  Cu+  Cu86  1  0.50511875  0.25191241  0.01501618  1
  Cu+  Cu87  1  0.50066463  0.74998057  0.00669019  1
  Cu+  Cu88  1  0.24689541  0.49807567  0.00591639  1
  Cu+  Cu89  1  0.24828713  0.99748783  0.01152568  1
  Cu+  Cu90  1  0.75120519  0.49772038  0.01519426  1
  Cu+  Cu91  1  0.74959079  0.99948778  0.00742829  1
  Cu+  Cu92  1  0.24921851  0.25194364  0.00616158  1
  Cu+  Cu93  1  0.24911249  0.75074608  0.00812525  1
  Cu+  Cu94  1  0.75351937  0.25165392  0.01415521  1
  Cu+  Cu95  1  0.74994830  0.75327499  0.01097602  1
  Cu+  Cu96  1  0.34050318  0.41792565  0.34231283  1
  Cu+  Cu97  1  0.33303614  0.92059231  0.34233332  1
  Cu+  Cu98  1  0.83258089  0.41533280  0.34470658  1
  Cu+  Cu99  1  0.83489877  0.91855297  0.34214446  1
  Cu+  Cu100  1  0.08192747  0.16312596  0.33860481  1
  Cu+  Cu101  1  0.07933620  0.66286118  0.34760424  1
  Cu+  Cu102  1  0.57969957  0.16316378  0.34763952  1
  Cu+  Cu103  1  0.58679905  0.66788187  0.33993968  1
  Cu+  Cu104  1  0.08347430  0.41914141  0.34791432  1
  Cu+  Cu105  1  0.07999157  0.91638451  0.33928893  1
  Cu+  Cu106  1  0.58657002  0.41793299  0.34190203  1
  Cu+  Cu107  1  0.58342749  0.91966185  0.34094265  1
  Cu+  Cu108  1  0.00236759  0.00693546  0.11180994  1
  Cu+  Cu109  1  0.00433001  0.50032256  0.11882153  1
  Cu+  Cu110  1  0.50393032  -0.00380470  0.11501706  1
  Cu+  Cu111  1  0.49688009  0.49999394  0.11074473  1
  Cu+  Cu112  1  0.33168806  0.16659020  0.44652495  1
  Cu+  Cu113  1  0.33673114  0.67280055  0.44172271  1
  Cu+  Cu114  1  0.83463158  0.16483361  0.44971464  1
  Cu+  Cu115  1  0.82913368  0.66684453  0.45123914  1
  Cu+  Cu116  1  0.16904150  0.33788649  0.77720601  1
  Cu+  Cu117  1  0.16736129  0.83261599  0.77935610  1
  Cu+  Cu118  1  0.66362711  0.33565689  0.78693935  1
  Cu+  Cu119  1  0.66137673  0.83175029  0.77880809  1
  Te2-  Te120  1  -0.00014443  0.00003135  0.38516441  1
  Te2-  Te121  1  -0.00419923  0.49713724  0.39332215  1
  Te2-  Te122  1  0.49651286  -0.00405296  0.38890210  1
  Te2-  Te123  1  0.50702323  0.50341958  0.38564776  1
  Te2-  Te124  1  0.33802633  0.17036600  0.72106620  1
  Te2-  Te125  1  0.33104172  0.66471937  0.71567910  1
  Te2-  Te126  1  0.83251822  0.16485603  0.72508439  1
  Te2-  Te127  1  0.83194486  0.66516123  0.72455938  1
  Te2-  Te128  1  0.16752134  0.33410859  0.05126124  1
  Te2-  Te129  1  0.16530447  0.83092357  0.05424192  1
  Te2-  Te130  1  0.67043051  0.33242303  0.06086791  1
  Te2-  Te131  1  0.66467559  0.83527292  0.05323415  1
  Te2-  Te132  1  0.49996090  0.24715383  0.88722311  1
  Te2-  Te133  1  0.49665426  0.74834744  0.88087248  1
  Te2-  Te134  1  0.99447179  0.24203110  0.88092205  1
  Te2-  Te135  1  0.99477109  0.74580209  0.88195859  1
  Te2-  Te136  1  0.25602336  0.00837364  0.88362299  1
  Te2-  Te137  1  0.25046409  0.50441709  0.87997540  1
  Te2-  Te138  1  0.75727159  0.00517290  0.88152654  1
  Te2-  Te139  1  0.75508514  0.50191475  0.88731963  1
  Te2-  Te140  1  0.25815123  0.24937304  0.88064106  1
  Te2-  Te141  1  0.25371906  0.74921423  0.88257059  1
  Te2-  Te142  1  0.75792117  0.24384865  0.88774966  1
  Te2-  Te143  1  0.75219830  0.74306576  0.88378969  1
  Te2-  Te144  1  0.33261777  0.41223573  0.21510704  1
  Te2-  Te145  1  0.32498719  0.91070842  0.21643460  1
  Te2-  Te146  1  0.82778470  0.41094342  0.21893995  1
  Te2-  Te147  1  0.82313040  0.91478927  0.21611314  1
  Te2-  Te148  1  0.08623050  0.16776666  0.21253755  1
  Te2-  Te149  1  0.08500854  0.67105365  0.22024272  1
  Te2-  Te150  1  0.58782350  0.17326328  0.21969450  1
  Te2-  Te151  1  0.58548217  0.67317214  0.21392543  1
  Te2-  Te152  1  0.08707297  0.41560896  0.22046621  1
  Te2-  Te153  1  0.08021576  0.90578859  0.21372402  1
  Te2-  Te154  1  0.59229290  0.41339129  0.21571305  1
  Te2-  Te155  1  0.58490034  0.91655691  0.21518744  1
  Te2-  Te156  1  0.16414706  0.08765008  0.54949302  1
  Te2-  Te157  1  0.15421293  0.57595974  0.54726853  1
  Te2-  Te158  1  0.65521356  0.07625220  0.55500025  1
  Te2-  Te159  1  0.66227394  0.58268324  0.55096422  1
  Te2-  Te160  1  0.42686940  0.34197108  0.54853234  1
  Te2-  Te161  1  0.41370712  0.83371536  0.54474651  1
  Te2-  Te162  1  0.91229574  0.33849907  0.55266042  1
  Te2-  Te163  1  0.91965409  0.83933235  0.55234272  1
  Te2-  Te164  1  0.41566810  0.07569702  0.54950072  1
  Te2-  Te165  1  0.42083411  0.57990287  0.54624436  1
  Te2-  Te166  1  0.91521903  0.08279770  0.54858728  1
  Te2-  Te167  1  0.91603416  0.57711881  0.55277993  1
  Te2-  Te168  1  -0.00037430  0.00143737  0.88076657  1
  Te2-  Te169  1  0.00295546  0.50199571  0.88312680  1
  Te2-  Te170  1  0.49918001  -0.00133238  0.88352983  1
  Te2-  Te171  1  0.49894865  0.50071900  0.88329005  1
  Te2-  Te172  1  0.33258503  0.16625136  0.21542536  1
  Te2-  Te173  1  0.33518113  0.66659204  0.21610839  1
  Te2-  Te174  1  0.83473796  0.16693394  0.21699754  1
  Te2-  Te175  1  0.83369992  0.66819256  0.21500365  1
  Te2-  Te176  1  0.16631663  0.33507179  0.54869349  1
  Te2-  Te177  1  0.16652095  0.83510779  0.54892903  1
  Te2-  Te178  1  0.66512773  0.33407480  0.55103388  1
  Te2-  Te179  1  0.66313112  0.83242121  0.54926809  1
  Te2-  Te180  1  0.32872180  0.41452562  0.71002696  1
  Te2-  Te181  1  0.32796747  0.91403106  0.71095857  1
  Te2-  Te182  1  0.82413367  0.41547102  0.71345359  1
  Te2-  Te183  1  0.82636052  0.91473727  0.70857496  1
  Te2-  Te184  1  0.08449975  0.17420296  0.70742043  1
  Te2-  Te185  1  0.08643113  0.67192821  0.71143373  1
  Te2-  Te186  1  0.58429626  0.17563185  0.71339040  1
  Te2-  Te187  1  0.58443272  0.67186227  0.71078348  1
  Te2-  Te188  1  0.08490511  0.41350880  0.70872279  1
  Te2-  Te189  1  0.08934583  0.91602265  0.70797361  1
  Te2-  Te190  1  0.58728270  0.41580816  0.71494362  1
  Te2-  Te191  1  0.58058022  0.91042711  0.70922132  1
  Te2-  Te192  1  0.16155258  0.08276815  0.04192578  1
  Te2-  Te193  1  0.16137223  0.58119836  0.04668925  1
  Te2-  Te194  1  0.66205050  0.08080174  0.04574166  1
  Te2-  Te195  1  0.65924302  0.57991662  0.03974416  1
  Te2-  Te196  1  0.41886545  0.33882738  0.04225082  1
  Te2-  Te197  1  0.41910528  0.83813717  0.04438925  1
  Te2-  Te198  1  0.92371882  0.34123831  0.04742315  1
  Te2-  Te199  1  0.92182655  0.84247441  0.04160707  1
  Te2-  Te200  1  0.42140404  0.07826667  0.04287444  1
  Te2-  Te201  1  0.41734818  0.57998848  0.04297732  1
  Te2-  Te202  1  0.91943289  0.08232183  0.04374473  1
  Te2-  Te203  1  0.92350393  0.58382085  0.04580361  1
  Te2-  Te204  1  0.49268527  0.24860938  0.37685663  1
  Te2-  Te205  1  0.49659162  0.74848047  0.37477401  1
  Te2-  Te206  1  0.99542532  0.24594646  0.37746989  1
  Te2-  Te207  1  0.99087263  0.74730831  0.37913251  1
  Te2-  Te208  1  0.24895805  0.00541221  0.37775425  1
  Te2-  Te209  1  0.25778146  0.50893025  0.37219745  1
  Te2-  Te210  1  0.75238519  0.00651444  0.37913171  1
  Te2-  Te211  1  0.75390237  0.50530427  0.38083059  1
  Te2-  Te212  1  0.25182846  0.24634022  0.37591337  1
  Te2-  Te213  1  0.25305784  0.74922032  0.37445141  1
  Te2-  Te214  1  0.75263526  0.24526208  0.37927220  1
  Te2-  Te215  1  0.75439451  0.74930190  0.38006516  1
