# generated using pymatgen
data_Ti(CuTe)4
_symmetry_space_group_name_H-M   'P 1'
_cell_length_a   16.88295064
_cell_length_b   16.88970812
_cell_length_c   20.70837305
_cell_angle_alpha   90.02935685
_cell_angle_beta   90.03651367
_cell_angle_gamma   120.00515201
_symmetry_Int_Tables_number   1
_chemical_formula_structural   Ti(CuTe)4
_chemical_formula_sum   'Ti24 Cu96 Te96'
_cell_volume   5113.57075858
_cell_formula_units_Z   24
loop_
 _symmetry_equiv_pos_site_id
 _symmetry_equiv_pos_as_xyz
  1  'x, y, z'
loop_
 _atom_type_symbol
 _atom_type_oxidation_number
  Ti4+  4.0
  Cu+  1.0
  Te2-  -2.0
loop_
 _atom_site_type_symbol
 _atom_site_label
 _atom_site_symmetry_multiplicity
 _atom_site_fract_x
 _atom_site_fract_y
 _atom_site_fract_z
 _atom_site_occupancy
  Ti4+  Ti0  1  0.00322647  0.00241417  0.25456445  1
  Ti4+  Ti1  1  -0.00450836  0.49789661  0.25846109  1
  Ti4+  Ti2  1  0.49704913  -0.00167917  0.25778942  1
  Ti4+  Ti3  1  0.49755280  0.50025413  0.26039762  1
  Ti4+  Ti4  1  0.33543492  0.16624754  0.59261118  1
  Ti4+  Ti5  1  0.33370589  0.66669053  0.59106105  1
  Ti4+  Ti6  1  0.83297174  0.16839535  0.59048140  1
  Ti4+  Ti7  1  0.83150655  0.66460876  0.59030042  1
  Ti4+  Ti8  1  0.16899012  0.33467956  0.92310984  1
  Ti4+  Ti9  1  0.16671887  0.83035117  0.92294520  1
  Ti4+  Ti10  1  0.66383804  0.33194773  0.92930358  1
  Ti4+  Ti11  1  0.67097588  0.83583147  0.92204335  1
  Ti4+  Ti12  1  -0.00188540  -0.00062223  0.75367381  1
  Ti4+  Ti13  1  0.00321541  0.50257436  0.75659324  1
  Ti4+  Ti14  1  0.50168602  0.00149046  0.75615586  1
  Ti4+  Ti15  1  0.50020319  0.49793602  0.75666004  1
  Ti4+  Ti16  1  0.33145317  0.16535371  0.08873243  1
  Ti4+  Ti17  1  0.33533936  0.66743196  0.08953481  1
  Ti4+  Ti18  1  0.83462152  0.16871354  0.08824521  1
  Ti4+  Ti19  1  0.83414815  0.66644176  0.08905437  1
  Ti4+  Ti20  1  0.16666822  0.33461472  0.42321355  1
  Ti4+  Ti21  1  0.16582510  0.83376112  0.42268322  1
  Ti4+  Ti22  1  0.66623582  0.33240175  0.42003558  1
  Ti4+  Ti23  1  0.66635203  0.83346111  0.42143671  1
  Cu+  Cu24  1  0.57103494  0.65014088  0.47747345  1
  Cu+  Cu25  1  0.90626265  0.81067099  0.80590307  1
  Cu+  Cu26  1  0.40649380  0.30804418  0.81031667  1
  Cu+  Cu27  1  0.57506003  0.41883391  0.47928751  1
  Cu+  Cu28  1  0.19460362  0.59691595  0.80671151  1
  Cu+  Cu29  1  0.23753144  0.97503142  0.13759550  1
  Cu+  Cu30  1  0.57288086  0.14523065  0.47346955  1
  Cu+  Cu31  1  0.85034705  0.42498024  0.47704902  1
  Cu+  Cu32  1  0.23974526  0.26288260  0.13972761  1
  Cu+  Cu33  1  0.73711049  0.25397945  0.14558291  1
  Cu+  Cu34  1  0.90730011  0.09591778  0.80680115  1
  Cu+  Cu35  1  0.73574042  0.48342373  0.14622163  1
  Cu+  Cu36  1  0.16417924  0.08234559  0.16762533  1
  Cu+  Cu37  1  0.16431412  0.58173202  0.17246488  1
  Cu+  Cu38  1  0.66314013  0.08355498  0.17206461  1
  Cu+  Cu39  1  0.66314054  0.58156912  0.17454335  1
  Cu+  Cu40  1  0.41352515  0.33760162  0.17175449  1
  Cu+  Cu41  1  0.41758278  0.83545009  0.17072499  1
  Cu+  Cu42  1  0.91262527  0.33632565  0.17037759  1
  Cu+  Cu43  1  0.92163012  0.83895643  0.16910416  1
  Cu+  Cu44  1  0.41198238  0.07546659  0.17034938  1
  Cu+  Cu45  1  0.41945180  0.58491475  0.17264703  1
  Cu+  Cu46  1  0.92223171  0.08455410  0.16884244  1
  Cu+  Cu47  1  0.91173634  0.57667508  0.17052801  1
  Cu+  Cu48  1  0.49463528  0.24465465  0.50333568  1
  Cu+  Cu49  1  0.49557018  0.74633934  0.50434873  1
  Cu+  Cu50  1  0.99759310  0.24980186  0.50493172  1
  Cu+  Cu51  1  0.99687759  0.74894119  0.50411898  1
  Cu+  Cu52  1  0.25353853  0.00177689  0.50580932  1
  Cu+  Cu53  1  0.24941961  0.50406071  0.50439071  1
  Cu+  Cu54  1  0.75173247  0.00385300  0.50346961  1
  Cu+  Cu55  1  0.75335547  0.50608997  0.50031676  1
  Cu+  Cu56  1  0.25366403  0.25265035  0.50652230  1
  Cu+  Cu57  1  0.24924255  0.74789457  0.50523572  1
  Cu+  Cu58  1  0.75206601  0.24709229  0.50084371  1
  Cu+  Cu59  1  0.74674289  0.74560340  0.50286437  1
  Cu+  Cu60  1  0.33188671  0.40990897  0.83683250  1
  Cu+  Cu61  1  0.33195976  0.91610899  0.83757316  1
  Cu+  Cu62  1  0.83205331  0.41765348  0.84344076  1
  Cu+  Cu63  1  0.83092065  0.91546574  0.83410128  1
  Cu+  Cu64  1  0.08255958  0.17077829  0.83558020  1
  Cu+  Cu65  1  0.09166239  0.67039688  0.83590228  1
  Cu+  Cu66  1  0.58708182  0.17016153  0.84107826  1
  Cu+  Cu67  1  0.58770572  0.67057805  0.83678702  1
  Cu+  Cu68  1  0.09221899  0.42260508  0.83659303  1
  Cu+  Cu69  1  0.08018560  0.91003470  0.83637310  1
  Cu+  Cu70  1  0.58085525  0.41096369  0.84168435  1
  Cu+  Cu71  1  0.58708405  0.91649981  0.83587623  1
  Cu+  Cu72  1  0.16959270  0.08479549  0.67421884  1
  Cu+  Cu73  1  0.17187881  0.58702881  0.67887056  1
  Cu+  Cu74  1  0.66849736  0.08679793  0.67486911  1
  Cu+  Cu75  1  0.66671149  0.58111122  0.67605293  1
  Cu+  Cu76  1  0.41739496  0.32864867  0.68155159  1
  Cu+  Cu77  1  0.41619925  0.83220796  0.67319737  1
  Cu+  Cu78  1  0.91572037  0.33386859  0.67519763  1
  Cu+  Cu79  1  0.91304638  0.82891992  0.67677003  1
  Cu+  Cu80  1  0.42024639  0.08692345  0.67716211  1
  Cu+  Cu81  1  0.41628083  0.58343116  0.67520003  1
  Cu+  Cu82  1  0.91461969  0.08613859  0.67789293  1
  Cu+  Cu83  1  0.91598463  0.58344099  0.67550126  1
  Cu+  Cu84  1  0.00340853  0.25326488  0.00709060  1
  Cu+  Cu85  1  0.00174909  0.74891901  0.00659032  1
  Cu+  Cu86  1  0.49887544  0.24905126  0.01145745  1
  Cu+  Cu87  1  0.50692423  0.75344767  0.00734447  1
  Cu+  Cu88  1  0.25433318  0.50074085  0.00834377  1
  Cu+  Cu89  1  0.24674302  0.99371008  0.00951348  1
  Cu+  Cu90  1  0.74634786  0.49587872  0.01578475  1
  Cu+  Cu91  1  0.75250198  1.00023349  0.00575684  1
  Cu+  Cu92  1  0.24916612  0.25117422  0.01122304  1
  Cu+  Cu93  1  0.25193181  0.75001800  0.00849783  1
  Cu+  Cu94  1  0.74887745  0.25355016  0.01608470  1
  Cu+  Cu95  1  0.75233746  0.75322147  0.00667858  1
  Cu+  Cu96  1  0.33269214  0.41887895  0.34370894  1
  Cu+  Cu97  1  0.33295720  0.91663433  0.34274279  1
  Cu+  Cu98  1  0.83352910  0.41631241  0.34731683  1
  Cu+  Cu99  1  0.83890663  0.92089960  0.33833759  1
  Cu+  Cu100  1  0.08538752  0.16658252  0.33999420  1
  Cu+  Cu101  1  0.07853551  0.66341330  0.34090301  1
  Cu+  Cu102  1  0.57969189  0.16190291  0.34508021  1
  Cu+  Cu103  1  0.58266702  0.66436189  0.34739427  1
  Cu+  Cu104  1  0.07917244  0.41633272  0.34172258  1
  Cu+  Cu105  1  0.08516600  0.92031917  0.33992782  1
  Cu+  Cu106  1  0.58053541  0.41802550  0.34841759  1
  Cu+  Cu107  1  0.58339868  0.91910829  0.34081312  1
  Cu+  Cu108  1  -0.00335449  -0.00116828  0.10942220  1
  Cu+  Cu109  1  0.00490243  0.50348092  0.11558689  1
  Cu+  Cu110  1  0.50196683  -0.00227777  0.11443494  1
  Cu+  Cu111  1  0.50139609  0.50362423  0.11734391  1
  Cu+  Cu112  1  0.32415481  0.16313030  0.45003689  1
  Cu+  Cu113  1  0.33170169  0.66933679  0.44777063  1
  Cu+  Cu114  1  0.83666691  0.16388416  0.44595920  1
  Cu+  Cu115  1  0.83694916  0.67386142  0.44589452  1
  Cu+  Cu116  1  0.16704245  0.33396255  0.77891477  1
  Cu+  Cu117  1  0.16894376  0.83718971  0.77925887  1
  Cu+  Cu118  1  0.67268845  0.33654389  0.78729896  1
  Cu+  Cu119  1  0.66295792  0.83113589  0.77753567  1
  Te2-  Te120  1  0.00258055  0.00217042  0.38342903  1
  Te2-  Te121  1  0.00006011  0.50052458  0.38869964  1
  Te2-  Te122  1  0.49720177  -0.00429387  0.38837111  1
  Te2-  Te123  1  0.49579523  0.49878013  0.39251905  1
  Te2-  Te124  1  0.33168919  0.16185322  0.72332023  1
  Te2-  Te125  1  0.33893515  0.66963676  0.72162022  1
  Te2-  Te126  1  0.83237194  0.17014689  0.72095837  1
  Te2-  Te127  1  0.83121157  0.66272940  0.72040386  1
  Te2-  Te128  1  0.16731792  0.33639773  0.05324960  1
  Te2-  Te129  1  0.16512500  0.82756115  0.05336761  1
  Te2-  Te130  1  0.66085228  0.33082321  0.06199167  1
  Te2-  Te131  1  0.67146748  0.83651622  0.05097060  1
  Te2-  Te132  1  0.49088240  0.24114895  0.88610041  1
  Te2-  Te133  1  0.49923677  0.74936645  0.88128816  1
  Te2-  Te134  1  0.99646005  0.25374310  0.88111688  1
  Te2-  Te135  1  0.99358717  0.74059504  0.88095759  1
  Te2-  Te136  1  0.24873248  0.00100667  0.88224627  1
  Te2-  Te137  1  0.26101607  0.50730044  0.88220266  1
  Te2-  Te138  1  0.75473790  0.00943051  0.88029735  1
  Te2-  Te139  1  0.74846584  0.50235331  0.88819180  1
  Te2-  Te140  1  0.24951831  0.24187122  0.88397852  1
  Te2-  Te141  1  0.25935432  0.74902227  0.88281208  1
  Te2-  Te142  1  0.75293091  0.25005819  0.88886395  1
  Te2-  Te143  1  0.75504327  0.74576884  0.88117543  1
  Te2-  Te144  1  0.32490085  0.41736713  0.21761223  1
  Te2-  Te145  1  0.32346423  0.90813499  0.21679040  1
  Te2-  Te146  1  0.81767647  0.40903414  0.21973059  1
  Te2-  Te147  1  0.83151503  0.91678638  0.21262012  1
  Te2-  Te148  1  0.08859559  0.17671747  0.21446379  1
  Te2-  Te149  1  0.08006559  0.66725875  0.21475914  1
  Te2-  Te150  1  0.57945049  0.17118326  0.21792543  1
  Te2-  Te151  1  0.58570884  0.67065934  0.22004277  1
  Te2-  Te152  1  0.08014470  0.41268934  0.21569431  1
  Te2-  Te153  1  0.08811377  0.91295277  0.21441324  1
  Te2-  Te154  1  0.58026666  0.41039791  0.22032481  1
  Te2-  Te155  1  0.58551994  0.91618231  0.21504299  1
  Te2-  Te156  1  0.16537725  0.08286591  0.54830432  1
  Te2-  Te157  1  0.16147303  0.58155289  0.55213175  1
  Te2-  Te158  1  0.65971124  0.07922003  0.54900713  1
  Te2-  Te159  1  0.65511824  0.57603642  0.54993958  1
  Te2-  Te160  1  0.42084117  0.33948246  0.55378827  1
  Te2-  Te161  1  0.41857692  0.83706690  0.54744651  1
  Te2-  Te162  1  0.92143266  0.34148799  0.54932990  1
  Te2-  Te163  1  0.91435648  0.83435087  0.54914975  1
  Te2-  Te164  1  0.42109317  0.07841101  0.55131854  1
  Te2-  Te165  1  0.41645880  0.57567748  0.54970939  1
  Te2-  Te166  1  0.91836242  0.08248144  0.55049959  1
  Te2-  Te167  1  0.92078902  0.58136678  0.54942222  1
  Te2-  Te168  1  0.00084124  0.00077441  0.88089206  1
  Te2-  Te169  1  0.00282022  0.50198426  0.88343403  1
  Te2-  Te170  1  0.50153549  -0.00065151  0.88205847  1
  Te2-  Te171  1  0.50093726  0.50182520  0.88329152  1
  Te2-  Te172  1  0.33314452  0.16700267  0.21578636  1
  Te2-  Te173  1  0.33307898  0.66747233  0.21565088  1
  Te2-  Te174  1  0.83434003  0.16609976  0.21508348  1
  Te2-  Te175  1  0.83485504  0.66979147  0.21585550  1
  Te2-  Te176  1  0.16660182  0.33482979  0.54927599  1
  Te2-  Te177  1  0.16545367  0.83283141  0.54876610  1
  Te2-  Te178  1  0.66839658  0.33480154  0.54828544  1
  Te2-  Te179  1  0.66653484  0.83452479  0.54837990  1
  Te2-  Te180  1  0.32795416  0.41319834  0.71019352  1
  Te2-  Te181  1  0.33013337  0.91555373  0.71104932  1
  Te2-  Te182  1  0.82968809  0.41561648  0.71548051  1
  Te2-  Te183  1  0.82473572  0.91302668  0.70696117  1
  Te2-  Te184  1  0.08747150  0.17277621  0.70891409  1
  Te2-  Te185  1  0.08653712  0.67442319  0.70968773  1
  Te2-  Te186  1  0.58894289  0.17499774  0.71476000  1
  Te2-  Te187  1  0.58572069  0.66971874  0.71067380  1
  Te2-  Te188  1  0.08648695  0.41414839  0.70982625  1
  Te2-  Te189  1  0.08583477  0.91418859  0.70881301  1
  Te2-  Te190  1  0.58925072  0.41283282  0.71422399  1
  Te2-  Te191  1  0.58649676  0.91574740  0.70941248  1
  Te2-  Te192  1  0.15896822  0.07835775  0.04058892  1
  Te2-  Te193  1  0.16388771  0.58040044  0.04495600  1
  Te2-  Te194  1  0.66179379  0.07962441  0.04404786  1
  Te2-  Te195  1  0.66089319  0.58342568  0.04618239  1
  Te2-  Te196  1  0.42041362  0.34034020  0.04539277  1
  Te2-  Te197  1  0.42180875  0.83845452  0.04426838  1
  Te2-  Te198  1  0.92241233  0.34199018  0.04389953  1
  Te2-  Te199  1  0.92135453  0.83759014  0.04289958  1
  Te2-  Te200  1  0.41854143  0.07839178  0.04418980  1
  Te2-  Te201  1  0.42355240  0.58387778  0.04587814  1
  Te2-  Te202  1  0.92147595  0.08402022  0.04253834  1
  Te2-  Te203  1  0.92005889  0.57951231  0.04384896  1
  Te2-  Te204  1  0.49051557  0.24511661  0.37676054  1
  Te2-  Te205  1  0.49336838  0.74860172  0.37679532  1
  Te2-  Te206  1  0.99566797  0.24674757  0.37798412  1
  Te2-  Te207  1  0.99513358  0.74986515  0.37697931  1
  Te2-  Te208  1  0.25329952  0.00587602  0.37905594  1
  Te2-  Te209  1  0.24969078  0.50623541  0.37834057  1
  Te2-  Te210  1  0.75335629  0.00480962  0.37675888  1
  Te2-  Te211  1  0.75316451  0.50863891  0.37445807  1
  Te2-  Te212  1  0.25372104  0.24942764  0.37937846  1
  Te2-  Te213  1  0.24911537  0.74601255  0.37803597  1
  Te2-  Te214  1  0.75232055  0.24350251  0.37442694  1
  Te2-  Te215  1  0.75589605  0.75088630  0.37573102  1
