# generated using pymatgen
data_Ti(CuTe)4
_symmetry_space_group_name_H-M   'P 1'
_cell_length_a   16.89167581
_cell_length_b   16.89977539
_cell_length_c   20.71751310
_cell_angle_alpha   89.99438607
_cell_angle_beta   90.05902120
_cell_angle_gamma   120.01810678
_symmetry_Int_Tables_number   1
_chemical_formula_structural   Ti(CuTe)4
_chemical_formula_sum   'Ti24 Cu96 Te96'
_cell_volume   5120.85377263
_cell_formula_units_Z   24
loop_
 _symmetry_equiv_pos_site_id
 _symmetry_equiv_pos_as_xyz
  1  'x, y, z'
loop_
 _atom_type_symbol
 _atom_type_oxidation_number
  Ti4+  4.0
  Cu+  1.0
  Te2-  -2.0
loop_
 _atom_site_type_symbol
 _atom_site_label
 _atom_site_symmetry_multiplicity
 _atom_site_fract_x
 _atom_site_fract_y
 _atom_site_fract_z
 _atom_site_occupancy
  Ti4+  Ti0  1  0.00238492  0.00216722  0.26073919  1
  Ti4+  Ti1  1  0.00184302  0.50113878  0.25906851  1
  Ti4+  Ti2  1  0.49946067  -0.00023728  0.25639896  1
  Ti4+  Ti3  1  0.50397310  0.50171960  0.25903433  1
  Ti4+  Ti4  1  0.32913138  0.16196442  0.59061187  1
  Ti4+  Ti5  1  0.32752219  0.66232054  0.58853005  1
  Ti4+  Ti6  1  0.82889448  0.16406184  0.58902227  1
  Ti4+  Ti7  1  0.82854022  0.66415125  0.59004045  1
  Ti4+  Ti8  1  0.16890062  0.33517548  0.92579427  1
  Ti4+  Ti9  1  0.16961846  0.83722202  0.92818839  1
  Ti4+  Ti10  1  0.66860618  0.33512702  0.92188049  1
  Ti4+  Ti11  1  0.67131172  0.83592597  0.92196537  1
  Ti4+  Ti12  1  -0.00184503  -0.00113698  0.75642401  1
  Ti4+  Ti13  1  -0.00130862  0.49832309  0.75612625  1
  Ti4+  Ti14  1  0.49830665  -0.00059205  0.75501217  1
  Ti4+  Ti15  1  0.50000778  0.49926008  0.75398281  1
  Ti4+  Ti16  1  0.33687396  0.16897606  0.08971524  1
  Ti4+  Ti17  1  0.33664380  0.66945140  0.08777650  1
  Ti4+  Ti18  1  0.83550512  0.16852802  0.08998256  1
  Ti4+  Ti19  1  0.83552103  0.66816448  0.09110620  1
  Ti4+  Ti20  1  0.16753762  0.33435629  0.41976902  1
  Ti4+  Ti21  1  0.16747199  0.83389787  0.42203918  1
  Ti4+  Ti22  1  0.66664747  0.33162464  0.42166857  1
  Ti4+  Ti23  1  0.66702457  0.83271313  0.42057360  1
  Cu+  Cu24  1  0.06877877  0.41909559  0.47350395  1
  Cu+  Cu25  1  0.56768719  0.64820074  0.47467543  1
  Cu+  Cu26  1  0.06975919  0.15046309  0.47497346  1
  Cu+  Cu27  1  0.24061342  0.98752486  0.14691910  1
  Cu+  Cu28  1  0.56703967  0.13980462  0.47190157  1
  Cu+  Cu29  1  0.68840416  0.09497781  0.80702476  1
  Cu+  Cu30  1  0.56916648  0.41608516  0.47615208  1
  Cu+  Cu31  1  0.40572893  0.09446583  0.80925134  1
  Cu+  Cu32  1  0.23893230  0.75456732  0.14295156  1
  Cu+  Cu33  1  0.06834104  0.64912244  0.47548010  1
  Cu+  Cu34  1  0.07033863  0.91942284  0.47857503  1
  Cu+  Cu35  1  0.69140236  0.59639183  0.80821401  1
  Cu+  Cu36  1  0.16444396  0.08197214  0.17467156  1
  Cu+  Cu37  1  0.16469884  0.58427204  0.17265509  1
  Cu+  Cu38  1  0.66535522  0.08478925  0.17183246  1
  Cu+  Cu39  1  0.66594901  0.58255259  0.17423759  1
  Cu+  Cu40  1  0.42470677  0.33942610  0.17262058  1
  Cu+  Cu41  1  0.41569384  0.83744277  0.16786868  1
  Cu+  Cu42  1  0.92110667  0.33657435  0.17303797  1
  Cu+  Cu43  1  0.92065044  0.83696863  0.17402510  1
  Cu+  Cu44  1  0.41792254  0.08050722  0.17017301  1
  Cu+  Cu45  1  0.42472677  0.58637522  0.17124389  1
  Cu+  Cu46  1  0.92086639  0.08580777  0.17410915  1
  Cu+  Cu47  1  0.92001171  0.58356236  0.17276080  1
  Cu+  Cu48  1  0.49474830  0.24195707  0.50456909  1
  Cu+  Cu49  1  0.49408701  0.74523874  0.50345229  1
  Cu+  Cu50  1  0.99324319  0.24703744  0.50244135  1
  Cu+  Cu51  1  0.99317274  0.74644155  0.50462333  1
  Cu+  Cu52  1  0.24792241  0.00298141  0.50292887  1
  Cu+  Cu53  1  0.24494772  0.50377374  0.49926771  1
  Cu+  Cu54  1  0.74888755  0.00255533  0.50177581  1
  Cu+  Cu55  1  0.74564769  0.50168988  0.50231526  1
  Cu+  Cu56  1  0.24541766  0.24287890  0.50056561  1
  Cu+  Cu57  1  0.24436766  0.74200841  0.50210788  1
  Cu+  Cu58  1  0.74337018  0.24034277  0.50179391  1
  Cu+  Cu59  1  0.74501874  0.74329083  0.50226348  1
  Cu+  Cu60  1  0.33006680  0.41509253  0.83932264  1
  Cu+  Cu61  1  0.32991904  0.92030431  0.84021285  1
  Cu+  Cu62  1  0.83084948  0.41559708  0.83615048  1
  Cu+  Cu63  1  0.83035837  0.91548660  0.83651280  1
  Cu+  Cu64  1  0.08616358  0.17043379  0.83954186  1
  Cu+  Cu65  1  0.08634611  0.66843561  0.84135462  1
  Cu+  Cu66  1  0.58455272  0.16946130  0.83501595  1
  Cu+  Cu67  1  0.59106583  0.66993770  0.83539181  1
  Cu+  Cu68  1  0.08620113  0.41557211  0.83914654  1
  Cu+  Cu69  1  0.08709553  0.91876353  0.84039897  1
  Cu+  Cu70  1  0.59037179  0.42027844  0.83443994  1
  Cu+  Cu71  1  0.59078548  0.92041174  0.83568639  1
  Cu+  Cu72  1  0.16326418  0.08021012  0.67719924  1
  Cu+  Cu73  1  0.16392030  0.58084278  0.67569615  1
  Cu+  Cu74  1  0.66564531  0.08184746  0.67783548  1
  Cu+  Cu75  1  0.66593357  0.58241639  0.67880372  1
  Cu+  Cu76  1  0.41220453  0.32785601  0.67484693  1
  Cu+  Cu77  1  0.40936970  0.82541488  0.67259002  1
  Cu+  Cu78  1  0.91426337  0.33005820  0.67398472  1
  Cu+  Cu79  1  0.91392380  0.83090519  0.67623314  1
  Cu+  Cu80  1  0.41070534  0.08025613  0.67930270  1
  Cu+  Cu81  1  0.41121698  0.58084608  0.67303459  1
  Cu+  Cu82  1  0.91465039  0.08291231  0.67505475  1
  Cu+  Cu83  1  0.91507938  0.58328818  0.67594799  1
  Cu+  Cu84  1  0.00600364  0.25363168  0.00938211  1
  Cu+  Cu85  1  0.00407853  0.75293957  0.01130450  1
  Cu+  Cu86  1  0.50502919  0.25438939  0.00603528  1
  Cu+  Cu87  1  0.50746290  0.75302375  0.00431643  1
  Cu+  Cu88  1  0.25158238  0.49926440  0.00851963  1
  Cu+  Cu89  1  0.25271280  1.00111221  0.01618552  1
  Cu+  Cu90  1  0.75097064  0.50050963  0.00886750  1
  Cu+  Cu91  1  0.75247301  1.00054857  0.00789717  1
  Cu+  Cu92  1  0.25122523  0.25476621  0.00980975  1
  Cu+  Cu93  1  0.25188799  0.75488441  0.01363435  1
  Cu+  Cu94  1  0.75158696  0.25267476  0.00710143  1
  Cu+  Cu95  1  0.75131690  0.75160595  0.00881220  1
  Cu+  Cu96  1  0.33959942  0.42043638  0.33965124  1
  Cu+  Cu97  1  0.33685537  0.91894096  0.34159742  1
  Cu+  Cu98  1  0.83731818  0.41714388  0.34136984  1
  Cu+  Cu99  1  0.83767875  0.91975288  0.34289697  1
  Cu+  Cu100  1  0.08479733  0.16527920  0.34603558  1
  Cu+  Cu101  1  0.08439832  0.66494713  0.34708840  1
  Cu+  Cu102  1  0.58197777  0.16189464  0.34373323  1
  Cu+  Cu103  1  0.58470882  0.66398998  0.34604330  1
  Cu+  Cu104  1  0.08529280  0.42093197  0.34451256  1
  Cu+  Cu105  1  0.08606980  0.92182084  0.34926178  1
  Cu+  Cu106  1  0.58472607  0.41893511  0.34650984  1
  Cu+  Cu107  1  0.58418512  0.91814340  0.33795176  1
  Cu+  Cu108  1  -0.00243327  0.00047836  0.11849000  1
  Cu+  Cu109  1  -0.00113901  0.49870357  0.11642135  1
  Cu+  Cu110  1  0.50565351  0.00183608  0.11231362  1
  Cu+  Cu111  1  0.50215657  0.50199293  0.11559932  1
  Cu+  Cu112  1  0.33375582  0.16893065  0.44575101  1
  Cu+  Cu113  1  0.33577758  0.67038578  0.44440546  1
  Cu+  Cu114  1  0.83065828  0.16466255  0.44382949  1
  Cu+  Cu115  1  0.83140637  0.66504170  0.44594241  1
  Cu+  Cu116  1  0.16617545  0.33235931  0.78322325  1
  Cu+  Cu117  1  0.16170558  0.82931716  0.78624057  1
  Cu+  Cu118  1  0.66661396  0.33273794  0.77766843  1
  Cu+  Cu119  1  0.66243223  0.83154030  0.77817381  1
  Te2-  Te120  1  -0.00105583  0.00039163  0.39324537  1
  Te2-  Te121  1  -0.00169578  0.49883784  0.39156711  1
  Te2-  Te122  1  0.49983556  -0.00433099  0.38708735  1
  Te2-  Te123  1  0.49943224  0.49864710  0.39210049  1
  Te2-  Te124  1  0.32836076  0.16443599  0.72061287  1
  Te2-  Te125  1  0.32901719  0.66231905  0.71752195  1
  Te2-  Te126  1  0.83303282  0.16603028  0.71893087  1
  Te2-  Te127  1  0.83336701  0.66621831  0.71973142  1
  Te2-  Te128  1  0.16946611  0.33645181  0.05532006  1
  Te2-  Te129  1  0.16684048  0.83501516  0.06031963  1
  Te2-  Te130  1  0.66923373  0.33503985  0.05036687  1
  Te2-  Te131  1  0.67034842  0.83574230  0.05092623  1
  Te2-  Te132  1  0.49569895  0.25177593  0.88008168  1
  Te2-  Te133  1  0.50155464  0.75039130  0.87808474  1
  Te2-  Te134  1  0.99675060  0.24848542  0.88378586  1
  Te2-  Te135  1  0.99935108  0.75060826  0.88506328  1
  Te2-  Te136  1  0.25354652  0.01123756  0.88818144  1
  Te2-  Te137  1  0.25441318  0.50714752  0.88288960  1
  Te2-  Te138  1  0.75945721  0.01075108  0.88205117  1
  Te2-  Te139  1  0.75843720  0.50938067  0.88263061  1
  Te2-  Te140  1  0.25414855  0.24799845  0.88412286  1
  Te2-  Te141  1  0.25483458  0.75245719  0.88618204  1
  Te2-  Te142  1  0.75536719  0.24865937  0.88100388  1
  Te2-  Te143  1  0.75991870  0.74970511  0.88290249  1
  Te2-  Te144  1  0.33374040  0.41758615  0.21421616  1
  Te2-  Te145  1  0.32263680  0.91165846  0.21637170  1
  Te2-  Te146  1  0.83128231  0.41531453  0.21579982  1
  Te2-  Te147  1  0.83230559  0.91701361  0.21704815  1
  Te2-  Te148  1  0.08855122  0.17272758  0.21938253  1
  Te2-  Te149  1  0.08631046  0.67499429  0.22009573  1
  Te2-  Te150  1  0.58439689  0.17126939  0.21701476  1
  Te2-  Te151  1  0.59005285  0.67356097  0.21949725  1
  Te2-  Te152  1  0.08876115  0.41769187  0.21787712  1
  Te2-  Te153  1  0.08679254  0.91270038  0.22195406  1
  Te2-  Te154  1  0.59028130  0.41561879  0.21991015  1
  Te2-  Te155  1  0.58408424  0.91459950  0.21230735  1
  Te2-  Te156  1  0.15279277  0.07593427  0.55097362  1
  Te2-  Te157  1  0.14955827  0.57414404  0.54986443  1
  Te2-  Te158  1  0.65445415  0.07344630  0.55014746  1
  Te2-  Te159  1  0.65216474  0.57560867  0.55097351  1
  Te2-  Te160  1  0.41273160  0.33340635  0.54833343  1
  Te2-  Te161  1  0.41263465  0.83250638  0.54648944  1
  Te2-  Te162  1  0.91227400  0.33639020  0.54773566  1
  Te2-  Te163  1  0.91280888  0.83672266  0.54987885  1
  Te2-  Te164  1  0.41367386  0.07325285  0.55147761  1
  Te2-  Te165  1  0.41122741  0.57311210  0.54724400  1
  Te2-  Te166  1  0.91524766  0.07726071  0.54893566  1
  Te2-  Te167  1  0.91314576  0.57616112  0.54959142  1
  Te2-  Te168  1  -0.00008260  0.00125223  0.88249118  1
  Te2-  Te169  1  -0.00002029  0.49886428  0.88229088  1
  Te2-  Te170  1  0.50180698  0.00034458  0.88237210  1
  Te2-  Te171  1  0.50160816  0.50059237  0.88085514  1
  Te2-  Te172  1  0.33712761  0.16933618  0.21657970  1
  Te2-  Te173  1  0.33692464  0.66860741  0.21470270  1
  Te2-  Te174  1  0.83394415  0.16793333  0.21624472  1
  Te2-  Te175  1  0.83552070  0.66767726  0.21725143  1
  Te2-  Te176  1  0.16580430  0.33324275  0.54726955  1
  Te2-  Te177  1  0.16540226  0.83254341  0.54953122  1
  Te2-  Te178  1  0.66580838  0.33206423  0.54914271  1
  Te2-  Te179  1  0.66438650  0.83261350  0.54775999  1
  Te2-  Te180  1  0.32665491  0.41202522  0.71237527  1
  Te2-  Te181  1  0.32399726  0.90873617  0.71308259  1
  Te2-  Te182  1  0.82708347  0.41285521  0.71010194  1
  Te2-  Te183  1  0.82580095  0.91298100  0.71090874  1
  Te2-  Te184  1  0.08419988  0.17111216  0.71254994  1
  Te2-  Te185  1  0.08457039  0.67069609  0.71374437  1
  Te2-  Te186  1  0.58381182  0.17226219  0.70744759  1
  Te2-  Te187  1  0.58185196  0.67110798  0.70811206  1
  Te2-  Te188  1  0.08358566  0.41134565  0.71223203  1
  Te2-  Te189  1  0.08356453  0.91111469  0.71376246  1
  Te2-  Te190  1  0.58296710  0.40962927  0.70789341  1
  Te2-  Te191  1  0.58005203  0.90943874  0.70850854  1
  Te2-  Te192  1  0.16290866  0.08437253  0.04736892  1
  Te2-  Te193  1  0.16293154  0.58152257  0.04503111  1
  Te2-  Te194  1  0.66503342  0.08316984  0.04441712  1
  Te2-  Te195  1  0.66373551  0.58244134  0.04729285  1
  Te2-  Te196  1  0.42220756  0.34063232  0.04586344  1
  Te2-  Te197  1  0.42558204  0.84136720  0.04126256  1
  Te2-  Te198  1  0.92150460  0.33948661  0.04590688  1
  Te2-  Te199  1  0.92129303  0.84020980  0.04748641  1
  Te2-  Te200  1  0.42585811  0.08533181  0.04371630  1
  Te2-  Te201  1  0.42286622  0.58387040  0.04434321  1
  Te2-  Te202  1  0.92210603  0.08368044  0.04700044  1
  Te2-  Te203  1  0.92135515  0.58238148  0.04635151  1
  Te2-  Te204  1  0.49349986  0.24573570  0.37627467  1
  Te2-  Te205  1  0.49531680  0.74816103  0.37525010  1
  Te2-  Te206  1  0.99349135  0.24763098  0.37444014  1
  Te2-  Te207  1  0.99354209  0.74740727  0.37674587  1
  Te2-  Te208  1  0.25821523  0.00862517  0.37727149  1
  Te2-  Te209  1  0.25768097  0.50829656  0.37392601  1
  Te2-  Te210  1  0.75285163  0.00513602  0.37599595  1
  Te2-  Te211  1  0.75679185  0.50585178  0.37642695  1
  Te2-  Te212  1  0.25760561  0.25054420  0.37455916  1
  Te2-  Te213  1  0.25640024  0.74947969  0.37585034  1
  Te2-  Te214  1  0.75450004  0.24714624  0.37525199  1
  Te2-  Te215  1  0.75713235  0.74937916  0.37624598  1
