# generated using pymatgen
data_Ti(CuTe)4
_symmetry_space_group_name_H-M   'P 1'
_cell_length_a   16.88962810
_cell_length_b   16.89019538
_cell_length_c   20.70783813
_cell_angle_alpha   90.05493152
_cell_angle_beta   89.96745421
_cell_angle_gamma   119.98883990
_symmetry_Int_Tables_number   1
_chemical_formula_structural   Ti(CuTe)4
_chemical_formula_sum   'Ti24 Cu96 Te96'
_cell_volume   5116.45053369
_cell_formula_units_Z   24
loop_
 _symmetry_equiv_pos_site_id
 _symmetry_equiv_pos_as_xyz
  1  'x, y, z'
loop_
 _atom_type_symbol
 _atom_type_oxidation_number
  Ti4+  4.0
  Cu+  1.0
  Te2-  -2.0
loop_
 _atom_site_type_symbol
 _atom_site_label
 _atom_site_symmetry_multiplicity
 _atom_site_fract_x
 _atom_site_fract_y
 _atom_site_fract_z
 _atom_site_occupancy
  Ti4+  Ti0  1  -0.00064446  -0.00255141  0.25473351  1
  Ti4+  Ti1  1  -0.00188105  0.49622986  0.25447655  1
  Ti4+  Ti2  1  0.49715788  -0.00211273  0.26249060  1
  Ti4+  Ti3  1  0.49891054  0.49921582  0.25592097  1
  Ti4+  Ti4  1  0.33537620  0.16959300  0.59023575  1
  Ti4+  Ti5  1  0.33241424  0.66510558  0.58907073  1
  Ti4+  Ti6  1  0.83144943  0.16442683  0.59103462  1
  Ti4+  Ti7  1  0.83472392  0.66561069  0.59012207  1
  Ti4+  Ti8  1  0.16920914  0.33470042  0.92271988  1
  Ti4+  Ti9  1  0.17049922  0.83760766  0.92392014  1
  Ti4+  Ti10  1  0.66803387  0.33493487  0.92562082  1
  Ti4+  Ti11  1  0.66648656  0.83509154  0.93028475  1
  Ti4+  Ti12  1  0.00275746  0.00194302  0.75575399  1
  Ti4+  Ti13  1  0.00000174  0.50028141  0.75500331  1
  Ti4+  Ti14  1  0.49980934  0.00015074  0.75787234  1
  Ti4+  Ti15  1  0.50069359  0.50201708  0.75766207  1
  Ti4+  Ti16  1  0.33306320  0.16659147  0.09009802  1
  Ti4+  Ti17  1  0.33234466  0.66630397  0.08887114  1
  Ti4+  Ti18  1  0.83450094  0.16846688  0.08757838  1
  Ti4+  Ti19  1  0.83411826  0.66716667  0.08536153  1
  Ti4+  Ti20  1  0.16805196  0.33350045  0.42135598  1
  Ti4+  Ti21  1  0.16259143  0.82936222  0.42106739  1
  Ti4+  Ti22  1  0.66523984  0.33250562  0.42035071  1
  Ti4+  Ti23  1  0.66635184  0.83333982  0.42131279  1
  Cu+  Cu24  1  0.50636649  0.75456142  0.15188178  1
  Cu+  Cu25  1  0.33655353  0.91797729  0.48548377  1
  Cu+  Cu26  1  0.35955419  0.42960021  0.47335120  1
  Cu+  Cu27  1  0.06716945  0.63767501  0.46979588  1
  Cu+  Cu28  1  0.74272930  0.98976126  0.14727661  1
  Cu+  Cu29  1  0.23621189  0.47479839  0.13732599  1
  Cu+  Cu30  1  0.19432671  0.09860414  0.80620684  1
  Cu+  Cu31  1  0.57846949  0.92044918  0.48519470  1
  Cu+  Cu32  1  0.57803203  0.15571081  0.48156669  1
  Cu+  Cu33  1  0.73979817  0.47868730  0.13898181  1
  Cu+  Cu34  1  0.23948716  0.97540490  0.14138688  1
  Cu+  Cu35  1  0.74518222  0.75326575  0.14658650  1
  Cu+  Cu36  1  0.16430576  0.07627830  0.16981504  1
  Cu+  Cu37  1  0.16243856  0.57640107  0.16900574  1
  Cu+  Cu38  1  0.66384096  0.08263376  0.17347481  1
  Cu+  Cu39  1  0.66284383  0.57844180  0.16685729  1
  Cu+  Cu40  1  0.41646029  0.33666543  0.17022465  1
  Cu+  Cu41  1  0.41852051  0.84012374  0.17300934  1
  Cu+  Cu42  1  0.91936795  0.33848260  0.16669779  1
  Cu+  Cu43  1  0.91960982  0.84046925  0.16568491  1
  Cu+  Cu44  1  0.41224332  0.07835635  0.17527126  1
  Cu+  Cu45  1  0.41311138  0.57739876  0.16900326  1
  Cu+  Cu46  1  0.91733207  0.08115219  0.16786689  1
  Cu+  Cu47  1  0.91488728  0.57800650  0.16737688  1
  Cu+  Cu48  1  0.49526590  0.24755372  0.50176507  1
  Cu+  Cu49  1  0.49468050  0.74718425  0.50199928  1
  Cu+  Cu50  1  0.99689120  0.24664635  0.50511325  1
  Cu+  Cu51  1  0.99424044  0.74065280  0.50219257  1
  Cu+  Cu52  1  0.24965886  0.00465259  0.50355997  1
  Cu+  Cu53  1  0.25645044  0.50210254  0.50199685  1
  Cu+  Cu54  1  0.75163271  0.00500862  0.50319746  1
  Cu+  Cu55  1  0.75210926  0.50453645  0.50258747  1
  Cu+  Cu56  1  0.25642702  0.25472475  0.50383189  1
  Cu+  Cu57  1  0.24498092  0.74272599  0.50123587  1
  Cu+  Cu58  1  0.75006363  0.24592082  0.50260776  1
  Cu+  Cu59  1  0.75277272  0.74842434  0.50448809  1
  Cu+  Cu60  1  0.33112929  0.41827212  0.83805631  1
  Cu+  Cu61  1  0.33108324  0.91806628  0.83868162  1
  Cu+  Cu62  1  0.83119092  0.41649253  0.83895895  1
  Cu+  Cu63  1  0.83118437  0.91767628  0.84188779  1
  Cu+  Cu64  1  0.09164903  0.17086454  0.83627072  1
  Cu+  Cu65  1  0.08689132  0.67050125  0.83779186  1
  Cu+  Cu66  1  0.58521760  0.17073806  0.84037862  1
  Cu+  Cu67  1  0.58413414  0.67148418  0.84299538  1
  Cu+  Cu68  1  0.08625004  0.41770723  0.83741185  1
  Cu+  Cu69  1  0.09358110  0.92491027  0.83714394  1
  Cu+  Cu70  1  0.58568225  0.41740740  0.84090978  1
  Cu+  Cu71  1  0.58401041  0.91577207  0.84320141  1
  Cu+  Cu72  1  0.17246712  0.08757266  0.67719392  1
  Cu+  Cu73  1  0.16771599  0.58381644  0.67270493  1
  Cu+  Cu74  1  0.66750600  0.08218535  0.67849752  1
  Cu+  Cu75  1  0.67115785  0.58778493  0.67606207  1
  Cu+  Cu76  1  0.41792988  0.33524956  0.67582687  1
  Cu+  Cu77  1  0.41559242  0.83148642  0.67722107  1
  Cu+  Cu78  1  0.91282521  0.32874777  0.67433033  1
  Cu+  Cu79  1  0.91636096  0.83070239  0.67360750  1
  Cu+  Cu80  1  0.41748120  0.08397588  0.67706721  1
  Cu+  Cu81  1  0.41805148  0.58618799  0.67585944  1
  Cu+  Cu82  1  0.91375897  0.08261797  0.67506276  1
  Cu+  Cu83  1  0.91620472  0.58385159  0.67458924  1
  Cu+  Cu84  1  0.00379075  0.25394992  0.00453012  1
  Cu+  Cu85  1  0.00515068  0.75490303  0.00447998  1
  Cu+  Cu86  1  0.50407774  0.25336854  0.00997264  1
  Cu+  Cu87  1  0.50258127  0.75365642  0.01794201  1
  Cu+  Cu88  1  0.24728104  0.49684458  0.00990564  1
  Cu+  Cu89  1  0.25083408  0.99885049  0.01287777  1
  Cu+  Cu90  1  0.75015453  0.49746349  0.01083944  1
  Cu+  Cu91  1  0.74783886  0.99858378  0.01580946  1
  Cu+  Cu92  1  0.25138809  0.25275547  0.00728627  1
  Cu+  Cu93  1  0.25077267  0.75369191  0.00750811  1
  Cu+  Cu94  1  0.75103197  0.25349970  0.00855987  1
  Cu+  Cu95  1  0.74939266  0.75403582  0.01509957  1
  Cu+  Cu96  1  0.33590806  0.41791377  0.34477857  1
  Cu+  Cu97  1  0.33228317  0.91577243  0.35079700  1
  Cu+  Cu98  1  0.83218752  0.41637181  0.33951315  1
  Cu+  Cu99  1  0.83452281  0.91701280  0.34138861  1
  Cu+  Cu100  1  0.08127120  0.16135404  0.33817387  1
  Cu+  Cu101  1  0.07641825  0.65833091  0.34101705  1
  Cu+  Cu102  1  0.57909129  0.16209935  0.34888667  1
  Cu+  Cu103  1  0.58277897  0.66499201  0.34105073  1
  Cu+  Cu104  1  0.08187933  0.41492587  0.33999100  1
  Cu+  Cu105  1  0.07860810  0.91414344  0.33929710  1
  Cu+  Cu106  1  0.58321095  0.41748766  0.34049459  1
  Cu+  Cu107  1  0.58215398  0.91803777  0.35176348  1
  Cu+  Cu108  1  0.00411048  0.00704155  0.11049546  1
  Cu+  Cu109  1  0.00162653  0.50354884  0.10909779  1
  Cu+  Cu110  1  0.50179881  0.00641402  0.11894273  1
  Cu+  Cu111  1  0.49902312  0.49907118  0.11096987  1
  Cu+  Cu112  1  0.32934782  0.16559297  0.44596703  1
  Cu+  Cu113  1  0.33108648  0.66466364  0.44459809  1
  Cu+  Cu114  1  0.83820581  0.17106729  0.44679531  1
  Cu+  Cu115  1  0.83013608  0.66674468  0.44588094  1
  Cu+  Cu116  1  0.16452290  0.33450624  0.77972417  1
  Cu+  Cu117  1  0.16429322  0.83184768  0.78096332  1
  Cu+  Cu118  1  0.66592950  0.33409768  0.78380769  1
  Cu+  Cu119  1  0.66829068  0.83538329  0.78790787  1
  Te2-  Te120  1  -0.00085991  -0.00176553  0.38371512  1
  Te2-  Te121  1  -0.00431726  0.49262600  0.38496831  1
  Te2-  Te122  1  0.49692821  -0.00199112  0.39519742  1
  Te2-  Te123  1  0.50316673  0.50123983  0.38608253  1
  Te2-  Te124  1  0.33888501  0.17060632  0.72011235  1
  Te2-  Te125  1  0.33188881  0.66554959  0.71748065  1
  Te2-  Te126  1  0.83277904  0.16539193  0.71981932  1
  Te2-  Te127  1  0.83582182  0.66744427  0.71916283  1
  Te2-  Te128  1  0.16561406  0.33038631  0.05343691  1
  Te2-  Te129  1  0.16636430  0.83188090  0.05490738  1
  Te2-  Te130  1  0.66709186  0.33204358  0.05668260  1
  Te2-  Te131  1  0.66653623  0.83472653  0.06443319  1
  Te2-  Te132  1  0.49609964  0.24930312  0.88434433  1
  Te2-  Te133  1  0.49523833  0.74934331  0.89008327  1
  Te2-  Te134  1  0.99914238  0.24812177  0.87881449  1
  Te2-  Te135  1  1.00095996  0.75474502  0.87868026  1
  Te2-  Te136  1  0.26035704  0.01260813  0.88583765  1
  Te2-  Te137  1  0.25314016  0.50696892  0.88351022  1
  Te2-  Te138  1  0.75170700  0.00562380  0.88825589  1
  Te2-  Te139  1  0.75394690  0.50658966  0.88438708  1
  Te2-  Te140  1  0.26015189  0.25123972  0.88200231  1
  Te2-  Te141  1  0.25498313  0.75051607  0.88211722  1
  Te2-  Te142  1  0.75342520  0.24880402  0.88320702  1
  Te2-  Te143  1  0.75217855  0.75033305  0.88764353  1
  Te2-  Te144  1  0.32517729  0.41100225  0.21737035  1
  Te2-  Te145  1  0.32403678  0.90960962  0.22216060  1
  Te2-  Te146  1  0.82415221  0.40901675  0.21397313  1
  Te2-  Te147  1  0.82253749  0.91112837  0.21592550  1
  Te2-  Te148  1  0.08513400  0.16736135  0.21194100  1
  Te2-  Te149  1  0.08303872  0.66653486  0.21361458  1
  Te2-  Te150  1  0.58121773  0.16661351  0.22050152  1
  Te2-  Te151  1  0.58644860  0.67362759  0.21544825  1
  Te2-  Te152  1  0.08424581  0.40765971  0.21443618  1
  Te2-  Te153  1  0.08296636  0.90672840  0.21407774  1
  Te2-  Te154  1  0.58402919  0.41146915  0.21471061  1
  Te2-  Te155  1  0.58741354  0.91250076  0.22257060  1
  Te2-  Te156  1  0.16534011  0.08623731  0.54954725  1
  Te2-  Te157  1  0.16029304  0.57519787  0.54657525  1
  Te2-  Te158  1  0.65379337  0.07651133  0.55247209  1
  Te2-  Te159  1  0.66243130  0.58127073  0.54981116  1
  Te2-  Te160  1  0.42569052  0.34298608  0.54961906  1
  Te2-  Te161  1  0.41846123  0.84105351  0.55077473  1
  Te2-  Te162  1  0.91606788  0.33481922  0.54787425  1
  Te2-  Te163  1  0.92151989  0.83666572  0.54733504  1
  Te2-  Te164  1  0.42061493  0.07853724  0.55099018  1
  Te2-  Te165  1  0.42449184  0.58310625  0.54959246  1
  Te2-  Te166  1  0.91687397  0.07862547  0.54908323  1
  Te2-  Te167  1  0.91804892  0.57333922  0.54899043  1
  Te2-  Te168  1  0.00190707  0.00242447  0.88259149  1
  Te2-  Te169  1  0.00130617  0.50154124  0.88120940  1
  Te2-  Te170  1  0.49982199  0.00181860  0.88409017  1
  Te2-  Te171  1  0.49997254  0.50142801  0.88388083  1
  Te2-  Te172  1  0.33194140  0.16817936  0.21694647  1
  Te2-  Te173  1  0.33186325  0.66713424  0.21654832  1
  Te2-  Te174  1  0.83571007  0.16898683  0.21483108  1
  Te2-  Te175  1  0.83468375  0.66844867  0.21302840  1
  Te2-  Te176  1  0.16616110  0.33354507  0.54814831  1
  Te2-  Te177  1  0.16440365  0.83332729  0.54878426  1
  Te2-  Te178  1  0.66624165  0.33384624  0.54739409  1
  Te2-  Te179  1  0.66651929  0.83263487  0.54830716  1
  Te2-  Te180  1  0.32905705  0.41616682  0.71202114  1
  Te2-  Te181  1  0.32771511  0.91418702  0.71258772  1
  Te2-  Te182  1  0.82786887  0.41380849  0.71221590  1
  Te2-  Te183  1  0.82972436  0.91363086  0.71452778  1
  Te2-  Te184  1  0.08541808  0.17322075  0.70903249  1
  Te2-  Te185  1  0.08636283  0.67174241  0.71062760  1
  Te2-  Te186  1  0.58704568  0.17229510  0.71372270  1
  Te2-  Te187  1  0.58753742  0.67407230  0.71548016  1
  Te2-  Te188  1  0.08426214  0.41368123  0.71004052  1
  Te2-  Te189  1  0.08735756  0.91494255  0.70947511  1
  Te2-  Te190  1  0.58770148  0.41734849  0.71383719  1
  Te2-  Te191  1  0.58529177  0.91262028  0.71596693  1
  Te2-  Te192  1  0.16225639  0.08303456  0.04241825  1
  Te2-  Te193  1  0.16108948  0.58297479  0.04180717  1
  Te2-  Te194  1  0.65999374  0.08350358  0.04601991  1
  Te2-  Te195  1  0.65950913  0.58027075  0.04009127  1
  Te2-  Te196  1  0.41971632  0.33869118  0.04457412  1
  Te2-  Te197  1  0.41871470  0.84220558  0.04704217  1
  Te2-  Te198  1  0.92125745  0.34043369  0.04160415  1
  Te2-  Te199  1  0.92292427  0.84194986  0.04031907  1
  Te2-  Te200  1  0.42247377  0.08325104  0.04723406  1
  Te2-  Te201  1  0.41943911  0.57974186  0.04212844  1
  Te2-  Te202  1  0.92203248  0.08384540  0.04087173  1
  Te2-  Te203  1  0.92358040  0.58427518  0.04005940  1
  Te2-  Te204  1  0.49116336  0.24751334  0.37556723  1
  Te2-  Te205  1  0.49229442  0.74420394  0.37572023  1
  Te2-  Te206  1  0.99638897  0.24555451  0.37751887  1
  Te2-  Te207  1  0.99057795  0.74426427  0.37518519  1
  Te2-  Te208  1  0.24740691  0.00377379  0.37695505  1
  Te2-  Te209  1  0.25134012  0.50561914  0.37515295  1
  Te2-  Te210  1  0.75550290  0.00754614  0.37691554  1
  Te2-  Te211  1  0.75241788  0.50538096  0.37652143  1
  Te2-  Te212  1  0.25094977  0.24495235  0.37597779  1
  Te2-  Te213  1  0.24878942  0.74194080  0.37420417  1
  Te2-  Te214  1  0.75272575  0.24631663  0.37559463  1
  Te2-  Te215  1  0.75234998  0.74723938  0.37731408  1
