# generated using pymatgen
data_Ti(CuTe)4
_symmetry_space_group_name_H-M   'P 1'
_cell_length_a   16.89454758
_cell_length_b   16.89565908
_cell_length_c   20.71884838
_cell_angle_alpha   89.97801200
_cell_angle_beta   90.03756567
_cell_angle_gamma   120.01432606
_symmetry_Int_Tables_number   1
_chemical_formula_structural   Ti(CuTe)4
_chemical_formula_sum   'Ti24 Cu96 Te96'
_cell_volume   5121.00430943
_cell_formula_units_Z   24
loop_
 _symmetry_equiv_pos_site_id
 _symmetry_equiv_pos_as_xyz
  1  'x, y, z'
loop_
 _atom_type_symbol
 _atom_type_oxidation_number
  Ti4+  4.0
  Cu+  1.0
  Te2-  -2.0
loop_
 _atom_site_type_symbol
 _atom_site_label
 _atom_site_symmetry_multiplicity
 _atom_site_fract_x
 _atom_site_fract_y
 _atom_site_fract_z
 _atom_site_occupancy
  Ti4+  Ti0  1  -0.00066007  -0.00041850  0.25716799  1
  Ti4+  Ti1  1  0.00106917  0.50043647  0.26198281  1
  Ti4+  Ti2  1  0.49917047  -0.00025833  0.26056252  1
  Ti4+  Ti3  1  0.50233143  0.50332107  0.25677796  1
  Ti4+  Ti4  1  0.32990673  0.16444296  0.58827140  1
  Ti4+  Ti5  1  0.33392700  0.66698276  0.59363289  1
  Ti4+  Ti6  1  0.83206877  0.16624681  0.58779561  1
  Ti4+  Ti7  1  0.83307772  0.66519896  0.59351459  1
  Ti4+  Ti8  1  0.17043598  0.33628919  0.92127561  1
  Ti4+  Ti9  1  0.16261681  0.83001463  0.92484029  1
  Ti4+  Ti10  1  0.66560847  0.32968454  0.92217951  1
  Ti4+  Ti11  1  0.66903881  0.83668094  0.92408660  1
  Ti4+  Ti12  1  -0.00166340  -0.00157770  0.75461602  1
  Ti4+  Ti13  1  0.00028909  0.50017099  0.75335669  1
  Ti4+  Ti14  1  0.50239237  0.00128742  0.75586967  1
  Ti4+  Ti15  1  0.49762884  0.49725561  0.75315027  1
  Ti4+  Ti16  1  0.33412283  0.16596264  0.08813254  1
  Ti4+  Ti17  1  0.33417994  0.66654176  0.09001225  1
  Ti4+  Ti18  1  0.83549240  0.16826335  0.09128937  1
  Ti4+  Ti19  1  0.83178101  0.66679863  0.08945519  1
  Ti4+  Ti20  1  0.16713094  0.33225575  0.42112565  1
  Ti4+  Ti21  1  0.16642174  0.83310249  0.42248697  1
  Ti4+  Ti22  1  0.66743131  0.33421527  0.42057127  1
  Ti4+  Ti23  1  0.66698416  0.83481885  0.42373632  1
  Cu+  Cu24  1  0.90451799  0.81464542  0.80965471  1
  Cu+  Cu25  1  0.18085890  0.59435523  0.81134293  1
  Cu+  Cu26  1  0.84843953  0.42833951  0.47766589  1
  Cu+  Cu27  1  0.57132613  0.15208817  0.47535467  1
  Cu+  Cu28  1  0.56781358  0.92118773  0.47572552  1
  Cu+  Cu29  1  0.08142703  0.42672125  0.47865774  1
  Cu+  Cu30  1  0.41315219  0.59401145  0.81086102  1
  Cu+  Cu31  1  0.40368076  0.30705555  0.80291440  1
  Cu+  Cu32  1  0.07088846  0.14282281  0.47109336  1
  Cu+  Cu33  1  0.69532597  0.09754069  0.80548251  1
  Cu+  Cu34  1  0.73817086  0.76417867  0.14119128  1
  Cu+  Cu35  1  0.90709014  0.58597479  0.81281739  1
  Cu+  Cu36  1  0.16514081  0.08151287  0.17125798  1
  Cu+  Cu37  1  0.16511768  0.58167123  0.17481873  1
  Cu+  Cu38  1  0.66473603  0.08207088  0.17608383  1
  Cu+  Cu39  1  0.66401056  0.58862152  0.17000296  1
  Cu+  Cu40  1  0.41999882  0.33649223  0.17088017  1
  Cu+  Cu41  1  0.41881835  0.83560470  0.17387085  1
  Cu+  Cu42  1  0.91996507  0.33753872  0.17600257  1
  Cu+  Cu43  1  0.91326165  0.83618120  0.17089389  1
  Cu+  Cu44  1  0.41810369  0.08126086  0.17274091  1
  Cu+  Cu45  1  0.42101505  0.58364555  0.17049379  1
  Cu+  Cu46  1  0.92063397  0.08376518  0.17202983  1
  Cu+  Cu47  1  0.91701819  0.58065560  0.17454652  1
  Cu+  Cu48  1  0.49386914  0.24682701  0.50252589  1
  Cu+  Cu49  1  0.49751784  0.75004802  0.50780971  1
  Cu+  Cu50  1  0.99784520  0.24686529  0.50057579  1
  Cu+  Cu51  1  0.99708390  0.74860203  0.50612918  1
  Cu+  Cu52  1  0.24954892  0.00274382  0.50151262  1
  Cu+  Cu53  1  0.25282130  0.50496815  0.50651422  1
  Cu+  Cu54  1  0.74528202  0.00293584  0.50180163  1
  Cu+  Cu55  1  0.75552529  0.50600933  0.50518515  1
  Cu+  Cu56  1  0.24661778  0.24304549  0.50176014  1
  Cu+  Cu57  1  0.25004524  0.74752738  0.50503619  1
  Cu+  Cu58  1  0.74979149  0.24755072  0.50003761  1
  Cu+  Cu59  1  0.75260101  0.74993686  0.50771430  1
  Cu+  Cu60  1  0.33042797  0.41435160  0.83263396  1
  Cu+  Cu61  1  0.33128356  0.91549499  0.83885307  1
  Cu+  Cu62  1  0.82699717  0.41258608  0.83534868  1
  Cu+  Cu63  1  0.83006341  0.91360004  0.83729139  1
  Cu+  Cu64  1  0.08490449  0.17142588  0.83540817  1
  Cu+  Cu65  1  0.08433128  0.67271395  0.83546984  1
  Cu+  Cu66  1  0.59111074  0.16875526  0.83554436  1
  Cu+  Cu67  1  0.58510867  0.67183718  0.83662265  1
  Cu+  Cu68  1  0.09032371  0.41904471  0.83386065  1
  Cu+  Cu69  1  0.07835102  0.91039464  0.83720977  1
  Cu+  Cu70  1  0.57800866  0.40734405  0.83380081  1
  Cu+  Cu71  1  0.59207557  0.92332454  0.83683920  1
  Cu+  Cu72  1  0.16526930  0.08257938  0.67318413  1
  Cu+  Cu73  1  0.17004478  0.58401972  0.68141462  1
  Cu+  Cu74  1  0.66867213  0.08513149  0.67802557  1
  Cu+  Cu75  1  0.66777167  0.58204749  0.67402609  1
  Cu+  Cu76  1  0.41204890  0.32643232  0.67434223  1
  Cu+  Cu77  1  0.41680632  0.83198248  0.67774054  1
  Cu+  Cu78  1  0.91526313  0.33152394  0.67288710  1
  Cu+  Cu79  1  0.91333907  0.82767459  0.68117599  1
  Cu+  Cu80  1  0.41528018  0.08385757  0.67379155  1
  Cu+  Cu81  1  0.41431259  0.58386212  0.67989138  1
  Cu+  Cu82  1  0.91468670  0.08209128  0.67213782  1
  Cu+  Cu83  1  0.91554909  0.58419181  0.68154131  1
  Cu+  Cu84  1  0.00590077  0.25566138  0.00775500  1
  Cu+  Cu85  1  -0.00068321  0.74714760  0.01070684  1
  Cu+  Cu86  1  0.50087093  0.24695961  0.00608204  1
  Cu+  Cu87  1  0.50206275  0.75249418  0.00849925  1
  Cu+  Cu88  1  0.25208138  0.50103405  0.00773956  1
  Cu+  Cu89  1  0.24704469  0.99484972  0.00828344  1
  Cu+  Cu90  1  0.74756236  0.49541782  0.00733159  1
  Cu+  Cu91  1  0.75299538  1.00246424  0.00996901  1
  Cu+  Cu92  1  0.25167922  0.25193227  0.00582048  1
  Cu+  Cu93  1  0.24677935  0.74900343  0.01095461  1
  Cu+  Cu94  1  0.75091583  0.25105441  0.00974152  1
  Cu+  Cu95  1  0.74835848  0.75219685  0.01268048  1
  Cu+  Cu96  1  0.33922492  0.42001508  0.33951740  1
  Cu+  Cu97  1  0.33397548  0.91638506  0.34304465  1
  Cu+  Cu98  1  0.83824416  0.42015473  0.34821916  1
  Cu+  Cu99  1  0.83478693  0.91683692  0.34193625  1
  Cu+  Cu100  1  0.08386184  0.16203355  0.34345448  1
  Cu+  Cu101  1  0.08247792  0.66494038  0.34373124  1
  Cu+  Cu102  1  0.58083005  0.16412454  0.34611203  1
  Cu+  Cu103  1  0.58451431  0.66622966  0.34283960  1
  Cu+  Cu104  1  0.08399235  0.41975099  0.34853408  1
  Cu+  Cu105  1  0.08120151  0.91611995  0.34012384  1
  Cu+  Cu106  1  0.58430551  0.42224869  0.33889687  1
  Cu+  Cu107  1  0.58070104  0.91823629  0.34762166  1
  Cu+  Cu108  1  0.00359001  0.00185867  0.11435259  1
  Cu+  Cu109  1  0.00105629  0.50130332  0.11990417  1
  Cu+  Cu110  1  0.50079764  -0.00066952  0.11853148  1
  Cu+  Cu111  1  0.49893659  0.49690526  0.11315642  1
  Cu+  Cu112  1  0.33328836  0.16674414  0.44303813  1
  Cu+  Cu113  1  0.33421270  0.66714996  0.45012957  1
  Cu+  Cu114  1  0.83453323  0.16659861  0.44310043  1
  Cu+  Cu115  1  0.83407930  0.67117414  0.45001051  1
  Cu+  Cu116  1  0.16347531  0.32973400  0.77599795  1
  Cu+  Cu117  1  0.17222239  0.84188071  0.78201299  1
  Cu+  Cu118  1  0.66529919  0.33293608  0.77745655  1
  Cu+  Cu119  1  0.66626414  0.83298170  0.78043130  1
  Te2-  Te120  1  -0.00165809  -0.00405495  0.38784271  1
  Te2-  Te121  1  0.00302587  0.50361853  0.39494809  1
  Te2-  Te122  1  0.49596179  -0.00076969  0.39335885  1
  Te2-  Te123  1  0.50175155  0.50187694  0.38629463  1
  Te2-  Te124  1  0.32885831  0.16089096  0.71871915  1
  Te2-  Te125  1  0.33553579  0.66956269  0.72560379  1
  Te2-  Te126  1  0.83685357  0.16782568  0.71776042  1
  Te2-  Te127  1  0.82814221  0.66209935  0.72598178  1
  Te2-  Te128  1  0.17120927  0.33584747  0.04951974  1
  Te2-  Te129  1  0.16405696  0.83118649  0.05328641  1
  Te2-  Te130  1  0.66508408  0.33083157  0.05056794  1
  Te2-  Te131  1  0.66643146  0.83742215  0.05378366  1
  Te2-  Te132  1  0.49264668  0.23928599  0.88003201  1
  Te2-  Te133  1  0.49689171  0.75421629  0.88222466  1
  Te2-  Te134  1  0.99906493  0.25306311  0.88117447  1
  Te2-  Te135  1  0.98564630  0.74114934  0.88478160  1
  Te2-  Te136  1  0.24675246  -0.00010051  0.88177879  1
  Te2-  Te137  1  0.25865808  0.51320190  0.88198714  1
  Te2-  Te138  1  0.76011735  0.01010485  0.88366086  1
  Te2-  Te139  1  0.74643774  0.50265697  0.88108166  1
  Te2-  Te140  1  0.25304947  0.24581118  0.87979651  1
  Te2-  Te141  1  0.25316751  0.74771221  0.88457626  1
  Te2-  Te142  1  0.75896211  0.24827075  0.88338119  1
  Te2-  Te143  1  0.75026132  0.74455574  0.88502956  1
  Te2-  Te144  1  0.33097224  0.41600069  0.21401755  1
  Te2-  Te145  1  0.32867950  0.91351622  0.21742593  1
  Te2-  Te146  1  0.82944232  0.41439552  0.22137169  1
  Te2-  Te147  1  0.82500757  0.91658061  0.21649837  1
  Te2-  Te148  1  0.08777039  0.17132119  0.21707238  1
  Te2-  Te149  1  0.08535531  0.67063002  0.21793124  1
  Te2-  Te150  1  0.58501012  0.17082981  0.21928479  1
  Te2-  Te151  1  0.58670422  0.67892193  0.21729166  1
  Te2-  Te152  1  0.08727166  0.41520155  0.22151905  1
  Te2-  Te153  1  0.08219514  0.91225657  0.21418643  1
  Te2-  Te154  1  0.58935923  0.41976204  0.21321848  1
  Te2-  Te155  1  0.58531682  0.91430030  0.22082413  1
  Te2-  Te156  1  0.15563544  0.07491424  0.54783197  1
  Te2-  Te157  1  0.16048751  0.58194693  0.55387773  1
  Te2-  Te158  1  0.65584037  0.08012933  0.55089298  1
  Te2-  Te159  1  0.66290936  0.58027271  0.54860997  1
  Te2-  Te160  1  0.41504445  0.33531046  0.54741791  1
  Te2-  Te161  1  0.41657263  0.83978964  0.55196601  1
  Te2-  Te162  1  0.92021783  0.34072502  0.54726512  1
  Te2-  Te163  1  0.91913378  0.83671092  0.55408498  1
  Te2-  Te164  1  0.41590592  0.07669055  0.54833179  1
  Te2-  Te165  1  0.41946849  0.58204027  0.55242413  1
  Te2-  Te166  1  0.91436508  0.07694030  0.54626079  1
  Te2-  Te167  1  0.92385995  0.58212808  0.55384544  1
  Te2-  Te168  1  0.00039644  0.00251352  0.88134682  1
  Te2-  Te169  1  -0.00085749  0.49921393  0.88070887  1
  Te2-  Te170  1  0.50016491  0.00033326  0.88257058  1
  Te2-  Te171  1  0.50059922  0.50013295  0.88044859  1
  Te2-  Te172  1  0.33426724  0.16731051  0.21452314  1
  Te2-  Te173  1  0.33509878  0.66625431  0.21645480  1
  Te2-  Te174  1  0.83540899  0.16738118  0.21766095  1
  Te2-  Te175  1  0.83284256  0.66678575  0.21610375  1
  Te2-  Te176  1  0.16704765  0.33301262  0.54868073  1
  Te2-  Te177  1  0.16696157  0.83426307  0.54869727  1
  Te2-  Te178  1  0.66517697  0.33312613  0.54810003  1
  Te2-  Te179  1  0.66813676  0.83497255  0.55059427  1
  Te2-  Te180  1  0.32425512  0.41063561  0.70606393  1
  Te2-  Te181  1  0.32977576  0.91491839  0.71200007  1
  Te2-  Te182  1  0.82596472  0.41079857  0.70853047  1
  Te2-  Te183  1  0.82542845  0.91314179  0.71002401  1
  Te2-  Te184  1  0.08368449  0.16987467  0.70873403  1
  Te2-  Te185  1  0.08868890  0.67583463  0.70915650  1
  Te2-  Te186  1  0.58472424  0.17307804  0.70888009  1
  Te2-  Te187  1  0.58744054  0.67158335  0.70963815  1
  Te2-  Te188  1  0.08471188  0.41096140  0.70745289  1
  Te2-  Te189  1  0.08632517  0.91337687  0.71015173  1
  Te2-  Te190  1  0.58448862  0.41152799  0.70706560  1
  Te2-  Te191  1  0.58697340  0.91307963  0.71018619  1
  Te2-  Te192  1  0.16301508  0.08159833  0.04390596  1
  Te2-  Te193  1  0.16158735  0.57940082  0.04771578  1
  Te2-  Te194  1  0.66320287  0.08179095  0.04883295  1
  Te2-  Te195  1  0.66007013  0.57882115  0.04284360  1
  Te2-  Te196  1  0.42096202  0.33697610  0.04342576  1
  Te2-  Te197  1  0.41828920  0.83843544  0.04678416  1
  Te2-  Te198  1  0.92094171  0.33985034  0.04847464  1
  Te2-  Te199  1  0.92080319  0.83961447  0.04404158  1
  Te2-  Te200  1  0.41778444  0.07774942  0.04560037  1
  Te2-  Te201  1  0.42179474  0.58268227  0.04422069  1
  Te2-  Te202  1  0.92327080  0.08517283  0.04567108  1
  Te2-  Te203  1  0.91617521  0.57785099  0.04765695  1
  Te2-  Te204  1  0.49503677  0.25157245  0.37524957  1
  Te2-  Te205  1  0.49424125  0.74582797  0.38018290  1
  Te2-  Te206  1  0.99432333  0.24560408  0.37368708  1
  Te2-  Te207  1  0.99412301  0.74697042  0.37948503  1
  Te2-  Te208  1  0.25122240  0.00436622  0.37592353  1
  Te2-  Te209  1  0.25677319  0.50649618  0.37906646  1
  Te2-  Te210  1  0.75398408  0.00628856  0.37564250  1
  Te2-  Te211  1  0.75330826  0.50831928  0.37816317  1
  Te2-  Te212  1  0.25623960  0.24968136  0.37498699  1
  Te2-  Te213  1  0.25276037  0.74649637  0.37917831  1
  Te2-  Te214  1  0.75382328  0.24639435  0.37384205  1
  Te2-  Te215  1  0.75318351  0.74880847  0.38073587  1
