# generated using pymatgen
data_Ti(CuTe)4
_symmetry_space_group_name_H-M   'P 1'
_cell_length_a   16.88363563
_cell_length_b   16.88486810
_cell_length_c   20.70331346
_cell_angle_alpha   90.00714673
_cell_angle_beta   89.99852572
_cell_angle_gamma   119.99641713
_symmetry_Int_Tables_number   1
_chemical_formula_structural   Ti(CuTe)4
_chemical_formula_sum   'Ti24 Cu96 Te96'
_cell_volume   5111.51697247
_cell_formula_units_Z   24
loop_
 _symmetry_equiv_pos_site_id
 _symmetry_equiv_pos_as_xyz
  1  'x, y, z'
loop_
 _atom_type_symbol
 _atom_type_oxidation_number
  Ti4+  4.0
  Cu+  1.0
  Te2-  -2.0
loop_
 _atom_site_type_symbol
 _atom_site_label
 _atom_site_symmetry_multiplicity
 _atom_site_fract_x
 _atom_site_fract_y
 _atom_site_fract_z
 _atom_site_occupancy
  Ti4+  Ti0  1  -0.00346313  -0.00108436  0.25818251  1
  Ti4+  Ti1  1  -0.00077425  0.49924427  0.25298925  1
  Ti4+  Ti2  1  0.49744871  0.00340630  0.25515056  1
  Ti4+  Ti3  1  0.49921903  0.50335448  0.26286545  1
  Ti4+  Ti4  1  0.33483361  0.16793094  0.59521412  1
  Ti4+  Ti5  1  0.33504205  0.66560730  0.59120139  1
  Ti4+  Ti6  1  0.83607277  0.16699613  0.58933236  1
  Ti4+  Ti7  1  0.83638280  0.66872187  0.59105570  1
  Ti4+  Ti8  1  0.16637832  0.33192086  0.92909124  1
  Ti4+  Ti9  1  0.16816401  0.83186080  0.92305552  1
  Ti4+  Ti10  1  0.66494490  0.33363924  0.92186268  1
  Ti4+  Ti11  1  0.66515925  0.82930220  0.92431795  1
  Ti4+  Ti12  1  0.00099564  0.00079569  0.75706278  1
  Ti4+  Ti13  1  0.00065479  0.49942009  0.75588386  1
  Ti4+  Ti14  1  0.49870415  -0.00248052  0.75370655  1
  Ti4+  Ti15  1  0.50351949  0.50171060  0.75619819  1
  Ti4+  Ti16  1  0.33380848  0.16555229  0.09018018  1
  Ti4+  Ti17  1  0.33229741  0.66570086  0.08813917  1
  Ti4+  Ti18  1  0.83209921  0.16691225  0.08534944  1
  Ti4+  Ti19  1  0.83206439  0.66741633  0.08984121  1
  Ti4+  Ti20  1  0.16662462  0.33468620  0.42234272  1
  Ti4+  Ti21  1  0.16622735  0.83305121  0.42303965  1
  Ti4+  Ti22  1  0.66549402  0.33390005  0.42286375  1
  Ti4+  Ti23  1  0.66777773  0.83563596  0.42073998  1
  Cu+  Cu24  1  0.85654884  0.92736351  0.47462214  1
  Cu+  Cu25  1  0.58284214  0.65784098  0.48160032  1
  Cu+  Cu26  1  0.01025719  0.25168020  0.14559644  1
  Cu+  Cu27  1  0.23790585  0.76121897  0.13853667  1
  Cu+  Cu28  1  0.73669453  0.26283390  0.13555824  1
  Cu+  Cu29  1  0.40582007  0.08571080  0.81009489  1
  Cu+  Cu30  1  0.40640586  0.32075868  0.81305085  1
  Cu+  Cu31  1  0.24670449  0.48523707  0.14598036  1
  Cu+  Cu32  1  0.40536863  0.80788752  0.80618233  1
  Cu+  Cu33  1  0.34961794  0.42106391  0.48025427  1
  Cu+  Cu34  1  0.73418929  0.76147405  0.14197571  1
  Cu+  Cu35  1  0.69288285  0.59534361  0.80568455  1
  Cu+  Cu36  1  0.16413135  0.08027866  0.17186573  1
  Cu+  Cu37  1  0.16336258  0.58242911  0.16611526  1
  Cu+  Cu38  1  0.66242560  0.08862448  0.16721850  1
  Cu+  Cu39  1  0.66519280  0.58963587  0.17526837  1
  Cu+  Cu40  1  0.41504696  0.33366910  0.17475106  1
  Cu+  Cu41  1  0.41242366  0.83766879  0.16882599  1
  Cu+  Cu42  1  0.91541982  0.33632699  0.16430775  1
  Cu+  Cu43  1  0.91016913  0.83403876  0.17177971  1
  Cu+  Cu44  1  0.41847903  0.08187247  0.16912925  1
  Cu+  Cu45  1  0.41832137  0.57973898  0.17373956  1
  Cu+  Cu46  1  0.91912704  0.07917412  0.16899566  1
  Cu+  Cu47  1  0.91882372  0.58157976  0.16743469  1
  Cu+  Cu48  1  0.49726626  0.24882835  0.50739650  1
  Cu+  Cu49  1  0.49592508  0.74652999  0.50326683  1
  Cu+  Cu50  1  0.99568418  0.24765289  0.50283379  1
  Cu+  Cu51  1  0.99882036  0.74849533  0.50409561  1
  Cu+  Cu52  1  0.25116154  0.00168592  0.50806807  1
  Cu+  Cu53  1  0.25541268  0.50286162  0.50358660  1
  Cu+  Cu54  1  0.75932402  0.00605921  0.50124788  1
  Cu+  Cu55  1  0.75215845  0.50247842  0.50458925  1
  Cu+  Cu56  1  0.25391186  0.25069700  0.50698185  1
  Cu+  Cu57  1  0.25239058  0.74859307  0.50563673  1
  Cu+  Cu58  1  0.75325175  0.25003801  0.50449388  1
  Cu+  Cu59  1  0.75692206  0.75102529  0.50316513  1
  Cu+  Cu60  1  0.32842430  0.41373674  0.84139204  1
  Cu+  Cu61  1  0.32899976  0.91025006  0.83496728  1
  Cu+  Cu62  1  0.83005176  0.41449594  0.83664413  1
  Cu+  Cu63  1  0.83124153  0.91192510  0.83852036  1
  Cu+  Cu64  1  0.08330345  0.16780256  0.84072333  1
  Cu+  Cu65  1  0.08584427  0.66805609  0.83692679  1
  Cu+  Cu66  1  0.58106001  0.16908513  0.83441645  1
  Cu+  Cu67  1  0.59212518  0.66981207  0.83696164  1
  Cu+  Cu68  1  0.08494777  0.41501492  0.84215406  1
  Cu+  Cu69  1  0.08507277  0.91536276  0.83757256  1
  Cu+  Cu70  1  0.58636384  0.41639823  0.83460026  1
  Cu+  Cu71  1  0.57806283  0.90741682  0.83653430  1
  Cu+  Cu72  1  0.17061374  0.08793284  0.67774693  1
  Cu+  Cu73  1  0.16898226  0.58198591  0.67444187  1
  Cu+  Cu74  1  0.67287130  0.08427735  0.67090097  1
  Cu+  Cu75  1  0.67346335  0.58948665  0.67863589  1
  Cu+  Cu76  1  0.41760919  0.33306551  0.68351388  1
  Cu+  Cu77  1  0.41557007  0.82797203  0.67755408  1
  Cu+  Cu78  1  0.91725932  0.33030215  0.67365451  1
  Cu+  Cu79  1  0.91790261  0.83458222  0.67488435  1
  Cu+  Cu80  1  0.41604195  0.08465825  0.68057177  1
  Cu+  Cu81  1  0.41881964  0.58445249  0.67746814  1
  Cu+  Cu82  1  0.91718292  0.08483752  0.67458850  1
  Cu+  Cu83  1  0.91693029  0.58407621  0.67466819  1
  Cu+  Cu84  1  0.00226872  0.24994498  0.01469671  1
  Cu+  Cu85  1  0.00257868  0.75139365  0.00663230  1
  Cu+  Cu86  1  0.49885092  0.25047326  0.00884984  1
  Cu+  Cu87  1  0.50069471  0.74653442  0.00732160  1
  Cu+  Cu88  1  0.24916969  0.49423023  0.01571726  1
  Cu+  Cu89  1  0.25228202  0.99807214  0.00859378  1
  Cu+  Cu90  1  0.74770344  0.50019367  0.00770853  1
  Cu+  Cu91  1  0.74765137  0.99552773  0.00520068  1
  Cu+  Cu92  1  0.24917021  0.24928779  0.01205182  1
  Cu+  Cu93  1  0.25047857  0.75168522  0.01000239  1
  Cu+  Cu94  1  0.74504418  0.25067256  0.00744314  1
  Cu+  Cu95  1  0.74738416  0.75078058  0.01422623  1
  Cu+  Cu96  1  0.33497323  0.41984558  0.35078333  1
  Cu+  Cu97  1  0.33291584  0.91828216  0.34051207  1
  Cu+  Cu98  1  0.83306182  0.41696885  0.33850277  1
  Cu+  Cu99  1  0.83465957  0.91930792  0.34521935  1
  Cu+  Cu100  1  0.08154881  0.16570652  0.34332669  1
  Cu+  Cu101  1  0.08353209  0.66523978  0.33951063  1
  Cu+  Cu102  1  0.58057574  0.16775117  0.34066854  1
  Cu+  Cu103  1  0.58017894  0.66727556  0.35013440  1
  Cu+  Cu104  1  0.08125583  0.41702618  0.33923031  1
  Cu+  Cu105  1  0.08027475  0.91658997  0.34212006  1
  Cu+  Cu106  1  0.58061684  0.41895257  0.34469711  1
  Cu+  Cu107  1  0.57937080  0.92261135  0.33737683  1
  Cu+  Cu108  1  0.00329557  -0.00393975  0.11546955  1
  Cu+  Cu109  1  -0.00195009  0.50079783  0.10633547  1
  Cu+  Cu110  1  0.50161719  -0.00239176  0.11033745  1
  Cu+  Cu111  1  0.50340346  0.49465983  0.12091471  1
  Cu+  Cu112  1  0.33099091  0.16307815  0.45240871  1
  Cu+  Cu113  1  0.32989347  0.66777181  0.44731779  1
  Cu+  Cu114  1  0.83149759  0.16968288  0.44479185  1
  Cu+  Cu115  1  0.83674043  0.66332419  0.44706567  1
  Cu+  Cu116  1  0.16319462  0.33241017  0.78632188  1
  Cu+  Cu117  1  0.16110850  0.82989662  0.77939881  1
  Cu+  Cu118  1  0.66997810  0.33149900  0.77727285  1
  Cu+  Cu119  1  0.67131910  0.83960204  0.78082379  1
  Te2-  Te120  1  0.00105294  0.00124131  0.38822594  1
  Te2-  Te121  1  -0.00155082  0.49956511  0.38120982  1
  Te2-  Te122  1  0.49741706  0.00313967  0.38401662  1
  Te2-  Te123  1  0.50115823  0.50181985  0.39428106  1
  Te2-  Te124  1  0.33306097  0.16690969  0.72694168  1
  Te2-  Te125  1  0.33221004  0.66214195  0.72190849  1
  Te2-  Te126  1  0.83481282  0.16654017  0.71861904  1
  Te2-  Te127  1  0.84007417  0.67089836  0.72139521  1
  Te2-  Te128  1  0.16681507  0.32949969  0.06098421  1
  Te2-  Te129  1  0.16607375  0.83378313  0.05325962  1
  Te2-  Te130  1  0.66390263  0.33561955  0.05199731  1
  Te2-  Te131  1  0.66331433  0.83387938  0.05495203  1
  Te2-  Te132  1  0.48931613  0.24580115  0.88268854  1
  Te2-  Te133  1  0.49208128  0.73789546  0.88180906  1
  Te2-  Te134  1  0.99605649  0.24700857  0.88693289  1
  Te2-  Te135  1  0.99732468  0.74749038  0.88086936  1
  Te2-  Te136  1  0.25259073  0.00495953  0.88269707  1
  Te2-  Te137  1  0.25238297  0.50302795  0.88817396  1
  Te2-  Te138  1  0.74771261  -0.00134748  0.87926532  1
  Te2-  Te139  1  0.75489116  0.50692109  0.88185024  1
  Te2-  Te140  1  0.25073662  0.24303549  0.88623968  1
  Te2-  Te141  1  0.25279678  0.74287591  0.88288240  1
  Te2-  Te142  1  0.74806019  0.24620916  0.88036614  1
  Te2-  Te143  1  0.75721793  0.74641723  0.88680814  1
  Te2-  Te144  1  0.32595146  0.41148706  0.22270241  1
  Te2-  Te145  1  0.32241882  0.91587319  0.21489709  1
  Te2-  Te146  1  0.82578661  0.41473454  0.21243787  1
  Te2-  Te147  1  0.82270841  0.91522676  0.21799793  1
  Te2-  Te148  1  0.08812762  0.17222704  0.21721174  1
  Te2-  Te149  1  0.08513833  0.67298665  0.21347144  1
  Te2-  Te150  1  0.58446224  0.17823551  0.21476633  1
  Te2-  Te151  1  0.58309942  0.67663786  0.22198105  1
  Te2-  Te152  1  0.08670086  0.41135756  0.21330926  1
  Te2-  Te153  1  0.07980507  0.91216647  0.21572659  1
  Te2-  Te154  1  0.58432096  0.41946622  0.21816441  1
  Te2-  Te155  1  0.58276277  0.91876035  0.21116597  1
  Te2-  Te156  1  0.16472354  0.08395563  0.55177777  1
  Te2-  Te157  1  0.16495825  0.57962776  0.54851028  1
  Te2-  Te158  1  0.66528030  0.08019421  0.54534087  1
  Te2-  Te159  1  0.66310041  0.58062358  0.55146413  1
  Te2-  Te160  1  0.42379228  0.34166275  0.55533411  1
  Te2-  Te161  1  0.42028617  0.83655916  0.55049121  1
  Te2-  Te162  1  0.92127552  0.33917222  0.54810763  1
  Te2-  Te163  1  0.92502750  0.84192316  0.54923720  1
  Te2-  Te164  1  0.41904598  0.08180134  0.55298995  1
  Te2-  Te165  1  0.42428431  0.57820615  0.55162088  1
  Te2-  Te166  1  0.92657794  0.08197212  0.54910701  1
  Te2-  Te167  1  0.91973027  0.58136162  0.54870272  1
  Te2-  Te168  1  -0.00050189  -0.00191603  0.88327335  1
  Te2-  Te169  1  -0.00136895  0.49924859  0.88202723  1
  Te2-  Te170  1  0.49973726  -0.00071395  0.88131660  1
  Te2-  Te171  1  0.50019348  0.49942338  0.88369362  1
  Te2-  Te172  1  0.33247783  0.16439270  0.21640903  1
  Te2-  Te173  1  0.33279392  0.66786333  0.21548478  1
  Te2-  Te174  1  0.83300003  0.16644771  0.21281779  1
  Te2-  Te175  1  0.83525466  0.66557638  0.21661428  1
  Te2-  Te176  1  0.16538652  0.33337792  0.54920380  1
  Te2-  Te177  1  0.16717327  0.83183148  0.54924811  1
  Te2-  Te178  1  0.66841306  0.33360857  0.54893448  1
  Te2-  Te179  1  0.66832616  0.83540773  0.54803483  1
  Te2-  Te180  1  0.32782943  0.41529123  0.71431502  1
  Te2-  Te181  1  0.32509767  0.91079848  0.70773533  1
  Te2-  Te182  1  0.83005116  0.41368935  0.70991499  1
  Te2-  Te183  1  0.82977443  0.91520750  0.71162605  1
  Te2-  Te184  1  0.08652990  0.17339984  0.71422064  1
  Te2-  Te185  1  0.08728864  0.67067335  0.71026360  1
  Te2-  Te186  1  0.58933116  0.17067467  0.70806162  1
  Te2-  Te187  1  0.58853742  0.67585274  0.71124345  1
  Te2-  Te188  1  0.08637355  0.41298788  0.71405924  1
  Te2-  Te189  1  0.08810692  0.91659788  0.71115162  1
  Te2-  Te190  1  0.59138558  0.41615430  0.70836993  1
  Te2-  Te191  1  0.58814061  0.91461709  0.70899213  1
  Te2-  Te192  1  0.16203240  0.07836328  0.04532620  1
  Te2-  Te193  1  0.15963287  0.57906934  0.03963253  1
  Te2-  Te194  1  0.65996969  0.07873468  0.03971339  1
  Te2-  Te195  1  0.65847770  0.57909275  0.04705080  1
  Te2-  Te196  1  0.41861680  0.33882548  0.04769933  1
  Te2-  Te197  1  0.42171339  0.83787914  0.04158712  1
  Te2-  Te198  1  0.91777599  0.34002246  0.03764227  1
  Te2-  Te199  1  0.92067528  0.83920320  0.04410823  1
  Te2-  Te200  1  0.42123223  0.08089405  0.04385723  1
  Te2-  Te201  1  0.42123927  0.57869271  0.04744880  1
  Te2-  Te202  1  0.91692774  0.07648217  0.04279832  1
  Te2-  Te203  1  0.91773874  0.58194412  0.04191511  1
  Te2-  Te204  1  0.49242033  0.24861533  0.38073589  1
  Te2-  Te205  1  0.49342960  0.75361233  0.37715788  1
  Te2-  Te206  1  0.99411078  0.24821244  0.37715713  1
  Te2-  Te207  1  0.99502092  0.74646658  0.37743487  1
  Te2-  Te208  1  0.25033010  0.00493259  0.38025485  1
  Te2-  Te209  1  0.25013214  0.50805961  0.37699441  1
  Te2-  Te210  1  0.74968584  0.00753212  0.37456852  1
  Te2-  Te211  1  0.75203981  0.50531802  0.37757990  1
  Te2-  Te212  1  0.25206508  0.24600567  0.37941244  1
  Te2-  Te213  1  0.25253286  0.74862461  0.37779023  1
  Te2-  Te214  1  0.75057244  0.24847445  0.37701888  1
  Te2-  Te215  1  0.75395023  0.74690610  0.37593727  1
