# generated using pymatgen
data_Ti(CuTe)4
_symmetry_space_group_name_H-M   'P 1'
_cell_length_a   16.87201533
_cell_length_b   16.87251548
_cell_length_c   20.68029923
_cell_angle_alpha   90.01563209
_cell_angle_beta   89.97337502
_cell_angle_gamma   119.98766995
_symmetry_Int_Tables_number   1
_chemical_formula_structural   Ti(CuTe)4
_chemical_formula_sum   'Ti24 Cu96 Te96'
_cell_volume   5099.03678874
_cell_formula_units_Z   24
loop_
 _symmetry_equiv_pos_site_id
 _symmetry_equiv_pos_as_xyz
  1  'x, y, z'
loop_
 _atom_type_symbol
 _atom_type_oxidation_number
  Ti4+  4.0
  Cu+  1.0
  Te2-  -2.0
loop_
 _atom_site_type_symbol
 _atom_site_label
 _atom_site_symmetry_multiplicity
 _atom_site_fract_x
 _atom_site_fract_y
 _atom_site_fract_z
 _atom_site_occupancy
  Ti4+  Ti0  1  0.00139327  0.00400387  0.25454534  1
  Ti4+  Ti1  1  -0.00246905  0.49765178  0.25808617  1
  Ti4+  Ti2  1  0.49820952  -0.00011095  0.26200197  1
  Ti4+  Ti3  1  0.49892208  0.50023366  0.25961612  1
  Ti4+  Ti4  1  0.33749475  0.16762873  0.59579992  1
  Ti4+  Ti5  1  0.33202698  0.66599326  0.59013978  1
  Ti4+  Ti6  1  0.83290843  0.16574507  0.59047384  1
  Ti4+  Ti7  1  0.83221144  0.66328431  0.58661948  1
  Ti4+  Ti8  1  0.16942562  0.33593940  0.92339323  1
  Ti4+  Ti9  1  0.16905448  0.83374011  0.92277423  1
  Ti4+  Ti10  1  0.66675541  0.33323763  0.92951446  1
  Ti4+  Ti11  1  0.66690355  0.83313100  0.92265348  1
  Ti4+  Ti12  1  -0.00051645  -0.00092851  0.75207389  1
  Ti4+  Ti13  1  0.00085227  0.50044285  0.75813044  1
  Ti4+  Ti14  1  0.49931381  -0.00041972  0.75471977  1
  Ti4+  Ti15  1  0.49978316  0.50002678  0.75402788  1
  Ti4+  Ti16  1  0.33325664  0.16664205  0.09125492  1
  Ti4+  Ti17  1  0.33293430  0.66754985  0.09114666  1
  Ti4+  Ti18  1  0.83529683  0.16841710  0.08749115  1
  Ti4+  Ti19  1  0.83221891  0.66519009  0.08812508  1
  Ti4+  Ti20  1  0.16602624  0.33338604  0.42392851  1
  Ti4+  Ti21  1  0.16645472  0.83223034  0.42128723  1
  Ti4+  Ti22  1  0.66550811  0.33456651  0.42018376  1
  Ti4+  Ti23  1  0.66648200  0.83392767  0.41887937  1
  Cu+  Cu24  1  0.34882087  0.92180804  0.47898745  1
  Cu+  Cu25  1  0.84253941  0.41733914  0.47887734  1
  Cu+  Cu26  1  0.17634871  0.08882964  0.81422559  1
  Cu+  Cu27  1  0.56978168  0.42387365  0.47520465  1
  Cu+  Cu28  1  0.02515097  0.26465251  0.13704730  1
  Cu+  Cu29  1  0.73854512  0.25279270  0.14689645  1
  Cu+  Cu30  1  0.73655818  0.48198822  0.14698734  1
  Cu+  Cu31  1  0.58034099  0.15666192  0.48132380  1
  Cu+  Cu32  1  0.41458704  0.08875681  0.81899878  1
  Cu+  Cu33  1  0.41495089  0.32558877  0.81739960  1
  Cu+  Cu34  1  0.19454775  0.59632010  0.80609071  1
  Cu+  Cu35  1  0.07814760  0.64674253  0.47310652  1
  Cu+  Cu36  1  0.16305488  0.08375154  0.17003163  1
  Cu+  Cu37  1  0.16278171  0.58325443  0.17200208  1
  Cu+  Cu38  1  0.66151878  0.08264011  0.17286578  1
  Cu+  Cu39  1  0.66192185  0.57911006  0.17210546  1
  Cu+  Cu40  1  0.41658522  0.33616119  0.17384645  1
  Cu+  Cu41  1  0.41422535  0.83498522  0.17541036  1
  Cu+  Cu42  1  0.91828900  0.33600677  0.16844928  1
  Cu+  Cu43  1  0.91831238  0.83806698  0.16887263  1
  Cu+  Cu44  1  0.41581725  0.08068113  0.17573998  1
  Cu+  Cu45  1  0.41632840  0.58249558  0.17385142  1
  Cu+  Cu46  1  0.92619142  0.08916961  0.16670710  1
  Cu+  Cu47  1  0.91343544  0.57897414  0.17100084  1
  Cu+  Cu48  1  0.49450831  0.24792709  0.50394043  1
  Cu+  Cu49  1  0.49827725  0.74828314  0.50189809  1
  Cu+  Cu50  1  0.99758320  0.24917482  0.50467051  1
  Cu+  Cu51  1  0.99709123  0.74179632  0.49950510  1
  Cu+  Cu52  1  0.25532165  0.00234599  0.50619632  1
  Cu+  Cu53  1  0.24840225  0.50125184  0.50460777  1
  Cu+  Cu54  1  0.75029495  0.00083496  0.50163069  1
  Cu+  Cu55  1  0.75099028  0.50557457  0.49755774  1
  Cu+  Cu56  1  0.25257076  0.25100278  0.50879843  1
  Cu+  Cu57  1  0.25142200  0.74557556  0.50288745  1
  Cu+  Cu58  1  0.75474075  0.24405875  0.50147785  1
  Cu+  Cu59  1  0.75071039  0.74802040  0.49913116  1
  Cu+  Cu60  1  0.32862083  0.41471292  0.83395904  1
  Cu+  Cu61  1  0.32716872  0.91372328  0.83376375  1
  Cu+  Cu62  1  0.83011899  0.41530449  0.84406333  1
  Cu+  Cu63  1  0.82718268  0.91307193  0.83484108  1
  Cu+  Cu64  1  0.08389718  0.17002270  0.83556336  1
  Cu+  Cu65  1  0.09120727  0.66898689  0.83734645  1
  Cu+  Cu66  1  0.58746082  0.17063640  0.84036863  1
  Cu+  Cu67  1  0.58516264  0.67166915  0.83544993  1
  Cu+  Cu68  1  0.09024425  0.42154146  0.83912896  1
  Cu+  Cu69  1  0.08473888  0.91485167  0.83372489  1
  Cu+  Cu70  1  0.58764202  0.41734360  0.83998439  1
  Cu+  Cu71  1  0.58520620  0.91349620  0.83656276  1
  Cu+  Cu72  1  0.17065265  0.08477981  0.68210462  1
  Cu+  Cu73  1  0.16941316  0.58511455  0.67877051  1
  Cu+  Cu74  1  0.66934303  0.08493409  0.67466804  1
  Cu+  Cu75  1  0.66768195  0.58295062  0.67143631  1
  Cu+  Cu76  1  0.41862725  0.33267530  0.68456615  1
  Cu+  Cu77  1  0.41474800  0.83217513  0.67406137  1
  Cu+  Cu78  1  0.91228080  0.32973884  0.67630830  1
  Cu+  Cu79  1  0.91354825  0.82853341  0.66850998  1
  Cu+  Cu80  1  0.41909740  0.08545544  0.68498299  1
  Cu+  Cu81  1  0.41537527  0.58370893  0.67249983  1
  Cu+  Cu82  1  0.91387824  0.08281103  0.67215061  1
  Cu+  Cu83  1  0.91257047  0.57983080  0.67403973  1
  Cu+  Cu84  1  0.00599394  0.25353554  0.00899845  1
  Cu+  Cu85  1  0.00411810  0.75117265  0.00478162  1
  Cu+  Cu86  1  0.49971316  0.24872654  0.01435804  1
  Cu+  Cu87  1  0.50410617  0.75360851  0.00750164  1
  Cu+  Cu88  1  0.25082021  0.50183081  0.00907759  1
  Cu+  Cu89  1  0.25066443  0.99892043  0.00983599  1
  Cu+  Cu90  1  0.74832184  0.49608627  0.01646537  1
  Cu+  Cu91  1  0.74821213  0.99665354  0.00541414  1
  Cu+  Cu92  1  0.25170103  0.25111923  0.01011021  1
  Cu+  Cu93  1  0.25100442  0.75200808  0.00807436  1
  Cu+  Cu94  1  0.74877391  0.25098647  0.01615505  1
  Cu+  Cu95  1  0.74752483  0.75056235  0.00525135  1
  Cu+  Cu96  1  0.33447848  0.41736050  0.34342896  1
  Cu+  Cu97  1  0.33494124  0.91838394  0.34954504  1
  Cu+  Cu98  1  0.83316582  0.41697182  0.34790309  1
  Cu+  Cu99  1  0.83721709  0.92149188  0.33527792  1
  Cu+  Cu100  1  0.08392439  0.16662526  0.34063135  1
  Cu+  Cu101  1  0.07888297  0.66204199  0.34476542  1
  Cu+  Cu102  1  0.57944963  0.16480677  0.35020745  1
  Cu+  Cu103  1  0.58205107  0.66472938  0.34026126  1
  Cu+  Cu104  1  0.08167931  0.41566490  0.34114804  1
  Cu+  Cu105  1  0.08227983  0.92135920  0.33839438  1
  Cu+  Cu106  1  0.58032083  0.41961339  0.34753300  1
  Cu+  Cu107  1  0.58106953  0.91874210  0.34193485  1
  Cu+  Cu108  1  -0.00065081  -0.00349650  0.11011644  1
  Cu+  Cu109  1  0.00268955  0.50442848  0.11383249  1
  Cu+  Cu110  1  0.49709339  -0.00380862  0.11967162  1
  Cu+  Cu111  1  0.49711155  0.50206811  0.11706071  1
  Cu+  Cu112  1  0.32496288  0.16422729  0.45205939  1
  Cu+  Cu113  1  0.33662306  0.66263632  0.44645914  1
  Cu+  Cu114  1  0.83901869  0.16073974  0.44626964  1
  Cu+  Cu115  1  0.83612483  0.67493924  0.44119527  1
  Cu+  Cu116  1  0.16159470  0.33182654  0.77871017  1
  Cu+  Cu117  1  0.15909967  0.82856209  0.77701831  1
  Cu+  Cu118  1  0.67074834  0.33595451  0.78585141  1
  Cu+  Cu119  1  0.66601325  0.83269121  0.77740972  1
  Te2-  Te120  1  -0.00060419  0.00193060  0.38384548  1
  Te2-  Te121  1  -0.00067568  0.49642299  0.38978775  1
  Te2-  Te122  1  0.50053508  -0.00059780  0.39410438  1
  Te2-  Te123  1  0.49773739  0.50294234  0.39041782  1
  Te2-  Te124  1  0.33538490  0.16727338  0.72883768  1
  Te2-  Te125  1  0.33674730  0.66837515  0.72032476  1
  Te2-  Te126  1  0.83319759  0.16515722  0.71944646  1
  Te2-  Te127  1  0.83231977  0.66526686  0.71528957  1
  Te2-  Te128  1  0.17197860  0.33700520  0.05353544  1
  Te2-  Te129  1  0.16735059  0.83325461  0.05136168  1
  Te2-  Te130  1  0.66350211  0.33076523  0.06187312  1
  Te2-  Te131  1  0.66797881  0.83389917  0.05225560  1
  Te2-  Te132  1  0.49154875  0.24593998  0.88791810  1
  Te2-  Te133  1  0.49420604  0.74705646  0.88164247  1
  Te2-  Te134  1  0.99891531  0.25179405  0.88153597  1
  Te2-  Te135  1  0.99936232  0.74754863  0.87844434  1
  Te2-  Te136  1  0.25484760  0.00983094  0.88360320  1
  Te2-  Te137  1  0.25950462  0.50970915  0.88320203  1
  Te2-  Te138  1  0.75260485  0.00544079  0.87981120  1
  Te2-  Te139  1  0.75174721  0.50409439  0.88881674  1
  Te2-  Te140  1  0.25511792  0.24608895  0.88377740  1
  Te2-  Te141  1  0.25976862  0.74978643  0.88226938  1
  Te2-  Te142  1  0.75202742  0.24781994  0.88856783  1
  Te2-  Te143  1  0.75211507  0.74618786  0.87955193  1
  Te2-  Te144  1  0.32788494  0.41473172  0.21761140  1
  Te2-  Te145  1  0.32694476  0.91426772  0.22191166  1
  Te2-  Te146  1  0.82231151  0.40966495  0.21893956  1
  Te2-  Te147  1  0.83101419  0.92027085  0.20947711  1
  Te2-  Te148  1  0.09268054  0.17963262  0.21491565  1
  Te2-  Te149  1  0.08082544  0.66846290  0.21725016  1
  Te2-  Te150  1  0.58285430  0.17376260  0.22166244  1
  Te2-  Te151  1  0.58518545  0.67026020  0.21474916  1
  Te2-  Te152  1  0.08724088  0.41524359  0.21540424  1
  Te2-  Te153  1  0.08586968  0.91618273  0.21279057  1
  Te2-  Te154  1  0.58264630  0.40933466  0.22014720  1
  Te2-  Te155  1  0.58360822  0.91562069  0.21644344  1
  Te2-  Te156  1  0.16786110  0.08215725  0.55341576  1
  Te2-  Te157  1  0.15804385  0.57684568  0.55131719  1
  Te2-  Te158  1  0.65889852  0.07609412  0.54894086  1
  Te2-  Te159  1  0.65823777  0.58076260  0.54560472  1
  Te2-  Te160  1  0.41996565  0.33988637  0.55565833  1
  Te2-  Te161  1  0.42194675  0.83898604  0.54835238  1
  Te2-  Te162  1  0.92185930  0.34037115  0.55027984  1
  Te2-  Te163  1  0.91927303  0.83323976  0.54235915  1
  Te2-  Te164  1  0.42430284  0.07992715  0.55528949  1
  Te2-  Te165  1  0.41717231  0.58084968  0.54661734  1
  Te2-  Te166  1  0.91774636  0.08031095  0.54604402  1
  Te2-  Te167  1  0.91992431  0.57420864  0.54779272  1
  Te2-  Te168  1  -0.00209069  -0.00154396  0.87945599  1
  Te2-  Te169  1  0.00089565  0.50121627  0.88509800  1
  Te2-  Te170  1  0.49887431  -0.00237663  0.88187495  1
  Te2-  Te171  1  0.49963672  0.50201674  0.88138081  1
  Te2-  Te172  1  0.33070144  0.16634771  0.21726962  1
  Te2-  Te173  1  0.33086505  0.66591805  0.21763620  1
  Te2-  Te174  1  0.83330901  0.16580367  0.21528216  1
  Te2-  Te175  1  0.83317111  0.66929510  0.21517893  1
  Te2-  Te176  1  0.16525556  0.33321029  0.55060246  1
  Te2-  Te177  1  0.16535805  0.83132727  0.54926482  1
  Te2-  Te178  1  0.66880990  0.33391056  0.54845546  1
  Te2-  Te179  1  0.66741004  0.83218186  0.54556797  1
  Te2-  Te180  1  0.32547605  0.41411323  0.70824886  1
  Te2-  Te181  1  0.32462392  0.91150723  0.70831777  1
  Te2-  Te182  1  0.82776422  0.41308739  0.71599757  1
  Te2-  Te183  1  0.82795121  0.91234730  0.70764822  1
  Te2-  Te184  1  0.08455277  0.17280160  0.70798370  1
  Te2-  Te185  1  0.08298564  0.67098080  0.70946575  1
  Te2-  Te186  1  0.59134061  0.17533817  0.71325382  1
  Te2-  Te187  1  0.58559644  0.67104852  0.70842053  1
  Te2-  Te188  1  0.08374125  0.41230831  0.71109623  1
  Te2-  Te189  1  0.08351549  0.91041566  0.70612397  1
  Te2-  Te190  1  0.59103825  0.41565758  0.71265376  1
  Te2-  Te191  1  0.58530163  0.91410609  0.70983459  1
  Te2-  Te192  1  0.16203730  0.08097979  0.04405439  1
  Te2-  Te193  1  0.16166442  0.58231129  0.04492694  1
  Te2-  Te194  1  0.66061880  0.07800469  0.04529236  1
  Te2-  Te195  1  0.65900604  0.58101769  0.04430757  1
  Te2-  Te196  1  0.42066377  0.34026313  0.04758244  1
  Te2-  Te197  1  0.42001958  0.83906740  0.04745243  1
  Te2-  Te198  1  0.92288770  0.34271794  0.04154528  1
  Te2-  Te199  1  0.91823056  0.83558852  0.04154538  1
  Te2-  Te200  1  0.41932490  0.07879805  0.04901481  1
  Te2-  Te201  1  0.42046771  0.58367413  0.04637028  1
  Te2-  Te202  1  0.91928842  0.08077134  0.03999913  1
  Te2-  Te203  1  0.92217864  0.58191954  0.04349804  1
  Te2-  Te204  1  0.48865243  0.24685038  0.37772726  1
  Te2-  Te205  1  0.49367194  0.74739976  0.37521020  1
  Te2-  Te206  1  0.99486082  0.24694634  0.37750018  1
  Te2-  Te207  1  0.99497958  0.75072652  0.37296110  1
  Te2-  Te208  1  0.25036619  0.00674196  0.37897181  1
  Te2-  Te209  1  0.25117997  0.50486414  0.37775996  1
  Te2-  Te210  1  0.75243779  0.00597177  0.37458624  1
  Te2-  Te211  1  0.75378489  0.51023001  0.37208811  1
  Te2-  Te212  1  0.25261020  0.24786957  0.38104047  1
  Te2-  Te213  1  0.25181708  0.74360982  0.37526100  1
  Te2-  Te214  1  0.75282354  0.24476110  0.37504695  1
  Te2-  Te215  1  0.75361010  0.75065123  0.37220345  1
