# generated using pymatgen
data_Ti(CuTe)4
_symmetry_space_group_name_H-M   'P 1'
_cell_length_a   16.86036618
_cell_length_b   16.85494684
_cell_length_c   20.66196640
_cell_angle_alpha   89.94113361
_cell_angle_beta   90.01226933
_cell_angle_gamma   120.01203721
_symmetry_Int_Tables_number   1
_chemical_formula_structural   Ti(CuTe)4
_chemical_formula_sum   'Ti24 Cu96 Te96'
_cell_volume   5084.44702237
_cell_formula_units_Z   24
loop_
 _symmetry_equiv_pos_site_id
 _symmetry_equiv_pos_as_xyz
  1  'x, y, z'
loop_
 _atom_type_symbol
 _atom_type_oxidation_number
  Ti4+  4.0
  Cu+  1.0
  Te2-  -2.0
loop_
 _atom_site_type_symbol
 _atom_site_label
 _atom_site_symmetry_multiplicity
 _atom_site_fract_x
 _atom_site_fract_y
 _atom_site_fract_z
 _atom_site_occupancy
  Ti4+  Ti0  1  0.00221139  0.00257325  0.25703027  1
  Ti4+  Ti1  1  0.00520682  0.50358796  0.25717434  1
  Ti4+  Ti2  1  0.50197932  0.00086962  0.25709005  1
  Ti4+  Ti3  1  0.50353880  0.50433536  0.25938112  1
  Ti4+  Ti4  1  0.33031975  0.16522662  0.58957605  1
  Ti4+  Ti5  1  0.32830304  0.66349715  0.59564555  1
  Ti4+  Ti6  1  0.83162835  0.16447904  0.59033695  1
  Ti4+  Ti7  1  0.83204170  0.66619963  0.59048537  1
  Ti4+  Ti8  1  0.16659145  0.33528599  0.92415035  1
  Ti4+  Ti9  1  0.16690568  0.83480849  0.92651357  1
  Ti4+  Ti10  1  0.66351856  0.33234226  0.92046105  1
  Ti4+  Ti11  1  0.66717798  0.82990801  0.92587287  1
  Ti4+  Ti12  1  -0.00196384  -0.00241947  0.75780360  1
  Ti4+  Ti13  1  0.00035148  0.49862612  0.75589328  1
  Ti4+  Ti14  1  0.49570602  -0.00156025  0.75517764  1
  Ti4+  Ti15  1  0.50084017  0.49942970  0.75466375  1
  Ti4+  Ti16  1  0.33281719  0.16564538  0.08925288  1
  Ti4+  Ti17  1  0.33296712  0.66660953  0.08762160  1
  Ti4+  Ti18  1  0.83543651  0.16662132  0.08714968  1
  Ti4+  Ti19  1  0.83314679  0.66551601  0.08947914  1
  Ti4+  Ti20  1  0.16781852  0.33391077  0.42233916  1
  Ti4+  Ti21  1  0.16596639  0.83123529  0.42443195  1
  Ti4+  Ti22  1  0.66694372  0.33463195  0.42062478  1
  Ti4+  Ti23  1  0.66806536  0.83369665  0.42388777  1
  Cu+  Cu24  1  0.39957987  0.09535648  0.80372035  1
  Cu+  Cu25  1  0.74718945  0.76174153  0.14526963  1
  Cu+  Cu26  1  0.24758726  0.76329030  0.14405948  1
  Cu+  Cu27  1  0.01934049  0.76505766  0.14369351  1
  Cu+  Cu28  1  0.51633681  0.76277273  0.14309897  1
  Cu+  Cu29  1  0.56868157  0.42787060  0.47450658  1
  Cu+  Cu30  1  0.69105482  0.59687344  0.80752413  1
  Cu+  Cu31  1  0.18379823  0.59653767  0.81384517  1
  Cu+  Cu32  1  0.07104919  0.92685722  0.47339815  1
  Cu+  Cu33  1  0.06889542  0.63976393  0.47697124  1
  Cu+  Cu34  1  0.02899568  0.26572584  0.13885403  1
  Cu+  Cu35  1  0.41613826  0.59586840  0.81170773  1
  Cu+  Cu36  1  0.16468877  0.08304858  0.17027140  1
  Cu+  Cu37  1  0.16201451  0.58576171  0.16720483  1
  Cu+  Cu38  1  0.66495891  0.08238853  0.16879801  1
  Cu+  Cu39  1  0.66242257  0.58450770  0.17047366  1
  Cu+  Cu40  1  0.41897304  0.33456438  0.17368597  1
  Cu+  Cu41  1  0.42107278  0.84080053  0.16943331  1
  Cu+  Cu42  1  0.92423534  0.33511008  0.16943845  1
  Cu+  Cu43  1  0.92057287  0.83905806  0.17184485  1
  Cu+  Cu44  1  0.42079055  0.08407684  0.17032847  1
  Cu+  Cu45  1  0.42370471  0.58646431  0.16952304  1
  Cu+  Cu46  1  0.92504671  0.08936088  0.16800556  1
  Cu+  Cu47  1  0.92508313  0.58842836  0.16920605  1
  Cu+  Cu48  1  0.49712423  0.25125127  0.50352215  1
  Cu+  Cu49  1  0.49825344  0.74786744  0.50986422  1
  Cu+  Cu50  1  0.99619055  0.24688461  0.50384966  1
  Cu+  Cu51  1  0.99767862  0.74839297  0.50398525  1
  Cu+  Cu52  1  0.24647484  0.00222584  0.50484715  1
  Cu+  Cu53  1  0.24861460  0.50101182  0.50829836  1
  Cu+  Cu54  1  0.75143623  0.00260327  0.50512549  1
  Cu+  Cu55  1  0.74478926  0.50131132  0.50225807  1
  Cu+  Cu56  1  0.24921843  0.24545001  0.50267441  1
  Cu+  Cu57  1  0.24408280  0.73965172  0.50710412  1
  Cu+  Cu58  1  0.75101352  0.24536247  0.50264327  1
  Cu+  Cu59  1  0.75066374  0.74714955  0.50459530  1
  Cu+  Cu60  1  0.32984991  0.41810854  0.83572707  1
  Cu+  Cu61  1  0.32979964  0.92014527  0.83752371  1
  Cu+  Cu62  1  0.82873857  0.41364156  0.83494987  1
  Cu+  Cu63  1  0.83061333  0.91207118  0.83969120  1
  Cu+  Cu64  1  0.08166464  0.16753092  0.84031713  1
  Cu+  Cu65  1  0.08435869  0.66928703  0.84098042  1
  Cu+  Cu66  1  0.57567298  0.16647331  0.83427760  1
  Cu+  Cu67  1  0.58972308  0.67059388  0.83888944  1
  Cu+  Cu68  1  0.08756728  0.41812135  0.83739765  1
  Cu+  Cu69  1  0.08318393  0.91432974  0.84028252  1
  Cu+  Cu70  1  0.59055111  0.41810568  0.83241798  1
  Cu+  Cu71  1  0.58203939  0.91348970  0.83813030  1
  Cu+  Cu72  1  0.16358749  0.08025159  0.67563984  1
  Cu+  Cu73  1  0.16746472  0.58245584  0.68406077  1
  Cu+  Cu74  1  0.66746102  0.08062949  0.67309830  1
  Cu+  Cu75  1  0.66933973  0.58323339  0.67916430  1
  Cu+  Cu76  1  0.41570417  0.33100222  0.67423366  1
  Cu+  Cu77  1  0.41237200  0.83007647  0.67638114  1
  Cu+  Cu78  1  0.91369623  0.32698193  0.67295328  1
  Cu+  Cu79  1  0.91596199  0.83120907  0.67532417  1
  Cu+  Cu80  1  0.40992834  0.08294524  0.67514862  1
  Cu+  Cu81  1  0.41313884  0.58347610  0.68265757  1
  Cu+  Cu82  1  0.91197167  0.08130565  0.67419173  1
  Cu+  Cu83  1  0.91535046  0.58319316  0.67467441  1
  Cu+  Cu84  1  0.00452884  0.25244316  0.01012108  1
  Cu+  Cu85  1  0.00360253  0.74888923  0.01453073  1
  Cu+  Cu86  1  0.50008564  0.24992849  0.00440901  1
  Cu+  Cu87  1  0.50231377  0.74693672  0.01426817  1
  Cu+  Cu88  1  0.24782077  0.49878640  0.01009690  1
  Cu+  Cu89  1  0.24956419  0.99946815  0.00989896  1
  Cu+  Cu90  1  0.74706379  0.49525892  0.00638794  1
  Cu+  Cu91  1  0.74867576  0.99605542  0.00695432  1
  Cu+  Cu92  1  0.24850202  0.24959027  0.00681401  1
  Cu+  Cu93  1  0.24744013  0.74945493  0.01403568  1
  Cu+  Cu94  1  0.74541073  0.24822345  0.00270624  1
  Cu+  Cu95  1  0.74609825  0.74601502  0.01567580  1
  Cu+  Cu96  1  0.33681209  0.41993878  0.34248314  1
  Cu+  Cu97  1  0.33702905  0.91573256  0.34328856  1
  Cu+  Cu98  1  0.83859812  0.41940431  0.33910668  1
  Cu+  Cu99  1  0.83599708  0.91737018  0.34145157  1
  Cu+  Cu100  1  0.08478598  0.16731220  0.34167431  1
  Cu+  Cu101  1  0.08541918  0.66524021  0.34827899  1
  Cu+  Cu102  1  0.58405299  0.16480432  0.33933824  1
  Cu+  Cu103  1  0.58578752  0.66857516  0.34490432  1
  Cu+  Cu104  1  0.08710664  0.42022365  0.34132108  1
  Cu+  Cu105  1  0.08331286  0.91904909  0.34597788  1
  Cu+  Cu106  1  0.58277651  0.42098451  0.34531905  1
  Cu+  Cu107  1  0.58167975  0.91645888  0.34245651  1
  Cu+  Cu108  1  -0.00049523  0.00158423  0.11121779  1
  Cu+  Cu109  1  -0.00899979  0.49295798  0.11280896  1
  Cu+  Cu110  1  0.50400006  0.00711100  0.11123629  1
  Cu+  Cu111  1  0.49559110  0.49263010  0.11621717  1
  Cu+  Cu112  1  0.33600599  0.16674764  0.44559724  1
  Cu+  Cu113  1  0.33820205  0.66668515  0.45415233  1
  Cu+  Cu114  1  0.83491153  0.16664238  0.44569382  1
  Cu+  Cu115  1  0.83430078  0.66522572  0.44591296  1
  Cu+  Cu116  1  0.16287262  0.32710186  0.78161756  1
  Cu+  Cu117  1  0.16369714  0.83165519  0.78300297  1
  Cu+  Cu118  1  0.66834427  0.32698489  0.77576975  1
  Cu+  Cu119  1  0.66863811  0.83903757  0.78259408  1
  Te2-  Te120  1  -0.00001059  0.00308926  0.38727573  1
  Te2-  Te121  1  0.00078687  0.49751381  0.38769533  1
  Te2-  Te122  1  0.50189097  0.00144234  0.38632459  1
  Te2-  Te123  1  0.50005286  0.50421050  0.38973410  1
  Te2-  Te124  1  0.32798483  0.16728428  0.72013963  1
  Te2-  Te125  1  0.33356577  0.66926148  0.72836260  1
  Te2-  Te126  1  0.83053918  0.16367137  0.71997432  1
  Te2-  Te127  1  0.83621724  0.66749626  0.72098877  1
  Te2-  Te128  1  0.17078094  0.33472848  0.05443961  1
  Te2-  Te129  1  0.16936493  0.83706891  0.05922618  1
  Te2-  Te130  1  0.66444198  0.33035625  0.04962984  1
  Te2-  Te131  1  0.66859831  0.83496504  0.05819738  1
  Te2-  Te132  1  0.48996936  0.25080730  0.87852125  1
  Te2-  Te133  1  0.49425951  0.74688687  0.88663459  1
  Te2-  Te134  1  0.99542969  0.25050006  0.88324498  1
  Te2-  Te135  1  0.99599735  0.74716169  0.88717879  1
  Te2-  Te136  1  0.25032402  0.00827945  0.88437345  1
  Te2-  Te137  1  0.25673451  0.51254988  0.88437464  1
  Te2-  Te138  1  0.74979870  -0.00029147  0.88166087  1
  Te2-  Te139  1  0.75688412  0.50788204  0.88104204  1
  Te2-  Te140  1  0.25227149  0.25045445  0.88088012  1
  Te2-  Te141  1  0.25694871  0.75241691  0.88616191  1
  Te2-  Te142  1  0.74584420  0.24434567  0.87665901  1
  Te2-  Te143  1  0.75691258  0.74553764  0.88766669  1
  Te2-  Te144  1  0.33320257  0.41938321  0.21604772  1
  Te2-  Te145  1  0.32816905  0.91650102  0.21711548  1
  Te2-  Te146  1  0.83668665  0.41839632  0.21243055  1
  Te2-  Te147  1  0.83023375  0.92028871  0.21495878  1
  Te2-  Te148  1  0.09207709  0.17653850  0.21605044  1
  Te2-  Te149  1  0.09211537  0.68109205  0.21979119  1
  Te2-  Te150  1  0.58832560  0.17229117  0.21377589  1
  Te2-  Te151  1  0.59122670  0.68137119  0.21843364  1
  Te2-  Te152  1  0.09454626  0.41983952  0.21506072  1
  Te2-  Te153  1  0.09029045  0.91692391  0.21876135  1
  Te2-  Te154  1  0.58826868  0.41813275  0.21787858  1
  Te2-  Te155  1  0.59044618  0.91584480  0.21624032  1
  Te2-  Te156  1  0.15546018  0.07973909  0.54990682  1
  Te2-  Te157  1  0.15419345  0.57315947  0.55619445  1
  Te2-  Te158  1  0.65942102  0.07841286  0.54748236  1
  Te2-  Te159  1  0.65765294  0.58118095  0.55203603  1
  Te2-  Te160  1  0.41564244  0.33952547  0.54870813  1
  Te2-  Te161  1  0.41273436  0.83320559  0.55053047  1
  Te2-  Te162  1  0.91799642  0.33657125  0.54728091  1
  Te2-  Te163  1  0.91844548  0.83937013  0.54941004  1
  Te2-  Te164  1  0.41578883  0.08087342  0.54772116  1
  Te2-  Te165  1  0.41601790  0.57988494  0.55539172  1
  Te2-  Te166  1  0.91872370  0.07926486  0.54842127  1
  Te2-  Te167  1  0.91415634  0.57645625  0.54807860  1
  Te2-  Te168  1  -0.00099995  -0.00088948  0.88463876  1
  Te2-  Te169  1  -0.00291349  0.49755222  0.88308371  1
  Te2-  Te170  1  0.49940321  -0.00069016  0.88250201  1
  Te2-  Te171  1  0.50003065  0.49747830  0.88214429  1
  Te2-  Te172  1  0.33412152  0.16578670  0.21598565  1
  Te2-  Te173  1  0.33366093  0.66744288  0.21513546  1
  Te2-  Te174  1  0.83387053  0.16691835  0.21445004  1
  Te2-  Te175  1  0.83352170  0.66651028  0.21711193  1
  Te2-  Te176  1  0.16456602  0.32970983  0.54882036  1
  Te2-  Te177  1  0.16608618  0.83210316  0.55186153  1
  Te2-  Te178  1  0.66689367  0.33111653  0.54757391  1
  Te2-  Te179  1  0.66788256  0.83351827  0.55059535  1
  Te2-  Te180  1  0.32595344  0.41041302  0.70982182  1
  Te2-  Te181  1  0.32262054  0.91081082  0.71022121  1
  Te2-  Te182  1  0.82937220  0.41285047  0.70864267  1
  Te2-  Te183  1  0.82672597  0.91154399  0.71238329  1
  Te2-  Te184  1  0.08178937  0.16842791  0.71250685  1
  Te2-  Te185  1  0.08408355  0.67284137  0.71270431  1
  Te2-  Te186  1  0.58362552  0.16857959  0.70649605  1
  Te2-  Te187  1  0.58753848  0.67481559  0.71118328  1
  Te2-  Te188  1  0.08312327  0.40825112  0.71069686  1
  Te2-  Te189  1  0.08455193  0.91169205  0.71331037  1
  Te2-  Te190  1  0.58512203  0.41022609  0.70698270  1
  Te2-  Te191  1  0.58230196  0.91178375  0.71150428  1
  Te2-  Te192  1  0.16023107  0.08032523  0.04391503  1
  Te2-  Te193  1  0.15701937  0.57732791  0.04207237  1
  Te2-  Te194  1  0.66287228  0.07993909  0.04212671  1
  Te2-  Te195  1  0.65849202  0.57430571  0.04468892  1
  Te2-  Te196  1  0.41821626  0.33665254  0.04502647  1
  Te2-  Te197  1  0.42191483  0.84136491  0.04164304  1
  Te2-  Te198  1  0.91594828  0.33735423  0.04072878  1
  Te2-  Te199  1  0.92072009  0.83965099  0.04346022  1
  Te2-  Te200  1  0.41984375  0.08106658  0.04319015  1
  Te2-  Te201  1  0.41742778  0.57543432  0.04359005  1
  Te2-  Te202  1  0.91938625  0.07866752  0.04049214  1
  Te2-  Te203  1  0.91653683  0.57637914  0.04247053  1
  Te2-  Te204  1  0.49513016  0.24661369  0.37525157  1
  Te2-  Te205  1  0.49525672  0.74756852  0.38162355  1
  Te2-  Te206  1  0.99627739  0.24911428  0.37647956  1
  Te2-  Te207  1  0.99321803  0.74646012  0.37599630  1
  Te2-  Te208  1  0.25520916  0.00413165  0.37798774  1
  Te2-  Te209  1  0.25533834  0.50776722  0.38097150  1
  Te2-  Te210  1  0.75290749  0.00478569  0.37779005  1
  Te2-  Te211  1  0.75634494  0.50728433  0.37491708  1
  Te2-  Te212  1  0.25493285  0.24872031  0.37662082  1
  Te2-  Te213  1  0.25655488  0.74742361  0.38050892  1
  Te2-  Te214  1  0.75375128  0.24917816  0.37585398  1
  Te2-  Te215  1  0.75555437  0.74838853  0.37838593  1
