# generated using pymatgen
data_Ti(CuTe)4
_symmetry_space_group_name_H-M   'P 1'
_cell_length_a   16.86571317
_cell_length_b   16.86809904
_cell_length_c   20.67874361
_cell_angle_alpha   90.01851500
_cell_angle_beta   90.00889260
_cell_angle_gamma   119.99548333
_symmetry_Int_Tables_number   1
_chemical_formula_structural   Ti(CuTe)4
_chemical_formula_sum   'Ti24 Cu96 Te96'
_cell_volume   5095.01357298
_cell_formula_units_Z   24
loop_
 _symmetry_equiv_pos_site_id
 _symmetry_equiv_pos_as_xyz
  1  'x, y, z'
loop_
 _atom_type_symbol
 _atom_type_oxidation_number
  Ti4+  4.0
  Cu+  1.0
  Te2-  -2.0
loop_
 _atom_site_type_symbol
 _atom_site_label
 _atom_site_symmetry_multiplicity
 _atom_site_fract_x
 _atom_site_fract_y
 _atom_site_fract_z
 _atom_site_occupancy
  Ti4+  Ti0  1  0.00007254  0.00307925  0.26072041  1
  Ti4+  Ti1  1  -0.00443059  0.50078015  0.25733757  1
  Ti4+  Ti2  1  0.49642735  0.00185060  0.25538749  1
  Ti4+  Ti3  1  0.49734529  0.50034771  0.25919386  1
  Ti4+  Ti4  1  0.33337331  0.16717864  0.59275054  1
  Ti4+  Ti5  1  0.33329566  0.66593579  0.58682870  1
  Ti4+  Ti6  1  0.83165007  0.16254907  0.58935358  1
  Ti4+  Ti7  1  0.83460058  0.66587922  0.59111940  1
  Ti4+  Ti8  1  0.16883861  0.33348659  0.92721555  1
  Ti4+  Ti9  1  0.16579764  0.83164469  0.92717488  1
  Ti4+  Ti10  1  0.67019722  0.33207146  0.92445056  1
  Ti4+  Ti11  1  0.67072327  0.83361999  0.92334176  1
  Ti4+  Ti12  1  -0.00140469  -0.00294364  0.75676982  1
  Ti4+  Ti13  1  0.00100168  0.49923739  0.75616590  1
  Ti4+  Ti14  1  0.50315670  0.00151455  0.75656037  1
  Ti4+  Ti15  1  0.49947349  0.50001573  0.75590453  1
  Ti4+  Ti16  1  0.33326621  0.16767745  0.08753602  1
  Ti4+  Ti17  1  0.33480595  0.66797746  0.08915250  1
  Ti4+  Ti18  1  0.83301143  0.16717053  0.09056057  1
  Ti4+  Ti19  1  0.83490751  0.66662401  0.09096721  1
  Ti4+  Ti20  1  0.16740147  0.33393871  0.41967808  1
  Ti4+  Ti21  1  0.16463403  0.83172648  0.42280432  1
  Ti4+  Ti22  1  0.66515412  0.33375049  0.42206576  1
  Ti4+  Ti23  1  0.66591421  0.83653430  0.41975872  1
  Cu+  Cu24  1  0.73509864  0.26230863  0.13980839  1
  Cu+  Cu25  1  0.58229097  0.65626489  0.47744252  1
  Cu+  Cu26  1  0.69629180  0.09640049  0.80723800  1
  Cu+  Cu27  1  0.84543671  0.91947713  0.47893552  1
  Cu+  Cu28  1  0.57047432  0.92916310  0.46957458  1
  Cu+  Cu29  1  0.90597010  0.80614490  0.80716020  1
  Cu+  Cu30  1  0.34924985  0.41971878  0.47601563  1
  Cu+  Cu31  1  0.23578631  0.98710019  0.14218573  1
  Cu+  Cu32  1  0.23696474  0.75584776  0.14306474  1
  Cu+  Cu33  1  0.23663368  0.26161769  0.14210343  1
  Cu+  Cu34  1  0.06949286  0.64000497  0.47331275  1
  Cu+  Cu35  1  0.08143602  0.15177658  0.47746571  1
  Cu+  Cu36  1  0.16289319  0.08678339  0.17179821  1
  Cu+  Cu37  1  0.16322433  0.58503513  0.17195120  1
  Cu+  Cu38  1  0.66314033  0.08720787  0.17067438  1
  Cu+  Cu39  1  0.66526569  0.58383953  0.17372885  1
  Cu+  Cu40  1  0.41183065  0.33708612  0.16977067  1
  Cu+  Cu41  1  0.41354666  0.83623831  0.16936647  1
  Cu+  Cu42  1  0.90940204  0.33562916  0.17139576  1
  Cu+  Cu43  1  0.91407783  0.83597602  0.17411819  1
  Cu+  Cu44  1  0.41458197  0.07816021  0.16506540  1
  Cu+  Cu45  1  0.41961843  0.58214311  0.17210720  1
  Cu+  Cu46  1  0.91774204  0.08273194  0.17457813  1
  Cu+  Cu47  1  0.91753960  0.58216478  0.17114356  1
  Cu+  Cu48  1  0.49736564  0.24791640  0.50481485  1
  Cu+  Cu49  1  0.49615398  0.75090460  0.49730524  1
  Cu+  Cu50  1  0.99747488  0.24471753  0.50096519  1
  Cu+  Cu51  1  0.99849344  0.74376254  0.50431176  1
  Cu+  Cu52  1  0.25222071  0.00305832  0.50594692  1
  Cu+  Cu53  1  0.25592059  0.50466020  0.49778129  1
  Cu+  Cu54  1  0.75055856  0.00481704  0.49916170  1
  Cu+  Cu55  1  0.75221760  0.50173471  0.50352157  1
  Cu+  Cu56  1  0.25391504  0.24675339  0.50318269  1
  Cu+  Cu57  1  0.24549972  0.74280585  0.50126222  1
  Cu+  Cu58  1  0.74817540  0.24580349  0.50349974  1
  Cu+  Cu59  1  0.75549736  0.74726161  0.50317994  1
  Cu+  Cu60  1  0.33054710  0.41369455  0.84047354  1
  Cu+  Cu61  1  0.33089733  0.91492594  0.84153765  1
  Cu+  Cu62  1  0.83202647  0.41366663  0.83803404  1
  Cu+  Cu63  1  0.83033456  0.90807859  0.83572819  1
  Cu+  Cu64  1  0.08768504  0.17030072  0.84120629  1
  Cu+  Cu65  1  0.08760836  0.66912869  0.83953535  1
  Cu+  Cu66  1  0.59308580  0.16981973  0.83813071  1
  Cu+  Cu67  1  0.58635772  0.66971786  0.83685618  1
  Cu+  Cu68  1  0.08606352  0.41491477  0.84009132  1
  Cu+  Cu69  1  0.08039048  0.91014013  0.84043989  1
  Cu+  Cu70  1  0.58648074  0.41628435  0.83969875  1
  Cu+  Cu71  1  0.59169614  0.92106687  0.83749848  1
  Cu+  Cu72  1  0.16904579  0.08564466  0.67767608  1
  Cu+  Cu73  1  0.16756725  0.58271816  0.67321167  1
  Cu+  Cu74  1  0.66937402  0.08322375  0.67865286  1
  Cu+  Cu75  1  0.66790585  0.58456344  0.67581684  1
  Cu+  Cu76  1  0.41364794  0.33102069  0.67688749  1
  Cu+  Cu77  1  0.41400643  0.83186363  0.67200969  1
  Cu+  Cu78  1  0.91642634  0.33093055  0.67312204  1
  Cu+  Cu79  1  0.91609547  0.82958720  0.67905524  1
  Cu+  Cu80  1  0.41535874  0.08494519  0.67654629  1
  Cu+  Cu81  1  0.41551517  0.58269196  0.67364549  1
  Cu+  Cu82  1  0.91710318  0.08153827  0.67613284  1
  Cu+  Cu83  1  0.91897890  0.58327978  0.67735211  1
  Cu+  Cu84  1  0.00466721  0.25008822  0.01008723  1
  Cu+  Cu85  1  0.00058695  0.75005847  0.01095663  1
  Cu+  Cu86  1  0.50417635  0.25184826  0.00603162  1
  Cu+  Cu87  1  0.50665333  0.75137867  0.00611334  1
  Cu+  Cu88  1  0.25297721  0.49855335  0.00950063  1
  Cu+  Cu89  1  0.24877654  0.99722091  0.01263597  1
  Cu+  Cu90  1  0.75177909  0.49802956  0.00836203  1
  Cu+  Cu91  1  0.75326556  0.99751844  0.00758761  1
  Cu+  Cu92  1  0.24976463  0.25408285  0.01326728  1
  Cu+  Cu93  1  0.25081456  0.75342135  0.01385883  1
  Cu+  Cu94  1  0.74832267  0.24963417  0.01237468  1
  Cu+  Cu95  1  0.75168430  0.75090084  0.00840435  1
  Cu+  Cu96  1  0.33478296  0.41928438  0.34653334  1
  Cu+  Cu97  1  0.33154890  0.91808397  0.34156162  1
  Cu+  Cu98  1  0.83077835  0.41702802  0.34175476  1
  Cu+  Cu99  1  0.83612426  0.92206588  0.34846166  1
  Cu+  Cu100  1  0.08283272  0.16614200  0.34823364  1
  Cu+  Cu101  1  0.07916430  0.66364634  0.34604322  1
  Cu+  Cu102  1  0.58122518  0.16773221  0.33927132  1
  Cu+  Cu103  1  0.58129472  0.66569453  0.34631225  1
  Cu+  Cu104  1  0.07937707  0.41942469  0.33831480  1
  Cu+  Cu105  1  0.08277194  0.91970820  0.34366914  1
  Cu+  Cu106  1  0.58023464  0.41843557  0.34064000  1
  Cu+  Cu107  1  0.58024812  0.92311762  0.34108573  1
  Cu+  Cu108  1  -0.00289888  -0.00293518  0.11750490  1
  Cu+  Cu109  1  0.00292548  0.49692320  0.11371479  1
  Cu+  Cu110  1  0.50409335  -0.00220110  0.11139572  1
  Cu+  Cu111  1  0.50567472  0.50124115  0.11627874  1
  Cu+  Cu112  1  0.33660174  0.16313629  0.44757125  1
  Cu+  Cu113  1  0.33245581  0.66915362  0.44026512  1
  Cu+  Cu114  1  0.83481725  0.17377629  0.44474316  1
  Cu+  Cu115  1  0.83408434  0.66435481  0.44616312  1
  Cu+  Cu116  1  0.16619752  0.33414339  0.78444821  1
  Cu+  Cu117  1  0.16990203  0.83424136  0.78435766  1
  Cu+  Cu118  1  0.66582002  0.33534179  0.78173890  1
  Cu+  Cu119  1  0.66144097  0.83059748  0.77862021  1
  Te2-  Te120  1  0.00127373  0.00061222  0.39285143  1
  Te2-  Te121  1  -0.00525309  0.49648515  0.38767086  1
  Te2-  Te122  1  0.49613582  0.00406758  0.38586079  1
  Te2-  Te123  1  0.50055528  0.50060948  0.39129917  1
  Te2-  Te124  1  0.33341563  0.16701528  0.72193981  1
  Te2-  Te125  1  0.33343183  0.66666229  0.71532816  1
  Te2-  Te126  1  0.83691567  0.16679167  0.71940181  1
  Te2-  Te127  1  0.83252080  0.66220854  0.72111523  1
  Te2-  Te128  1  0.16680608  0.33648186  0.05825634  1
  Te2-  Te129  1  0.16387077  0.83240114  0.05929822  1
  Te2-  Te130  1  0.66613712  0.33465948  0.05478207  1
  Te2-  Te131  1  0.66995897  0.83360683  0.05256829  1
  Te2-  Te132  1  0.49983031  0.24656989  0.88038833  1
  Te2-  Te133  1  0.50006929  0.75142449  0.88009104  1
  Te2-  Te134  1  0.99715759  0.24725215  0.88446364  1
  Te2-  Te135  1  0.99241940  0.74091019  0.88512610  1
  Te2-  Te136  1  0.24903683  0.00210609  0.88509608  1
  Te2-  Te137  1  0.25399896  0.50478177  0.88385785  1
  Te2-  Te138  1  0.76185149  0.00709986  0.88151306  1
  Te2-  Te139  1  0.75471021  0.50353401  0.88267750  1
  Te2-  Te140  1  0.25453254  0.24688628  0.88630094  1
  Te2-  Te141  1  0.25359360  0.74784782  0.88661547  1
  Te2-  Te142  1  0.76078636  0.24781777  0.88514168  1
  Te2-  Te143  1  0.75269611  0.74101499  0.88277865  1
  Te2-  Te144  1  0.32358233  0.41602049  0.21887185  1
  Te2-  Te145  1  0.32014395  0.91269108  0.21558152  1
  Te2-  Te146  1  0.82132799  0.41618824  0.21636329  1
  Te2-  Te147  1  0.82861792  0.91673541  0.22099223  1
  Te2-  Te148  1  0.08486703  0.17639134  0.22047131  1
  Te2-  Te149  1  0.08265659  0.67480767  0.21870771  1
  Te2-  Te150  1  0.58012983  0.17514916  0.21359739  1
  Te2-  Te151  1  0.58569853  0.67188246  0.21879846  1
  Te2-  Te152  1  0.07976593  0.41543382  0.21261917  1
  Te2-  Te153  1  0.08326964  0.91469282  0.21759769  1
  Te2-  Te154  1  0.58033343  0.41363086  0.21473274  1
  Te2-  Te155  1  0.58235939  0.91758879  0.21383347  1
  Te2-  Te156  1  0.15978872  0.07777238  0.55155436  1
  Te2-  Te157  1  0.15924130  0.57377071  0.54701905  1
  Te2-  Te158  1  0.65756573  0.07840080  0.55025109  1
  Te2-  Te159  1  0.66154934  0.57828986  0.54966071  1
  Te2-  Te160  1  0.42244497  0.34035009  0.55072616  1
  Te2-  Te161  1  0.41529750  0.83884312  0.54539802  1
  Te2-  Te162  1  0.91762172  0.33256520  0.54687433  1
  Te2-  Te163  1  0.92466335  0.83862867  0.55109084  1
  Te2-  Te164  1  0.41908093  0.08136023  0.55050941  1
  Te2-  Te165  1  0.42332847  0.58031320  0.54688692  1
  Te2-  Te166  1  0.92078945  0.07605940  0.54932967  1
  Te2-  Te167  1  0.91820448  0.57567081  0.55095127  1
  Te2-  Te168  1  -0.00037916  -0.00045685  0.88350941  1
  Te2-  Te169  1  0.00161021  0.49938217  0.88262673  1
  Te2-  Te170  1  0.50181052  0.00011179  0.88344808  1
  Te2-  Te171  1  0.50130707  0.50078011  0.88219219  1
  Te2-  Te172  1  0.33450546  0.16734099  0.21523464  1
  Te2-  Te173  1  0.33344900  0.66722753  0.21630354  1
  Te2-  Te174  1  0.83116715  0.16712820  0.21762102  1
  Te2-  Te175  1  0.83316768  0.66716267  0.21768288  1
  Te2-  Te176  1  0.16766281  0.33446988  0.54726674  1
  Te2-  Te177  1  0.16824921  0.83326946  0.54977432  1
  Te2-  Te178  1  0.66666770  0.33249159  0.54862292  1
  Te2-  Te179  1  0.66677189  0.83275212  0.54789984  1
  Te2-  Te180  1  0.32653649  0.41370385  0.71300671  1
  Te2-  Te181  1  0.33009077  0.91536092  0.71395930  1
  Te2-  Te182  1  0.82841424  0.41216213  0.71145400  1
  Te2-  Te183  1  0.82549566  0.91164995  0.70950127  1
  Te2-  Te184  1  0.08569053  0.17105452  0.71435623  1
  Te2-  Te185  1  0.08867008  0.67241615  0.71285693  1
  Te2-  Te186  1  0.58671520  0.17352141  0.71065981  1
  Te2-  Te187  1  0.58542687  0.67186298  0.71000074  1
  Te2-  Te188  1  0.08615096  0.41291600  0.71184419  1
  Te2-  Te189  1  0.08871200  0.91441875  0.71260361  1
  Te2-  Te190  1  0.58531890  0.41402415  0.71187064  1
  Te2-  Te191  1  0.58365373  0.91085047  0.70926741  1
  Te2-  Te192  1  0.15859679  0.08024019  0.04374441  1
  Te2-  Te193  1  0.16254690  0.57982791  0.04376028  1
  Te2-  Te194  1  0.66215085  0.07712948  0.04277157  1
  Te2-  Te195  1  0.66403383  0.58088835  0.04586917  1
  Te2-  Te196  1  0.42301790  0.34061977  0.04275894  1
  Te2-  Te197  1  0.42402059  0.83952775  0.04215189  1
  Te2-  Te198  1  0.92148749  0.33852632  0.04385382  1
  Te2-  Te199  1  0.92013830  0.83927272  0.04711092  1
  Te2-  Te200  1  0.42175003  0.08210592  0.04035838  1
  Te2-  Te201  1  0.42258197  0.58260077  0.04602851  1
  Te2-  Te202  1  0.92100033  0.08138672  0.04833383  1
  Te2-  Te203  1  0.92104872  0.57968450  0.04587601  1
  Te2-  Te204  1  0.49313956  0.24863001  0.37763396  1
  Te2-  Te205  1  0.49254789  0.75046820  0.37081522  1
  Te2-  Te206  1  0.99347425  0.25013892  0.37453025  1
  Te2-  Te207  1  0.99182375  0.74896448  0.37717236  1
  Te2-  Te208  1  0.25129946  0.00567645  0.37945072  1
  Te2-  Te209  1  0.24927358  0.50724735  0.37248349  1
  Te2-  Te210  1  0.75197794  0.01132579  0.37314150  1
  Te2-  Te211  1  0.75031821  0.50633050  0.37727066  1
  Te2-  Te212  1  0.25588242  0.24637603  0.37551126  1
  Te2-  Te213  1  0.25227047  0.74793022  0.37425053  1
  Te2-  Te214  1  0.75015767  0.24705172  0.37631686  1
  Te2-  Te215  1  0.75399068  0.74845157  0.37547554  1
