# generated using pymatgen
data_Ti(CuTe)4
_symmetry_space_group_name_H-M   'P 1'
_cell_length_a   16.88641847
_cell_length_b   16.88248222
_cell_length_c   20.70860745
_cell_angle_alpha   89.95123795
_cell_angle_beta   89.99858930
_cell_angle_gamma   120.00875350
_symmetry_Int_Tables_number   1
_chemical_formula_structural   Ti(CuTe)4
_chemical_formula_sum   'Ti24 Cu96 Te96'
_cell_volume   5112.30605832
_cell_formula_units_Z   24
loop_
 _symmetry_equiv_pos_site_id
 _symmetry_equiv_pos_as_xyz
  1  'x, y, z'
loop_
 _atom_type_symbol
 _atom_type_oxidation_number
  Ti4+  4.0
  Cu+  1.0
  Te2-  -2.0
loop_
 _atom_site_type_symbol
 _atom_site_label
 _atom_site_symmetry_multiplicity
 _atom_site_fract_x
 _atom_site_fract_y
 _atom_site_fract_z
 _atom_site_occupancy
  Ti4+  Ti0  1  -0.00054547  -0.00064317  0.25719073  1
  Ti4+  Ti1  1  0.00045090  0.50208539  0.25900079  1
  Ti4+  Ti2  1  0.50178611  0.00366921  0.25806787  1
  Ti4+  Ti3  1  0.49908621  0.50041755  0.25502214  1
  Ti4+  Ti4  1  0.33584548  0.16577806  0.59175035  1
  Ti4+  Ti5  1  0.33258974  0.66757903  0.58979048  1
  Ti4+  Ti6  1  0.83742533  0.16856230  0.59054731  1
  Ti4+  Ti7  1  0.83475836  0.66991759  0.59450285  1
  Ti4+  Ti8  1  0.16413948  0.32825294  0.92327282  1
  Ti4+  Ti9  1  0.16617194  0.82882341  0.92591354  1
  Ti4+  Ti10  1  0.66605978  0.33494832  0.92335164  1
  Ti4+  Ti11  1  0.66425471  0.83346345  0.92325140  1
  Ti4+  Ti12  1  0.00012447  0.00175023  0.75641424  1
  Ti4+  Ti13  1  0.00060325  0.50183109  0.75530064  1
  Ti4+  Ti14  1  0.50005543  -0.00233589  0.75578108  1
  Ti4+  Ti15  1  0.49950730  0.49748019  0.75435875  1
  Ti4+  Ti16  1  0.33312737  0.16595765  0.08760348  1
  Ti4+  Ti17  1  0.33148982  0.66369710  0.08926924  1
  Ti4+  Ti18  1  0.83133020  0.16471861  0.08935431  1
  Ti4+  Ti19  1  0.83303434  0.66670251  0.08894352  1
  Ti4+  Ti20  1  0.16466313  0.33360621  0.42226630  1
  Ti4+  Ti21  1  0.16963151  0.83492113  0.42277204  1
  Ti4+  Ti22  1  0.66577565  0.33466075  0.42304935  1
  Ti4+  Ti23  1  0.66893267  0.83363455  0.42350982  1
  Cu+  Cu24  1  0.40205778  0.80558486  0.80592666  1
  Cu+  Cu25  1  0.40390382  0.30811567  0.80729078  1
  Cu+  Cu26  1  0.52180159  0.26152178  0.14032918  1
  Cu+  Cu27  1  0.02079941  0.76033357  0.14357807  1
  Cu+  Cu28  1  0.90273913  0.09494457  0.80697111  1
  Cu+  Cu29  1  0.73792693  0.76242840  0.13884546  1
  Cu+  Cu30  1  0.07122321  0.42968174  0.47428716  1
  Cu+  Cu31  1  0.23936873  0.26008234  0.14013793  1
  Cu+  Cu32  1  0.86042156  0.92911899  0.47522432  1
  Cu+  Cu33  1  0.91061531  0.59545998  0.81017512  1
  Cu+  Cu34  1  0.36046075  0.93115543  0.47328686  1
  Cu+  Cu35  1  0.67955282  0.59220702  0.81163520  1
  Cu+  Cu36  1  0.16272470  0.08414894  0.16905268  1
  Cu+  Cu37  1  0.16305069  0.58009869  0.17209451  1
  Cu+  Cu38  1  0.66302391  0.08402458  0.17115792  1
  Cu+  Cu39  1  0.66299734  0.58642502  0.16876630  1
  Cu+  Cu40  1  0.41793604  0.33564785  0.16768231  1
  Cu+  Cu41  1  0.41528766  0.83468497  0.17351606  1
  Cu+  Cu42  1  0.91614994  0.33430051  0.17324095  1
  Cu+  Cu43  1  0.91625990  0.83462458  0.17009828  1
  Cu+  Cu44  1  0.42292237  0.08603305  0.17031973  1
  Cu+  Cu45  1  0.41790319  0.58081125  0.16916868  1
  Cu+  Cu46  1  0.91495256  0.07874664  0.17092607  1
  Cu+  Cu47  1  0.92303932  0.58579880  0.17148628  1
  Cu+  Cu48  1  0.49664390  0.25011060  0.50507455  1
  Cu+  Cu49  1  0.49768942  0.74958834  0.50463959  1
  Cu+  Cu50  1  0.99720171  0.25236174  0.50339530  1
  Cu+  Cu51  1  0.99778396  0.74838859  0.50641945  1
  Cu+  Cu52  1  0.25778054  0.00316004  0.50481019  1
  Cu+  Cu53  1  0.24496341  0.50239704  0.50385663  1
  Cu+  Cu54  1  0.75957719  0.00220899  0.50483163  1
  Cu+  Cu55  1  0.75083753  0.50343121  0.50792905  1
  Cu+  Cu56  1  0.25241618  0.24916774  0.50640561  1
  Cu+  Cu57  1  0.25861516  0.75512586  0.50267384  1
  Cu+  Cu58  1  0.75143362  0.24994760  0.50439370  1
  Cu+  Cu59  1  0.75655438  0.75360073  0.50715386  1
  Cu+  Cu60  1  0.32896112  0.40657055  0.83667437  1
  Cu+  Cu61  1  0.33182469  0.90736656  0.83871419  1
  Cu+  Cu62  1  0.83134212  0.42015275  0.83619761  1
  Cu+  Cu63  1  0.82994844  0.92046130  0.83716852  1
  Cu+  Cu64  1  0.07976743  0.16871588  0.83680131  1
  Cu+  Cu65  1  0.08303818  0.67050085  0.83838675  1
  Cu+  Cu66  1  0.58473311  0.16889374  0.83736211  1
  Cu+  Cu67  1  0.58607632  0.67112161  0.83635067  1
  Cu+  Cu68  1  0.08423925  0.41339887  0.83682723  1
  Cu+  Cu69  1  0.08411215  0.91428720  0.84001482  1
  Cu+  Cu70  1  0.58289006  0.41231358  0.83509898  1
  Cu+  Cu71  1  0.57865425  0.90933594  0.83598450  1
  Cu+  Cu72  1  0.17149411  0.08465605  0.67472452  1
  Cu+  Cu73  1  0.16733404  0.58624590  0.67375442  1
  Cu+  Cu74  1  0.67189469  0.08416324  0.67337336  1
  Cu+  Cu75  1  0.66996596  0.58496244  0.68049550  1
  Cu+  Cu76  1  0.41503843  0.32740520  0.67905056  1
  Cu+  Cu77  1  0.41536724  0.82951418  0.67860520  1
  Cu+  Cu78  1  0.91878902  0.33383598  0.67533706  1
  Cu+  Cu79  1  0.91686683  0.83403048  0.67744754  1
  Cu+  Cu80  1  0.41798058  0.08275000  0.67512725  1
  Cu+  Cu81  1  0.41349698  0.58270302  0.67193882  1
  Cu+  Cu82  1  0.91872329  0.08752202  0.67830216  1
  Cu+  Cu83  1  0.91507956  0.58697725  0.68130088  1
  Cu+  Cu84  1  -0.00136613  0.24642350  0.00902093  1
  Cu+  Cu85  1  0.00243243  0.74887668  0.01466191  1
  Cu+  Cu86  1  0.50170708  0.25025773  0.01131098  1
  Cu+  Cu87  1  0.49904785  0.74890310  0.00863521  1
  Cu+  Cu88  1  0.24734252  0.49328983  0.00721219  1
  Cu+  Cu89  1  0.24854929  0.99289846  0.00805132  1
  Cu+  Cu90  1  0.74816852  0.49893448  0.00867502  1
  Cu+  Cu91  1  0.74687262  0.99882802  0.00797742  1
  Cu+  Cu92  1  0.24525413  0.24620739  0.01031159  1
  Cu+  Cu93  1  0.24625274  0.74502483  0.00980659  1
  Cu+  Cu94  1  0.74826820  0.25123361  0.00769385  1
  Cu+  Cu95  1  0.74710618  0.75201447  0.01060704  1
  Cu+  Cu96  1  0.33393255  0.41622586  0.33979585  1
  Cu+  Cu97  1  0.33969255  0.92149455  0.34480107  1
  Cu+  Cu98  1  0.83554514  0.42057462  0.34188094  1
  Cu+  Cu99  1  0.83677232  0.91495918  0.34631489  1
  Cu+  Cu100  1  0.08210992  0.16556460  0.34176373  1
  Cu+  Cu101  1  0.08456662  0.66731512  0.34285819  1
  Cu+  Cu102  1  0.58156917  0.16844591  0.34276475  1
  Cu+  Cu103  1  0.58295103  0.66489031  0.34161020  1
  Cu+  Cu104  1  0.07924229  0.41818642  0.34610675  1
  Cu+  Cu105  1  0.08257084  0.91613342  0.34193918  1
  Cu+  Cu106  1  0.58153784  0.41852010  0.33991913  1
  Cu+  Cu107  1  0.58280463  0.91852976  0.34117996  1
  Cu+  Cu108  1  -0.00058973  -0.00001613  0.11293084  1
  Cu+  Cu109  1  -0.00282857  0.49454531  0.11642303  1
  Cu+  Cu110  1  0.49879196  -0.00505135  0.11552016  1
  Cu+  Cu111  1  0.49948483  0.49916882  0.11040852  1
  Cu+  Cu112  1  0.33008490  0.16742048  0.44848012  1
  Cu+  Cu113  1  0.33654939  0.66509458  0.44647971  1
  Cu+  Cu114  1  0.82741087  0.16428552  0.44760105  1
  Cu+  Cu115  1  0.83342517  0.66448629  0.45157873  1
  Cu+  Cu116  1  0.16794399  0.33696812  0.77919764  1
  Cu+  Cu117  1  0.16932219  0.83926268  0.78359429  1
  Cu+  Cu118  1  0.66822048  0.32898062  0.77954457  1
  Cu+  Cu119  1  0.66663363  0.83264473  0.77892825  1
  Te2-  Te120  1  0.00408995  0.00157972  0.38746025  1
  Te2-  Te121  1  -0.00153276  0.50383451  0.38955785  1
  Te2-  Te122  1  0.50592071  0.00446462  0.38864416  1
  Te2-  Te123  1  0.49836209  0.49970613  0.38376527  1
  Te2-  Te124  1  0.33365114  0.16135454  0.72276093  1
  Te2-  Te125  1  0.33060771  0.66198332  0.72042434  1
  Te2-  Te126  1  0.83427508  0.16990750  0.72112632  1
  Te2-  Te127  1  0.83448649  0.67185699  0.72692224  1
  Te2-  Te128  1  0.16293439  0.32998809  0.05368385  1
  Te2-  Te129  1  0.16905899  0.83106247  0.05652946  1
  Te2-  Te130  1  0.66849767  0.33507333  0.05367942  1
  Te2-  Te131  1  0.66331038  0.83483033  0.05346036  1
  Te2-  Te132  1  0.49256745  0.24424438  0.88382056  1
  Te2-  Te133  1  0.49052992  0.74121100  0.88259690  1
  Te2-  Te134  1  0.98974098  0.24666752  0.88318305  1
  Te2-  Te135  1  0.99194383  0.74744142  0.88733196  1
  Te2-  Te136  1  0.25352859  -0.00131929  0.88201623  1
  Te2-  Te137  1  0.25237152  0.49869515  0.88097153  1
  Te2-  Te138  1  0.74667919  0.00639454  0.88193949  1
  Te2-  Te139  1  0.75326621  0.51118249  0.88309647  1
  Te2-  Te140  1  0.24763127  0.23780492  0.88330134  1
  Te2-  Te141  1  0.24888672  0.73803993  0.88394883  1
  Te2-  Te142  1  0.75299931  0.25219160  0.88144480  1
  Te2-  Te143  1  0.75580242  0.75206062  0.88347104  1
  Te2-  Te144  1  0.32548533  0.41348141  0.21410525  1
  Te2-  Te145  1  0.33046956  0.91870271  0.21763890  1
  Te2-  Te146  1  0.82980362  0.41770370  0.21574671  1
  Te2-  Te147  1  0.82578451  0.91240727  0.21861288  1
  Te2-  Te148  1  0.08301218  0.17275058  0.21564988  1
  Te2-  Te149  1  0.09198848  0.67642878  0.21724991  1
  Te2-  Te150  1  0.59070334  0.17847477  0.21711109  1
  Te2-  Te151  1  0.58451195  0.67546445  0.21571087  1
  Te2-  Te152  1  0.08375847  0.41368838  0.21912936  1
  Te2-  Te153  1  0.08813285  0.91579219  0.21556485  1
  Te2-  Te154  1  0.58884201  0.41745848  0.21356190  1
  Te2-  Te155  1  0.58503870  0.91593618  0.21530394  1
  Te2-  Te156  1  0.16517248  0.07965612  0.54871927  1
  Te2-  Te157  1  0.15947075  0.58687469  0.54801266  1
  Te2-  Te158  1  0.66785633  0.08064371  0.54715946  1
  Te2-  Te159  1  0.66429423  0.58502968  0.55291582  1
  Te2-  Te160  1  0.41931040  0.33832496  0.55259758  1
  Te2-  Te161  1  0.42467862  0.84256640  0.55190557  1
  Te2-  Te162  1  0.91920717  0.34263536  0.54975695  1
  Te2-  Te163  1  0.92595064  0.84373831  0.55168073  1
  Te2-  Te164  1  0.42684532  0.08282792  0.54976539  1
  Te2-  Te165  1  0.41490190  0.57995094  0.54613251  1
  Te2-  Te166  1  0.92825402  0.08542073  0.55115635  1
  Te2-  Te167  1  0.91857876  0.58232974  0.55404486  1
  Te2-  Te168  1  -0.00069023  -0.00079363  0.88323131  1
  Te2-  Te169  1  0.00060939  0.49911686  0.88218565  1
  Te2-  Te170  1  0.50125718  0.00022956  0.88263341  1
  Te2-  Te171  1  0.49958096  0.49975229  0.88180471  1
  Te2-  Te172  1  0.33232047  0.16605237  0.21492368  1
  Te2-  Te173  1  0.33298946  0.66477498  0.21559867  1
  Te2-  Te174  1  0.83188649  0.16519449  0.21575197  1
  Te2-  Te175  1  0.83204947  0.66490471  0.21622741  1
  Te2-  Te176  1  0.16675388  0.33313445  0.54912091  1
  Te2-  Te177  1  0.16807058  0.83345060  0.54953665  1
  Te2-  Te178  1  0.66643950  0.33362270  0.54943045  1
  Te2-  Te179  1  0.66624002  0.83320604  0.55036708  1
  Te2-  Te180  1  0.32694843  0.41279815  0.70923672  1
  Te2-  Te181  1  0.32725091  0.91318867  0.71134018  1
  Te2-  Te182  1  0.82784241  0.41330412  0.70949939  1
  Te2-  Te183  1  0.82744536  0.91479100  0.71033262  1
  Te2-  Te184  1  0.09082947  0.17407768  0.71055448  1
  Te2-  Te185  1  0.08812755  0.67588957  0.71174092  1
  Te2-  Te186  1  0.58772545  0.16975014  0.71076097  1
  Te2-  Te187  1  0.58307384  0.67138536  0.70935847  1
  Te2-  Te188  1  0.08773199  0.41654126  0.71047235  1
  Te2-  Te189  1  0.08658879  0.91533894  0.71326971  1
  Te2-  Te190  1  0.58800494  0.41168189  0.70855227  1
  Te2-  Te191  1  0.58834707  0.91419918  0.70932437  1
  Te2-  Te192  1  0.15955266  0.07427021  0.04253453  1
  Te2-  Te193  1  0.15933652  0.57515267  0.04578434  1
  Te2-  Te194  1  0.65968969  0.08139363  0.04472736  1
  Te2-  Te195  1  0.65963349  0.57984343  0.04214999  1
  Te2-  Te196  1  0.41803246  0.33913143  0.04012322  1
  Te2-  Te197  1  0.41637406  0.83578873  0.04606089  1
  Te2-  Te198  1  0.91789975  0.33621902  0.04568902  1
  Te2-  Te199  1  0.91960356  0.83993487  0.04259763  1
  Te2-  Te200  1  0.41853171  0.07749408  0.04363029  1
  Te2-  Te201  1  0.41742975  0.57848572  0.04306699  1
  Te2-  Te202  1  0.91598551  0.07713906  0.04475294  1
  Te2-  Te203  1  0.91728898  0.57644780  0.04481756  1
  Te2-  Te204  1  0.49357985  0.24966208  0.37898990  1
  Te2-  Te205  1  0.49717416  0.74908044  0.37820299  1
  Te2-  Te206  1  0.99157211  0.24504243  0.37715295  1
  Te2-  Te207  1  0.99568921  0.74760634  0.38027391  1
  Te2-  Te208  1  0.25314538  0.00744548  0.37740590  1
  Te2-  Te209  1  0.25278815  0.50540693  0.37636385  1
  Te2-  Te210  1  0.75347473  0.00521978  0.37713173  1
  Te2-  Te211  1  0.75136162  0.50613844  0.38000630  1
  Te2-  Te212  1  0.25150932  0.24790009  0.37904720  1
  Te2-  Te213  1  0.25551282  0.74831688  0.37644463  1
  Te2-  Te214  1  0.75245566  0.25003649  0.37789235  1
  Te2-  Te215  1  0.75201727  0.74362390  0.37985357  1
