# generated using pymatgen
data_Ti(CuTe)4
_symmetry_space_group_name_H-M   'P 1'
_cell_length_a   16.87409788
_cell_length_b   16.87250790
_cell_length_c   20.68092959
_cell_angle_alpha   90.00987143
_cell_angle_beta   89.97453286
_cell_angle_gamma   119.99480015
_symmetry_Int_Tables_number   1
_chemical_formula_structural   Ti(CuTe)4
_chemical_formula_sum   'Ti24 Cu96 Te96'
_cell_volume   5099.45309834
_cell_formula_units_Z   24
loop_
 _symmetry_equiv_pos_site_id
 _symmetry_equiv_pos_as_xyz
  1  'x, y, z'
loop_
 _atom_type_symbol
 _atom_type_oxidation_number
  Ti4+  4.0
  Cu+  1.0
  Te2-  -2.0
loop_
 _atom_site_type_symbol
 _atom_site_label
 _atom_site_symmetry_multiplicity
 _atom_site_fract_x
 _atom_site_fract_y
 _atom_site_fract_z
 _atom_site_occupancy
  Ti4+  Ti0  1  0.00093639  -0.00334860  0.25316997  1
  Ti4+  Ti1  1  0.00100142  0.50001231  0.26120202  1
  Ti4+  Ti2  1  0.50139972  0.00155237  0.25601874  1
  Ti4+  Ti3  1  0.50199620  0.49969300  0.26339984  1
  Ti4+  Ti4  1  0.33353920  0.16536043  0.58943140  1
  Ti4+  Ti5  1  0.33321544  0.66617630  0.59122133  1
  Ti4+  Ti6  1  0.83364312  0.16899815  0.58607470  1
  Ti4+  Ti7  1  0.83218683  0.66553609  0.59473093  1
  Ti4+  Ti8  1  0.16548460  0.33339986  0.92456481  1
  Ti4+  Ti9  1  0.16627921  0.83098137  0.92627404  1
  Ti4+  Ti10  1  0.66743668  0.33725913  0.92693178  1
  Ti4+  Ti11  1  0.66260025  0.83219426  0.92301061  1
  Ti4+  Ti12  1  0.00034904  0.00124654  0.75443287  1
  Ti4+  Ti13  1  -0.00139791  0.50033253  0.75577845  1
  Ti4+  Ti14  1  0.49868212  -0.00177425  0.75696594  1
  Ti4+  Ti15  1  0.50032828  0.50018834  0.75497700  1
  Ti4+  Ti16  1  0.33468987  0.16717302  0.08726562  1
  Ti4+  Ti17  1  0.33200600  0.66564638  0.09167398  1
  Ti4+  Ti18  1  0.83219117  0.16665812  0.08759762  1
  Ti4+  Ti19  1  0.83307412  0.66789321  0.09090789  1
  Ti4+  Ti20  1  0.16674544  0.33412252  0.41765699  1
  Ti4+  Ti21  1  0.16707764  0.83355770  0.42411582  1
  Ti4+  Ti22  1  0.66629425  0.33071806  0.41936061  1
  Ti4+  Ti23  1  0.66689389  0.83306286  0.42115833  1
  Cu+  Cu24  1  0.01847247  0.75261147  0.14276211  1
  Cu+  Cu25  1  0.34226192  0.42074378  0.47919515  1
  Cu+  Cu26  1  0.24850486  0.98457432  0.14025710  1
  Cu+  Cu27  1  0.91041685  0.59569386  0.81278088  1
  Cu+  Cu28  1  0.67994180  0.59316409  0.81505499  1
  Cu+  Cu29  1  0.57232318  0.14475579  0.47198657  1
  Cu+  Cu30  1  0.57784427  0.65495005  0.48092024  1
  Cu+  Cu31  1  0.52390407  0.26422942  0.14293479  1
  Cu+  Cu32  1  0.58166060  0.41803888  0.48556271  1
  Cu+  Cu33  1  0.40051104  0.80500705  0.80660399  1
  Cu+  Cu34  1  0.07961211  0.42917515  0.47522849  1
  Cu+  Cu35  1  0.84473413  0.42734075  0.47806100  1
  Cu+  Cu36  1  0.16225688  0.07443904  0.16534211  1
  Cu+  Cu37  1  0.16457382  0.58008379  0.17417177  1
  Cu+  Cu38  1  0.66425096  0.08346432  0.16904258  1
  Cu+  Cu39  1  0.66328859  0.58281037  0.17589303  1
  Cu+  Cu40  1  0.42390323  0.33683433  0.17388114  1
  Cu+  Cu41  1  0.41807732  0.83497126  0.17096110  1
  Cu+  Cu42  1  0.91766377  0.33522919  0.17432655  1
  Cu+  Cu43  1  0.92359944  0.83574667  0.16777259  1
  Cu+  Cu44  1  0.42252004  0.08464130  0.16856677  1
  Cu+  Cu45  1  0.41828325  0.58298155  0.17679883  1
  Cu+  Cu46  1  0.91634452  0.07928086  0.16805384  1
  Cu+  Cu47  1  0.91973131  0.58283681  0.17558011  1
  Cu+  Cu48  1  0.49249924  0.24155463  0.49890041  1
  Cu+  Cu49  1  0.49831169  0.74971026  0.50384642  1
  Cu+  Cu50  1  0.99641869  0.25284718  0.49699900  1
  Cu+  Cu51  1  0.99931006  0.74807568  0.50769840  1
  Cu+  Cu52  1  0.25162120  0.00276139  0.50410013  1
  Cu+  Cu53  1  0.25264968  0.50682329  0.50039196  1
  Cu+  Cu54  1  0.75238119  0.00517585  0.49988559  1
  Cu+  Cu55  1  0.75574672  0.51057571  0.50410891  1
  Cu+  Cu56  1  0.25088695  0.24743271  0.49961293  1
  Cu+  Cu57  1  0.25395177  0.75167068  0.50566219  1
  Cu+  Cu58  1  0.75257934  0.24665665  0.49657049  1
  Cu+  Cu59  1  0.74931003  0.74833377  0.50549172  1
  Cu+  Cu60  1  0.32790472  0.41529940  0.83809892  1
  Cu+  Cu61  1  0.33137487  0.90963562  0.84004045  1
  Cu+  Cu62  1  0.83040900  0.42074705  0.83834700  1
  Cu+  Cu63  1  0.83010574  0.91726741  0.83557708  1
  Cu+  Cu64  1  0.08438540  0.17085467  0.83753267  1
  Cu+  Cu65  1  0.08296020  0.67071700  0.83801217  1
  Cu+  Cu66  1  0.58328192  0.17071708  0.84150102  1
  Cu+  Cu67  1  0.58589783  0.67297574  0.83539864  1
  Cu+  Cu68  1  0.08565551  0.41510366  0.83805848  1
  Cu+  Cu69  1  0.08432134  0.91635476  0.83919160  1
  Cu+  Cu70  1  0.58712974  0.41768880  0.83880183  1
  Cu+  Cu71  1  0.57613729  0.90875466  0.83675309  1
  Cu+  Cu72  1  0.16883926  0.08452625  0.67300339  1
  Cu+  Cu73  1  0.16586184  0.58278126  0.67583391  1
  Cu+  Cu74  1  0.66784284  0.08646315  0.67191236  1
  Cu+  Cu75  1  0.66757284  0.58199020  0.68464227  1
  Cu+  Cu76  1  0.41532202  0.33015682  0.67524513  1
  Cu+  Cu77  1  0.41400023  0.82824865  0.67880863  1
  Cu+  Cu78  1  0.91527368  0.33274392  0.67285259  1
  Cu+  Cu79  1  0.91659282  0.83281192  0.67613772  1
  Cu+  Cu80  1  0.41657584  0.08400056  0.67471974  1
  Cu+  Cu81  1  0.41558123  0.58195712  0.67670532  1
  Cu+  Cu82  1  0.91727105  0.08704826  0.66909928  1
  Cu+  Cu83  1  0.91354127  0.58318414  0.68370496  1
  Cu+  Cu84  1  0.00215539  0.25249716  0.00676599  1
  Cu+  Cu85  1  0.00078689  0.75037180  0.01487626  1
  Cu+  Cu86  1  0.50474964  0.25601043  0.01380380  1
  Cu+  Cu87  1  0.49886762  0.74829887  0.00824245  1
  Cu+  Cu88  1  0.24781152  0.49578494  0.00911025  1
  Cu+  Cu89  1  0.24934569  0.99700317  0.01124904  1
  Cu+  Cu90  1  0.74788599  0.50170644  0.01389810  1
  Cu+  Cu91  1  0.74474470  0.99682069  0.00442836  1
  Cu+  Cu92  1  0.24890467  0.25411906  0.00708796  1
  Cu+  Cu93  1  0.24726798  0.74670160  0.01069061  1
  Cu+  Cu94  1  0.74966552  0.25372159  0.00862916  1
  Cu+  Cu95  1  0.74454326  0.74984399  0.00873642  1
  Cu+  Cu96  1  0.33703968  0.41747539  0.34760704  1
  Cu+  Cu97  1  0.33540814  0.91913441  0.34097271  1
  Cu+  Cu98  1  0.83750404  0.41798754  0.34740736  1
  Cu+  Cu99  1  0.83662487  0.91561536  0.33630492  1
  Cu+  Cu100  1  0.08132804  0.16039103  0.33377959  1
  Cu+  Cu101  1  0.08387000  0.66623127  0.34480481  1
  Cu+  Cu102  1  0.58071318  0.16286592  0.34330562  1
  Cu+  Cu103  1  0.58167275  0.66321457  0.35028218  1
  Cu+  Cu104  1  0.08161421  0.41803914  0.34659691  1
  Cu+  Cu105  1  0.08171922  0.91491065  0.34110851  1
  Cu+  Cu106  1  0.58388805  0.41691439  0.35090470  1
  Cu+  Cu107  1  0.58323525  0.91808411  0.33845131  1
  Cu+  Cu108  1  -0.00315059  0.00182643  0.10886762  1
  Cu+  Cu109  1  -0.00046539  0.49679388  0.11912657  1
  Cu+  Cu110  1  0.50200040  -0.00377853  0.11213517  1
  Cu+  Cu111  1  0.49714958  0.50179026  0.12104042  1
  Cu+  Cu112  1  0.32612888  0.16158153  0.44320588  1
  Cu+  Cu113  1  0.33602312  0.67318875  0.44670900  1
  Cu+  Cu114  1  0.83516046  0.16191744  0.43869727  1
  Cu+  Cu115  1  0.84046474  0.67886438  0.45098518  1
  Cu+  Cu116  1  0.16526156  0.33212028  0.78088512  1
  Cu+  Cu117  1  0.16917671  0.83923823  0.78332184  1
  Cu+  Cu118  1  0.66547900  0.32852609  0.78370149  1
  Cu+  Cu119  1  0.67078853  0.84195734  0.77835196  1
  Te2-  Te120  1  -0.00014361  -0.00154213  0.38232017  1
  Te2-  Te121  1  0.00206759  0.50346911  0.39325659  1
  Te2-  Te122  1  0.49917976  -0.00307665  0.38657138  1
  Te2-  Te123  1  0.50072402  0.49856277  0.39685104  1
  Te2-  Te124  1  0.33302890  0.16526878  0.71795692  1
  Te2-  Te125  1  0.33017555  0.66129312  0.72134930  1
  Te2-  Te126  1  0.83309680  0.16720142  0.71446185  1
  Te2-  Te127  1  0.83396054  0.66998146  0.72628610  1
  Te2-  Te128  1  0.16466681  0.33224814  0.05426773  1
  Te2-  Te129  1  0.16807645  0.83129410  0.05772899  1
  Te2-  Te130  1  0.67052097  0.33725739  0.05789646  1
  Te2-  Te131  1  0.66346149  0.83366930  0.05164361  1
  Te2-  Te132  1  0.49663592  0.25185706  0.88619380  1
  Te2-  Te133  1  0.48818406  0.74018344  0.88255137  1
  Te2-  Te134  1  0.99370885  0.24793855  0.88112707  1
  Te2-  Te135  1  0.99322507  0.74971272  0.88694068  1
  Te2-  Te136  1  0.25289833  0.00085334  0.88333351  1
  Te2-  Te137  1  0.25224358  0.50609727  0.88333903  1
  Te2-  Te138  1  0.74610222  0.00186743  0.87811132  1
  Te2-  Te139  1  0.75579910  0.51418643  0.88741856  1
  Te2-  Te140  1  0.25227955  0.24813471  0.88147446  1
  Te2-  Te141  1  0.24859854  0.74017566  0.88485783  1
  Te2-  Te142  1  0.75282814  0.25305601  0.88262155  1
  Te2-  Te143  1  0.75512236  0.75053207  0.88271453  1
  Te2-  Te144  1  0.33285276  0.41363809  0.21966557  1
  Te2-  Te145  1  0.32848899  0.91291633  0.21511894  1
  Te2-  Te146  1  0.83037672  0.41554773  0.21980054  1
  Te2-  Te147  1  0.82994610  0.91059946  0.21064550  1
  Te2-  Te148  1  0.08631024  0.16681917  0.20821693  1
  Te2-  Te149  1  0.09110076  0.67354946  0.21918476  1
  Te2-  Te150  1  0.59036544  0.17544918  0.21603145  1
  Te2-  Te151  1  0.58533785  0.67051751  0.22282833  1
  Te2-  Te152  1  0.08524850  0.41366475  0.21922867  1
  Te2-  Te153  1  0.09106156  0.90861078  0.21531754  1
  Te2-  Te154  1  0.59242807  0.41646618  0.22216020  1
  Te2-  Te155  1  0.58630702  0.91574467  0.21276671  1
  Te2-  Te156  1  0.16278314  0.08208712  0.54677324  1
  Te2-  Te157  1  0.16089478  0.58357898  0.54962733  1
  Te2-  Te158  1  0.65931813  0.07897061  0.54582278  1
  Te2-  Te159  1  0.65676109  0.57781099  0.55560344  1
  Te2-  Te160  1  0.42115755  0.34109073  0.54908371  1
  Te2-  Te161  1  0.42040856  0.83772147  0.55126994  1
  Te2-  Te162  1  0.92134086  0.34565008  0.54681131  1
  Te2-  Te163  1  0.91675797  0.83484850  0.54993478  1
  Te2-  Te164  1  0.41869364  0.07598309  0.54866252  1
  Te2-  Te165  1  0.42064784  0.57836522  0.55048284  1
  Te2-  Te166  1  0.92082310  0.08569264  0.54285594  1
  Te2-  Te167  1  0.92146319  0.58194549  0.55555383  1
  Te2-  Te168  1  -0.00123391  0.00155386  0.88092144  1
  Te2-  Te169  1  0.00052306  0.49988539  0.88272545  1
  Te2-  Te170  1  0.50055923  0.00116591  0.88402944  1
  Te2-  Te171  1  0.49881275  0.50155672  0.88168057  1
  Te2-  Te172  1  0.33155685  0.16454392  0.21490944  1
  Te2-  Te173  1  0.33382767  0.66760695  0.21814825  1
  Te2-  Te174  1  0.83325078  0.16408396  0.21397289  1
  Te2-  Te175  1  0.83434215  0.66838322  0.21795530  1
  Te2-  Te176  1  0.16587562  0.33329339  0.54593587  1
  Te2-  Te177  1  0.16838161  0.83503158  0.55045648  1
  Te2-  Te178  1  0.66635894  0.33194765  0.54797383  1
  Te2-  Te179  1  0.66824971  0.83753886  0.54866950  1
  Te2-  Te180  1  0.32740708  0.41214742  0.71140932  1
  Te2-  Te181  1  0.32664191  0.91354736  0.71165107  1
  Te2-  Te182  1  0.82462699  0.41058716  0.71145601  1
  Te2-  Te183  1  0.82931412  0.91706844  0.70817684  1
  Te2-  Te184  1  0.08604128  0.17222153  0.70964527  1
  Te2-  Te185  1  0.08760632  0.67455087  0.71144718  1
  Te2-  Te186  1  0.58474547  0.17056136  0.71339007  1
  Te2-  Te187  1  0.58587717  0.67471689  0.70943461  1
  Te2-  Te188  1  0.08406876  0.41331135  0.71123633  1
  Te2-  Te189  1  0.08674395  0.91469921  0.71159367  1
  Te2-  Te190  1  0.58449848  0.40928820  0.71220103  1
  Te2-  Te191  1  0.58715622  0.91604282  0.70879482  1
  Te2-  Te192  1  0.16201048  0.08255122  0.03962855  1
  Te2-  Te193  1  0.15959593  0.57740747  0.04771553  1
  Te2-  Te194  1  0.66059002  0.08232085  0.04221394  1
  Te2-  Te195  1  0.65894644  0.58197744  0.04956104  1
  Te2-  Te196  1  0.41820933  0.34156136  0.04621035  1
  Te2-  Te197  1  0.41758863  0.83681113  0.04440860  1
  Te2-  Te198  1  0.91965469  0.33955412  0.04623710  1
  Te2-  Te199  1  0.91610604  0.83919287  0.04178395  1
  Te2-  Te200  1  0.42229976  0.08124919  0.04093048  1
  Te2-  Te201  1  0.41749058  0.57953046  0.04854907  1
  Te2-  Te202  1  0.91589067  0.08063164  0.04044482  1
  Te2-  Te203  1  0.91861345  0.57878156  0.04792272  1
  Te2-  Te204  1  0.49005777  0.24379646  0.37299748  1
  Te2-  Te205  1  0.49350936  0.74900318  0.37641457  1
  Te2-  Te206  1  0.99484327  0.24376289  0.37055693  1
  Te2-  Te207  1  0.99463088  0.74660122  0.38021949  1
  Te2-  Te208  1  0.25133348  0.00398659  0.37718073  1
  Te2-  Te209  1  0.25563995  0.50990265  0.37340970  1
  Te2-  Te210  1  0.75334538  0.00255915  0.37298504  1
  Te2-  Te211  1  0.75645700  0.50908264  0.37780346  1
  Te2-  Te212  1  0.25001255  0.24375497  0.37277294  1
  Te2-  Te213  1  0.25453094  0.74937818  0.37876223  1
  Te2-  Te214  1  0.75383825  0.24435251  0.37087761  1
  Te2-  Te215  1  0.75535637  0.74776723  0.37758064  1
