# generated using pymatgen
data_Ti(CuTe)4
_symmetry_space_group_name_H-M   'P 1'
_cell_length_a   16.87258615
_cell_length_b   16.86951747
_cell_length_c   20.68505616
_cell_angle_alpha   90.01163286
_cell_angle_beta   89.97455431
_cell_angle_gamma   119.99776484
_symmetry_Int_Tables_number   1
_chemical_formula_structural   Ti(CuTe)4
_chemical_formula_sum   'Ti24 Cu96 Te96'
_cell_volume   5098.95746392
_cell_formula_units_Z   24
loop_
 _symmetry_equiv_pos_site_id
 _symmetry_equiv_pos_as_xyz
  1  'x, y, z'
loop_
 _atom_type_symbol
 _atom_type_oxidation_number
  Ti4+  4.0
  Cu+  1.0
  Te2-  -2.0
loop_
 _atom_site_type_symbol
 _atom_site_label
 _atom_site_symmetry_multiplicity
 _atom_site_fract_x
 _atom_site_fract_y
 _atom_site_fract_z
 _atom_site_occupancy
  Ti4+  Ti0  1  -0.00098676  -0.00086298  0.25774213  1
  Ti4+  Ti1  1  0.00399790  0.50192025  0.25528716  1
  Ti4+  Ti2  1  0.50237911  -0.00097585  0.25789683  1
  Ti4+  Ti3  1  0.50049358  0.50080131  0.25798055  1
  Ti4+  Ti4  1  0.32911666  0.16129242  0.58952668  1
  Ti4+  Ti5  1  0.33105501  0.66210801  0.59388639  1
  Ti4+  Ti6  1  0.82929046  0.16461447  0.59378444  1
  Ti4+  Ti7  1  0.83102891  0.66668856  0.58978448  1
  Ti4+  Ti8  1  0.16748124  0.33515015  0.92613969  1
  Ti4+  Ti9  1  0.16922906  0.83371669  0.92647342  1
  Ti4+  Ti10  1  0.66623313  0.33684089  0.92164416  1
  Ti4+  Ti11  1  0.67142873  0.83783872  0.92427524  1
  Ti4+  Ti12  1  -0.00398030  -0.00104004  0.75747135  1
  Ti4+  Ti13  1  0.00098014  0.50018204  0.75561992  1
  Ti4+  Ti14  1  0.49852950  -0.00086169  0.75496580  1
  Ti4+  Ti15  1  0.50075784  0.49919976  0.75543258  1
  Ti4+  Ti16  1  0.33423083  0.16827376  0.08839109  1
  Ti4+  Ti17  1  0.33390344  0.66742422  0.08615773  1
  Ti4+  Ti18  1  0.83327218  0.16630302  0.08881862  1
  Ti4+  Ti19  1  0.83563676  0.66908398  0.08872663  1
  Ti4+  Ti20  1  0.16650696  0.33432727  0.42370345  1
  Ti4+  Ti21  1  0.16581789  0.83537646  0.42287266  1
  Ti4+  Ti22  1  0.66658937  0.33022890  0.42128787  1
  Ti4+  Ti23  1  0.66587941  0.83038589  0.42418437  1
  Cu+  Cu24  1  0.68253054  0.09669435  0.81017329  1
  Cu+  Cu25  1  0.19134977  0.59580550  0.81088812  1
  Cu+  Cu26  1  0.02086517  0.76423692  0.14177583  1
  Cu+  Cu27  1  0.01642147  0.25314284  0.14212308  1
  Cu+  Cu28  1  0.56669709  0.63779894  0.47476872  1
  Cu+  Cu29  1  0.69372098  0.59929816  0.80517536  1
  Cu+  Cu30  1  0.24878935  0.76050725  0.14497054  1
  Cu+  Cu31  1  0.06749148  0.92902704  0.47391545  1
  Cu+  Cu32  1  0.24801582  0.48774706  0.14384836  1
  Cu+  Cu33  1  0.56846118  0.13775932  0.47396024  1
  Cu+  Cu34  1  0.91185644  0.10041963  0.80978611  1
  Cu+  Cu35  1  0.73864894  0.97645946  0.14175001  1
  Cu+  Cu36  1  0.16553977  0.08197574  0.16976914  1
  Cu+  Cu37  1  0.16262496  0.58075033  0.16497798  1
  Cu+  Cu38  1  0.66428356  0.07710862  0.17121043  1
  Cu+  Cu39  1  0.66365353  0.58489655  0.17235986  1
  Cu+  Cu40  1  0.41855762  0.33695783  0.17060425  1
  Cu+  Cu41  1  0.42161850  0.84047040  0.16856134  1
  Cu+  Cu42  1  0.92284594  0.33678617  0.16820789  1
  Cu+  Cu43  1  0.92125775  0.83733569  0.17102510  1
  Cu+  Cu44  1  0.42169883  0.08591339  0.17077412  1
  Cu+  Cu45  1  0.42067655  0.58126517  0.16963770  1
  Cu+  Cu46  1  0.91522798  0.07878332  0.17062370  1
  Cu+  Cu47  1  0.92271010  0.58693129  0.16881292  1
  Cu+  Cu48  1  0.49660021  0.24035095  0.50273460  1
  Cu+  Cu49  1  0.49649063  0.74126081  0.50704158  1
  Cu+  Cu50  1  0.99655417  0.24663541  0.50782129  1
  Cu+  Cu51  1  0.99657171  0.75424101  0.50405397  1
  Cu+  Cu52  1  0.24387768  0.00271387  0.50223307  1
  Cu+  Cu53  1  0.24780817  0.50267214  0.50698567  1
  Cu+  Cu54  1  0.75065114  0.00256565  0.50766735  1
  Cu+  Cu55  1  0.75059611  0.50230550  0.50305446  1
  Cu+  Cu56  1  0.24884363  0.24630321  0.50418108  1
  Cu+  Cu57  1  0.24754693  0.74528871  0.50831773  1
  Cu+  Cu58  1  0.74390792  0.24160356  0.50489104  1
  Cu+  Cu59  1  0.74468052  0.74175591  0.50364698  1
  Cu+  Cu60  1  0.33053862  0.41488824  0.83842151  1
  Cu+  Cu61  1  0.32890481  0.91357013  0.83803239  1
  Cu+  Cu62  1  0.82764751  0.41707470  0.83470425  1
  Cu+  Cu63  1  0.83087408  0.92258954  0.83712444  1
  Cu+  Cu64  1  0.08161340  0.16892814  0.84029054  1
  Cu+  Cu65  1  0.08943400  0.66895753  0.83962912  1
  Cu+  Cu66  1  0.58458793  0.17146688  0.83584520  1
  Cu+  Cu67  1  0.59110460  0.66950562  0.83798533  1
  Cu+  Cu68  1  0.08992318  0.42048482  0.83808166  1
  Cu+  Cu69  1  0.08337455  0.91395643  0.84085528  1
  Cu+  Cu70  1  0.58943793  0.42123811  0.83494289  1
  Cu+  Cu71  1  0.58895653  0.92116517  0.83696906  1
  Cu+  Cu72  1  0.16476217  0.08079737  0.67595937  1
  Cu+  Cu73  1  0.17018634  0.58371030  0.68192139  1
  Cu+  Cu74  1  0.66584020  0.08324872  0.68076939  1
  Cu+  Cu75  1  0.66879877  0.58378141  0.67780830  1
  Cu+  Cu76  1  0.41193790  0.32545527  0.67195703  1
  Cu+  Cu77  1  0.41213160  0.82694055  0.67545824  1
  Cu+  Cu78  1  0.91442236  0.33201146  0.67468067  1
  Cu+  Cu79  1  0.91300228  0.83216389  0.67478631  1
  Cu+  Cu80  1  0.40986533  0.07891263  0.67294120  1
  Cu+  Cu81  1  0.41359840  0.57987421  0.67686070  1
  Cu+  Cu82  1  0.91129395  0.08360248  0.68166371  1
  Cu+  Cu83  1  0.91660506  0.58540123  0.67250290  1
  Cu+  Cu84  1  0.00260447  0.25352789  0.01359491  1
  Cu+  Cu85  1  0.00610085  0.75243635  0.01276544  1
  Cu+  Cu86  1  0.50204108  0.25398464  0.00356734  1
  Cu+  Cu87  1  0.50549674  0.75343340  0.00602998  1
  Cu+  Cu88  1  0.25106699  0.49953009  0.01427417  1
  Cu+  Cu89  1  0.25161067  1.00048185  0.00773979  1
  Cu+  Cu90  1  0.74663387  0.49982276  0.00693023  1
  Cu+  Cu91  1  0.74867852  0.99946715  0.01490853  1
  Cu+  Cu92  1  0.24877190  0.25075389  0.00847874  1
  Cu+  Cu93  1  0.25111133  0.75217828  0.01458313  1
  Cu+  Cu94  1  0.74513768  0.25204913  0.00664325  1
  Cu+  Cu95  1  0.75265483  0.75366801  0.00782188  1
  Cu+  Cu96  1  0.33445382  0.42003786  0.34293724  1
  Cu+  Cu97  1  0.33511925  0.91742404  0.34242734  1
  Cu+  Cu98  1  0.83840694  0.41800866  0.33844900  1
  Cu+  Cu99  1  0.83298979  0.91630270  0.34286676  1
  Cu+  Cu100  1  0.08161852  0.16670480  0.34200642  1
  Cu+  Cu101  1  0.08505592  0.66687699  0.34191196  1
  Cu+  Cu102  1  0.58471679  0.16106830  0.34460098  1
  Cu+  Cu103  1  0.58080337  0.66100874  0.34581208  1
  Cu+  Cu104  1  0.08456080  0.41807508  0.34246673  1
  Cu+  Cu105  1  0.08178537  0.91879621  0.34671675  1
  Cu+  Cu106  1  0.58411491  0.41734126  0.33972559  1
  Cu+  Cu107  1  0.58496881  0.91611072  0.34316771  1
  Cu+  Cu108  1  0.00252326  0.00168497  0.11328494  1
  Cu+  Cu109  1  -0.00608292  0.49748533  0.11016152  1
  Cu+  Cu110  1  0.50118171  0.00561568  0.11365157  1
  Cu+  Cu111  1  0.50442244  0.49900101  0.11392002  1
  Cu+  Cu112  1  0.33659867  0.17334021  0.44516751  1
  Cu+  Cu113  1  0.33321380  0.67093982  0.45152215  1
  Cu+  Cu114  1  0.83671046  0.17027158  0.45098512  1
  Cu+  Cu115  1  0.83451551  0.66331293  0.44585483  1
  Cu+  Cu116  1  0.16751174  0.33112621  0.78238390  1
  Cu+  Cu117  1  0.16205375  0.83318556  0.78315034  1
  Cu+  Cu118  1  0.66323585  0.33210370  0.77634433  1
  Cu+  Cu119  1  0.66012890  0.82941977  0.78089903  1
  Te2-  Te120  1  -0.00254316  0.00218731  0.38769133  1
  Te2-  Te121  1  0.00217051  0.50150086  0.38374386  1
  Te2-  Te122  1  0.49929394  -0.00513969  0.38818430  1
  Te2-  Te123  1  0.49839360  0.49448174  0.38851209  1
  Te2-  Te124  1  0.32971062  0.16240828  0.71849124  1
  Te2-  Te125  1  0.33631012  0.66525287  0.72480125  1
  Te2-  Te126  1  0.83168911  0.17006478  0.72568182  1
  Te2-  Te127  1  0.83596717  0.66823124  0.71994225  1
  Te2-  Te128  1  0.16852206  0.33328179  0.05777465  1
  Te2-  Te129  1  0.17150076  0.83819898  0.05842025  1
  Te2-  Te130  1  0.66484101  0.33557856  0.05066035  1
  Te2-  Te131  1  0.66784752  0.83220093  0.05471169  1
  Te2-  Te132  1  0.49607727  0.25177169  0.87786853  1
  Te2-  Te133  1  0.50219151  0.75140335  0.87992665  1
  Te2-  Te134  1  0.99483637  0.25344625  0.88579056  1
  Te2-  Te135  1  0.99855040  0.74633777  0.88516597  1
  Te2-  Te136  1  0.25245141  0.00402962  0.88231243  1
  Te2-  Te137  1  0.25853922  0.50857331  0.88610739  1
  Te2-  Te138  1  0.75658290  0.01453152  0.88678530  1
  Te2-  Te139  1  0.75734008  0.51175610  0.88132433  1
  Te2-  Te140  1  0.25016696  0.24747774  0.88277698  1
  Te2-  Te141  1  0.25887953  0.74898443  0.88654185  1
  Te2-  Te142  1  0.75544095  0.25161934  0.88125039  1
  Te2-  Te143  1  0.76104142  0.75466375  0.88209446  1
  Te2-  Te144  1  0.32655874  0.41185886  0.21683657  1
  Te2-  Te145  1  0.32946657  0.91774882  0.21609708  1
  Te2-  Te146  1  0.83424647  0.41720924  0.21194974  1
  Te2-  Te147  1  0.82595631  0.90951341  0.21671572  1
  Te2-  Te148  1  0.08765391  0.17141817  0.21587263  1
  Te2-  Te149  1  0.09184336  0.67830278  0.21562920  1
  Te2-  Te150  1  0.58912151  0.16981388  0.21671492  1
  Te2-  Te151  1  0.58539022  0.67298232  0.21854819  1
  Te2-  Te152  1  0.09106333  0.41246832  0.21594218  1
  Te2-  Te153  1  0.09020525  0.91670806  0.21872340  1
  Te2-  Te154  1  0.58630853  0.41607132  0.21395089  1
  Te2-  Te155  1  0.58595967  0.90829444  0.21741114  1
  Te2-  Te156  1  0.15419972  0.08003864  0.55007104  1
  Te2-  Te157  1  0.15893071  0.57888914  0.55444720  1
  Te2-  Te158  1  0.65528962  0.07367387  0.55299712  1
  Te2-  Te159  1  0.65673227  0.57406126  0.55054199  1
  Te2-  Te160  1  0.41778281  0.33142121  0.54564116  1
  Te2-  Te161  1  0.41725995  0.83199118  0.54940665  1
  Te2-  Te162  1  0.91352697  0.33379302  0.54873299  1
  Te2-  Te163  1  0.91279829  0.84020647  0.54895111  1
  Te2-  Te164  1  0.41164852  0.07034058  0.54723136  1
  Te2-  Te165  1  0.41452084  0.57155837  0.55134401  1
  Te2-  Te166  1  0.91629616  0.07991044  0.55435330  1
  Te2-  Te167  1  0.91894564  0.58439412  0.54643517  1
  Te2-  Te168  1  0.00008499  -0.00042578  0.88473469  1
  Te2-  Te169  1  -0.00252157  0.49879502  0.88238910  1
  Te2-  Te170  1  0.49971816  0.00208639  0.88206289  1
  Te2-  Te171  1  0.50060674  0.50034799  0.88242478  1
  Te2-  Te172  1  0.33484238  0.16795550  0.21502982  1
  Te2-  Te173  1  0.33405841  0.66766967  0.21394465  1
  Te2-  Te174  1  0.83422240  0.16819160  0.21648180  1
  Te2-  Te175  1  0.83355478  0.66670765  0.21574754  1
  Te2-  Te176  1  0.16567696  0.33197549  0.54997822  1
  Te2-  Te177  1  0.16496614  0.83313116  0.54976850  1
  Te2-  Te178  1  0.66540985  0.33269092  0.54828668  1
  Te2-  Te179  1  0.66577757  0.83163409  0.55105997  1
  Te2-  Te180  1  0.32752924  0.41006208  0.71217232  1
  Te2-  Te181  1  0.32536049  0.91010139  0.71218413  1
  Te2-  Te182  1  0.82832159  0.41594006  0.70948828  1
  Te2-  Te183  1  0.82249586  0.91093244  0.71144654  1
  Te2-  Te184  1  0.08482356  0.17138287  0.71217402  1
  Te2-  Te185  1  0.08566701  0.67298576  0.71158353  1
  Te2-  Te186  1  0.58050434  0.17118905  0.70810101  1
  Te2-  Te187  1  0.58462926  0.67175515  0.70994065  1
  Te2-  Te188  1  0.08437665  0.41011517  0.71117717  1
  Te2-  Te189  1  0.08165133  0.91219155  0.71350332  1
  Te2-  Te190  1  0.58283589  0.41042508  0.70760505  1
  Te2-  Te191  1  0.58293819  0.91035101  0.70993546  1
  Te2-  Te192  1  0.16159228  0.08058029  0.04357633  1
  Te2-  Te193  1  0.15773732  0.57915303  0.03949781  1
  Te2-  Te194  1  0.65988403  0.08319515  0.04403530  1
  Te2-  Te195  1  0.66305966  0.58456634  0.04496742  1
  Te2-  Te196  1  0.41925145  0.33997648  0.04362442  1
  Te2-  Te197  1  0.42467727  0.84211715  0.04228048  1
  Te2-  Te198  1  0.91546475  0.33890373  0.04192270  1
  Te2-  Te199  1  0.92256847  0.84228509  0.04364094  1
  Te2-  Te200  1  0.42177279  0.08454376  0.04334144  1
  Te2-  Te201  1  0.42442394  0.58367969  0.04259909  1
  Te2-  Te202  1  0.92217843  0.08083631  0.04256835  1
  Te2-  Te203  1  0.91753824  0.57939625  0.04178804  1
  Te2-  Te204  1  0.49540986  0.24610051  0.37436297  1
  Te2-  Te205  1  0.49346575  0.74579016  0.37922660  1
  Te2-  Te206  1  0.99437090  0.24820815  0.37971944  1
  Te2-  Te207  1  0.99370218  0.74586902  0.37635600  1
  Te2-  Te208  1  0.25509299  0.00831337  0.37627324  1
  Te2-  Te209  1  0.25330023  0.50777838  0.38079409  1
  Te2-  Te210  1  0.75299449  0.00464876  0.38158921  1
  Te2-  Te211  1  0.75340664  0.50269842  0.37641589  1
  Te2-  Te212  1  0.25184515  0.24842580  0.37737877  1
  Te2-  Te213  1  0.25276648  0.74864831  0.38073082  1
  Te2-  Te214  1  0.75698818  0.24805928  0.37679163  1
  Te2-  Te215  1  0.75353724  0.74577385  0.37721727  1
