# generated using pymatgen
data_Ti(CuTe)4
_symmetry_space_group_name_H-M   'P 1'
_cell_length_a   16.89847762
_cell_length_b   16.89356173
_cell_length_c   20.71701989
_cell_angle_alpha   89.92005038
_cell_angle_beta   90.01657688
_cell_angle_gamma   120.01014990
_symmetry_Int_Tables_number   1
_chemical_formula_structural   Ti(CuTe)4
_chemical_formula_sum   'Ti24 Cu96 Te96'
_cell_volume   5121.31890208
_cell_formula_units_Z   24
loop_
 _symmetry_equiv_pos_site_id
 _symmetry_equiv_pos_as_xyz
  1  'x, y, z'
loop_
 _atom_type_symbol
 _atom_type_oxidation_number
  Ti4+  4.0
  Cu+  1.0
  Te2-  -2.0
loop_
 _atom_site_type_symbol
 _atom_site_label
 _atom_site_symmetry_multiplicity
 _atom_site_fract_x
 _atom_site_fract_y
 _atom_site_fract_z
 _atom_site_occupancy
  Ti4+  Ti0  1  0.00307074  -0.00080199  0.25737896  1
  Ti4+  Ti1  1  0.00035992  0.50034239  0.26172329  1
  Ti4+  Ti2  1  0.50518298  0.00253107  0.25660037  1
  Ti4+  Ti3  1  0.50085943  0.50191538  0.25571485  1
  Ti4+  Ti4  1  0.33464667  0.16631547  0.58949951  1
  Ti4+  Ti5  1  0.33357787  0.66873965  0.58796499  1
  Ti4+  Ti6  1  0.83438730  0.16782508  0.59193910  1
  Ti4+  Ti7  1  0.83221342  0.66583789  0.58895248  1
  Ti4+  Ti8  1  0.16265529  0.33229587  0.92386030  1
  Ti4+  Ti9  1  0.16564139  0.83369657  0.92581239  1
  Ti4+  Ti10  1  0.66258945  0.33168584  0.92786606  1
  Ti4+  Ti11  1  0.66589896  0.83350235  0.92331945  1
  Ti4+  Ti12  1  -0.00161217  -0.00055109  0.75506419  1
  Ti4+  Ti13  1  0.00026000  0.49975596  0.75718758  1
  Ti4+  Ti14  1  0.49821318  -0.00022545  0.75657173  1
  Ti4+  Ti15  1  0.49960663  0.49910576  0.75604376  1
  Ti4+  Ti16  1  0.33111404  0.16571925  0.08828307  1
  Ti4+  Ti17  1  0.33418193  0.66640441  0.08920572  1
  Ti4+  Ti18  1  0.83081291  0.16521443  0.08967524  1
  Ti4+  Ti19  1  0.83417903  0.66618043  0.08938470  1
  Ti4+  Ti20  1  0.16704625  0.33283522  0.42049200  1
  Ti4+  Ti21  1  0.17043591  0.83530319  0.41992426  1
  Ti4+  Ti22  1  0.66607590  0.33333666  0.42194403  1
  Ti4+  Ti23  1  0.66842958  0.83283311  0.42126347  1
  Cu+  Cu24  1  0.35933545  0.93055603  0.47064449  1
  Cu+  Cu25  1  0.40273763  0.09456900  0.80895396  1
  Cu+  Cu26  1  0.07797894  0.42242635  0.47969215  1
  Cu+  Cu27  1  0.84110429  0.42010682  0.48326648  1
  Cu+  Cu28  1  0.07603658  0.92694796  0.47433345  1
  Cu+  Cu29  1  0.51380935  0.25957917  0.14530661  1
  Cu+  Cu30  1  0.02408858  0.75959878  0.14324511  1
  Cu+  Cu31  1  0.52624759  0.76370187  0.13836845  1
  Cu+  Cu32  1  0.74659244  0.26508049  0.14327960  1
  Cu+  Cu33  1  0.90370802  0.09373840  0.80873695  1
  Cu+  Cu34  1  0.56933693  0.42787193  0.47168914  1
  Cu+  Cu35  1  0.08136483  0.66299965  0.48390181  1
  Cu+  Cu36  1  0.16153435  0.07983401  0.17030653  1
  Cu+  Cu37  1  0.16429401  0.58048819  0.17382773  1
  Cu+  Cu38  1  0.66450320  0.08669108  0.16914490  1
  Cu+  Cu39  1  0.66248042  0.58115394  0.16905864  1
  Cu+  Cu40  1  0.41968722  0.33741399  0.17032280  1
  Cu+  Cu41  1  0.42417483  0.83530762  0.17090739  1
  Cu+  Cu42  1  0.91606085  0.33605314  0.17506791  1
  Cu+  Cu43  1  0.92446313  0.83502720  0.17139915  1
  Cu+  Cu44  1  0.42103879  0.08496664  0.17052315  1
  Cu+  Cu45  1  0.42356216  0.58775281  0.16929462  1
  Cu+  Cu46  1  0.91829923  0.08081904  0.17168647  1
  Cu+  Cu47  1  0.92253659  0.58478600  0.17346616  1
  Cu+  Cu48  1  0.49649346  0.25066700  0.50245112  1
  Cu+  Cu49  1  0.49856684  0.75051545  0.50208084  1
  Cu+  Cu50  1  0.99698698  0.24900788  0.50368210  1
  Cu+  Cu51  1  0.99482812  0.75047895  0.50078337  1
  Cu+  Cu52  1  0.25635303  0.00444213  0.50074873  1
  Cu+  Cu53  1  0.25052028  0.50337976  0.50115371  1
  Cu+  Cu54  1  0.75203047  0.00127354  0.50591109  1
  Cu+  Cu55  1  0.74758434  0.50198482  0.50176233  1
  Cu+  Cu56  1  0.25254807  0.24737045  0.50147481  1
  Cu+  Cu57  1  0.25807975  0.75206351  0.49957281  1
  Cu+  Cu58  1  0.75405427  0.24727309  0.50441079  1
  Cu+  Cu59  1  0.75039826  0.74657432  0.50223427  1
  Cu+  Cu60  1  0.32928827  0.41508473  0.83816739  1
  Cu+  Cu61  1  0.32888260  0.91929427  0.83868519  1
  Cu+  Cu62  1  0.83054238  0.41358650  0.84173279  1
  Cu+  Cu63  1  0.82887037  0.91862851  0.83644256  1
  Cu+  Cu64  1  0.07764607  0.16839600  0.83704548  1
  Cu+  Cu65  1  0.08232573  0.66836950  0.84030585  1
  Cu+  Cu66  1  0.57787140  0.16798219  0.84055355  1
  Cu+  Cu67  1  0.58270937  0.66818370  0.83832043  1
  Cu+  Cu68  1  0.08436183  0.41462834  0.83752291  1
  Cu+  Cu69  1  0.08164575  0.91139928  0.83843300  1
  Cu+  Cu70  1  0.58226567  0.41349904  0.84025378  1
  Cu+  Cu71  1  0.58250750  0.91260464  0.83728411  1
  Cu+  Cu72  1  0.16782917  0.08055688  0.67440294  1
  Cu+  Cu73  1  0.16808365  0.58512845  0.67500613  1
  Cu+  Cu74  1  0.66891499  0.08391950  0.67589080  1
  Cu+  Cu75  1  0.66717015  0.58182174  0.67501824  1
  Cu+  Cu76  1  0.41788446  0.33233328  0.67565951  1
  Cu+  Cu77  1  0.41496486  0.83228724  0.67378627  1
  Cu+  Cu78  1  0.91755360  0.33302594  0.67809424  1
  Cu+  Cu79  1  0.91594941  0.83082605  0.67391052  1
  Cu+  Cu80  1  0.41536842  0.08427136  0.67870109  1
  Cu+  Cu81  1  0.41458114  0.58451181  0.67209070  1
  Cu+  Cu82  1  0.91507118  0.08524716  0.67873392  1
  Cu+  Cu83  1  0.91457682  0.58338460  0.67593001  1
  Cu+  Cu84  1  -0.00127635  0.24966882  0.00854387  1
  Cu+  Cu85  1  0.00330118  0.74977362  0.01429872  1
  Cu+  Cu86  1  0.49937190  0.24934991  0.01490891  1
  Cu+  Cu87  1  0.50348061  0.75085195  0.01077763  1
  Cu+  Cu88  1  0.24551558  0.49552723  0.00807055  1
  Cu+  Cu89  1  0.24516503  0.99709138  0.00925806  1
  Cu+  Cu90  1  0.74839788  0.49749431  0.01056698  1
  Cu+  Cu91  1  0.74862825  0.99811883  0.00805136  1
  Cu+  Cu92  1  0.24262121  0.24909877  0.00642242  1
  Cu+  Cu93  1  0.24646945  0.74872390  0.00797475  1
  Cu+  Cu94  1  0.74448096  0.24933932  0.01438824  1
  Cu+  Cu95  1  0.74863417  0.75019772  0.00597820  1
  Cu+  Cu96  1  0.33595741  0.41652405  0.33773823  1
  Cu+  Cu97  1  0.34253598  0.92034551  0.34234591  1
  Cu+  Cu98  1  0.83578214  0.41740050  0.34979393  1
  Cu+  Cu99  1  0.83912223  0.91651110  0.34068219  1
  Cu+  Cu100  1  0.08422100  0.16344063  0.34094871  1
  Cu+  Cu101  1  0.08486335  0.66464599  0.34998895  1
  Cu+  Cu102  1  0.58444257  0.16630484  0.34272102  1
  Cu+  Cu103  1  0.58419616  0.66554563  0.34059521  1
  Cu+  Cu104  1  0.08013994  0.41575469  0.34800035  1
  Cu+  Cu105  1  0.08541786  0.91877577  0.34481616  1
  Cu+  Cu106  1  0.57872778  0.41634726  0.34438312  1
  Cu+  Cu107  1  0.58702505  0.91847926  0.34042664  1
  Cu+  Cu108  1  -0.00527783  -0.00215933  0.11392216  1
  Cu+  Cu109  1  0.00228042  0.49848334  0.11838251  1
  Cu+  Cu110  1  0.49482546  -0.00380513  0.11363446  1
  Cu+  Cu111  1  0.49745236  0.49882506  0.11174484  1
  Cu+  Cu112  1  0.33346943  0.16830640  0.44371892  1
  Cu+  Cu113  1  0.33832393  0.66415775  0.44353175  1
  Cu+  Cu114  1  0.83239073  0.16145291  0.44857758  1
  Cu+  Cu115  1  0.83264115  0.66642014  0.44408083  1
  Cu+  Cu116  1  0.16892419  0.33231842  0.78076729  1
  Cu+  Cu117  1  0.16499913  0.82958171  0.78302641  1
  Cu+  Cu118  1  0.66876820  0.33386434  0.78610258  1
  Cu+  Cu119  1  0.66444957  0.82952989  0.78022469  1
  Te2-  Te120  1  0.00167714  0.00072882  0.38820151  1
  Te2-  Te121  1  0.00032741  0.50008317  0.39510492  1
  Te2-  Te122  1  0.50790626  0.00264929  0.38704891  1
  Te2-  Te123  1  0.49772448  0.50196675  0.38634797  1
  Te2-  Te124  1  0.33178241  0.16759169  0.71963199  1
  Te2-  Te125  1  0.33335479  0.66735838  0.71651020  1
  Te2-  Te126  1  0.83217858  0.16846428  0.72199600  1
  Te2-  Te127  1  0.83212780  0.66621863  0.71728207  1
  Te2-  Te128  1  0.16264856  0.33188217  0.05314814  1
  Te2-  Te129  1  0.16970916  0.83406200  0.05665521  1
  Te2-  Te130  1  0.66516270  0.33544957  0.06037765  1
  Te2-  Te131  1  0.67028985  0.83441385  0.05379627  1
  Te2-  Te132  1  0.48894480  0.24706250  0.88740259  1
  Te2-  Te133  1  0.49396011  0.74665872  0.88413888  1
  Te2-  Te134  1  0.98797335  0.24793459  0.88298558  1
  Te2-  Te135  1  0.99354460  0.74612188  0.88719537  1
  Te2-  Te136  1  0.24835384  0.00785949  0.88365641  1
  Te2-  Te137  1  0.25077297  0.50423023  0.88255091  1
  Te2-  Te138  1  0.74922561  0.00782343  0.88257089  1
  Te2-  Te139  1  0.75013997  0.50192756  0.88481137  1
  Te2-  Te140  1  0.24626390  0.24542092  0.88042731  1
  Te2-  Te141  1  0.25184699  0.75000164  0.88197274  1
  Te2-  Te142  1  0.74621751  0.24525595  0.88684782  1
  Te2-  Te143  1  0.75238945  0.74990288  0.88008477  1
  Te2-  Te144  1  0.33166446  0.41770567  0.21204594  1
  Te2-  Te145  1  0.33585080  0.91661752  0.21521846  1
  Te2-  Te146  1  0.82784964  0.41782175  0.22149084  1
  Te2-  Te147  1  0.83271105  0.91219015  0.21475051  1
  Te2-  Te148  1  0.08618187  0.17080552  0.21560559  1
  Te2-  Te149  1  0.09061926  0.67338416  0.22124423  1
  Te2-  Te150  1  0.59065178  0.17965712  0.21744401  1
  Te2-  Te151  1  0.59181725  0.67622362  0.21507528  1
  Te2-  Te152  1  0.08262725  0.41338773  0.22032833  1
  Te2-  Te153  1  0.09322817  0.91459001  0.21804927  1
  Te2-  Te154  1  0.58921140  0.41585085  0.21781484  1
  Te2-  Te155  1  0.59432865  0.91907434  0.21472063  1
  Te2-  Te156  1  0.16200130  0.08017807  0.54810970  1
  Te2-  Te157  1  0.15737450  0.58080344  0.54906438  1
  Te2-  Te158  1  0.66359295  0.08169938  0.54974822  1
  Te2-  Te159  1  0.65867793  0.57989165  0.54887888  1
  Te2-  Te160  1  0.41830454  0.34025169  0.54949142  1
  Te2-  Te161  1  0.42369936  0.84312652  0.54802154  1
  Te2-  Te162  1  0.92325885  0.34476759  0.55219948  1
  Te2-  Te163  1  0.91772584  0.83950976  0.54815451  1
  Te2-  Te164  1  0.42427887  0.08295151  0.55053105  1
  Te2-  Te165  1  0.41691694  0.58188776  0.54591373  1
  Te2-  Te166  1  0.92021052  0.08330381  0.55125772  1
  Te2-  Te167  1  0.92039109  0.57891869  0.54968460  1
  Te2-  Te168  1  -0.00199449  -0.00163872  0.88173949  1
  Te2-  Te169  1  0.00005802  0.49915664  0.88301259  1
  Te2-  Te170  1  0.49823768  -0.00258115  0.88320314  1
  Te2-  Te171  1  0.49788602  0.49926752  0.88199349  1
  Te2-  Te172  1  0.33238658  0.16661487  0.21511525  1
  Te2-  Te173  1  0.33434188  0.66646949  0.21606252  1
  Te2-  Te174  1  0.83334062  0.16456468  0.21660977  1
  Te2-  Te175  1  0.83216456  0.66534436  0.21605159  1
  Te2-  Te176  1  0.16840547  0.33291567  0.54756214  1
  Te2-  Te177  1  0.16706830  0.83344857  0.54824594  1
  Te2-  Te178  1  0.66631634  0.33127554  0.54951506  1
  Te2-  Te179  1  0.66664388  0.83166506  0.54727973  1
  Te2-  Te180  1  0.32895104  0.41464389  0.71068956  1
  Te2-  Te181  1  0.32588852  0.91217989  0.71125868  1
  Te2-  Te182  1  0.82790510  0.41360687  0.71424442  1
  Te2-  Te183  1  0.82649927  0.91199533  0.70926922  1
  Te2-  Te184  1  0.08787437  0.17172894  0.70956049  1
  Te2-  Te185  1  0.08461742  0.67138196  0.71263952  1
  Te2-  Te186  1  0.58751806  0.17277086  0.71301097  1
  Te2-  Te187  1  0.58419593  0.66992740  0.71079715  1
  Te2-  Te188  1  0.08776295  0.41513209  0.71162585  1
  Te2-  Te189  1  0.08435607  0.91190914  0.71227985  1
  Te2-  Te190  1  0.58647517  0.41286772  0.71375304  1
  Te2-  Te191  1  0.58435649  0.91379620  0.71138527  1
  Te2-  Te192  1  0.15840995  0.07988894  0.04469737  1
  Te2-  Te193  1  0.16118805  0.57990376  0.04709693  1
  Te2-  Te194  1  0.65786437  0.07669063  0.04353678  1
  Te2-  Te195  1  0.66158254  0.58103749  0.04367765  1
  Te2-  Te196  1  0.41380635  0.33765279  0.04279706  1
  Te2-  Te197  1  0.41750901  0.83764958  0.04320504  1
  Te2-  Te198  1  0.91769151  0.33844718  0.04678641  1
  Te2-  Te199  1  0.91811182  0.83807949  0.04394060  1
  Te2-  Te200  1  0.41539559  0.07669602  0.04376995  1
  Te2-  Te201  1  0.41663108  0.57805300  0.04238250  1
  Te2-  Te202  1  0.91750114  0.08023770  0.04489815  1
  Te2-  Te203  1  0.91851246  0.57689105  0.04658403  1
  Te2-  Te204  1  0.49320141  0.24455348  0.37603641  1
  Te2-  Te205  1  0.49725508  0.74857028  0.37545801  1
  Te2-  Te206  1  0.99351499  0.24289216  0.37695102  1
  Te2-  Te207  1  0.99431282  0.74658777  0.37439310  1
  Te2-  Te208  1  0.25865561  0.00882207  0.37364511  1
  Te2-  Te209  1  0.25429155  0.50499472  0.37390849  1
  Te2-  Te210  1  0.75658500  0.00447064  0.37812820  1
  Te2-  Te211  1  0.75193915  0.50693431  0.37484583  1
  Te2-  Te212  1  0.25392110  0.24785922  0.37544155  1
  Te2-  Te213  1  0.25811608  0.74798379  0.37346243  1
  Te2-  Te214  1  0.75330099  0.24532056  0.37807148  1
  Te2-  Te215  1  0.75380516  0.74668489  0.37607926  1
