# generated using pymatgen
data_Ti(CuTe)4
_symmetry_space_group_name_H-M   'P 1'
_cell_length_a   16.89110692
_cell_length_b   16.89590288
_cell_length_c   20.71550275
_cell_angle_alpha   90.02364300
_cell_angle_beta   90.03743602
_cell_angle_gamma   120.00599310
_symmetry_Int_Tables_number   1
_chemical_formula_structural   Ti(CuTe)4
_chemical_formula_sum   'Ti24 Cu96 Te96'
_cell_volume   5119.63669986
_cell_formula_units_Z   24
loop_
 _symmetry_equiv_pos_site_id
 _symmetry_equiv_pos_as_xyz
  1  'x, y, z'
loop_
 _atom_type_symbol
 _atom_type_oxidation_number
  Ti4+  4.0
  Cu+  1.0
  Te2-  -2.0
loop_
 _atom_site_type_symbol
 _atom_site_label
 _atom_site_symmetry_multiplicity
 _atom_site_fract_x
 _atom_site_fract_y
 _atom_site_fract_z
 _atom_site_occupancy
  Ti4+  Ti0  1  -0.00022612  -0.00229359  0.25761055  1
  Ti4+  Ti1  1  -0.00292892  0.49660762  0.25626816  1
  Ti4+  Ti2  1  0.49849008  -0.00318271  0.25494159  1
  Ti4+  Ti3  1  0.50220269  0.49792409  0.26318716  1
  Ti4+  Ti4  1  0.33248039  0.16662931  0.59273346  1
  Ti4+  Ti5  1  0.33090421  0.66418079  0.58758306  1
  Ti4+  Ti6  1  0.83310941  0.16587141  0.59084381  1
  Ti4+  Ti7  1  0.83499257  0.66792440  0.59061650  1
  Ti4+  Ti8  1  0.16926069  0.33624940  0.92509954  1
  Ti4+  Ti9  1  0.16470673  0.83440295  0.92332082  1
  Ti4+  Ti10  1  0.66597329  0.33565912  0.92348632  1
  Ti4+  Ti11  1  0.66820948  0.83698217  0.92442679  1
  Ti4+  Ti12  1  0.00093102  0.00107775  0.75585648  1
  Ti4+  Ti13  1  -0.00082600  0.50216609  0.75529616  1
  Ti4+  Ti14  1  0.50135680  0.00039236  0.75400872  1
  Ti4+  Ti15  1  0.49960608  0.50032027  0.75600940  1
  Ti4+  Ti16  1  0.33365012  0.16703290  0.09092759  1
  Ti4+  Ti17  1  0.33450548  0.66931791  0.08856058  1
  Ti4+  Ti18  1  0.83355700  0.16750856  0.08677783  1
  Ti4+  Ti19  1  0.83318820  0.66634412  0.09099424  1
  Ti4+  Ti20  1  0.16767593  0.33301732  0.41955732  1
  Ti4+  Ti21  1  0.16523116  0.83154397  0.42245578  1
  Ti4+  Ti22  1  0.66697582  0.33102430  0.42283820  1
  Ti4+  Ti23  1  0.66745309  0.83363332  0.42033569  1
  Cu+  Cu24  1  0.23719484  0.97464420  0.14024021  1
  Cu+  Cu25  1  0.40732937  0.08927301  0.81000216  1
  Cu+  Cu26  1  0.34401718  0.42093343  0.48101791  1
  Cu+  Cu27  1  0.68953055  0.09585040  0.80706384  1
  Cu+  Cu28  1  0.57918832  0.41895557  0.48653961  1
  Cu+  Cu29  1  0.06915824  0.64107162  0.47005565  1
  Cu+  Cu30  1  0.57884679  0.65678705  0.48038410  1
  Cu+  Cu31  1  0.07280114  0.92801374  0.47485433  1
  Cu+  Cu32  1  0.40653414  0.32003951  0.81458057  1
  Cu+  Cu33  1  0.73592439  0.47431296  0.14242117  1
  Cu+  Cu34  1  0.74050078  0.97859751  0.14043374  1
  Cu+  Cu35  1  0.90414406  0.59867187  0.80796399  1
  Cu+  Cu36  1  0.16541165  0.07654392  0.17232509  1
  Cu+  Cu37  1  0.16442004  0.58335913  0.17112867  1
  Cu+  Cu38  1  0.66459077  0.07859967  0.16806620  1
  Cu+  Cu39  1  0.66501569  0.57635351  0.17531459  1
  Cu+  Cu40  1  0.42086084  0.33706160  0.17569446  1
  Cu+  Cu41  1  0.41878931  0.83788988  0.16775492  1
  Cu+  Cu42  1  0.91785705  0.33672997  0.16849115  1
  Cu+  Cu43  1  0.92011878  0.83697685  0.17206478  1
  Cu+  Cu44  1  0.41290746  0.07681535  0.17056076  1
  Cu+  Cu45  1  0.41823104  0.58329773  0.17525331  1
  Cu+  Cu46  1  0.91449955  0.07882973  0.16991893  1
  Cu+  Cu47  1  0.91193695  0.57532145  0.17126836  1
  Cu+  Cu48  1  0.49560872  0.24648462  0.50590820  1
  Cu+  Cu49  1  0.49594116  0.74697101  0.50100665  1
  Cu+  Cu50  1  0.99677637  0.24755496  0.50313198  1
  Cu+  Cu51  1  0.99888021  0.74878741  0.50360447  1
  Cu+  Cu52  1  0.24722104  0.00186113  0.50573235  1
  Cu+  Cu53  1  0.25335338  0.50536311  0.49952241  1
  Cu+  Cu54  1  0.75167021  0.00475205  0.50401316  1
  Cu+  Cu55  1  0.75379766  0.50372630  0.50442512  1
  Cu+  Cu56  1  0.25391956  0.24826170  0.50259718  1
  Cu+  Cu57  1  0.24428475  0.74185981  0.50216241  1
  Cu+  Cu58  1  0.75042069  0.24397539  0.50498895  1
  Cu+  Cu59  1  0.75302273  0.74897751  0.50259400  1
  Cu+  Cu60  1  0.32872366  0.41428835  0.83884080  1
  Cu+  Cu61  1  0.32945533  0.91741312  0.83678892  1
  Cu+  Cu62  1  0.83090483  0.42420885  0.83608686  1
  Cu+  Cu63  1  0.83164089  0.91694927  0.83843919  1
  Cu+  Cu64  1  0.08692152  0.17159443  0.83826120  1
  Cu+  Cu65  1  0.07879048  0.67051953  0.83696052  1
  Cu+  Cu66  1  0.58508388  0.16972749  0.83492391  1
  Cu+  Cu67  1  0.58494562  0.67173119  0.83917724  1
  Cu+  Cu68  1  0.08734485  0.41964577  0.83906025  1
  Cu+  Cu69  1  0.08593186  0.91691423  0.83718845  1
  Cu+  Cu70  1  0.58308698  0.41436410  0.83682969  1
  Cu+  Cu71  1  0.59115549  0.92051510  0.83621764  1
  Cu+  Cu72  1  0.16781345  0.08496559  0.67654002  1
  Cu+  Cu73  1  0.16800936  0.58404765  0.67278484  1
  Cu+  Cu74  1  0.67100976  0.08357322  0.67845471  1
  Cu+  Cu75  1  0.66766761  0.58550719  0.67743202  1
  Cu+  Cu76  1  0.41594684  0.33197505  0.68332542  1
  Cu+  Cu77  1  0.41544509  0.82867741  0.67028578  1
  Cu+  Cu78  1  0.91514043  0.33076599  0.67372523  1
  Cu+  Cu79  1  0.91823712  0.83372791  0.67549010  1
  Cu+  Cu80  1  0.41478061  0.08456806  0.67945385  1
  Cu+  Cu81  1  0.41552572  0.58432535  0.67530006  1
  Cu+  Cu82  1  0.91547909  0.08428717  0.67450969  1
  Cu+  Cu83  1  0.91591391  0.58688221  0.67871054  1
  Cu+  Cu84  1  0.00556390  0.25480789  0.00774947  1
  Cu+  Cu85  1  -0.00003963  0.75188583  0.00905096  1
  Cu+  Cu86  1  0.50028838  0.25366944  0.00994819  1
  Cu+  Cu87  1  0.50248125  0.75362660  0.00781693  1
  Cu+  Cu88  1  0.25179138  0.49986034  0.00844449  1
  Cu+  Cu89  1  0.24828589  0.99809292  0.01206449  1
  Cu+  Cu90  1  0.74796429  0.49942013  0.01330938  1
  Cu+  Cu91  1  0.74978476  0.99955835  0.01108922  1
  Cu+  Cu92  1  0.25165552  0.25545450  0.01124254  1
  Cu+  Cu93  1  0.24929251  0.75296804  0.00595516  1
  Cu+  Cu94  1  0.75107394  0.25469687  0.00634244  1
  Cu+  Cu95  1  0.74994169  0.75353236  0.01012386  1
  Cu+  Cu96  1  0.33786987  0.41761851  0.34907918  1
  Cu+  Cu97  1  0.33511088  0.91640852  0.34015329  1
  Cu+  Cu98  1  0.83321649  0.41292066  0.34148806  1
  Cu+  Cu99  1  0.83593088  0.91937353  0.34216077  1
  Cu+  Cu100  1  0.08309759  0.16336056  0.33963287  1
  Cu+  Cu101  1  0.07879918  0.65898923  0.34244127  1
  Cu+  Cu102  1  0.58136071  0.15993993  0.33852035  1
  Cu+  Cu103  1  0.58352461  0.66243853  0.34849957  1
  Cu+  Cu104  1  0.08234214  0.41605240  0.33890728  1
  Cu+  Cu105  1  0.08306654  0.91808005  0.34653075  1
  Cu+  Cu106  1  0.58320564  0.41543311  0.35174181  1
  Cu+  Cu107  1  0.58449332  0.91848138  0.33915902  1
  Cu+  Cu108  1  0.00293091  0.00473269  0.11498231  1
  Cu+  Cu109  1  0.00375404  0.50266660  0.11305529  1
  Cu+  Cu110  1  0.50288392  0.00498475  0.11151872  1
  Cu+  Cu111  1  0.49965445  0.50369055  0.12090555  1
  Cu+  Cu112  1  0.33373346  0.16322719  0.44804510  1
  Cu+  Cu113  1  0.33424283  0.67065627  0.44311303  1
  Cu+  Cu114  1  0.83604666  0.16779647  0.44653913  1
  Cu+  Cu115  1  0.83429353  0.66656511  0.44657888  1
  Cu+  Cu116  1  0.16252325  0.33465295  0.78218230  1
  Cu+  Cu117  1  0.16906915  0.83318373  0.77988741  1
  Cu+  Cu118  1  0.66859715  0.33360225  0.77928195  1
  Cu+  Cu119  1  0.66781776  0.83224295  0.78139460  1
  Te2-  Te120  1  -0.00050402  0.00134676  0.38834428  1
  Te2-  Te121  1  -0.00303592  0.49318229  0.38702911  1
  Te2-  Te122  1  0.49919754  -0.00321323  0.38418944  1
  Te2-  Te123  1  0.50163502  0.49860567  0.39714456  1
  Te2-  Te124  1  0.33055454  0.16546333  0.72465184  1
  Te2-  Te125  1  0.33217998  0.66616240  0.71654441  1
  Te2-  Te126  1  0.83684632  0.16854424  0.72203855  1
  Te2-  Te127  1  0.83234839  0.67001969  0.72058621  1
  Te2-  Te128  1  0.16846267  0.33666033  0.05434425  1
  Te2-  Te129  1  0.16434539  0.83079157  0.05359193  1
  Te2-  Te130  1  0.66499795  0.33168972  0.05338798  1
  Te2-  Te131  1  0.66579929  0.83343157  0.05486594  1
  Te2-  Te132  1  0.49015394  0.24510294  0.88374724  1
  Te2-  Te133  1  0.49719318  0.75258613  0.88185462  1
  Te2-  Te134  1  0.99810717  0.25094394  0.88195209  1
  Te2-  Te135  1  0.99014549  0.75065762  0.88335101  1
  Te2-  Te136  1  0.25172875  0.00870506  0.88491226  1
  Te2-  Te137  1  0.25577351  0.50781520  0.88265746  1
  Te2-  Te138  1  0.75855522  0.01120777  0.88411365  1
  Te2-  Te139  1  0.74876423  0.50912938  0.88545022  1
  Te2-  Te140  1  0.25276543  0.24459508  0.88565909  1
  Te2-  Te141  1  0.24881566  0.74910963  0.87967378  1
  Te2-  Te142  1  0.75539199  0.25415553  0.87996907  1
  Te2-  Te143  1  0.75267518  0.74947333  0.88401524  1
  Te2-  Te144  1  0.33182957  0.41508666  0.22139523  1
  Te2-  Te145  1  0.32326977  0.90761488  0.21498291  1
  Te2-  Te146  1  0.82243736  0.40620238  0.21609968  1
  Te2-  Te147  1  0.82595832  0.90989451  0.21661201  1
  Te2-  Te148  1  0.08440027  0.16642787  0.21338619  1
  Te2-  Te149  1  0.08066186  0.66772395  0.21574178  1
  Te2-  Te150  1  0.58347865  0.16688238  0.21233965  1
  Te2-  Te151  1  0.58712306  0.66721741  0.22044919  1
  Te2-  Te152  1  0.08514243  0.41389653  0.21333879  1
  Te2-  Te153  1  0.08544674  0.90853696  0.21957550  1
  Te2-  Te154  1  0.58630635  0.40852352  0.22331827  1
  Te2-  Te155  1  0.58521557  0.90945795  0.21385342  1
  Te2-  Te156  1  0.15964998  0.08361701  0.55050452  1
  Te2-  Te157  1  0.15693937  0.57361983  0.54728875  1
  Te2-  Te158  1  0.65990270  0.07828763  0.55210085  1
  Te2-  Te159  1  0.65893127  0.57966373  0.55156365  1
  Te2-  Te160  1  0.42139843  0.34268306  0.55476850  1
  Te2-  Te161  1  0.41500015  0.83389787  0.54407118  1
  Te2-  Te162  1  0.91872386  0.33726621  0.54799666  1
  Te2-  Te163  1  0.91923873  0.84016201  0.54929451  1
  Te2-  Te164  1  0.41550666  0.08016957  0.55168619  1
  Te2-  Te165  1  0.42178171  0.57764611  0.54985806  1
  Te2-  Te166  1  0.91921234  0.08035023  0.54883214  1
  Te2-  Te167  1  0.91966971  0.57975009  0.55124360  1
  Te2-  Te168  1  0.00140225  0.00204082  0.88217908  1
  Te2-  Te169  1  -0.00015640  0.50168160  0.88213288  1
  Te2-  Te170  1  0.50003066  -0.00003409  0.88145501  1
  Te2-  Te171  1  0.50041620  0.50192328  0.88282640  1
  Te2-  Te172  1  0.33434883  0.16626242  0.21765419  1
  Te2-  Te173  1  0.33350602  0.66891429  0.21492685  1
  Te2-  Te174  1  0.83346904  0.16744609  0.21367780  1
  Te2-  Te175  1  0.83542156  0.66733443  0.21770737  1
  Te2-  Te176  1  0.16750080  0.33428707  0.54663644  1
  Te2-  Te177  1  0.16781291  0.83298355  0.54978812  1
  Te2-  Te178  1  0.66788301  0.33201302  0.54989690  1
  Te2-  Te179  1  0.66669634  0.83378770  0.54740415  1
  Te2-  Te180  1  0.32593209  0.41508731  0.71176431  1
  Te2-  Te181  1  0.32859328  0.91158581  0.70898178  1
  Te2-  Te182  1  0.82748152  0.41383861  0.70901413  1
  Te2-  Te183  1  0.82893509  0.91472919  0.71189936  1
  Te2-  Te184  1  0.08571691  0.17301892  0.71185227  1
  Te2-  Te185  1  0.08825969  0.67378517  0.70962097  1
  Te2-  Te186  1  0.58778756  0.17391453  0.70780095  1
  Te2-  Te187  1  0.58504079  0.67265563  0.71226369  1
  Te2-  Te188  1  0.08468839  0.41560106  0.71189762  1
  Te2-  Te189  1  0.08776878  0.91515304  0.71147340  1
  Te2-  Te190  1  0.58900728  0.41572277  0.71058852  1
  Te2-  Te191  1  0.58458685  0.91086569  0.70938553  1
  Te2-  Te192  1  0.16196813  0.08382877  0.04505327  1
  Te2-  Te193  1  0.16367113  0.58297451  0.04380100  1
  Te2-  Te194  1  0.66129442  0.08420254  0.04056886  1
  Te2-  Te195  1  0.66003956  0.58319065  0.04772168  1
  Te2-  Te196  1  0.42025573  0.34111835  0.04957598  1
  Te2-  Te197  1  0.41915320  0.84066053  0.04224121  1
  Te2-  Te198  1  0.92052739  0.34015263  0.04272456  1
  Te2-  Te199  1  0.91916464  0.83946063  0.04672282  1
  Te2-  Te200  1  0.42076228  0.08290923  0.04319237  1
  Te2-  Te201  1  0.42131821  0.58382999  0.04742938  1
  Te2-  Te202  1  0.92264414  0.08396514  0.04270790  1
  Te2-  Te203  1  0.92062192  0.58190170  0.04415905  1
  Te2-  Te204  1  0.49412503  0.24187416  0.37855244  1
  Te2-  Te205  1  0.49499454  0.74793222  0.37412669  1
  Te2-  Te206  1  0.99557606  0.24615279  0.37615187  1
  Te2-  Te207  1  0.99260158  0.74462313  0.37606441  1
  Te2-  Te208  1  0.25495293  0.00463452  0.37842669  1
  Te2-  Te209  1  0.25241778  0.50636418  0.37364901  1
  Te2-  Te210  1  0.75317375  0.00621934  0.37771947  1
  Te2-  Te211  1  0.75620303  0.50470955  0.37813498  1
  Te2-  Te212  1  0.25294146  0.24390691  0.37614694  1
  Te2-  Te213  1  0.25124865  0.74631293  0.37493778  1
  Te2-  Te214  1  0.75036895  0.24324302  0.37826036  1
  Te2-  Te215  1  0.75666977  0.74887313  0.37619784  1
