# generated using pymatgen
data_Ti(CuTe)4
_symmetry_space_group_name_H-M   'P 1'
_cell_length_a   16.87624274
_cell_length_b   16.87955910
_cell_length_c   20.68945944
_cell_angle_alpha   89.96763950
_cell_angle_beta   90.05867650
_cell_angle_gamma   120.02232915
_symmetry_Int_Tables_number   1
_chemical_formula_structural   Ti(CuTe)4
_chemical_formula_sum   'Ti24 Cu96 Te96'
_cell_volume   5102.91867974
_cell_formula_units_Z   24
loop_
 _symmetry_equiv_pos_site_id
 _symmetry_equiv_pos_as_xyz
  1  'x, y, z'
loop_
 _atom_type_symbol
 _atom_type_oxidation_number
  Ti4+  4.0
  Cu+  1.0
  Te2-  -2.0
loop_
 _atom_site_type_symbol
 _atom_site_label
 _atom_site_symmetry_multiplicity
 _atom_site_fract_x
 _atom_site_fract_y
 _atom_site_fract_z
 _atom_site_occupancy
  Ti4+  Ti0  1  -0.00337284  -0.00210178  0.25831537  1
  Ti4+  Ti1  1  -0.00099645  0.49858393  0.25875461  1
  Ti4+  Ti2  1  0.49992236  -0.00122938  0.26151528  1
  Ti4+  Ti3  1  0.49754044  0.50010491  0.25577854  1
  Ti4+  Ti4  1  0.33148594  0.16896398  0.58716272  1
  Ti4+  Ti5  1  0.33626704  0.66969196  0.59269866  1
  Ti4+  Ti6  1  0.83628801  0.17078019  0.59145312  1
  Ti4+  Ti7  1  0.83444053  0.66817709  0.58892596  1
  Ti4+  Ti8  1  0.16614094  0.33272966  0.92787601  1
  Ti4+  Ti9  1  0.16739035  0.83373927  0.92493177  1
  Ti4+  Ti10  1  0.66774977  0.33035971  0.92234313  1
  Ti4+  Ti11  1  0.66400544  0.83153254  0.92505854  1
  Ti4+  Ti12  1  0.00200806  0.00124835  0.75735166  1
  Ti4+  Ti13  1  0.00097972  0.49897203  0.75468292  1
  Ti4+  Ti14  1  0.50017008  0.00022195  0.75390769  1
  Ti4+  Ti15  1  0.50097108  0.50184378  0.75605873  1
  Ti4+  Ti16  1  0.33347736  0.16600805  0.08993421  1
  Ti4+  Ti17  1  0.33310870  0.66438253  0.09087340  1
  Ti4+  Ti18  1  0.83445660  0.16591324  0.09055032  1
  Ti4+  Ti19  1  0.83251866  0.66686246  0.08780305  1
  Ti4+  Ti20  1  0.16829214  0.33461692  0.42225085  1
  Ti4+  Ti21  1  0.16642953  0.83373577  0.41931036  1
  Ti4+  Ti22  1  0.66707198  0.33320340  0.41954478  1
  Ti4+  Ti23  1  0.66605150  0.83285147  0.42269315  1
  Cu+  Cu24  1  0.07660172  0.43107164  0.47589002  1
  Cu+  Cu25  1  0.23487961  0.25229950  0.14455960  1
  Cu+  Cu26  1  0.73665325  0.76243691  0.13930152  1
  Cu+  Cu27  1  0.90654886  0.30825315  0.80864218  1
  Cu+  Cu28  1  0.07292478  0.15598242  0.47755949  1
  Cu+  Cu29  1  0.34872991  0.92893775  0.47606181  1
  Cu+  Cu30  1  0.35631367  0.43178387  0.47413664  1
  Cu+  Cu31  1  0.57826273  0.92893864  0.47914229  1
  Cu+  Cu32  1  0.40657798  0.81938116  0.81385465  1
  Cu+  Cu33  1  0.40321465  0.58726822  0.81280450  1
  Cu+  Cu34  1  0.07039682  0.92266187  0.47216740  1
  Cu+  Cu35  1  0.23509886  0.48018410  0.14486553  1
  Cu+  Cu36  1  0.16257887  0.08125897  0.17382572  1
  Cu+  Cu37  1  0.16252164  0.57811357  0.17375606  1
  Cu+  Cu38  1  0.66579717  0.07927508  0.17473314  1
  Cu+  Cu39  1  0.66413030  0.58735645  0.16837413  1
  Cu+  Cu40  1  0.41199149  0.33371025  0.16937251  1
  Cu+  Cu41  1  0.41921323  0.83640216  0.17586270  1
  Cu+  Cu42  1  0.91837826  0.33539684  0.17244703  1
  Cu+  Cu43  1  0.91187258  0.83395987  0.17063984  1
  Cu+  Cu44  1  0.41733865  0.07876640  0.17400776  1
  Cu+  Cu45  1  0.41293966  0.57567544  0.16939461  1
  Cu+  Cu46  1  0.91811936  0.08063817  0.17100499  1
  Cu+  Cu47  1  0.91764539  0.58115199  0.17122181  1
  Cu+  Cu48  1  0.49723682  0.25209590  0.49931392  1
  Cu+  Cu49  1  0.49862670  0.75201644  0.50512389  1
  Cu+  Cu50  1  0.99699250  0.25285321  0.50447075  1
  Cu+  Cu51  1  0.99468363  0.75058624  0.50111209  1
  Cu+  Cu52  1  0.24829927  0.00440672  0.49857846  1
  Cu+  Cu53  1  0.25416296  0.50468757  0.50458390  1
  Cu+  Cu54  1  0.75128765  0.00305552  0.50483932  1
  Cu+  Cu55  1  0.75156815  0.50322985  0.50215640  1
  Cu+  Cu56  1  0.25339338  0.25041595  0.49914502  1
  Cu+  Cu57  1  0.25762232  0.75418228  0.50191966  1
  Cu+  Cu58  1  0.75636475  0.25390753  0.50289359  1
  Cu+  Cu59  1  0.75303256  0.74800881  0.50245629  1
  Cu+  Cu60  1  0.33070248  0.41591530  0.84159607  1
  Cu+  Cu61  1  0.32831024  0.91338821  0.83712413  1
  Cu+  Cu62  1  0.83108089  0.40814489  0.83530409  1
  Cu+  Cu63  1  0.83164467  0.91426287  0.84047506  1
  Cu+  Cu64  1  0.08710638  0.16891491  0.84102069  1
  Cu+  Cu65  1  0.08594381  0.67081932  0.83690175  1
  Cu+  Cu66  1  0.58705529  0.17153370  0.83505361  1
  Cu+  Cu67  1  0.58088762  0.66929053  0.83778494  1
  Cu+  Cu68  1  0.08205439  0.41185145  0.83812434  1
  Cu+  Cu69  1  0.08655933  0.91573076  0.83887428  1
  Cu+  Cu70  1  0.58522677  0.41279648  0.83701125  1
  Cu+  Cu71  1  0.58244715  0.91202633  0.83660727  1
  Cu+  Cu72  1  0.16719117  0.08504007  0.67369101  1
  Cu+  Cu73  1  0.16913285  0.58499800  0.67524390  1
  Cu+  Cu74  1  0.66933762  0.08667660  0.67557279  1
  Cu+  Cu75  1  0.67129418  0.58601498  0.67287837  1
  Cu+  Cu76  1  0.41524523  0.33383685  0.67273440  1
  Cu+  Cu77  1  0.41819277  0.83409421  0.68336880  1
  Cu+  Cu78  1  0.92009289  0.33264130  0.67980861  1
  Cu+  Cu79  1  0.91738338  0.83223631  0.67412151  1
  Cu+  Cu80  1  0.41471104  0.08527783  0.67251387  1
  Cu+  Cu81  1  0.41747710  0.58614086  0.68225971  1
  Cu+  Cu82  1  0.91912011  0.08645203  0.67719652  1
  Cu+  Cu83  1  0.91706714  0.58666038  0.67136819  1
  Cu+  Cu84  1  -0.00051177  0.24910784  0.01105649  1
  Cu+  Cu85  1  0.00399255  0.75175983  0.00727379  1
  Cu+  Cu86  1  0.50462657  0.24869123  0.00668210  1
  Cu+  Cu87  1  0.49932829  0.74968139  0.01210176  1
  Cu+  Cu88  1  0.24916068  0.49712120  0.01548923  1
  Cu+  Cu89  1  0.25023429  0.99671809  0.00814089  1
  Cu+  Cu90  1  0.75058606  0.49524198  0.00383366  1
  Cu+  Cu91  1  0.74999342  0.99817620  0.00851320  1
  Cu+  Cu92  1  0.24931696  0.25146801  0.01516327  1
  Cu+  Cu93  1  0.24976401  0.75226532  0.01057950  1
  Cu+  Cu94  1  0.75023864  0.24978036  0.00797143  1
  Cu+  Cu95  1  0.74707882  0.75151959  0.01081034  1
  Cu+  Cu96  1  0.33608397  0.41822188  0.34664998  1
  Cu+  Cu97  1  0.33709846  0.91669542  0.34688390  1
  Cu+  Cu98  1  0.83557532  0.41688799  0.34017725  1
  Cu+  Cu99  1  0.83173826  0.91435376  0.34198808  1
  Cu+  Cu100  1  0.08206719  0.16345790  0.34798979  1
  Cu+  Cu101  1  0.08192870  0.66220116  0.34067509  1
  Cu+  Cu102  1  0.58412120  0.16428607  0.34157439  1
  Cu+  Cu103  1  0.58202706  0.66527724  0.33988283  1
  Cu+  Cu104  1  0.08237241  0.41915752  0.34806918  1
  Cu+  Cu105  1  0.07914328  0.91656358  0.34293134  1
  Cu+  Cu106  1  0.58139226  0.41768802  0.33640203  1
  Cu+  Cu107  1  0.58014832  0.91659806  0.34899038  1
  Cu+  Cu108  1  0.00094830  -0.00335317  0.11458417  1
  Cu+  Cu109  1  -0.00279970  0.50023861  0.11544991  1
  Cu+  Cu110  1  0.50344116  0.00207030  0.11936824  1
  Cu+  Cu111  1  0.50453883  0.49568610  0.11172850  1
  Cu+  Cu112  1  0.33689720  0.16722745  0.44047553  1
  Cu+  Cu113  1  0.33431982  0.66714386  0.44786163  1
  Cu+  Cu114  1  0.83103823  0.16487604  0.44749912  1
  Cu+  Cu115  1  0.82966098  0.66202301  0.44384739  1
  Cu+  Cu116  1  0.16851023  0.33228525  0.78420377  1
  Cu+  Cu117  1  0.16378021  0.83311484  0.77990552  1
  Cu+  Cu118  1  0.66797801  0.33746561  0.77742898  1
  Cu+  Cu119  1  0.67244795  0.83607296  0.78224112  1
  Te2-  Te120  1  -0.00485663  -0.00253570  0.39003257  1
  Te2-  Te121  1  -0.00222528  0.50061869  0.38987785  1
  Te2-  Te122  1  0.50159213  0.00317366  0.39387671  1
  Te2-  Te123  1  0.50320093  0.50165245  0.38622179  1
  Te2-  Te124  1  0.33287974  0.16854503  0.71551726  1
  Te2-  Te125  1  0.33206967  0.66722147  0.72440854  1
  Te2-  Te126  1  0.83374689  0.16559732  0.72145076  1
  Te2-  Te127  1  0.83525394  0.66785530  0.71801395  1
  Te2-  Te128  1  0.16281269  0.33073878  0.05972700  1
  Te2-  Te129  1  0.16677067  0.83354399  0.05435486  1
  Te2-  Te130  1  0.66863339  0.33272556  0.05148725  1
  Te2-  Te131  1  0.66440588  0.83461164  0.05555340  1
  Te2-  Te132  1  0.49529251  0.24524566  0.88096273  1
  Te2-  Te133  1  0.48689589  0.74341324  0.88561083  1
  Te2-  Te134  1  0.99352046  0.24300346  0.88504646  1
  Te2-  Te135  1  0.99611694  0.74755553  0.88142152  1
  Te2-  Te136  1  0.25412859  0.00528036  0.88245513  1
  Te2-  Te137  1  0.24855369  0.50522467  0.88722563  1
  Te2-  Te138  1  0.74975269  0.00174128  0.88247835  1
  Te2-  Te139  1  0.75463723  0.50088180  0.87793387  1
  Te2-  Te140  1  0.25329514  0.24893310  0.88739488  1
  Te2-  Te141  1  0.25137324  0.74319505  0.88447074  1
  Te2-  Te142  1  0.75213362  0.23950633  0.88221473  1
  Te2-  Te143  1  0.74852304  0.74573421  0.88336346  1
  Te2-  Te144  1  0.32034853  0.40933577  0.21896752  1
  Te2-  Te145  1  0.32816516  0.91238023  0.21986473  1
  Te2-  Te146  1  0.82848833  0.41342155  0.21470305  1
  Te2-  Te147  1  0.82334210  0.91434187  0.21644401  1
  Te2-  Te148  1  0.08253278  0.17188620  0.21995511  1
  Te2-  Te149  1  0.08536157  0.66929629  0.21517455  1
  Te2-  Te150  1  0.58607542  0.16881185  0.21603799  1
  Te2-  Te151  1  0.58063626  0.67299155  0.21425752  1
  Te2-  Te152  1  0.08352749  0.40828117  0.22064946  1
  Te2-  Te153  1  0.08065322  0.91211269  0.21557273  1
  Te2-  Te154  1  0.58263210  0.41666721  0.21029180  1
  Te2-  Te155  1  0.58563510  0.91271399  0.22149576  1
  Te2-  Te156  1  0.15566871  0.08017936  0.54728031  1
  Te2-  Te157  1  0.16464168  0.58673484  0.54923746  1
  Te2-  Te158  1  0.66367985  0.08672247  0.54949440  1
  Te2-  Te159  1  0.66252400  0.58156428  0.54707103  1
  Te2-  Te160  1  0.42191881  0.34284424  0.54662096  1
  Te2-  Te161  1  0.42345684  0.84563394  0.55432007  1
  Te2-  Te162  1  0.92176505  0.34467523  0.55205033  1
  Te2-  Te163  1  0.91896265  0.84331483  0.54851268  1
  Te2-  Te164  1  0.41974762  0.08472723  0.54603625  1
  Te2-  Te165  1  0.42361700  0.58472240  0.55321083  1
  Te2-  Te166  1  0.91899813  0.08086385  0.55084717  1
  Te2-  Te167  1  0.92034779  0.58331770  0.54549139  1
  Te2-  Te168  1  0.00099618  -0.00132077  0.88345470  1
  Te2-  Te169  1  0.00021053  0.50047610  0.88140615  1
  Te2-  Te170  1  0.50003146  0.00055580  0.88069553  1
  Te2-  Te171  1  0.50221383  0.49871437  0.88297963  1
  Te2-  Te172  1  0.33363366  0.16510706  0.21709000  1
  Te2-  Te173  1  0.33333379  0.66527386  0.21778483  1
  Te2-  Te174  1  0.83469302  0.16610409  0.21695163  1
  Te2-  Te175  1  0.83196471  0.66461885  0.21497145  1
  Te2-  Te176  1  0.16860066  0.33427524  0.55070542  1
  Te2-  Te177  1  0.16639971  0.83440905  0.54698278  1
  Te2-  Te178  1  0.66636305  0.33456835  0.54584043  1
  Te2-  Te179  1  0.66925253  0.83325085  0.54971142  1
  Te2-  Te180  1  0.32707407  0.41345165  0.71283549  1
  Te2-  Te181  1  0.32614800  0.91585174  0.70953610  1
  Te2-  Te182  1  0.82945085  0.41612511  0.70784026  1
  Te2-  Te183  1  0.83070330  0.91541471  0.71250186  1
  Te2-  Te184  1  0.08826492  0.17417068  0.71386273  1
  Te2-  Te185  1  0.08613528  0.67190753  0.71051196  1
  Te2-  Te186  1  0.58504474  0.17287407  0.70942005  1
  Te2-  Te187  1  0.59068880  0.67497186  0.71098060  1
  Te2-  Te188  1  0.09212899  0.41567994  0.71105529  1
  Te2-  Te189  1  0.08697104  0.91547638  0.71125638  1
  Te2-  Te190  1  0.58529904  0.41578461  0.70969303  1
  Te2-  Te191  1  0.59132630  0.91652850  0.71001772  1
  Te2-  Te192  1  0.16095900  0.07792383  0.04527937  1
  Te2-  Te193  1  0.16022939  0.58128624  0.04612597  1
  Te2-  Te194  1  0.66253088  0.08005761  0.04712323  1
  Te2-  Te195  1  0.66188193  0.57766575  0.04025140  1
  Te2-  Te196  1  0.42269006  0.33750122  0.04231001  1
  Te2-  Te197  1  0.41868003  0.83809173  0.04923970  1
  Te2-  Te198  1  0.91943000  0.33858104  0.04608187  1
  Te2-  Te199  1  0.92035517  0.83908363  0.04263027  1
  Te2-  Te200  1  0.41954003  0.07993164  0.04700177  1
  Te2-  Te201  1  0.42181934  0.57915150  0.04402521  1
  Te2-  Te202  1  0.91973128  0.07852678  0.04532208  1
  Te2-  Te203  1  0.91918886  0.58152803  0.04406248  1
  Te2-  Te204  1  0.49559991  0.24776644  0.37297981  1
  Te2-  Te205  1  0.49246170  0.74418353  0.37838968  1
  Te2-  Te206  1  0.99267909  0.24628957  0.37732480  1
  Te2-  Te207  1  0.99301460  0.74432601  0.37415211  1
  Te2-  Te208  1  0.25252409  0.00679391  0.37136192  1
  Te2-  Te209  1  0.25499460  0.50908921  0.37669147  1
  Te2-  Te210  1  0.75385088  0.00604994  0.37755173  1
  Te2-  Te211  1  0.75145581  0.50411587  0.37425791  1
  Te2-  Te212  1  0.25439775  0.24585941  0.37325975  1
  Te2-  Te213  1  0.25175639  0.74423350  0.37602237  1
  Te2-  Te214  1  0.75449422  0.24720359  0.37680961  1
  Te2-  Te215  1  0.75104550  0.74542957  0.37659972  1
