# generated using pymatgen
data_Ti(CuTe)4
_symmetry_space_group_name_H-M   'P 1'
_cell_length_a   16.86461159
_cell_length_b   16.86810489
_cell_length_c   20.67876839
_cell_angle_alpha   90.03722917
_cell_angle_beta   90.00414043
_cell_angle_gamma   119.99502018
_symmetry_Int_Tables_number   1
_chemical_formula_structural   Ti(CuTe)4
_chemical_formula_sum   'Ti24 Cu96 Te96'
_cell_volume   5094.71143099
_cell_formula_units_Z   24
loop_
 _symmetry_equiv_pos_site_id
 _symmetry_equiv_pos_as_xyz
  1  'x, y, z'
loop_
 _atom_type_symbol
 _atom_type_oxidation_number
  Ti4+  4.0
  Cu+  1.0
  Te2-  -2.0
loop_
 _atom_site_type_symbol
 _atom_site_label
 _atom_site_symmetry_multiplicity
 _atom_site_fract_x
 _atom_site_fract_y
 _atom_site_fract_z
 _atom_site_occupancy
  Ti4+  Ti0  1  0.00217469  0.00312539  0.26195078  1
  Ti4+  Ti1  1  0.00164986  0.50200096  0.26124529  1
  Ti4+  Ti2  1  0.50469152  0.00278945  0.25729517  1
  Ti4+  Ti3  1  0.50324568  0.50350370  0.25482500  1
  Ti4+  Ti4  1  0.33275445  0.16435638  0.58877450  1
  Ti4+  Ti5  1  0.33569856  0.66786320  0.59097646  1
  Ti4+  Ti6  1  0.83150724  0.16566596  0.59322881  1
  Ti4+  Ti7  1  0.83628786  0.66521204  0.59080160  1
  Ti4+  Ti8  1  0.16329650  0.33147833  0.92141878  1
  Ti4+  Ti9  1  0.16076993  0.83050626  0.92602743  1
  Ti4+  Ti10  1  0.66172181  0.33034282  0.92474822  1
  Ti4+  Ti11  1  0.66409088  0.83041867  0.92325359  1
  Ti4+  Ti12  1  0.00011984  -0.00134676  0.75470020  1
  Ti4+  Ti13  1  0.00027929  0.49937825  0.75497183  1
  Ti4+  Ti14  1  0.50088075  0.00146203  0.75604013  1
  Ti4+  Ti15  1  0.49877978  0.49949334  0.75464613  1
  Ti4+  Ti16  1  0.33344376  0.16750560  0.08937271  1
  Ti4+  Ti17  1  0.33433974  0.66737993  0.08860258  1
  Ti4+  Ti18  1  0.83212511  0.16658754  0.09148831  1
  Ti4+  Ti19  1  0.83148938  0.66563569  0.08960442  1
  Ti4+  Ti20  1  0.16851001  0.33496445  0.42252144  1
  Ti4+  Ti21  1  0.16792233  0.83516551  0.41894399  1
  Ti4+  Ti22  1  0.66778007  0.33365856  0.42343660  1
  Ti4+  Ti23  1  0.66920003  0.83544425  0.42417473  1
  Cu+  Cu24  1  0.90055521  0.31398855  0.80941130  1
  Cu+  Cu25  1  0.85128774  0.41817098  0.47520301  1
  Cu+  Cu26  1  0.40230682  0.59307259  0.80718572  1
  Cu+  Cu27  1  0.07141547  0.15195555  0.47939445  1
  Cu+  Cu28  1  0.52635971  0.26381276  0.14157116  1
  Cu+  Cu29  1  0.90147274  0.80650495  0.80658511  1
  Cu+  Cu30  1  0.57171595  0.14215114  0.47359790  1
  Cu+  Cu31  1  0.52824224  0.76552563  0.13858717  1
  Cu+  Cu32  1  0.90366916  0.08368544  0.81180227  1
  Cu+  Cu33  1  0.08109759  0.65322804  0.47673645  1
  Cu+  Cu34  1  0.40042324  0.30722783  0.80421767  1
  Cu+  Cu35  1  0.07198769  0.91892508  0.47589099  1
  Cu+  Cu36  1  0.16244491  0.08402610  0.17504082  1
  Cu+  Cu37  1  0.16333242  0.58338789  0.17415867  1
  Cu+  Cu38  1  0.66419033  0.08313946  0.17186301  1
  Cu+  Cu39  1  0.66216341  0.58277383  0.16858716  1
  Cu+  Cu40  1  0.42341817  0.33787088  0.16899208  1
  Cu+  Cu41  1  0.42539418  0.83654518  0.17061946  1
  Cu+  Cu42  1  0.91825333  0.33709769  0.17556765  1
  Cu+  Cu43  1  0.91950345  0.83649001  0.17471686  1
  Cu+  Cu44  1  0.42419883  0.08883758  0.17149431  1
  Cu+  Cu45  1  0.42469985  0.58868842  0.16824591  1
  Cu+  Cu46  1  0.92100083  0.08621053  0.17563962  1
  Cu+  Cu47  1  0.91821417  0.58274176  0.17506439  1
  Cu+  Cu48  1  0.49632900  0.24348761  0.50315649  1
  Cu+  Cu49  1  0.50005405  0.74889090  0.50621856  1
  Cu+  Cu50  1  0.99802093  0.24932034  0.50642914  1
  Cu+  Cu51  1  0.99618637  0.74574803  0.50120769  1
  Cu+  Cu52  1  0.25020417  0.00503913  0.49791862  1
  Cu+  Cu53  1  0.25701716  0.50636966  0.50386083  1
  Cu+  Cu54  1  0.75191608  0.00320323  0.50643243  1
  Cu+  Cu55  1  0.75683264  0.50155778  0.50325887  1
  Cu+  Cu56  1  0.24939398  0.24733475  0.50225714  1
  Cu+  Cu57  1  0.25438128  0.74872317  0.50119825  1
  Cu+  Cu58  1  0.74789862  0.24636480  0.50627194  1
  Cu+  Cu59  1  0.75209256  0.74856123  0.50545122  1
  Cu+  Cu60  1  0.32954989  0.41464257  0.83446742  1
  Cu+  Cu61  1  0.32996656  0.91584413  0.83979054  1
  Cu+  Cu62  1  0.82884502  0.41343482  0.83911549  1
  Cu+  Cu63  1  0.82892462  0.91049495  0.83688114  1
  Cu+  Cu64  1  0.08070281  0.17089845  0.83318089  1
  Cu+  Cu65  1  0.08247113  0.67079028  0.83798536  1
  Cu+  Cu66  1  0.58178927  0.17019590  0.83751871  1
  Cu+  Cu67  1  0.57990429  0.66972387  0.83513820  1
  Cu+  Cu68  1  0.07833322  0.40922204  0.83336950  1
  Cu+  Cu69  1  0.07753786  0.90683513  0.83698192  1
  Cu+  Cu70  1  0.57726378  0.40881281  0.83677953  1
  Cu+  Cu71  1  0.58195819  0.91360231  0.83730310  1
  Cu+  Cu72  1  0.16813617  0.08214848  0.67446753  1
  Cu+  Cu73  1  0.17019267  0.58660048  0.67428693  1
  Cu+  Cu74  1  0.66667840  0.08558921  0.67768734  1
  Cu+  Cu75  1  0.66992813  0.58388014  0.67281259  1
  Cu+  Cu76  1  0.41559901  0.32780841  0.67486974  1
  Cu+  Cu77  1  0.41825537  0.83300827  0.67338542  1
  Cu+  Cu78  1  0.91564764  0.33106609  0.68140141  1
  Cu+  Cu79  1  0.91786392  0.82893342  0.67960545  1
  Cu+  Cu80  1  0.41864974  0.08432066  0.67271167  1
  Cu+  Cu81  1  0.41744131  0.58759835  0.67814479  1
  Cu+  Cu82  1  0.91801202  0.08575980  0.68229965  1
  Cu+  Cu83  1  0.91957826  0.58492916  0.67693126  1
  Cu+  Cu84  1  -0.00212840  0.24991316  0.01008326  1
  Cu+  Cu85  1  -0.00094914  0.74904435  0.01030422  1
  Cu+  Cu86  1  0.49998462  0.25008782  0.01250305  1
  Cu+  Cu87  1  0.50117241  0.75000440  0.01090969  1
  Cu+  Cu88  1  0.24513682  0.49759722  0.00599716  1
  Cu+  Cu89  1  0.24286588  0.99491646  0.00885953  1
  Cu+  Cu90  1  0.74723783  0.49662724  0.00829651  1
  Cu+  Cu91  1  0.74991236  0.99936944  0.01038314  1
  Cu+  Cu92  1  0.24493737  0.24808387  0.00595153  1
  Cu+  Cu93  1  0.24486971  0.75002989  0.00890823  1
  Cu+  Cu94  1  0.74808547  0.24848894  0.01044528  1
  Cu+  Cu95  1  0.74963670  0.74938744  0.00819175  1
  Cu+  Cu96  1  0.33917786  0.42233955  0.33610871  1
  Cu+  Cu97  1  0.33922649  0.92009674  0.33781695  1
  Cu+  Cu98  1  0.83893403  0.42127731  0.34781169  1
  Cu+  Cu99  1  0.83672225  0.92032229  0.34329938  1
  Cu+  Cu100  1  0.08394964  0.16593996  0.34912609  1
  Cu+  Cu101  1  0.08259654  0.66552741  0.34677413  1
  Cu+  Cu102  1  0.58302896  0.16584394  0.34603302  1
  Cu+  Cu103  1  0.58485152  0.66753070  0.34061124  1
  Cu+  Cu104  1  0.08536277  0.41991455  0.34330886  1
  Cu+  Cu105  1  0.08496212  0.92287879  0.34697353  1
  Cu+  Cu106  1  0.58324638  0.42004168  0.33999242  1
  Cu+  Cu107  1  0.58562943  0.91899081  0.34310077  1
  Cu+  Cu108  1  -0.00364282  -0.00152324  0.11997671  1
  Cu+  Cu109  1  -0.00118871  0.49918930  0.11941494  1
  Cu+  Cu110  1  0.49366883  -0.00260498  0.11357684  1
  Cu+  Cu111  1  0.49453081  0.49754138  0.10902002  1
  Cu+  Cu112  1  0.33674484  0.17319717  0.44393875  1
  Cu+  Cu113  1  0.33894575  0.66964002  0.44656632  1
  Cu+  Cu114  1  0.83424907  0.16772979  0.44946852  1
  Cu+  Cu115  1  0.82811969  0.66487702  0.44687709  1
  Cu+  Cu116  1  0.16918404  0.33577982  0.77503302  1
  Cu+  Cu117  1  0.17206870  0.83547131  0.78206809  1
  Cu+  Cu118  1  0.66767903  0.33763365  0.78045945  1
  Cu+  Cu119  1  0.66625928  0.83360150  0.77826996  1
  Te2-  Te120  1  -0.00179805  0.00064145  0.39478155  1
  Te2-  Te121  1  0.00419186  0.50061358  0.39392640  1
  Te2-  Te122  1  0.50091433  -0.00134181  0.38787460  1
  Te2-  Te123  1  0.50190319  0.50279841  0.38420814  1
  Te2-  Te124  1  0.33243588  0.16205279  0.71908581  1
  Te2-  Te125  1  0.33354452  0.66989650  0.72159646  1
  Te2-  Te126  1  0.83035495  0.16451366  0.72518258  1
  Te2-  Te127  1  0.83226320  0.66190807  0.72111207  1
  Te2-  Te128  1  0.16452413  0.33272036  0.04993847  1
  Te2-  Te129  1  0.16319531  0.83163424  0.05544641  1
  Te2-  Te130  1  0.66727369  0.33270473  0.05492690  1
  Te2-  Te131  1  0.66891847  0.83364826  0.05299325  1
  Te2-  Te132  1  0.48730891  0.24139130  0.88456762  1
  Te2-  Te133  1  0.49018613  0.74726653  0.88364790  1
  Te2-  Te134  1  0.98572985  0.24258882  0.88350534  1
  Te2-  Te135  1  0.98614239  0.73965031  0.88444082  1
  Te2-  Te136  1  0.24530524  0.00114471  0.88237316  1
  Te2-  Te137  1  0.24640258  0.50350682  0.87944283  1
  Te2-  Te138  1  0.74942304  0.00309821  0.88375471  1
  Te2-  Te139  1  0.74679814  0.49994409  0.88161853  1
  Te2-  Te140  1  0.24748149  0.24301329  0.87966151  1
  Te2-  Te141  1  0.24897041  0.74717262  0.88304794  1
  Te2-  Te142  1  0.74780941  0.24275757  0.88449265  1
  Te2-  Te143  1  0.74783720  0.74122547  0.88183548  1
  Te2-  Te144  1  0.33372487  0.41865136  0.21006008  1
  Te2-  Te145  1  0.33599521  0.91775829  0.21183262  1
  Te2-  Te146  1  0.82993317  0.41575737  0.22100467  1
  Te2-  Te147  1  0.83204948  0.91758050  0.21771808  1
  Te2-  Te148  1  0.08745691  0.17483540  0.22171210  1
  Te2-  Te149  1  0.08620667  0.67307920  0.21950056  1
  Te2-  Te150  1  0.59291472  0.17743555  0.21875860  1
  Te2-  Te151  1  0.59264029  0.67808422  0.21491949  1
  Te2-  Te152  1  0.08678492  0.41619903  0.21788519  1
  Te2-  Te153  1  0.08706822  0.91699053  0.21977233  1
  Te2-  Te154  1  0.59227735  0.41780082  0.21472123  1
  Te2-  Te155  1  0.59358482  0.91721934  0.21729437  1
  Te2-  Te156  1  0.15625209  0.07716221  0.54863855  1
  Te2-  Te157  1  0.16292395  0.57929581  0.54873079  1
  Te2-  Te158  1  0.65874928  0.07749627  0.55167787  1
  Te2-  Te159  1  0.66643883  0.57948882  0.54725844  1
  Te2-  Te160  1  0.41783330  0.33402584  0.54746666  1
  Te2-  Te161  1  0.42043850  0.83878343  0.54754681  1
  Te2-  Te162  1  0.92018755  0.33768193  0.55338764  1
  Te2-  Te163  1  0.91980190  0.83873431  0.55196260  1
  Te2-  Te164  1  0.41555364  0.07346060  0.54710849  1
  Te2-  Te165  1  0.42225473  0.58185659  0.55106741  1
  Te2-  Te166  1  0.91743962  0.07880908  0.55450207  1
  Te2-  Te167  1  0.92490184  0.57803622  0.55058769  1
  Te2-  Te168  1  -0.00012176  0.00063545  0.88205891  1
  Te2-  Te169  1  -0.00043562  0.49993085  0.88192949  1
  Te2-  Te170  1  0.49889010  0.00022007  0.88262474  1
  Te2-  Te171  1  0.49841459  0.49995440  0.88204390  1
  Te2-  Te172  1  0.33465394  0.16936757  0.21626122  1
  Te2-  Te173  1  0.33470100  0.66727968  0.21554756  1
  Te2-  Te174  1  0.83369154  0.16806481  0.21822288  1
  Te2-  Te175  1  0.83149643  0.66680728  0.21613274  1
  Te2-  Te176  1  0.16989637  0.33643618  0.54980073  1
  Te2-  Te177  1  0.16900346  0.83443337  0.54661714  1
  Te2-  Te178  1  0.66458226  0.33344615  0.55108180  1
  Te2-  Te179  1  0.66840344  0.83336989  0.55092631  1
  Te2-  Te180  1  0.32758288  0.41311711  0.70585999  1
  Te2-  Te181  1  0.32998644  0.91460834  0.71128869  1
  Te2-  Te182  1  0.82636308  0.41454162  0.71056130  1
  Te2-  Te183  1  0.82632267  0.91156403  0.70841440  1
  Te2-  Te184  1  0.09009941  0.17340792  0.70787094  1
  Te2-  Te185  1  0.08829977  0.67330880  0.71195079  1
  Te2-  Te186  1  0.58653436  0.17501289  0.71153770  1
  Te2-  Te187  1  0.58955707  0.67265804  0.70871742  1
  Te2-  Te188  1  0.08921002  0.41575427  0.70721434  1
  Te2-  Te189  1  0.08928598  0.91346220  0.71034615  1
  Te2-  Te190  1  0.58670321  0.41458951  0.70909049  1
  Te2-  Te191  1  0.58710653  0.91490233  0.71106492  1
  Te2-  Te192  1  0.15979545  0.08077705  0.04791210  1
  Te2-  Te193  1  0.16064443  0.58097116  0.04702230  1
  Te2-  Te194  1  0.65933394  0.07879339  0.04618545  1
  Te2-  Te195  1  0.65932561  0.57918895  0.04296398  1
  Te2-  Te196  1  0.41522773  0.33830733  0.04111701  1
  Te2-  Te197  1  0.41690677  0.83882063  0.04248596  1
  Te2-  Te198  1  0.91760410  0.33881534  0.04780592  1
  Te2-  Te199  1  0.91856391  0.83847991  0.04698748  1
  Te2-  Te200  1  0.41466087  0.07721027  0.04335789  1
  Te2-  Te201  1  0.41567164  0.57757918  0.04057047  1
  Te2-  Te202  1  0.91906398  0.08098522  0.04803252  1
  Te2-  Te203  1  0.91705072  0.57859393  0.04725252  1
  Te2-  Te204  1  0.49601445  0.25108835  0.37587147  1
  Te2-  Te205  1  0.49762247  0.74906146  0.37883125  1
  Te2-  Te206  1  0.99452282  0.24992677  0.37895354  1
  Te2-  Te207  1  0.99217821  0.74870887  0.37449368  1
  Te2-  Te208  1  0.25845623  0.00911712  0.37277359  1
  Te2-  Te209  1  0.25589830  0.50693495  0.37743523  1
  Te2-  Te210  1  0.75509991  0.00825442  0.38011077  1
  Te2-  Te211  1  0.75213990  0.50679637  0.37693398  1
  Te2-  Te212  1  0.25790722  0.25305985  0.37500778  1
  Te2-  Te213  1  0.25701753  0.75049845  0.37413416  1
  Te2-  Te214  1  0.75598701  0.24793901  0.37796483  1
  Te2-  Te215  1  0.75452073  0.74967014  0.37827767  1
