# generated using pymatgen
data_Ti(CuTe)4
_symmetry_space_group_name_H-M   'P 1'
_cell_length_a   16.85896926
_cell_length_b   16.86020311
_cell_length_c   20.66811365
_cell_angle_alpha   90.00372193
_cell_angle_beta   89.99996933
_cell_angle_gamma   119.99425938
_symmetry_Int_Tables_number   1
_chemical_formula_structural   Ti(CuTe)4
_chemical_formula_sum   'Ti24 Cu96 Te96'
_cell_volume   5088.03876959
_cell_formula_units_Z   24
loop_
 _symmetry_equiv_pos_site_id
 _symmetry_equiv_pos_as_xyz
  1  'x, y, z'
loop_
 _atom_type_symbol
 _atom_type_oxidation_number
  Ti4+  4.0
  Cu+  1.0
  Te2-  -2.0
loop_
 _atom_site_type_symbol
 _atom_site_label
 _atom_site_symmetry_multiplicity
 _atom_site_fract_x
 _atom_site_fract_y
 _atom_site_fract_z
 _atom_site_occupancy
  Ti4+  Ti0  1  -0.00194820  -0.00153869  0.25689641  1
  Ti4+  Ti1  1  -0.00167675  0.49522901  0.25529577  1
  Ti4+  Ti2  1  0.49524164  -0.00385984  0.25902713  1
  Ti4+  Ti3  1  0.50144131  0.49987897  0.25595428  1
  Ti4+  Ti4  1  0.33058730  0.16931256  0.59004909  1
  Ti4+  Ti5  1  0.33437832  0.66716009  0.59239223  1
  Ti4+  Ti6  1  0.82880716  0.16589496  0.59428049  1
  Ti4+  Ti7  1  0.83479700  0.67064343  0.59041064  1
  Ti4+  Ti8  1  0.16838770  0.33633236  0.92577764  1
  Ti4+  Ti9  1  0.17144186  0.83431272  0.92569471  1
  Ti4+  Ti10  1  0.66853533  0.33234021  0.92273596  1
  Ti4+  Ti11  1  0.66928360  0.83358661  0.92576442  1
  Ti4+  Ti12  1  -0.00144186  0.00050908  0.75714963  1
  Ti4+  Ti13  1  0.00199540  0.50158058  0.75540851  1
  Ti4+  Ti14  1  0.49979179  0.00120835  0.75536398  1
  Ti4+  Ti15  1  0.50047763  0.50105539  0.75689618  1
  Ti4+  Ti16  1  0.33300181  0.16499504  0.08814186  1
  Ti4+  Ti17  1  0.33421240  0.66692428  0.08771821  1
  Ti4+  Ti18  1  0.83562831  0.16815626  0.08951941  1
  Ti4+  Ti19  1  0.83306700  0.66616165  0.08757742  1
  Ti4+  Ti20  1  0.16937731  0.33354899  0.42468087  1
  Ti4+  Ti21  1  0.16244268  0.83209802  0.42240825  1
  Ti4+  Ti22  1  0.66710070  0.33192526  0.42196567  1
  Ti4+  Ti23  1  0.66383283  0.83343545  0.42220670  1
  Cu+  Cu24  1  0.36290299  0.43353637  0.47375619  1
  Cu+  Cu25  1  0.73573080  0.47400558  0.13661130  1
  Cu+  Cu26  1  0.23541097  0.97890553  0.14306344  1
  Cu+  Cu27  1  0.01971898  0.25452871  0.14148669  1
  Cu+  Cu28  1  0.19426287  0.59566138  0.80789031  1
  Cu+  Cu29  1  0.06839872  0.93240288  0.47237694  1
  Cu+  Cu30  1  0.56798902  0.93051727  0.47525057  1
  Cu+  Cu31  1  0.91650654  0.32108168  0.81155029  1
  Cu+  Cu32  1  0.24579871  0.48342851  0.14347296  1
  Cu+  Cu33  1  0.68412535  0.08704453  0.81023214  1
  Cu+  Cu34  1  0.23913482  0.75148125  0.14508385  1
  Cu+  Cu35  1  0.73857323  0.76059568  0.13997236  1
  Cu+  Cu36  1  0.16339664  0.07922716  0.16976807  1
  Cu+  Cu37  1  0.16209250  0.57707990  0.16718663  1
  Cu+  Cu38  1  0.66317870  0.07885502  0.17364751  1
  Cu+  Cu39  1  0.66604649  0.58207441  0.16797410  1
  Cu+  Cu40  1  0.41766677  0.33637272  0.16836137  1
  Cu+  Cu41  1  0.41597838  0.83764625  0.16993125  1
  Cu+  Cu42  1  0.92154841  0.33473452  0.16826154  1
  Cu+  Cu43  1  0.91327704  0.83596055  0.16858680  1
  Cu+  Cu44  1  0.41178986  0.07664008  0.17028680  1
  Cu+  Cu45  1  0.41877142  0.57840274  0.16833957  1
  Cu+  Cu46  1  0.91958191  0.08309688  0.17068079  1
  Cu+  Cu47  1  0.91112038  0.57391609  0.16699096  1
  Cu+  Cu48  1  0.49676277  0.25007931  0.50369820  1
  Cu+  Cu49  1  0.49653992  0.75420763  0.50354821  1
  Cu+  Cu50  1  0.99658709  0.25021845  0.50957382  1
  Cu+  Cu51  1  0.99556246  0.75532481  0.50303768  1
  Cu+  Cu52  1  0.24261010  0.00218806  0.50422225  1
  Cu+  Cu53  1  0.25620619  0.50206166  0.50719175  1
  Cu+  Cu54  1  0.74319283  0.00161805  0.50593416  1
  Cu+  Cu55  1  0.75198997  0.50303832  0.50443115  1
  Cu+  Cu56  1  0.25752563  0.25476463  0.50319207  1
  Cu+  Cu57  1  0.24782822  0.74504673  0.50626048  1
  Cu+  Cu58  1  0.75081746  0.24776732  0.50678981  1
  Cu+  Cu59  1  0.75275091  0.74913376  0.50342436  1
  Cu+  Cu60  1  0.33242890  0.41782731  0.83947376  1
  Cu+  Cu61  1  0.33062062  0.91626185  0.83864319  1
  Cu+  Cu62  1  0.82971840  0.41172701  0.83496021  1
  Cu+  Cu63  1  0.83063614  0.91274985  0.83954797  1
  Cu+  Cu64  1  0.08266293  0.16818337  0.83939432  1
  Cu+  Cu65  1  0.09476246  0.67114815  0.83698773  1
  Cu+  Cu66  1  0.58833985  0.16943575  0.83493908  1
  Cu+  Cu67  1  0.58839841  0.66927132  0.84068708  1
  Cu+  Cu68  1  0.09030483  0.41909332  0.83862681  1
  Cu+  Cu69  1  0.08865043  0.92022467  0.84021922  1
  Cu+  Cu70  1  0.58722364  0.41726435  0.83856895  1
  Cu+  Cu71  1  0.58712080  0.91617398  0.83890101  1
  Cu+  Cu72  1  0.16587326  0.08681189  0.67429572  1
  Cu+  Cu73  1  0.17222248  0.58544660  0.67940998  1
  Cu+  Cu74  1  0.66644211  0.08522051  0.68162605  1
  Cu+  Cu75  1  0.67108816  0.58623074  0.67299559  1
  Cu+  Cu76  1  0.41449187  0.33334746  0.67581853  1
  Cu+  Cu77  1  0.41413246  0.83341330  0.67662130  1
  Cu+  Cu78  1  0.91264325  0.33139256  0.68186341  1
  Cu+  Cu79  1  0.91690852  0.83313677  0.67562086  1
  Cu+  Cu80  1  0.40976885  0.08383286  0.67286884  1
  Cu+  Cu81  1  0.41775863  0.58513513  0.67635078  1
  Cu+  Cu82  1  0.91138485  0.08196660  0.67619246  1
  Cu+  Cu83  1  0.91791006  0.58953049  0.67266827  1
  Cu+  Cu84  1  0.00453530  0.25506896  0.01439982  1
  Cu+  Cu85  1  0.00370661  0.75166481  0.00515070  1
  Cu+  Cu86  1  0.50172990  0.25085095  0.00487267  1
  Cu+  Cu87  1  0.50469285  0.75221406  0.00760093  1
  Cu+  Cu88  1  0.25020469  0.49927860  0.01423146  1
  Cu+  Cu89  1  0.24964071  0.99632536  0.01355507  1
  Cu+  Cu90  1  0.74916932  0.49442018  0.00848506  1
  Cu+  Cu91  1  0.75073581  0.99922582  0.00956310  1
  Cu+  Cu92  1  0.25028301  0.25073798  0.00681360  1
  Cu+  Cu93  1  0.25348800  0.75452979  0.01396310  1
  Cu+  Cu94  1  0.74924424  0.24899840  0.00904129  1
  Cu+  Cu95  1  0.75039585  0.75406236  0.01237330  1
  Cu+  Cu96  1  0.33716666  0.41840249  0.34610201  1
  Cu+  Cu97  1  0.33008331  0.91251200  0.34513567  1
  Cu+  Cu98  1  0.83369999  0.41255577  0.33984526  1
  Cu+  Cu99  1  0.83069501  0.91636374  0.34184837  1
  Cu+  Cu100  1  0.08279872  0.16594063  0.34396197  1
  Cu+  Cu101  1  0.08039251  0.66128080  0.33971964  1
  Cu+  Cu102  1  0.58319301  0.16345290  0.34123473  1
  Cu+  Cu103  1  0.58321150  0.66586566  0.34052609  1
  Cu+  Cu104  1  0.08310070  0.41486746  0.34373011  1
  Cu+  Cu105  1  0.07829302  0.91583097  0.34445127  1
  Cu+  Cu106  1  0.58490629  0.41687642  0.33962313  1
  Cu+  Cu107  1  0.57734861  0.91650313  0.34608511  1
  Cu+  Cu108  1  0.00067072  0.00020996  0.11192145  1
  Cu+  Cu109  1  -0.00064079  0.50176651  0.10914323  1
  Cu+  Cu110  1  0.50522506  0.00651233  0.11549371  1
  Cu+  Cu111  1  0.50328514  0.49888312  0.10996671  1
  Cu+  Cu112  1  0.33655447  0.16372535  0.44563636  1
  Cu+  Cu113  1  0.33068161  0.66497696  0.44894592  1
  Cu+  Cu114  1  0.83635570  0.16595177  0.45185191  1
  Cu+  Cu115  1  0.83150656  0.66181763  0.44603826  1
  Cu+  Cu116  1  0.16957257  0.32973194  0.78286428  1
  Cu+  Cu117  1  0.16239505  0.83463860  0.78306057  1
  Cu+  Cu118  1  0.66191253  0.33354186  0.77916243  1
  Cu+  Cu119  1  0.66454340  0.83046282  0.78263808  1
  Te2-  Te120  1  -0.00470867  0.00067851  0.38687748  1
  Te2-  Te121  1  -0.00138763  0.49665580  0.38391743  1
  Te2-  Te122  1  0.49468039  0.00045161  0.38933881  1
  Te2-  Te123  1  0.50545429  0.50163104  0.38605514  1
  Te2-  Te124  1  0.33044596  0.16822791  0.71907694  1
  Te2-  Te125  1  0.33879821  0.66985232  0.72315236  1
  Te2-  Te126  1  0.83293429  0.16555794  0.72658528  1
  Te2-  Te127  1  0.83438699  0.66876856  0.71985450  1
  Te2-  Te128  1  0.17099242  0.33304928  0.05807183  1
  Te2-  Te129  1  0.16399548  0.83055952  0.05837180  1
  Te2-  Te130  1  0.66436700  0.32854912  0.05313623  1
  Te2-  Te131  1  0.66671607  0.83619641  0.05665716  1
  Te2-  Te132  1  0.49792805  0.24714263  0.87917934  1
  Te2-  Te133  1  0.49829458  0.74886088  0.88199531  1
  Te2-  Te134  1  0.99530219  0.24763323  0.88667451  1
  Te2-  Te135  1  1.00237830  0.74868948  0.87936143  1
  Te2-  Te136  1  0.25540069  0.00630598  0.88650654  1
  Te2-  Te137  1  0.25836421  0.51007102  0.88638285  1
  Te2-  Te138  1  0.75800457  0.00700308  0.88414888  1
  Te2-  Te139  1  0.75583444  0.50402355  0.88179802  1
  Te2-  Te140  1  0.25103468  0.24955643  0.88158562  1
  Te2-  Te141  1  0.26175177  0.75069747  0.88602610  1
  Te2-  Te142  1  0.75675635  0.24388059  0.88294661  1
  Te2-  Te143  1  0.75530313  0.74710485  0.88579633  1
  Te2-  Te144  1  0.32722530  0.41069466  0.21841999  1
  Te2-  Te145  1  0.31841322  0.90761960  0.21846633  1
  Te2-  Te146  1  0.82498462  0.40583837  0.21373529  1
  Te2-  Te147  1  0.82466910  0.91611633  0.21574565  1
  Te2-  Te148  1  0.08970715  0.17179856  0.21740292  1
  Te2-  Te149  1  0.08010182  0.66733036  0.21337301  1
  Te2-  Te150  1  0.58051516  0.16619295  0.21491927  1
  Te2-  Te151  1  0.58532019  0.67250816  0.21429241  1
  Te2-  Te152  1  0.08942550  0.40950218  0.21693089  1
  Te2-  Te153  1  0.07999651  0.90765733  0.21670571  1
  Te2-  Te154  1  0.58541629  0.41128918  0.21346306  1
  Te2-  Te155  1  0.58139985  0.91067356  0.21870462  1
  Te2-  Te156  1  0.15713285  0.08682455  0.54818788  1
  Te2-  Te157  1  0.16356519  0.57807023  0.55221576  1
  Te2-  Te158  1  0.65518523  0.08174348  0.55399271  1
  Te2-  Te159  1  0.66306136  0.58246398  0.54737888  1
  Te2-  Te160  1  0.42464408  0.34427596  0.54994361  1
  Te2-  Te161  1  0.41507710  0.84103228  0.55070404  1
  Te2-  Te162  1  0.91690355  0.33775270  0.55455850  1
  Te2-  Te163  1  0.91800595  0.84559650  0.54980887  1
  Te2-  Te164  1  0.41231164  0.08076062  0.54652112  1
  Te2-  Te165  1  0.42698615  0.58667871  0.54999120  1
  Te2-  Te166  1  0.91225092  0.07971735  0.54993222  1
  Te2-  Te167  1  0.92152224  0.58654524  0.54662478  1
  Te2-  Te168  1  0.00028139  -0.00009773  0.88425569  1
  Te2-  Te169  1  0.00010584  0.50117454  0.88298832  1
  Te2-  Te170  1  0.50153818  0.00118127  0.88267061  1
  Te2-  Te171  1  0.50165197  0.49975319  0.88390149  1
  Te2-  Te172  1  0.33326582  0.16731784  0.21553343  1
  Te2-  Te173  1  0.33302142  0.66515588  0.21537930  1
  Te2-  Te174  1  0.83252247  0.16588487  0.21686524  1
  Te2-  Te175  1  0.83434623  0.66594363  0.21527707  1
  Te2-  Te176  1  0.16647145  0.33269556  0.55170373  1
  Te2-  Te177  1  0.16456299  0.83271847  0.54928994  1
  Te2-  Te178  1  0.66605144  0.33429297  0.54867145  1
  Te2-  Te179  1  0.66589655  0.83206078  0.54913273  1
  Te2-  Te180  1  0.32768912  0.41577436  0.71267096  1
  Te2-  Te181  1  0.32636324  0.91535913  0.71243454  1
  Te2-  Te182  1  0.82827221  0.41974380  0.70923645  1
  Te2-  Te183  1  0.82608905  0.91248914  0.71298178  1
  Te2-  Te184  1  0.08192439  0.17221333  0.71214871  1
  Te2-  Te185  1  0.08746192  0.67411258  0.70980719  1
  Te2-  Te186  1  0.58065488  0.17341520  0.70830297  1
  Te2-  Te187  1  0.58822144  0.67244615  0.71277382  1
  Te2-  Te188  1  0.08707298  0.41209925  0.71098685  1
  Te2-  Te189  1  0.08679388  0.91746621  0.71246763  1
  Te2-  Te190  1  0.58588845  0.41627478  0.71077577  1
  Te2-  Te191  1  0.58456031  0.91192356  0.71121004  1
  Te2-  Te192  1  0.16020840  0.08095355  0.04216201  1
  Te2-  Te193  1  0.15930155  0.58104421  0.04006697  1
  Te2-  Te194  1  0.66281439  0.08027605  0.04597026  1
  Te2-  Te195  1  0.66097003  0.57932863  0.03979431  1
  Te2-  Te196  1  0.41955017  0.33749210  0.04227078  1
  Te2-  Te197  1  0.42522292  0.84190127  0.04401585  1
  Te2-  Te198  1  0.91888826  0.34171971  0.04228612  1
  Te2-  Te199  1  0.92314071  0.83991265  0.04191616  1
  Te2-  Te200  1  0.42254170  0.08159634  0.04306387  1
  Te2-  Te201  1  0.42354960  0.58236884  0.04187543  1
  Te2-  Te202  1  0.92125436  0.08079979  0.04325842  1
  Te2-  Te203  1  0.92116604  0.58199684  0.04002978  1
  Te2-  Te204  1  0.49568578  0.24711537  0.37627306  1
  Te2-  Te205  1  0.49089946  0.74345326  0.37652488  1
  Te2-  Te206  1  0.99561051  0.24706667  0.38198741  1
  Te2-  Te207  1  0.99105440  0.74273271  0.37524336  1
  Te2-  Te208  1  0.25076491  0.00472925  0.37620166  1
  Te2-  Te209  1  0.25275910  0.50599371  0.37904687  1
  Te2-  Te210  1  0.75081161  0.00650523  0.37787785  1
  Te2-  Te211  1  0.75408544  0.50315769  0.37642666  1
  Te2-  Te212  1  0.25342166  0.24529717  0.37685475  1
  Te2-  Te213  1  0.24803886  0.74332663  0.37968491  1
  Te2-  Te214  1  0.75247340  0.24398940  0.37963579  1
  Te2-  Te215  1  0.75182354  0.74760496  0.37753252  1
