# generated using pymatgen
data_Ti(CuTe)4
_symmetry_space_group_name_H-M   'P 1'
_cell_length_a   16.89365166
_cell_length_b   16.90256196
_cell_length_c   20.71500862
_cell_angle_alpha   90.03492107
_cell_angle_beta   90.03572600
_cell_angle_gamma   120.00439035
_symmetry_Int_Tables_number   1
_chemical_formula_structural   Ti(CuTe)4
_chemical_formula_sum   'Ti24 Cu96 Te96'
_cell_volume   5122.38570283
_cell_formula_units_Z   24
loop_
 _symmetry_equiv_pos_site_id
 _symmetry_equiv_pos_as_xyz
  1  'x, y, z'
loop_
 _atom_type_symbol
 _atom_type_oxidation_number
  Ti4+  4.0
  Cu+  1.0
  Te2-  -2.0
loop_
 _atom_site_type_symbol
 _atom_site_label
 _atom_site_symmetry_multiplicity
 _atom_site_fract_x
 _atom_site_fract_y
 _atom_site_fract_z
 _atom_site_occupancy
  Ti4+  Ti0  1  -0.00104018  -0.00161822  0.26099530  1
  Ti4+  Ti1  1  -0.00243965  0.49733149  0.25611377  1
  Ti4+  Ti2  1  0.49985464  -0.00211814  0.25824028  1
  Ti4+  Ti3  1  0.49713483  0.49748363  0.25430223  1
  Ti4+  Ti4  1  0.33150991  0.16475633  0.59213730  1
  Ti4+  Ti5  1  0.33549432  0.66925224  0.58915565  1
  Ti4+  Ti6  1  0.83615088  0.16712582  0.59655177  1
  Ti4+  Ti7  1  0.83362324  0.66673689  0.58755941  1
  Ti4+  Ti8  1  0.16750554  0.33417453  0.92634170  1
  Ti4+  Ti9  1  0.16741050  0.83478169  0.92520078  1
  Ti4+  Ti10  1  0.66503285  0.33294592  0.91944130  1
  Ti4+  Ti11  1  0.66913542  0.83626104  0.92471677  1
  Ti4+  Ti12  1  0.00141255  0.00080388  0.75691730  1
  Ti4+  Ti13  1  0.00157667  0.50241792  0.75340475  1
  Ti4+  Ti14  1  0.50109253  0.00158425  0.75361226  1
  Ti4+  Ti15  1  0.50043684  0.50045517  0.75384055  1
  Ti4+  Ti16  1  0.33413573  0.16664128  0.09011948  1
  Ti4+  Ti17  1  0.33362243  0.66691872  0.08699309  1
  Ti4+  Ti18  1  0.83314630  0.16682236  0.09034166  1
  Ti4+  Ti19  1  0.83330081  0.66693779  0.08705379  1
  Ti4+  Ti20  1  0.16577579  0.33274024  0.42385805  1
  Ti4+  Ti21  1  0.16802100  0.83327580  0.41996228  1
  Ti4+  Ti22  1  0.66568901  0.33263282  0.42202352  1
  Ti4+  Ti23  1  0.66644680  0.83247975  0.42209231  1
  Cu+  Cu24  1  0.23705234  0.48324900  0.14274990  1
  Cu+  Cu25  1  0.35549765  0.92795332  0.47470829  1
  Cu+  Cu26  1  0.73830672  0.97648075  0.14368539  1
  Cu+  Cu27  1  0.40473898  0.08685537  0.80986795  1
  Cu+  Cu28  1  0.23835489  0.97715474  0.14400276  1
  Cu+  Cu29  1  0.91344211  0.32528665  0.81358332  1
  Cu+  Cu30  1  0.23804830  0.25169226  0.14723576  1
  Cu+  Cu31  1  0.67604533  0.08822398  0.81494101  1
  Cu+  Cu32  1  0.91374157  0.09009946  0.81815975  1
  Cu+  Cu33  1  0.07012232  0.14829564  0.47971752  1
  Cu+  Cu34  1  0.40235763  0.31531203  0.80750313  1
  Cu+  Cu35  1  0.07670319  0.92014259  0.48006771  1
  Cu+  Cu36  1  0.16316052  0.07917017  0.17441068  1
  Cu+  Cu37  1  0.16125897  0.57777397  0.16969802  1
  Cu+  Cu38  1  0.66445492  0.07827562  0.17213031  1
  Cu+  Cu39  1  0.66266874  0.57956061  0.16842377  1
  Cu+  Cu40  1  0.41459912  0.33736681  0.16848684  1
  Cu+  Cu41  1  0.41950527  0.83772807  0.16994248  1
  Cu+  Cu42  1  0.91680571  0.33706791  0.17046467  1
  Cu+  Cu43  1  0.91770174  0.83420716  0.17200786  1
  Cu+  Cu44  1  0.41401854  0.07703033  0.17252016  1
  Cu+  Cu45  1  0.41281270  0.57695844  0.16684688  1
  Cu+  Cu46  1  0.91456781  0.07971656  0.17333594  1
  Cu+  Cu47  1  0.91440819  0.57858488  0.16943658  1
  Cu+  Cu48  1  0.49711597  0.24917879  0.50534555  1
  Cu+  Cu49  1  0.49765576  0.74833828  0.50314693  1
  Cu+  Cu50  1  0.99670950  0.24585578  0.50885904  1
  Cu+  Cu51  1  0.99362795  0.74782648  0.50123068  1
  Cu+  Cu52  1  0.25389961  0.00365073  0.50254379  1
  Cu+  Cu53  1  0.25187658  0.50490689  0.50447313  1
  Cu+  Cu54  1  0.75301846  0.00174604  0.50823871  1
  Cu+  Cu55  1  0.75111343  0.50253102  0.50234625  1
  Cu+  Cu56  1  0.24631442  0.24559404  0.50534712  1
  Cu+  Cu57  1  0.25838783  0.75333481  0.50152870  1
  Cu+  Cu58  1  0.75217720  0.25048695  0.50891822  1
  Cu+  Cu59  1  0.75194654  0.74866196  0.50154421  1
  Cu+  Cu60  1  0.33138327  0.41404902  0.83928534  1
  Cu+  Cu61  1  0.32782772  0.91699637  0.83802502  1
  Cu+  Cu62  1  0.83011329  0.41532159  0.83269043  1
  Cu+  Cu63  1  0.83085057  0.91763320  0.83811119  1
  Cu+  Cu64  1  0.08768331  0.17324947  0.83898135  1
  Cu+  Cu65  1  0.08617881  0.67201107  0.83710165  1
  Cu+  Cu66  1  0.58420085  0.17354195  0.83174651  1
  Cu+  Cu67  1  0.58651009  0.67103565  0.83763029  1
  Cu+  Cu68  1  0.08638003  0.41775513  0.83746608  1
  Cu+  Cu69  1  0.08758034  0.91645252  0.83887389  1
  Cu+  Cu70  1  0.57902818  0.41143135  0.83248276  1
  Cu+  Cu71  1  0.58974421  0.91681679  0.83647214  1
  Cu+  Cu72  1  0.16657636  0.08125283  0.67703804  1
  Cu+  Cu73  1  0.17203014  0.58941143  0.67226815  1
  Cu+  Cu74  1  0.67192411  0.08549139  0.68258307  1
  Cu+  Cu75  1  0.67021572  0.58707903  0.67084492  1
  Cu+  Cu76  1  0.41334633  0.32965381  0.67863605  1
  Cu+  Cu77  1  0.41653853  0.83189240  0.67359230  1
  Cu+  Cu78  1  0.91904150  0.33211260  0.68169330  1
  Cu+  Cu79  1  0.91677731  0.83029541  0.67376113  1
  Cu+  Cu80  1  0.41498633  0.08348192  0.67979927  1
  Cu+  Cu81  1  0.41675200  0.58683864  0.67339059  1
  Cu+  Cu82  1  0.91826864  0.08569049  0.68509075  1
  Cu+  Cu83  1  0.91840495  0.58833705  0.67019455  1
  Cu+  Cu84  1  0.00143720  0.25244594  0.01225046  1
  Cu+  Cu85  1  0.00281952  0.75250818  0.00871748  1
  Cu+  Cu86  1  0.50263858  0.25037232  0.00663291  1
  Cu+  Cu87  1  0.50460440  0.75561652  0.00754735  1
  Cu+  Cu88  1  0.24961097  0.49808583  0.01205368  1
  Cu+  Cu89  1  0.25004620  0.99717682  0.01466840  1
  Cu+  Cu90  1  0.74897712  0.49872619  0.00193734  1
  Cu+  Cu91  1  0.75038261  0.99926430  0.01492799  1
  Cu+  Cu92  1  0.25058538  0.25249066  0.01593924  1
  Cu+  Cu93  1  0.25091003  0.75395065  0.00759509  1
  Cu+  Cu94  1  0.74954999  0.25168097  0.00747582  1
  Cu+  Cu95  1  0.75211700  0.75459633  0.00803981  1
  Cu+  Cu96  1  0.33346757  0.41751958  0.34122073  1
  Cu+  Cu97  1  0.33690285  0.91692795  0.34588340  1
  Cu+  Cu98  1  0.83417375  0.41554289  0.34090078  1
  Cu+  Cu99  1  0.83386154  0.91748917  0.34474361  1
  Cu+  Cu100  1  0.08117789  0.16325553  0.34955072  1
  Cu+  Cu101  1  0.08110014  0.66060774  0.33782814  1
  Cu+  Cu102  1  0.58208980  0.16354876  0.34191231  1
  Cu+  Cu103  1  0.58010167  0.66228693  0.33756998  1
  Cu+  Cu104  1  0.08095533  0.41667721  0.34204670  1
  Cu+  Cu105  1  0.08363387  0.91813300  0.34859806  1
  Cu+  Cu106  1  0.57947098  0.41594316  0.33823574  1
  Cu+  Cu107  1  0.58390743  0.91717023  0.34362168  1
  Cu+  Cu108  1  -0.00188422  -0.00115985  0.11835905  1
  Cu+  Cu109  1  -0.00135640  0.50241613  0.11209217  1
  Cu+  Cu110  1  0.50211558  0.00337375  0.11531731  1
  Cu+  Cu111  1  0.50369491  0.50403219  0.10988447  1
  Cu+  Cu112  1  0.33657323  0.17237224  0.44872175  1
  Cu+  Cu113  1  0.33354589  0.66391632  0.44519179  1
  Cu+  Cu114  1  0.82937022  0.16595480  0.45440956  1
  Cu+  Cu115  1  0.82878248  0.66240079  0.44327788  1
  Cu+  Cu116  1  0.17023643  0.33890944  0.78250805  1
  Cu+  Cu117  1  0.16451205  0.83148552  0.78064766  1
  Cu+  Cu118  1  0.66990934  0.34086811  0.77431494  1
  Cu+  Cu119  1  0.66729472  0.83012634  0.78003961  1
  Te2-  Te120  1  -0.00297982  -0.00280153  0.39282797  1
  Te2-  Te121  1  -0.00168638  0.49847635  0.38528384  1
  Te2-  Te122  1  0.50318145  0.00064835  0.38859959  1
  Te2-  Te123  1  0.49858212  0.49886516  0.38280945  1
  Te2-  Te124  1  0.32958126  0.16401242  0.72426903  1
  Te2-  Te125  1  0.33497954  0.66857694  0.71847333  1
  Te2-  Te126  1  0.83593344  0.16833344  0.73031584  1
  Te2-  Te127  1  0.83341967  0.66608208  0.71675028  1
  Te2-  Te128  1  0.16485686  0.33293825  0.05803419  1
  Te2-  Te129  1  0.16565697  0.83078079  0.05616021  1
  Te2-  Te130  1  0.66775161  0.33550232  0.04795988  1
  Te2-  Te131  1  0.66698077  0.83215713  0.05503871  1
  Te2-  Te132  1  0.48803970  0.24373650  0.88112219  1
  Te2-  Te133  1  0.49843229  0.75156954  0.88158596  1
  Te2-  Te134  1  0.99210711  0.24794484  0.88601212  1
  Te2-  Te135  1  0.99614616  0.74913471  0.88285660  1
  Te2-  Te136  1  0.25253712  0.00971924  0.88744084  1
  Te2-  Te137  1  0.25264329  0.50312090  0.88435911  1
  Te2-  Te138  1  0.75728702  0.01343055  0.88762779  1
  Te2-  Te139  1  0.74876805  0.50181101  0.87565421  1
  Te2-  Te140  1  0.25189510  0.24517247  0.88779967  1
  Te2-  Te141  1  0.25416154  0.75055016  0.88184063  1
  Te2-  Te142  1  0.75387291  0.24574514  0.88180555  1
  Te2-  Te143  1  0.75475950  0.75137054  0.88202145  1
  Te2-  Te144  1  0.31830553  0.40910767  0.21583142  1
  Te2-  Te145  1  0.32527829  0.90870107  0.21892941  1
  Te2-  Te146  1  0.82528694  0.41164288  0.21526656  1
  Te2-  Te147  1  0.82668612  0.91053423  0.21854888  1
  Te2-  Te148  1  0.08239371  0.17015958  0.22117265  1
  Te2-  Te149  1  0.08393353  0.66798060  0.21208359  1
  Te2-  Te150  1  0.58388337  0.16741382  0.21539426  1
  Te2-  Te151  1  0.58092149  0.66725259  0.21136627  1
  Te2-  Te152  1  0.08283977  0.40770055  0.21647398  1
  Te2-  Te153  1  0.08443518  0.91106912  0.22051051  1
  Te2-  Te154  1  0.58167779  0.41121548  0.21240113  1
  Te2-  Te155  1  0.58502096  0.90902260  0.21775425  1
  Te2-  Te156  1  0.15625589  0.07614614  0.55115867  1
  Te2-  Te157  1  0.16411232  0.58609584  0.54661856  1
  Te2-  Te158  1  0.66614416  0.08236515  0.55460474  1
  Te2-  Te159  1  0.66189056  0.58151961  0.54543398  1
  Te2-  Te160  1  0.41399055  0.33396534  0.55096546  1
  Te2-  Te161  1  0.42652388  0.84446486  0.54840655  1
  Te2-  Te162  1  0.92089398  0.33681002  0.55398370  1
  Te2-  Te163  1  0.91844065  0.84190876  0.54850937  1
  Te2-  Te164  1  0.42081429  0.08156937  0.55195412  1
  Te2-  Te165  1  0.41970342  0.58140707  0.54790951  1
  Te2-  Te166  1  0.91930231  0.07720966  0.55684705  1
  Te2-  Te167  1  0.92048045  0.58200372  0.54469782  1
  Te2-  Te168  1  0.00226067  0.00156941  0.88385866  1
  Te2-  Te169  1  -0.00027032  0.50228137  0.88062880  1
  Te2-  Te170  1  0.50140234  0.00221183  0.88116042  1
  Te2-  Te171  1  0.50226310  0.50205097  0.88081231  1
  Te2-  Te172  1  0.33521804  0.16813731  0.21750996  1
  Te2-  Te173  1  0.33281517  0.66629001  0.21377520  1
  Te2-  Te174  1  0.83350797  0.16838725  0.21706956  1
  Te2-  Te175  1  0.83088970  0.66372659  0.21341014  1
  Te2-  Te176  1  0.16834623  0.33669802  0.55066376  1
  Te2-  Te177  1  0.16584709  0.83184220  0.54721927  1
  Te2-  Te178  1  0.66634638  0.33507113  0.54858211  1
  Te2-  Te179  1  0.66666808  0.83120948  0.54853232  1
  Te2-  Te180  1  0.32767774  0.41647478  0.71097938  1
  Te2-  Te181  1  0.32674731  0.91153366  0.71091363  1
  Te2-  Te182  1  0.83019318  0.41781806  0.70585092  1
  Te2-  Te183  1  0.82870678  0.91207350  0.71137672  1
  Te2-  Te184  1  0.09119001  0.17523991  0.71267474  1
  Te2-  Te185  1  0.08701480  0.67369865  0.71003050  1
  Te2-  Te186  1  0.58863226  0.17611679  0.70589716  1
  Te2-  Te187  1  0.58653720  0.67191967  0.71052720  1
  Te2-  Te188  1  0.09193013  0.41947779  0.71036516  1
  Te2-  Te189  1  0.08545876  0.91253006  0.71260155  1
  Te2-  Te190  1  0.58713821  0.41659941  0.70560526  1
  Te2-  Te191  1  0.58656360  0.91261117  0.71019316  1
  Te2-  Te192  1  0.15957176  0.07983133  0.04646468  1
  Te2-  Te193  1  0.16084414  0.58244513  0.04205050  1
  Te2-  Te194  1  0.66090863  0.08273204  0.04467519  1
  Te2-  Te195  1  0.66335028  0.58255105  0.04095823  1
  Te2-  Te196  1  0.42294279  0.33961168  0.04264457  1
  Te2-  Te197  1  0.42030741  0.84037955  0.04445463  1
  Te2-  Te198  1  0.91844027  0.33933487  0.04472725  1
  Te2-  Te199  1  0.92108184  0.84020009  0.04582924  1
  Te2-  Te200  1  0.42244381  0.08221344  0.04511901  1
  Te2-  Te201  1  0.42285260  0.58399278  0.04032779  1
  Te2-  Te202  1  0.92289444  0.08265865  0.04645150  1
  Te2-  Te203  1  0.91793224  0.58095636  0.04208686  1
  Te2-  Te204  1  0.49457295  0.24681582  0.37804083  1
  Te2-  Te205  1  0.49507357  0.74622490  0.37691116  1
  Te2-  Te206  1  0.99222072  0.24715427  0.38134160  1
  Te2-  Te207  1  0.99458049  0.74411047  0.37471371  1
  Te2-  Te208  1  0.25638462  0.00897937  0.37600993  1
  Te2-  Te209  1  0.25062130  0.50366763  0.37781965  1
  Te2-  Te210  1  0.75339475  0.00631322  0.38162190  1
  Te2-  Te211  1  0.74983495  0.50214294  0.37544501  1
  Te2-  Te212  1  0.25411201  0.24846872  0.37826600  1
  Te2-  Te213  1  0.25101005  0.74358749  0.37494525  1
  Te2-  Te214  1  0.75185967  0.24664672  0.38117421  1
  Te2-  Te215  1  0.75038733  0.74567108  0.37538116  1
