# generated using pymatgen
data_Ti(CuTe)4
_symmetry_space_group_name_H-M   'P 1'
_cell_length_a   16.87685311
_cell_length_b   16.87593749
_cell_length_c   20.68577812
_cell_angle_alpha   90.00344548
_cell_angle_beta   89.99575245
_cell_angle_gamma   119.99506628
_symmetry_Int_Tables_number   1
_chemical_formula_structural   Ti(CuTe)4
_chemical_formula_sum   'Ti24 Cu96 Te96'
_cell_volume   5102.50524445
_cell_formula_units_Z   24
loop_
 _symmetry_equiv_pos_site_id
 _symmetry_equiv_pos_as_xyz
  1  'x, y, z'
loop_
 _atom_type_symbol
 _atom_type_oxidation_number
  Ti4+  4.0
  Cu+  1.0
  Te2-  -2.0
loop_
 _atom_site_type_symbol
 _atom_site_label
 _atom_site_symmetry_multiplicity
 _atom_site_fract_x
 _atom_site_fract_y
 _atom_site_fract_z
 _atom_site_occupancy
  Ti4+  Ti0  1  -0.00076197  0.00197818  0.25652054  1
  Ti4+  Ti1  1  -0.00148070  0.50227439  0.25536878  1
  Ti4+  Ti2  1  0.49949551  0.00177108  0.25541087  1
  Ti4+  Ti3  1  0.50072790  0.49983830  0.25873591  1
  Ti4+  Ti4  1  0.33054933  0.16404207  0.59395119  1
  Ti4+  Ti5  1  0.33408755  0.66348103  0.58974927  1
  Ti4+  Ti6  1  0.83437799  0.16504585  0.58934633  1
  Ti4+  Ti7  1  0.83334903  0.66537221  0.59467520  1
  Ti4+  Ti8  1  0.16621678  0.33420030  0.92543036  1
  Ti4+  Ti9  1  0.16882462  0.83585531  0.92817680  1
  Ti4+  Ti10  1  0.66489506  0.33392085  0.92531987  1
  Ti4+  Ti11  1  0.66838343  0.83286102  0.92434066  1
  Ti4+  Ti12  1  -0.00049291  -0.00122026  0.75760180  1
  Ti4+  Ti13  1  0.00091320  0.49885689  0.75599783  1
  Ti4+  Ti14  1  0.49761346  -0.00010958  0.75647482  1
  Ti4+  Ti15  1  0.50242684  0.50004876  0.75725583  1
  Ti4+  Ti16  1  0.33358095  0.16881970  0.08716773  1
  Ti4+  Ti17  1  0.33399631  0.66757037  0.08734963  1
  Ti4+  Ti18  1  0.83349813  0.16713424  0.08625243  1
  Ti4+  Ti19  1  0.83281452  0.66693301  0.08666716  1
  Ti4+  Ti20  1  0.16550672  0.33191722  0.41966431  1
  Ti4+  Ti21  1  0.16704381  0.83429302  0.42340467  1
  Ti4+  Ti22  1  0.66665519  0.33465835  0.42335465  1
  Ti4+  Ti23  1  0.66577423  0.83208567  0.42086068  1
  Cu+  Cu24  1  0.34350311  0.41555448  0.48016837  1
  Cu+  Cu25  1  0.69226469  0.59483359  0.81120134  1
  Cu+  Cu26  1  0.07257513  0.14185406  0.47437558  1
  Cu+  Cu27  1  0.74514539  0.48838071  0.14392765  1
  Cu+  Cu28  1  0.40235966  0.09623279  0.81056025  1
  Cu+  Cu29  1  0.73702157  0.76050868  0.14026146  1
  Cu+  Cu30  1  0.24326016  0.75825702  0.14210150  1
  Cu+  Cu31  1  0.23953777  0.26480160  0.14031498  1
  Cu+  Cu32  1  0.57944280  0.64864114  0.47860408  1
  Cu+  Cu33  1  0.51290782  0.25482195  0.14312093  1
  Cu+  Cu34  1  0.24679043  0.99606499  0.14953718  1
  Cu+  Cu35  1  0.00603046  0.75523764  0.14772938  1
  Cu+  Cu36  1  0.16274899  0.08755241  0.16793082  1
  Cu+  Cu37  1  0.16508835  0.58576478  0.16777967  1
  Cu+  Cu38  1  0.66463130  0.08364882  0.16775779  1
  Cu+  Cu39  1  0.66299247  0.58331137  0.16815017  1
  Cu+  Cu40  1  0.41660259  0.33684545  0.16834090  1
  Cu+  Cu41  1  0.41616066  0.83569255  0.16768397  1
  Cu+  Cu42  1  0.91556026  0.33661552  0.16760321  1
  Cu+  Cu43  1  0.91376837  0.83743997  0.16706199  1
  Cu+  Cu44  1  0.42297640  0.08013506  0.16481007  1
  Cu+  Cu45  1  0.41947796  0.58222284  0.17112558  1
  Cu+  Cu46  1  0.91911439  0.08396109  0.16894696  1
  Cu+  Cu47  1  0.92046020  0.57911367  0.16496925  1
  Cu+  Cu48  1  0.49784383  0.24580444  0.50718395  1
  Cu+  Cu49  1  0.49641031  0.74265944  0.50149013  1
  Cu+  Cu50  1  0.99474372  0.24129781  0.50070763  1
  Cu+  Cu51  1  0.99814465  0.74879317  0.50796288  1
  Cu+  Cu52  1  0.25164807  0.00157228  0.50669516  1
  Cu+  Cu53  1  0.25515092  0.50425046  0.50024465  1
  Cu+  Cu54  1  0.75304532  0.00428609  0.50237577  1
  Cu+  Cu55  1  0.75159515  0.50299047  0.50699538  1
  Cu+  Cu56  1  0.24803648  0.24221494  0.50428099  1
  Cu+  Cu57  1  0.25138268  0.74678632  0.50453747  1
  Cu+  Cu58  1  0.75271402  0.24906191  0.50432975  1
  Cu+  Cu59  1  0.75059205  0.74588551  0.50641710  1
  Cu+  Cu60  1  0.32918577  0.41374280  0.84070486  1
  Cu+  Cu61  1  0.33108146  0.92078946  0.84014963  1
  Cu+  Cu62  1  0.83195437  0.41623429  0.83775292  1
  Cu+  Cu63  1  0.83050451  0.91439875  0.83861859  1
  Cu+  Cu64  1  0.08554364  0.16954392  0.84022969  1
  Cu+  Cu65  1  0.08687448  0.66877673  0.84110619  1
  Cu+  Cu66  1  0.57634501  0.16764152  0.83820474  1
  Cu+  Cu67  1  0.59153640  0.66937830  0.83865705  1
  Cu+  Cu68  1  0.08585036  0.41538679  0.83834138  1
  Cu+  Cu69  1  0.08530082  0.91545236  0.84160578  1
  Cu+  Cu70  1  0.58957100  0.41932725  0.83888567  1
  Cu+  Cu71  1  0.58454749  0.91433874  0.83833842  1
  Cu+  Cu72  1  0.16526767  0.08128353  0.67771045  1
  Cu+  Cu73  1  0.17003261  0.58323931  0.67316796  1
  Cu+  Cu74  1  0.66931364  0.08471287  0.67277492  1
  Cu+  Cu75  1  0.67088643  0.58393822  0.68274838  1
  Cu+  Cu76  1  0.41553252  0.33084328  0.67781982  1
  Cu+  Cu77  1  0.41432735  0.82923907  0.67305493  1
  Cu+  Cu78  1  0.91646919  0.32902788  0.67228105  1
  Cu+  Cu79  1  0.91518117  0.82987989  0.67813004  1
  Cu+  Cu80  1  0.41157676  0.08303917  0.68173882  1
  Cu+  Cu81  1  0.41639570  0.58262752  0.67630275  1
  Cu+  Cu82  1  0.91577848  0.08348345  0.67448906  1
  Cu+  Cu83  1  0.91734280  0.58330636  0.67700138  1
  Cu+  Cu84  1  0.00211690  0.25129527  0.00674928  1
  Cu+  Cu85  1  0.00339088  0.75162371  0.01469886  1
  Cu+  Cu86  1  0.50169944  0.25409160  0.01276069  1
  Cu+  Cu87  1  0.50389087  0.74886496  0.00559807  1
  Cu+  Cu88  1  0.24994755  0.49793438  0.00737017  1
  Cu+  Cu89  1  0.25066314  1.00110135  0.01646845  1
  Cu+  Cu90  1  0.74783959  0.49808059  0.01435255  1
  Cu+  Cu91  1  0.75040510  0.99721606  0.00683965  1
  Cu+  Cu92  1  0.24623014  0.25394049  0.01222440  1
  Cu+  Cu93  1  0.25066447  0.75437474  0.01241550  1
  Cu+  Cu94  1  0.74705066  0.25053984  0.00513646  1
  Cu+  Cu95  1  0.74848136  0.75178784  0.01227227  1
  Cu+  Cu96  1  0.33409886  0.41702912  0.34818102  1
  Cu+  Cu97  1  0.33440431  0.91951189  0.34201490  1
  Cu+  Cu98  1  0.83402811  0.42109317  0.34104138  1
  Cu+  Cu99  1  0.83294637  0.91631432  0.34140902  1
  Cu+  Cu100  1  0.08217330  0.16518842  0.34548411  1
  Cu+  Cu101  1  0.08153146  0.66729769  0.34205030  1
  Cu+  Cu102  1  0.58138514  0.16658322  0.34033291  1
  Cu+  Cu103  1  0.58346164  0.66471936  0.34798218  1
  Cu+  Cu104  1  0.08016502  0.41933394  0.33753789  1
  Cu+  Cu105  1  0.08397522  0.91867043  0.34338815  1
  Cu+  Cu106  1  0.58351495  0.41653587  0.34365643  1
  Cu+  Cu107  1  0.58122177  0.91861489  0.33851871  1
  Cu+  Cu108  1  -0.00195432  0.00119716  0.11101370  1
  Cu+  Cu109  1  0.00488658  0.49456656  0.10989093  1
  Cu+  Cu110  1  0.50649730  -0.00405046  0.10994275  1
  Cu+  Cu111  1  0.49855539  0.50154170  0.11259305  1
  Cu+  Cu112  1  0.33698772  0.16459199  0.45026373  1
  Cu+  Cu113  1  0.33293194  0.67059318  0.44459127  1
  Cu+  Cu114  1  0.82958876  0.16745789  0.44455039  1
  Cu+  Cu115  1  0.83770118  0.66772784  0.45164919  1
  Cu+  Cu116  1  0.16518423  0.33205759  0.78288146  1
  Cu+  Cu117  1  0.16542263  0.82935067  0.78533297  1
  Cu+  Cu118  1  0.67006272  0.32938116  0.78185992  1
  Cu+  Cu119  1  0.66455896  0.83515546  0.78114451  1
  Te2-  Te120  1  -0.00208527  -0.00202049  0.38653336  1
  Te2-  Te121  1  -0.00079997  0.50191186  0.38378627  1
  Te2-  Te122  1  0.49987226  0.00153757  0.38370973  1
  Te2-  Te123  1  0.50058329  0.49801285  0.39026517  1
  Te2-  Te124  1  0.32917713  0.16698532  0.72445937  1
  Te2-  Te125  1  0.33397573  0.66544587  0.71876028  1
  Te2-  Te126  1  0.83304748  0.16547109  0.71838013  1
  Te2-  Te127  1  0.83743584  0.66647167  0.72533139  1
  Te2-  Te128  1  0.16368222  0.33643664  0.05682922  1
  Te2-  Te129  1  0.16777690  0.83598054  0.06115813  1
  Te2-  Te130  1  0.66697789  0.33225594  0.05715498  1
  Te2-  Te131  1  0.66545236  0.83461820  0.05538962  1
  Te2-  Te132  1  0.49203383  0.25234118  0.88501030  1
  Te2-  Te133  1  0.49826579  0.74552047  0.88009846  1
  Te2-  Te134  1  0.99522183  0.24776072  0.88147358  1
  Te2-  Te135  1  0.99879973  0.74844899  0.88667940  1
  Te2-  Te136  1  0.25163447  0.00962045  0.88788965  1
  Te2-  Te137  1  0.25322649  0.50574263  0.88213556  1
  Te2-  Te138  1  0.75246772  0.00375517  0.88136200  1
  Te2-  Te139  1  0.75753166  0.50749524  0.88628388  1
  Te2-  Te140  1  0.25207302  0.24748813  0.88552614  1
  Te2-  Te141  1  0.25518602  0.75252318  0.88508631  1
  Te2-  Te142  1  0.74684524  0.24674048  0.87931395  1
  Te2-  Te143  1  0.75960147  0.74895963  0.88539125  1
  Te2-  Te144  1  0.32784733  0.41561007  0.21923879  1
  Te2-  Te145  1  0.32330193  0.91320439  0.21573571  1
  Te2-  Te146  1  0.82448834  0.41213474  0.21481744  1
  Te2-  Te147  1  0.82612886  0.91655712  0.21515751  1
  Te2-  Te148  1  0.08491060  0.17572685  0.21762701  1
  Te2-  Te149  1  0.08751545  0.67846597  0.21576994  1
  Te2-  Te150  1  0.58991323  0.17575529  0.21436356  1
  Te2-  Te151  1  0.58579519  0.67288312  0.21934527  1
  Te2-  Te152  1  0.08392298  0.41771257  0.21125939  1
  Te2-  Te153  1  0.08655528  0.91476824  0.21649064  1
  Te2-  Te154  1  0.58732358  0.41245170  0.21672501  1
  Te2-  Te155  1  0.58368038  0.91572785  0.21213247  1
  Te2-  Te156  1  0.15739696  0.07443120  0.55153378  1
  Te2-  Te157  1  0.16300921  0.57824339  0.54710006  1
  Te2-  Te158  1  0.66270338  0.08063627  0.54694766  1
  Te2-  Te159  1  0.65931270  0.57618666  0.55456031  1
  Te2-  Te160  1  0.41989566  0.33627321  0.55127258  1
  Te2-  Te161  1  0.42011899  0.83417959  0.54679663  1
  Te2-  Te162  1  0.92175249  0.33596499  0.54620282  1
  Te2-  Te163  1  0.91748217  0.83595924  0.55197978  1
  Te2-  Te164  1  0.41745079  0.07928760  0.55379699  1
  Te2-  Te165  1  0.42229981  0.57442280  0.54979839  1
  Te2-  Te166  1  0.91879569  0.07405525  0.54864511  1
  Te2-  Te167  1  0.91893340  0.58062585  0.55100224  1
  Te2-  Te168  1  -0.00036973  0.00046926  0.88398499  1
  Te2-  Te169  1  0.00085429  0.49891089  0.88273208  1
  Te2-  Te170  1  0.50092575  -0.00084532  0.88356132  1
  Te2-  Te171  1  0.49979023  0.50000411  0.88397143  1
  Te2-  Te172  1  0.33475693  0.16579765  0.21596042  1
  Te2-  Te173  1  0.33371119  0.66721258  0.21480296  1
  Te2-  Te174  1  0.83305709  0.16807326  0.21287513  1
  Te2-  Te175  1  0.83421291  0.66637979  0.21556773  1
  Te2-  Te176  1  0.16562904  0.33289654  0.54708831  1
  Te2-  Te177  1  0.16788025  0.83160116  0.54954838  1
  Te2-  Te178  1  0.66784122  0.33232009  0.54959796  1
  Te2-  Te179  1  0.66623640  0.83360824  0.54764347  1
  Te2-  Te180  1  0.32906942  0.41374189  0.71421414  1
  Te2-  Te181  1  0.32499276  0.90974973  0.71219224  1
  Te2-  Te182  1  0.82940503  0.41224364  0.71088366  1
  Te2-  Te183  1  0.82781028  0.91339646  0.71252108  1
  Te2-  Te184  1  0.08487656  0.17076321  0.71311368  1
  Te2-  Te185  1  0.08794696  0.67087293  0.71296471  1
  Te2-  Te186  1  0.58584976  0.17149355  0.71013217  1
  Te2-  Te187  1  0.58651050  0.67275934  0.71158879  1
  Te2-  Te188  1  0.08626666  0.41322056  0.71111870  1
  Te2-  Te189  1  0.08557076  0.91166887  0.71495500  1
  Te2-  Te190  1  0.58620275  0.41037924  0.71248149  1
  Te2-  Te191  1  0.58404680  0.91510666  0.71116832  1
  Te2-  Te192  1  0.15817939  0.08153369  0.04151724  1
  Te2-  Te193  1  0.16167867  0.58088012  0.04045922  1
  Te2-  Te194  1  0.66218840  0.08045759  0.04069162  1
  Te2-  Te195  1  0.65731453  0.57986095  0.04147071  1
  Te2-  Te196  1  0.41875342  0.34333649  0.04169264  1
  Te2-  Te197  1  0.42365808  0.83960811  0.04032107  1
  Te2-  Te198  1  0.91772824  0.33838356  0.04048087  1
  Te2-  Te199  1  0.92126808  0.84220747  0.04057243  1
  Te2-  Te200  1  0.42319096  0.08165503  0.03947720  1
  Te2-  Te201  1  0.41941546  0.58033872  0.04446613  1
  Te2-  Te202  1  0.92023689  0.08133238  0.04271049  1
  Te2-  Te203  1  0.92125766  0.57900060  0.03963376  1
  Te2-  Te204  1  0.49380608  0.24696487  0.37973200  1
  Te2-  Te205  1  0.49319863  0.74828896  0.37450340  1
  Te2-  Te206  1  0.99282534  0.24919009  0.37394596  1
  Te2-  Te207  1  0.99442164  0.74895702  0.38007647  1
  Te2-  Te208  1  0.25332281  0.00728154  0.37978120  1
  Te2-  Te209  1  0.24982349  0.50605140  0.37427238  1
  Te2-  Te210  1  0.75093222  0.00456615  0.37624569  1
  Te2-  Te211  1  0.75282117  0.50809263  0.38016944  1
  Te2-  Te212  1  0.25415006  0.24451824  0.37634790  1
  Te2-  Te213  1  0.25212400  0.74877246  0.37695972  1
  Te2-  Te214  1  0.75187869  0.24991465  0.37678319  1
  Te2-  Te215  1  0.75573593  0.74721394  0.37835427  1
