# generated using pymatgen
data_Ti(CuTe)4
_symmetry_space_group_name_H-M   'P 1'
_cell_length_a   16.85025912
_cell_length_b   16.85040138
_cell_length_c   20.65319171
_cell_angle_alpha   90.00362605
_cell_angle_beta   89.99972367
_cell_angle_gamma   119.99886699
_symmetry_Int_Tables_number   1
_chemical_formula_structural   Ti(CuTe)4
_chemical_formula_sum   'Ti24 Cu96 Te96'
_cell_volume   5078.54843999
_cell_formula_units_Z   24
loop_
 _symmetry_equiv_pos_site_id
 _symmetry_equiv_pos_as_xyz
  1  'x, y, z'
loop_
 _atom_type_symbol
 _atom_type_oxidation_number
  Ti4+  4.0
  Cu+  1.0
  Te2-  -2.0
loop_
 _atom_site_type_symbol
 _atom_site_label
 _atom_site_symmetry_multiplicity
 _atom_site_fract_x
 _atom_site_fract_y
 _atom_site_fract_z
 _atom_site_occupancy
  Ti4+  Ti0  1  -0.00170048  -0.00026751  0.25752078  1
  Ti4+  Ti1  1  0.00032803  0.49986651  0.25930081  1
  Ti4+  Ti2  1  0.49984453  0.00261586  0.25688079  1
  Ti4+  Ti3  1  0.50474348  0.50312521  0.25636371  1
  Ti4+  Ti4  1  0.33254516  0.16340150  0.58985238  1
  Ti4+  Ti5  1  0.33265229  0.66634857  0.59036052  1
  Ti4+  Ti6  1  0.83609622  0.16778897  0.58997608  1
  Ti4+  Ti7  1  0.82989448  0.66490444  0.59430545  1
  Ti4+  Ti8  1  0.16498332  0.33480427  0.92163600  1
  Ti4+  Ti9  1  0.16404406  0.82897991  0.92868126  1
  Ti4+  Ti10  1  0.66472862  0.33103714  0.92480136  1
  Ti4+  Ti11  1  0.67035484  0.83484163  0.92381866  1
  Ti4+  Ti12  1  -0.00256125  -0.00187578  0.75690991  1
  Ti4+  Ti13  1  0.00290492  0.50113834  0.75615272  1
  Ti4+  Ti14  1  0.50004027  0.00058978  0.75771645  1
  Ti4+  Ti15  1  0.49939124  0.49851820  0.75516479  1
  Ti4+  Ti16  1  0.33490090  0.16678910  0.08710605  1
  Ti4+  Ti17  1  0.33249396  0.66656299  0.08936166  1
  Ti4+  Ti18  1  0.83422847  0.16679610  0.09015300  1
  Ti4+  Ti19  1  0.83159177  0.66723477  0.08693928  1
  Ti4+  Ti20  1  0.16437857  0.33244931  0.42152063  1
  Ti4+  Ti21  1  0.16957949  0.83652543  0.42449932  1
  Ti4+  Ti22  1  0.66750407  0.33510402  0.42153396  1
  Ti4+  Ti23  1  0.66629817  0.83135237  0.42351658  1
  Cu+  Cu24  1  0.19553966  0.60074241  0.80741765  1
  Cu+  Cu25  1  0.36181396  0.92858435  0.47458548  1
  Cu+  Cu26  1  0.00705747  0.75526590  0.14799835  1
  Cu+  Cu27  1  0.24164282  0.75466491  0.14938613  1
  Cu+  Cu28  1  0.06982392  0.42870258  0.47455481  1
  Cu+  Cu29  1  0.24568222  0.99042896  0.14773121  1
  Cu+  Cu30  1  0.52714742  0.26315954  0.13929362  1
  Cu+  Cu31  1  0.90161067  0.09374030  0.80536234  1
  Cu+  Cu32  1  0.56973738  0.63811772  0.47530469  1
  Cu+  Cu33  1  0.90442230  0.80641317  0.80925606  1
  Cu+  Cu34  1  0.73672709  0.76429596  0.13950748  1
  Cu+  Cu35  1  0.06888796  0.14054929  0.47384714  1
  Cu+  Cu36  1  0.16323630  0.08325389  0.16922695  1
  Cu+  Cu37  1  0.16222733  0.58042236  0.17228517  1
  Cu+  Cu38  1  0.66555403  0.08403335  0.17090189  1
  Cu+  Cu39  1  0.66221749  0.58794594  0.16695403  1
  Cu+  Cu40  1  0.42526342  0.33671618  0.16771366  1
  Cu+  Cu41  1  0.41703523  0.83634021  0.17057159  1
  Cu+  Cu42  1  0.91943922  0.33476252  0.17365721  1
  Cu+  Cu43  1  0.91343874  0.83806636  0.16742817  1
  Cu+  Cu44  1  0.42239343  0.08440821  0.16756171  1
  Cu+  Cu45  1  0.42207367  0.58574974  0.17050793  1
  Cu+  Cu46  1  0.92073891  0.08479519  0.17146410  1
  Cu+  Cu47  1  0.91800114  0.58008164  0.16935595  1
  Cu+  Cu48  1  0.49777650  0.24824771  0.50252977  1
  Cu+  Cu49  1  0.49866581  0.74456826  0.50334936  1
  Cu+  Cu50  1  0.99638677  0.24826445  0.50260487  1
  Cu+  Cu51  1  0.99804306  0.75124236  0.50941637  1
  Cu+  Cu52  1  0.25912427  0.00433433  0.50305200  1
  Cu+  Cu53  1  0.24600877  0.50355070  0.50220805  1
  Cu+  Cu54  1  0.75338017  0.00270278  0.50476279  1
  Cu+  Cu55  1  0.75125504  0.50285191  0.50570196  1
  Cu+  Cu56  1  0.24473577  0.24231392  0.50243514  1
  Cu+  Cu57  1  0.25510312  0.75284011  0.50523114  1
  Cu+  Cu58  1  0.75044728  0.24862265  0.50343657  1
  Cu+  Cu59  1  0.74629772  0.74284141  0.50706470  1
  Cu+  Cu60  1  0.33083496  0.41527669  0.83546265  1
  Cu+  Cu61  1  0.33035177  0.91440290  0.84192849  1
  Cu+  Cu62  1  0.83059195  0.41388315  0.83916440  1
  Cu+  Cu63  1  0.83042532  0.91438982  0.83714754  1
  Cu+  Cu64  1  0.07801447  0.16991957  0.83538066  1
  Cu+  Cu65  1  0.08900439  0.66851068  0.84009576  1
  Cu+  Cu66  1  0.58311800  0.16895302  0.84015504  1
  Cu+  Cu67  1  0.58645861  0.66795879  0.83783613  1
  Cu+  Cu68  1  0.09128611  0.42121135  0.83427302  1
  Cu+  Cu69  1  0.07781087  0.90869487  0.84139793  1
  Cu+  Cu70  1  0.58147090  0.41142934  0.83928672  1
  Cu+  Cu71  1  0.58542919  0.91755815  0.83873498  1
  Cu+  Cu72  1  0.16769556  0.08018375  0.67413915  1
  Cu+  Cu73  1  0.17025281  0.58722438  0.67863143  1
  Cu+  Cu74  1  0.66896732  0.08574576  0.67411015  1
  Cu+  Cu75  1  0.66585982  0.58197494  0.67791534  1
  Cu+  Cu76  1  0.41418865  0.32782154  0.67190344  1
  Cu+  Cu77  1  0.41641604  0.83430976  0.67602491  1
  Cu+  Cu78  1  0.91845657  0.33345414  0.67462202  1
  Cu+  Cu79  1  0.91277439  0.82736274  0.68085701  1
  Cu+  Cu80  1  0.41532834  0.08225879  0.67577959  1
  Cu+  Cu81  1  0.41570606  0.58350343  0.67440368  1
  Cu+  Cu82  1  0.91658833  0.08567504  0.67768631  1
  Cu+  Cu83  1  0.91621511  0.58470231  0.67758047  1
  Cu+  Cu84  1  0.00167595  0.25205370  0.00510652  1
  Cu+  Cu85  1  0.00005465  0.74775957  0.01549681  1
  Cu+  Cu86  1  0.50432500  0.25154166  0.01141410  1
  Cu+  Cu87  1  0.50287555  0.75078369  0.00685864  1
  Cu+  Cu88  1  0.24953990  0.49820583  0.00706022  1
  Cu+  Cu89  1  0.24602874  0.99591451  0.01536619  1
  Cu+  Cu90  1  0.74595158  0.49714989  0.00724775  1
  Cu+  Cu91  1  0.75353554  1.00013005  0.00890096  1
  Cu+  Cu92  1  0.24748618  0.25200119  0.00389791  1
  Cu+  Cu93  1  0.24741338  0.74826164  0.01727815  1
  Cu+  Cu94  1  0.74917233  0.24996083  0.00788011  1
  Cu+  Cu95  1  0.74889085  0.75243250  0.01134372  1
  Cu+  Cu96  1  0.33638516  0.41882387  0.33859965  1
  Cu+  Cu97  1  0.33565810  0.91987047  0.34664995  1
  Cu+  Cu98  1  0.83559636  0.41857281  0.34171931  1
  Cu+  Cu99  1  0.83254316  0.91619257  0.34160257  1
  Cu+  Cu100  1  0.08065012  0.16138784  0.34507597  1
  Cu+  Cu101  1  0.08338426  0.66781163  0.34562023  1
  Cu+  Cu102  1  0.58199132  0.16753365  0.34101875  1
  Cu+  Cu103  1  0.58391474  0.66451633  0.34644418  1
  Cu+  Cu104  1  0.08189548  0.41966650  0.34582099  1
  Cu+  Cu105  1  0.08248202  0.91709954  0.34315960  1
  Cu+  Cu106  1  0.58664485  0.42076305  0.33938150  1
  Cu+  Cu107  1  0.58253510  0.91873710  0.34132062  1
  Cu+  Cu108  1  0.00038662  0.00332387  0.11200397  1
  Cu+  Cu109  1  -0.00190832  0.49441837  0.11520630  1
  Cu+  Cu110  1  0.50434132  -0.00126308  0.11167086  1
  Cu+  Cu111  1  0.49418208  0.49655439  0.11192425  1
  Cu+  Cu112  1  0.33667258  0.17277391  0.44480368  1
  Cu+  Cu113  1  0.33544469  0.66797501  0.44575550  1
  Cu+  Cu114  1  0.82960233  0.16610063  0.44582037  1
  Cu+  Cu115  1  0.83638332  0.66732100  0.45138940  1
  Cu+  Cu116  1  0.16956785  0.33232906  0.77683784  1
  Cu+  Cu117  1  0.16842045  0.83625107  0.78582024  1
  Cu+  Cu118  1  0.66730724  0.33384085  0.78285290  1
  Cu+  Cu119  1  0.66055659  0.83104441  0.78098111  1
  Te2-  Te120  1  -0.00410047  -0.00540048  0.38794752  1
  Te2-  Te121  1  -0.00161280  0.50315228  0.38974275  1
  Te2-  Te122  1  0.50423145  0.00396969  0.38710577  1
  Te2-  Te123  1  0.49894442  0.49636651  0.38694825  1
  Te2-  Te124  1  0.33215821  0.16429924  0.71897280  1
  Te2-  Te125  1  0.33805304  0.66977038  0.72074222  1
  Te2-  Te126  1  0.83254135  0.16951192  0.72026979  1
  Te2-  Te127  1  0.82917935  0.66039361  0.72532589  1
  Te2-  Te128  1  0.16592577  0.33346753  0.05084319  1
  Te2-  Te129  1  0.16490289  0.83138088  0.06254370  1
  Te2-  Te130  1  0.67132590  0.33502343  0.05604217  1
  Te2-  Te131  1  0.66553971  0.83639315  0.05445667  1
  Te2-  Te132  1  0.49169543  0.24458727  0.88512777  1
  Te2-  Te133  1  0.49938001  0.74919468  0.88124989  1
  Te2-  Te134  1  0.99137828  0.25271594  0.87916515  1
  Te2-  Te135  1  0.99154923  0.73877723  0.88714261  1
  Te2-  Te136  1  0.24597464  -0.00074867  0.88710455  1
  Te2-  Te137  1  0.25884428  0.50978954  0.88143892  1
  Te2-  Te138  1  0.75359131  0.00807174  0.88292364  1
  Te2-  Te139  1  0.75048396  0.50232019  0.88159829  1
  Te2-  Te140  1  0.24710106  0.24611461  0.87805724  1
  Te2-  Te141  1  0.25647758  0.74777511  0.88921831  1
  Te2-  Te142  1  0.75173747  0.24628536  0.88223380  1
  Te2-  Te143  1  0.75379318  0.74459450  0.88444509  1
  Te2-  Te144  1  0.33471692  0.41544036  0.21226120  1
  Te2-  Te145  1  0.32384849  0.91390507  0.21864284  1
  Te2-  Te146  1  0.82990503  0.41524669  0.21573612  1
  Te2-  Te147  1  0.82549831  0.91663677  0.21593171  1
  Te2-  Te148  1  0.08772874  0.17182455  0.21824037  1
  Te2-  Te149  1  0.08634685  0.67646038  0.21941714  1
  Te2-  Te150  1  0.58980730  0.17561670  0.21549951  1
  Te2-  Te151  1  0.58750841  0.67838511  0.21896964  1
  Te2-  Te152  1  0.08757867  0.41522829  0.21903761  1
  Te2-  Te153  1  0.08562875  0.91212657  0.21675616  1
  Te2-  Te154  1  0.59524432  0.42097255  0.21314923  1
  Te2-  Te155  1  0.58402781  0.91573737  0.21519444  1
  Te2-  Te156  1  0.15879633  0.07244462  0.54791119  1
  Te2-  Te157  1  0.15899922  0.58468851  0.55090703  1
  Te2-  Te158  1  0.66459159  0.08162438  0.54843043  1
  Te2-  Te159  1  0.65571096  0.57327202  0.55193467  1
  Te2-  Te160  1  0.41391565  0.33362324  0.54555305  1
  Te2-  Te161  1  0.42546622  0.83945538  0.54964331  1
  Te2-  Te162  1  0.91837845  0.34078048  0.54863595  1
  Te2-  Te163  1  0.91445195  0.83644491  0.55373752  1
  Te2-  Te164  1  0.42643500  0.08208025  0.54990464  1
  Te2-  Te165  1  0.41369028  0.57461952  0.54808903  1
  Te2-  Te166  1  0.92031919  0.07813692  0.55078893  1
  Te2-  Te167  1  0.91841452  0.58237132  0.55160760  1
  Te2-  Te168  1  -0.00002016  0.00162064  0.88433322  1
  Te2-  Te169  1  -0.00036253  0.49770264  0.88317162  1
  Te2-  Te170  1  0.49992544  -0.00012973  0.88425368  1
  Te2-  Te171  1  0.49891782  0.49867983  0.88158312  1
  Te2-  Te172  1  0.33441013  0.16782463  0.21511349  1
  Te2-  Te173  1  0.33377626  0.66662863  0.21681023  1
  Te2-  Te174  1  0.83364786  0.16610401  0.21668017  1
  Te2-  Te175  1  0.83328257  0.66720250  0.21492991  1
  Te2-  Te176  1  0.16631276  0.33334660  0.54894151  1
  Te2-  Te177  1  0.16812059  0.83537413  0.55160015  1
  Te2-  Te178  1  0.66616023  0.33282510  0.54800413  1
  Te2-  Te179  1  0.66682910  0.83380749  0.55056409  1
  Te2-  Te180  1  0.32878703  0.41287549  0.70808224  1
  Te2-  Te181  1  0.32738098  0.91352194  0.71441792  1
  Te2-  Te182  1  0.83012172  0.41442729  0.71210545  1
  Te2-  Te183  1  0.82431831  0.91268174  0.70984088  1
  Te2-  Te184  1  0.08828384  0.17025640  0.70856034  1
  Te2-  Te185  1  0.08632357  0.67522172  0.71267223  1
  Te2-  Te186  1  0.58571152  0.17182268  0.71254996  1
  Te2-  Te187  1  0.58505879  0.67151363  0.71093365  1
  Te2-  Te188  1  0.08811883  0.41398313  0.70771139  1
  Te2-  Te189  1  0.08549961  0.91220195  0.71339168  1
  Te2-  Te190  1  0.58339433  0.41036814  0.71152337  1
  Te2-  Te191  1  0.58673674  0.91632520  0.71126488  1
  Te2-  Te192  1  0.16071150  0.08373496  0.04208437  1
  Te2-  Te193  1  0.15846499  0.57561743  0.04492739  1
  Te2-  Te194  1  0.66332163  0.08055546  0.04365394  1
  Te2-  Te195  1  0.65804358  0.57900342  0.04072636  1
  Te2-  Te196  1  0.41704349  0.33844531  0.04030699  1
  Te2-  Te197  1  0.42174213  0.83921252  0.04280259  1
  Te2-  Te198  1  0.91893652  0.33754114  0.04521473  1
  Te2-  Te199  1  0.92157419  0.84276513  0.04042495  1
  Te2-  Te200  1  0.42008528  0.07765074  0.04069337  1
  Te2-  Te201  1  0.41939459  0.58214494  0.04353518  1
  Te2-  Te202  1  0.92232804  0.08372386  0.04410221  1
  Te2-  Te203  1  0.91527627  0.57525490  0.04285756  1
  Te2-  Te204  1  0.49579390  0.25057486  0.37531593  1
  Te2-  Te205  1  0.49459707  0.74908005  0.37585516  1
  Te2-  Te206  1  0.99121916  0.24545664  0.37498278  1
  Te2-  Te207  1  0.99590624  0.74920821  0.38158532  1
  Te2-  Te208  1  0.25227283  0.00907767  0.37620295  1
  Te2-  Te209  1  0.25488171  0.50594826  0.37538237  1
  Te2-  Te210  1  0.75139546  0.00375469  0.37797557  1
  Te2-  Te211  1  0.75517244  0.50795988  0.37830947  1
  Te2-  Te212  1  0.25366308  0.24930194  0.37475187  1
  Te2-  Te213  1  0.25334207  0.74722855  0.37758913  1
  Te2-  Te214  1  0.75239975  0.24819730  0.37614391  1
  Te2-  Te215  1  0.75589405  0.74761817  0.37933875  1
