# generated using pymatgen
data_Ti(CuTe)4
_symmetry_space_group_name_H-M   'P 1'
_cell_length_a   16.88869157
_cell_length_b   16.89187482
_cell_length_c   20.71073939
_cell_angle_alpha   89.96937829
_cell_angle_beta   90.06630886
_cell_angle_gamma   120.01742810
_symmetry_Int_Tables_number   1
_chemical_formula_structural   Ti(CuTe)4
_chemical_formula_sum   'Ti24 Cu96 Te96'
_cell_volume   5115.91719524
_cell_formula_units_Z   24
loop_
 _symmetry_equiv_pos_site_id
 _symmetry_equiv_pos_as_xyz
  1  'x, y, z'
loop_
 _atom_type_symbol
 _atom_type_oxidation_number
  Ti4+  4.0
  Cu+  1.0
  Te2-  -2.0
loop_
 _atom_site_type_symbol
 _atom_site_label
 _atom_site_symmetry_multiplicity
 _atom_site_fract_x
 _atom_site_fract_y
 _atom_site_fract_z
 _atom_site_occupancy
  Ti4+  Ti0  1  -0.00230841  -0.00141573  0.25391323  1
  Ti4+  Ti1  1  -0.00300679  0.49716456  0.26291368  1
  Ti4+  Ti2  1  0.49708047  -0.00166273  0.25710135  1
  Ti4+  Ti3  1  0.50089450  0.50136057  0.25598706  1
  Ti4+  Ti4  1  0.33557889  0.16909681  0.58844118  1
  Ti4+  Ti5  1  0.33148171  0.66275807  0.59244445  1
  Ti4+  Ti6  1  0.83415524  0.16553541  0.59375969  1
  Ti4+  Ti7  1  0.83505796  0.66657554  0.59177873  1
  Ti4+  Ti8  1  0.16760738  0.33441969  0.92576153  1
  Ti4+  Ti9  1  0.16668479  0.83322428  0.92353232  1
  Ti4+  Ti10  1  0.66985584  0.33677141  0.92504598  1
  Ti4+  Ti11  1  0.66489208  0.83589800  0.92142519  1
  Ti4+  Ti12  1  0.00180375  0.00096319  0.75497410  1
  Ti4+  Ti13  1  0.00009998  0.50087952  0.75658159  1
  Ti4+  Ti14  1  0.50103518  -0.00118373  0.75311029  1
  Ti4+  Ti15  1  0.50093422  0.50006270  0.75616186  1
  Ti4+  Ti16  1  0.33301456  0.16612503  0.08655861  1
  Ti4+  Ti17  1  0.33453414  0.66810263  0.09078885  1
  Ti4+  Ti18  1  0.83446132  0.16774887  0.08941466  1
  Ti4+  Ti19  1  0.83265341  0.66733308  0.08874792  1
  Ti4+  Ti20  1  0.16900962  0.33297268  0.42155933  1
  Ti4+  Ti21  1  0.16410308  0.83142120  0.42165999  1
  Ti4+  Ti22  1  0.66565595  0.33230999  0.42206790  1
  Ti4+  Ti23  1  0.66639069  0.83315897  0.42402647  1
  Cu+  Cu24  1  0.23917851  0.25927770  0.14116658  1
  Cu+  Cu25  1  0.23825205  0.97730630  0.13965790  1
  Cu+  Cu26  1  0.68277596  0.09652967  0.80874518  1
  Cu+  Cu27  1  0.90557873  0.59652699  0.80844711  1
  Cu+  Cu28  1  0.91329904  0.09676875  0.81016865  1
  Cu+  Cu29  1  0.07085680  0.64714187  0.47786628  1
  Cu+  Cu30  1  0.07534644  0.41680361  0.48186957  1
  Cu+  Cu31  1  0.40370010  0.81591523  0.80717582  1
  Cu+  Cu32  1  0.74115515  0.47979056  0.14352303  1
  Cu+  Cu33  1  0.40428995  0.58854218  0.81071975  1
  Cu+  Cu34  1  0.73418361  0.76115103  0.13534361  1
  Cu+  Cu35  1  0.35941510  0.42959307  0.47229025  1
  Cu+  Cu36  1  0.16345307  0.08076703  0.16696086  1
  Cu+  Cu37  1  0.16515655  0.58272137  0.17730996  1
  Cu+  Cu38  1  0.66414610  0.08230911  0.17200058  1
  Cu+  Cu39  1  0.66499840  0.58368294  0.16882324  1
  Cu+  Cu40  1  0.41451647  0.33687704  0.16840397  1
  Cu+  Cu41  1  0.41826677  0.83706255  0.17167127  1
  Cu+  Cu42  1  0.91861462  0.33491143  0.17465482  1
  Cu+  Cu43  1  0.91082127  0.83559132  0.16709669  1
  Cu+  Cu44  1  0.41322367  0.07544747  0.16865327  1
  Cu+  Cu45  1  0.41893266  0.58260304  0.17103396  1
  Cu+  Cu46  1  0.91647120  0.07951651  0.16826320  1
  Cu+  Cu47  1  0.91430290  0.57734156  0.17410393  1
  Cu+  Cu48  1  0.49671652  0.24935654  0.50229374  1
  Cu+  Cu49  1  0.49729663  0.74718120  0.50686227  1
  Cu+  Cu50  1  0.99447932  0.24469310  0.50619430  1
  Cu+  Cu51  1  0.99565874  0.74389747  0.50473379  1
  Cu+  Cu52  1  0.25044001  0.00418750  0.50319795  1
  Cu+  Cu53  1  0.25441113  0.50195193  0.50307865  1
  Cu+  Cu54  1  0.75210767  0.00120571  0.50805570  1
  Cu+  Cu55  1  0.75268040  0.50192578  0.50471347  1
  Cu+  Cu56  1  0.25974548  0.25419771  0.50155626  1
  Cu+  Cu57  1  0.24591652  0.74448272  0.50461001  1
  Cu+  Cu58  1  0.74881111  0.24626445  0.50545218  1
  Cu+  Cu59  1  0.75302179  0.74984922  0.50663891  1
  Cu+  Cu60  1  0.33100055  0.41736284  0.84023847  1
  Cu+  Cu61  1  0.32986960  0.91248285  0.83664122  1
  Cu+  Cu62  1  0.83182505  0.42194716  0.83780728  1
  Cu+  Cu63  1  0.83224139  0.92009034  0.83546881  1
  Cu+  Cu64  1  0.08489501  0.17104840  0.83922431  1
  Cu+  Cu65  1  0.08155502  0.67016390  0.83681004  1
  Cu+  Cu66  1  0.58910931  0.17220339  0.83744040  1
  Cu+  Cu67  1  0.58051252  0.66992132  0.83571324  1
  Cu+  Cu68  1  0.08626008  0.41583513  0.83843568  1
  Cu+  Cu69  1  0.08868061  0.91721744  0.83685890  1
  Cu+  Cu70  1  0.58884476  0.41808322  0.83884474  1
  Cu+  Cu71  1  0.58470052  0.91479962  0.83172251  1
  Cu+  Cu72  1  0.17275713  0.08707067  0.67161595  1
  Cu+  Cu73  1  0.16607012  0.58041236  0.67718123  1
  Cu+  Cu74  1  0.67035318  0.08346105  0.67977429  1
  Cu+  Cu75  1  0.67109139  0.58294789  0.67466825  1
  Cu+  Cu76  1  0.41817683  0.33154130  0.67425257  1
  Cu+  Cu77  1  0.41352682  0.82815531  0.67845046  1
  Cu+  Cu78  1  0.91630157  0.33169196  0.67715485  1
  Cu+  Cu79  1  0.92062847  0.83159790  0.67409889  1
  Cu+  Cu80  1  0.41626277  0.08546484  0.67100262  1
  Cu+  Cu81  1  0.41492750  0.58170597  0.68095942  1
  Cu+  Cu82  1  0.91719422  0.08554851  0.68050042  1
  Cu+  Cu83  1  0.91677416  0.58593642  0.68030019  1
  Cu+  Cu84  1  0.00283215  0.25196966  0.01098730  1
  Cu+  Cu85  1  0.00130633  0.75048148  0.00826984  1
  Cu+  Cu86  1  0.50525225  0.25268900  0.00691298  1
  Cu+  Cu87  1  0.49907008  0.75162906  0.00857099  1
  Cu+  Cu88  1  0.25044239  0.49967184  0.01158807  1
  Cu+  Cu89  1  0.25017280  0.99623688  0.01014222  1
  Cu+  Cu90  1  0.75108176  0.49981029  0.01443422  1
  Cu+  Cu91  1  0.74980797  1.00246134  0.00727469  1
  Cu+  Cu92  1  0.24937177  0.25330814  0.01128492  1
  Cu+  Cu93  1  0.24894529  0.75028592  0.00905148  1
  Cu+  Cu94  1  0.75336199  0.25562223  0.00954927  1
  Cu+  Cu95  1  0.74759111  0.75488089  0.00774223  1
  Cu+  Cu96  1  0.33725855  0.41675246  0.34453458  1
  Cu+  Cu97  1  0.33313168  0.91653958  0.34104961  1
  Cu+  Cu98  1  0.83267721  0.41449105  0.34512248  1
  Cu+  Cu99  1  0.83357294  0.91741602  0.34111066  1
  Cu+  Cu100  1  0.08311192  0.16332240  0.33871240  1
  Cu+  Cu101  1  0.07844230  0.66024500  0.34867824  1
  Cu+  Cu102  1  0.57957713  0.16188679  0.33974556  1
  Cu+  Cu103  1  0.58380866  0.66760075  0.34165216  1
  Cu+  Cu104  1  0.08218450  0.41688768  0.35063984  1
  Cu+  Cu105  1  0.08017595  0.91618452  0.33762490  1
  Cu+  Cu106  1  0.58321985  0.41761258  0.34023564  1
  Cu+  Cu107  1  0.58130813  0.91884247  0.34237927  1
  Cu+  Cu108  1  -0.00003863  -0.00071572  0.10899626  1
  Cu+  Cu109  1  0.00438084  0.50161724  0.12138211  1
  Cu+  Cu110  1  0.50424744  0.00187529  0.11399207  1
  Cu+  Cu111  1  0.50024822  0.49982480  0.11177520  1
  Cu+  Cu112  1  0.33334092  0.16272269  0.44390061  1
  Cu+  Cu113  1  0.33658729  0.67191148  0.44913121  1
  Cu+  Cu114  1  0.82919709  0.16285223  0.45085091  1
  Cu+  Cu115  1  0.82965932  0.66577734  0.44892969  1
  Cu+  Cu116  1  0.16821812  0.33306858  0.78247594  1
  Cu+  Cu117  1  0.16816301  0.83528364  0.77901191  1
  Cu+  Cu118  1  0.66560223  0.33285575  0.78100152  1
  Cu+  Cu119  1  0.67039986  0.83146698  0.77722995  1
  Te2-  Te120  1  -0.00072647  -0.00092207  0.38256583  1
  Te2-  Te121  1  -0.00487815  0.49523777  0.39500237  1
  Te2-  Te122  1  0.49698333  -0.00121906  0.38614923  1
  Te2-  Te123  1  0.50473018  0.50296154  0.38612334  1
  Te2-  Te124  1  0.33571442  0.16737224  0.71783902  1
  Te2-  Te125  1  0.32930278  0.66271936  0.72433103  1
  Te2-  Te126  1  0.83547513  0.16937481  0.72607692  1
  Te2-  Te127  1  0.83368243  0.66948570  0.72276454  1
  Te2-  Te128  1  0.16669400  0.33554907  0.05619076  1
  Te2-  Te129  1  0.16486757  0.83032941  0.05391654  1
  Te2-  Te130  1  0.66713069  0.33292183  0.05563472  1
  Te2-  Te131  1  0.66409945  0.83786072  0.05137412  1
  Te2-  Te132  1  0.49934125  0.24940191  0.88114153  1
  Te2-  Te133  1  0.48868922  0.74721323  0.88238141  1
  Te2-  Te134  1  0.99370669  0.25014072  0.88515480  1
  Te2-  Te135  1  0.99281642  0.75026678  0.88259747  1
  Te2-  Te136  1  0.25548623  0.00435031  0.88296833  1
  Te2-  Te137  1  0.25163990  0.50853022  0.88568291  1
  Te2-  Te138  1  0.75350230  0.01138237  0.88127597  1
  Te2-  Te139  1  0.75431182  0.51135074  0.88695395  1
  Te2-  Te140  1  0.25268647  0.24928968  0.88409021  1
  Te2-  Te141  1  0.24917485  0.74244463  0.88302283  1
  Te2-  Te142  1  0.75973424  0.25399193  0.88338546  1
  Te2-  Te143  1  0.74951056  0.75125683  0.88045703  1
  Te2-  Te144  1  0.32651330  0.41576217  0.21753004  1
  Te2-  Te145  1  0.32134427  0.90751896  0.21567315  1
  Te2-  Te146  1  0.82377318  0.40788109  0.21918735  1
  Te2-  Te147  1  0.82259620  0.91379494  0.21501286  1
  Te2-  Te148  1  0.08417349  0.17219315  0.21316848  1
  Te2-  Te149  1  0.08133825  0.66763197  0.22117537  1
  Te2-  Te150  1  0.58136986  0.16909301  0.21380835  1
  Te2-  Te151  1  0.58612583  0.67459251  0.21548459  1
  Te2-  Te152  1  0.08501481  0.41425311  0.22259948  1
  Te2-  Te153  1  0.08062332  0.90939269  0.21155680  1
  Te2-  Te154  1  0.58335605  0.41196745  0.21392925  1
  Te2-  Te155  1  0.58524590  0.91449449  0.21639008  1
  Te2-  Te156  1  0.16404878  0.08619332  0.54609808  1
  Te2-  Te157  1  0.15615075  0.57458684  0.55102230  1
  Te2-  Te158  1  0.66305269  0.07998957  0.55277285  1
  Te2-  Te159  1  0.66404426  0.58087220  0.54901544  1
  Te2-  Te160  1  0.42700664  0.34542397  0.54887993  1
  Te2-  Te161  1  0.41352782  0.83199418  0.55087590  1
  Te2-  Te162  1  0.91676701  0.33810125  0.55131641  1
  Te2-  Te163  1  0.92219910  0.83741808  0.54855769  1
  Te2-  Te164  1  0.41924863  0.08133380  0.54561238  1
  Te2-  Te165  1  0.42108279  0.57967316  0.55292309  1
  Te2-  Te166  1  0.91995759  0.07993828  0.55332374  1
  Te2-  Te167  1  0.91846692  0.57555029  0.55331849  1
  Te2-  Te168  1  0.00160229  0.00014846  0.88180605  1
  Te2-  Te169  1  0.00154168  0.50111292  0.88330598  1
  Te2-  Te170  1  0.50116967  0.00061347  0.88082354  1
  Te2-  Te171  1  0.50207572  0.50140927  0.88298556  1
  Te2-  Te172  1  0.33349688  0.16635933  0.21377783  1
  Te2-  Te173  1  0.33542124  0.66793014  0.21719940  1
  Te2-  Te174  1  0.83308351  0.16429619  0.21567030  1
  Te2-  Te175  1  0.83388409  0.66771345  0.21611851  1
  Te2-  Te176  1  0.16679983  0.33094352  0.54904360  1
  Te2-  Te177  1  0.16657331  0.83499776  0.54851334  1
  Te2-  Te178  1  0.66540978  0.33218735  0.54827330  1
  Te2-  Te179  1  0.66658798  0.83203890  0.55038638  1
  Te2-  Te180  1  0.32774078  0.41010524  0.71257860  1
  Te2-  Te181  1  0.32792608  0.91546860  0.70887393  1
  Te2-  Te182  1  0.82694127  0.41278955  0.71129783  1
  Te2-  Te183  1  0.82988369  0.91194793  0.70860371  1
  Te2-  Te184  1  0.09004653  0.17353522  0.71140536  1
  Te2-  Te185  1  0.08947744  0.67388128  0.71031827  1
  Te2-  Te186  1  0.58598265  0.17233268  0.70965559  1
  Te2-  Te187  1  0.58863903  0.67143451  0.70883376  1
  Te2-  Te188  1  0.08544469  0.41190909  0.71289250  1
  Te2-  Te189  1  0.08992867  0.91758458  0.71048706  1
  Te2-  Te190  1  0.58742959  0.41449185  0.71242259  1
  Te2-  Te191  1  0.58688875  0.91008183  0.70582163  1
  Te2-  Te192  1  0.16038972  0.07972580  0.03937728  1
  Te2-  Te193  1  0.16217396  0.58137902  0.04938047  1
  Te2-  Te194  1  0.66305592  0.08474474  0.04454814  1
  Te2-  Te195  1  0.66006737  0.58282043  0.04125368  1
  Te2-  Te196  1  0.42216481  0.33981678  0.04179911  1
  Te2-  Te197  1  0.41839237  0.83979091  0.04542861  1
  Te2-  Te198  1  0.92223883  0.34115225  0.04832749  1
  Te2-  Te199  1  0.91943329  0.83935744  0.04062811  1
  Te2-  Te200  1  0.42248690  0.08229665  0.04200800  1
  Te2-  Te201  1  0.42046299  0.58234599  0.04510490  1
  Te2-  Te202  1  0.91930036  0.08114161  0.04259195  1
  Te2-  Te203  1  0.92272242  0.58231980  0.04711325  1
  Te2-  Te204  1  0.49471173  0.24727538  0.37600181  1
  Te2-  Te205  1  0.49530620  0.74851446  0.37964804  1
  Te2-  Te206  1  0.99427715  0.24323871  0.37902869  1
  Te2-  Te207  1  0.99128797  0.74674289  0.37725993  1
  Te2-  Te208  1  0.24921655  0.00248091  0.37620467  1
  Te2-  Te209  1  0.25609801  0.50798324  0.37660352  1
  Te2-  Te210  1  0.75137207  0.00425309  0.38056617  1
  Te2-  Te211  1  0.75269434  0.50512097  0.37836788  1
  Te2-  Te212  1  0.25265795  0.24432193  0.37497626  1
  Te2-  Te213  1  0.25220739  0.74636264  0.37761760  1
  Te2-  Te214  1  0.74943411  0.24359679  0.37910075  1
  Te2-  Te215  1  0.75274398  0.74858012  0.37944161  1
