# generated using pymatgen
data_Ti(CuTe)4
_symmetry_space_group_name_H-M   'P 1'
_cell_length_a   16.85180121
_cell_length_b   16.85099266
_cell_length_c   20.65491405
_cell_angle_alpha   90.01866794
_cell_angle_beta   89.98760417
_cell_angle_gamma   119.99107399
_symmetry_Int_Tables_number   1
_chemical_formula_structural   Ti(CuTe)4
_chemical_formula_sum   'Ti24 Cu96 Te96'
_cell_volume   5080.01356414
_cell_formula_units_Z   24
loop_
 _symmetry_equiv_pos_site_id
 _symmetry_equiv_pos_as_xyz
  1  'x, y, z'
loop_
 _atom_type_symbol
 _atom_type_oxidation_number
  Ti4+  4.0
  Cu+  1.0
  Te2-  -2.0
loop_
 _atom_site_type_symbol
 _atom_site_label
 _atom_site_symmetry_multiplicity
 _atom_site_fract_x
 _atom_site_fract_y
 _atom_site_fract_z
 _atom_site_occupancy
  Ti4+  Ti0  1  -0.00156505  -0.00169941  0.25741510  1
  Ti4+  Ti1  1  0.00337366  0.50104628  0.25348389  1
  Ti4+  Ti2  1  0.50083219  -0.00201116  0.25911942  1
  Ti4+  Ti3  1  0.49666984  0.49740369  0.26121120  1
  Ti4+  Ti4  1  0.33091224  0.16492113  0.59196784  1
  Ti4+  Ti5  1  0.33395987  0.67136414  0.59446940  1
  Ti4+  Ti6  1  0.83297210  0.16822835  0.58975662  1
  Ti4+  Ti7  1  0.82981881  0.66840757  0.58768221  1
  Ti4+  Ti8  1  0.16994909  0.33266678  0.92339789  1
  Ti4+  Ti9  1  0.16897969  0.83177186  0.92583631  1
  Ti4+  Ti10  1  0.66620513  0.33360339  0.92302336  1
  Ti4+  Ti11  1  0.66826790  0.83424900  0.92581344  1
  Ti4+  Ti12  1  0.00001907  0.00098892  0.75656403  1
  Ti4+  Ti13  1  0.00152649  0.50276705  0.75521123  1
  Ti4+  Ti14  1  0.49859481  -0.00015897  0.75510715  1
  Ti4+  Ti15  1  0.49833334  0.49930004  0.75533733  1
  Ti4+  Ti16  1  0.33413871  0.16686101  0.09156704  1
  Ti4+  Ti17  1  0.33216834  0.66549715  0.08908664  1
  Ti4+  Ti18  1  0.83270366  0.16436516  0.08725659  1
  Ti4+  Ti19  1  0.83582516  0.66867123  0.08851264  1
  Ti4+  Ti20  1  0.16553420  0.33254041  0.42376761  1
  Ti4+  Ti21  1  0.16756021  0.83468119  0.42511798  1
  Ti4+  Ti22  1  0.66624105  0.33384298  0.41986342  1
  Ti4+  Ti23  1  0.66622591  0.83196673  0.42085117  1
  Cu+  Cu24  1  0.56684919  0.64999281  0.47684585  1
  Cu+  Cu25  1  0.24752478  0.76011456  0.14671213  1
  Cu+  Cu26  1  0.35858690  0.92922639  0.47588763  1
  Cu+  Cu27  1  0.24019016  0.47607009  0.13924766  1
  Cu+  Cu28  1  0.41480146  0.81704831  0.81226708  1
  Cu+  Cu29  1  0.18772886  0.59048241  0.81118092  1
  Cu+  Cu30  1  0.41119921  0.31584573  0.81005625  1
  Cu+  Cu31  1  0.02162452  0.76577452  0.14147051  1
  Cu+  Cu32  1  0.56814338  0.42102510  0.47696602  1
  Cu+  Cu33  1  0.07172976  0.93169117  0.47418932  1
  Cu+  Cu34  1  0.73577680  0.97185768  0.13974343  1
  Cu+  Cu35  1  0.18561910  0.08577446  0.80973450  1
  Cu+  Cu36  1  0.16498533  0.08168517  0.17243959  1
  Cu+  Cu37  1  0.16269327  0.57929616  0.16593218  1
  Cu+  Cu38  1  0.66647436  0.07721368  0.17087464  1
  Cu+  Cu39  1  0.66379284  0.58257702  0.17464061  1
  Cu+  Cu40  1  0.41857795  0.33497329  0.17487647  1
  Cu+  Cu41  1  0.41948500  0.84044017  0.17086900  1
  Cu+  Cu42  1  0.92059221  0.33688473  0.16650480  1
  Cu+  Cu43  1  0.92157739  0.83822152  0.16966919  1
  Cu+  Cu44  1  0.41622740  0.08109149  0.17386573  1
  Cu+  Cu45  1  0.41299187  0.57609485  0.17331026  1
  Cu+  Cu46  1  0.91219653  0.07738829  0.16974838  1
  Cu+  Cu47  1  0.92217891  0.58708300  0.16706234  1
  Cu+  Cu48  1  0.49619082  0.24995467  0.50367703  1
  Cu+  Cu49  1  0.49640168  0.75087481  0.50616635  1
  Cu+  Cu50  1  0.99639581  0.24922968  0.50424573  1
  Cu+  Cu51  1  0.99568469  0.75510552  0.50298277  1
  Cu+  Cu52  1  0.24912009  0.00105764  0.50577902  1
  Cu+  Cu53  1  0.24584979  0.50168831  0.50776763  1
  Cu+  Cu54  1  0.75145541  0.00507274  0.50301036  1
  Cu+  Cu55  1  0.74588273  0.50273000  0.50007669  1
  Cu+  Cu56  1  0.24814421  0.24693185  0.50619180  1
  Cu+  Cu57  1  0.25667575  0.75492581  0.50828215  1
  Cu+  Cu58  1  0.75285026  0.24871130  0.50188278  1
  Cu+  Cu59  1  0.74682167  0.74428397  0.49936293  1
  Cu+  Cu60  1  0.33006193  0.41064709  0.83584886  1
  Cu+  Cu61  1  0.33018659  0.90953968  0.83558889  1
  Cu+  Cu62  1  0.82977846  0.41623077  0.83609118  1
  Cu+  Cu63  1  0.83053792  0.91676126  0.83971752  1
  Cu+  Cu64  1  0.09090805  0.16847178  0.83584891  1
  Cu+  Cu65  1  0.08946725  0.66909573  0.83788529  1
  Cu+  Cu66  1  0.58588410  0.17114481  0.83554827  1
  Cu+  Cu67  1  0.58775318  0.67063113  0.83858323  1
  Cu+  Cu68  1  0.08827512  0.41821111  0.83785844  1
  Cu+  Cu69  1  0.08463250  0.91428805  0.84004960  1
  Cu+  Cu70  1  0.58353583  0.41269634  0.83650843  1
  Cu+  Cu71  1  0.58619932  0.91598709  0.83988267  1
  Cu+  Cu72  1  0.16669257  0.08224547  0.68108622  1
  Cu+  Cu73  1  0.17037424  0.59026667  0.68144594  1
  Cu+  Cu74  1  0.66973587  0.08703843  0.67237045  1
  Cu+  Cu75  1  0.66608031  0.58529436  0.67481839  1
  Cu+  Cu76  1  0.41280097  0.33122398  0.68091425  1
  Cu+  Cu77  1  0.41551863  0.83385950  0.68268603  1
  Cu+  Cu78  1  0.91520174  0.33193467  0.67235806  1
  Cu+  Cu79  1  0.91193492  0.83268948  0.67275660  1
  Cu+  Cu80  1  0.41514997  0.08350422  0.67567093  1
  Cu+  Cu81  1  0.41677949  0.58600778  0.67770910  1
  Cu+  Cu82  1  0.91294532  0.08534383  0.67299531  1
  Cu+  Cu83  1  0.91323465  0.58641963  0.66967748  1
  Cu+  Cu84  1  0.00351121  0.25106722  0.00453371  1
  Cu+  Cu85  1  0.00575074  0.75244915  0.01261249  1
  Cu+  Cu86  1  0.50238452  0.25198563  0.00880995  1
  Cu+  Cu87  1  0.50111968  0.75147953  0.01088647  1
  Cu+  Cu88  1  0.25113572  0.49628213  0.01159053  1
  Cu+  Cu89  1  0.25143173  1.00032609  0.00904685  1
  Cu+  Cu90  1  0.74569155  0.49726518  0.00589436  1
  Cu+  Cu91  1  0.74699337  0.99423154  0.01175763  1
  Cu+  Cu92  1  0.25240948  0.25026681  0.01149823  1
  Cu+  Cu93  1  0.25021533  0.74994400  0.01658523  1
  Cu+  Cu94  1  0.74842529  0.25172312  0.00492995  1
  Cu+  Cu95  1  0.75082061  0.75092955  0.00840073  1
  Cu+  Cu96  1  0.33056658  0.41460277  0.34493141  1
  Cu+  Cu97  1  0.33750875  0.91672026  0.34893472  1
  Cu+  Cu98  1  0.83811955  0.41793253  0.33543698  1
  Cu+  Cu99  1  0.83416104  0.91641505  0.34136166  1
  Cu+  Cu100  1  0.08255617  0.16437092  0.33978183  1
  Cu+  Cu101  1  0.08572507  0.66546393  0.34160425  1
  Cu+  Cu102  1  0.58309538  0.16391039  0.34028311  1
  Cu+  Cu103  1  0.57961049  0.66178638  0.34730694  1
  Cu+  Cu104  1  0.08460982  0.41832243  0.33871284  1
  Cu+  Cu105  1  0.08073089  0.91716670  0.34652289  1
  Cu+  Cu106  1  0.58108564  0.41786923  0.34731678  1
  Cu+  Cu107  1  0.58300103  0.91638203  0.34280454  1
  Cu+  Cu108  1  0.00317963  0.00689097  0.11343089  1
  Cu+  Cu109  1  -0.00704939  0.49597568  0.10801818  1
  Cu+  Cu110  1  0.50605523  0.01109926  0.11634890  1
  Cu+  Cu111  1  0.50312712  0.49958114  0.11915631  1
  Cu+  Cu112  1  0.33314933  0.16579555  0.44796460  1
  Cu+  Cu113  1  0.33019902  0.66300817  0.45211078  1
  Cu+  Cu114  1  0.83551420  0.16820588  0.44539591  1
  Cu+  Cu115  1  0.83608181  0.66417894  0.44264918  1
  Cu+  Cu116  1  0.15947969  0.33067501  0.77883216  1
  Cu+  Cu117  1  0.16149850  0.83214382  0.78110253  1
  Cu+  Cu118  1  0.67008059  0.33542826  0.77787877  1
  Cu+  Cu119  1  0.66834058  0.83510042  0.78271106  1
  Te2-  Te120  1  -0.00220889  0.00173690  0.38806275  1
  Te2-  Te121  1  0.00112761  0.49964320  0.38253412  1
  Te2-  Te122  1  0.50514269  0.00199501  0.38993234  1
  Te2-  Te123  1  0.49371608  0.49617529  0.39364903  1
  Te2-  Te124  1  0.33346122  0.16455217  0.72401476  1
  Te2-  Te125  1  0.33595966  0.66763700  0.72695489  1
  Te2-  Te126  1  0.83302894  0.16879103  0.71948112  1
  Te2-  Te127  1  0.83157604  0.66793036  0.71680048  1
  Te2-  Te128  1  0.16563687  0.32888733  0.05366538  1
  Te2-  Te129  1  0.17138443  0.83784951  0.05806205  1
  Te2-  Te130  1  0.66742159  0.33368570  0.05248725  1
  Te2-  Te131  1  0.66494120  0.82784540  0.05659631  1
  Te2-  Te132  1  0.49171529  0.24246564  0.88287850  1
  Te2-  Te133  1  0.49452738  0.74388624  0.88514153  1
  Te2-  Te134  1  1.00091583  0.24832757  0.87836071  1
  Te2-  Te135  1  0.99897501  0.74694433  0.88491662  1
  Te2-  Te136  1  0.25766410  0.00395711  0.88305931  1
  Te2-  Te137  1  0.25980139  0.50646554  0.88443515  1
  Te2-  Te138  1  0.75254788  0.00642713  0.88496053  1
  Te2-  Te139  1  0.75046010  0.50537468  0.87988342  1
  Te2-  Te140  1  0.25755371  0.24290821  0.88505263  1
  Te2-  Te141  1  0.25764075  0.74398640  0.88775849  1
  Te2-  Te142  1  0.75276723  0.24821545  0.87941728  1
  Te2-  Te143  1  0.75468571  0.74867966  0.88295252  1
  Te2-  Te144  1  0.32334588  0.40763398  0.21897665  1
  Te2-  Te145  1  0.32603194  0.91430437  0.22176280  1
  Te2-  Te146  1  0.83303313  0.41783215  0.20971681  1
  Te2-  Te147  1  0.82499362  0.90781760  0.21530787  1
  Te2-  Te148  1  0.08151603  0.16809756  0.21369770  1
  Te2-  Te149  1  0.09100102  0.67765499  0.21512920  1
  Te2-  Te150  1  0.58699160  0.16744395  0.21413762  1
  Te2-  Te151  1  0.58018320  0.66830618  0.21961902  1
  Te2-  Te152  1  0.08712452  0.41084322  0.21310553  1
  Te2-  Te153  1  0.08992636  0.91519676  0.21955513  1
  Te2-  Te154  1  0.58565856  0.41479288  0.22020682  1
  Te2-  Te155  1  0.58410363  0.90742389  0.21697061  1
  Te2-  Te156  1  0.15769296  0.07961855  0.55336903  1
  Te2-  Te157  1  0.16335376  0.58719291  0.55393993  1
  Te2-  Te158  1  0.66065337  0.08170975  0.54686105  1
  Te2-  Te159  1  0.65220906  0.57758302  0.54896888  1
  Te2-  Te160  1  0.41491030  0.33792260  0.55336889  1
  Te2-  Te161  1  0.42599990  0.84530440  0.55470405  1
  Te2-  Te162  1  0.91947535  0.34054253  0.54673973  1
  Te2-  Te163  1  0.91332628  0.84226433  0.54700646  1
  Te2-  Te164  1  0.42087497  0.08288224  0.54936756  1
  Te2-  Te165  1  0.41454183  0.57984748  0.55198739  1
  Te2-  Te166  1  0.91837012  0.08112070  0.54744966  1
  Te2-  Te167  1  0.91543819  0.58413001  0.54352718  1
  Te2-  Te168  1  0.00031103  0.00012649  0.88393626  1
  Te2-  Te169  1  -0.00139685  0.49860658  0.88243486  1
  Te2-  Te170  1  0.50034455  0.00170531  0.88229616  1
  Te2-  Te171  1  0.50110261  0.50032498  0.88247268  1
  Te2-  Te172  1  0.33288095  0.16597779  0.21870531  1
  Te2-  Te173  1  0.33186107  0.66723066  0.21667143  1
  Te2-  Te174  1  0.83541791  0.16933521  0.21451140  1
  Te2-  Te175  1  0.83447387  0.66719317  0.21584721  1
  Te2-  Te176  1  0.16390594  0.33264882  0.55072177  1
  Te2-  Te177  1  0.16324553  0.83219475  0.55259188  1
  Te2-  Te178  1  0.66777298  0.33383823  0.54711575  1
  Te2-  Te179  1  0.66846533  0.83529564  0.54801516  1
  Te2-  Te180  1  0.32378021  0.41514617  0.70965155  1
  Te2-  Te181  1  0.32318728  0.91438551  0.70969670  1
  Te2-  Te182  1  0.83054392  0.41751497  0.70897307  1
  Te2-  Te183  1  0.82796020  0.91673148  0.71264782  1
  Te2-  Te184  1  0.08334228  0.17253270  0.70871874  1
  Te2-  Te185  1  0.08220178  0.67508218  0.71008245  1
  Te2-  Te186  1  0.58536586  0.17225012  0.70943440  1
  Te2-  Te187  1  0.58587673  0.67356678  0.71241563  1
  Te2-  Te188  1  0.08583931  0.41541314  0.70923653  1
  Te2-  Te189  1  0.08101412  0.90965033  0.71127817  1
  Te2-  Te190  1  0.58668423  0.41466095  0.70900403  1
  Te2-  Te191  1  0.58965288  0.91742839  0.71161214  1
  Te2-  Te192  1  0.16219855  0.07988850  0.04534084  1
  Te2-  Te193  1  0.15781137  0.57632465  0.03960443  1
  Te2-  Te194  1  0.66053256  0.08160727  0.04254113  1
  Te2-  Te195  1  0.66244068  0.58171152  0.04714724  1
  Te2-  Te196  1  0.42149204  0.33968684  0.04801053  1
  Te2-  Te197  1  0.42264914  0.84195374  0.04506923  1
  Te2-  Te198  1  0.91858802  0.33572159  0.03999732  1
  Te2-  Te199  1  0.92153992  0.84186084  0.04280614  1
  Te2-  Te200  1  0.42041941  0.08186006  0.04609508  1
  Te2-  Te201  1  0.42245740  0.58127287  0.04622521  1
  Te2-  Te202  1  0.92133652  0.08111649  0.04143540  1
  Te2-  Te203  1  0.91702921  0.57878025  0.03984637  1
  Te2-  Te204  1  0.49250596  0.24386371  0.37597404  1
  Te2-  Te205  1  0.49109420  0.74657660  0.37865796  1
  Te2-  Te206  1  0.99573008  0.24808531  0.37638980  1
  Te2-  Te207  1  0.99604521  0.74530900  0.37597768  1
  Te2-  Te208  1  0.25364633  0.00724996  0.37770250  1
  Te2-  Te209  1  0.25159641  0.50542068  0.38049769  1
  Te2-  Te210  1  0.75317786  0.00521993  0.37651608  1
  Te2-  Te211  1  0.75562127  0.50550845  0.37274164  1
  Te2-  Te212  1  0.25060897  0.24452924  0.37963642  1
  Te2-  Te213  1  0.25271963  0.74528635  0.38123724  1
  Te2-  Te214  1  0.75371561  0.24915812  0.37506156  1
  Te2-  Te215  1  0.75376118  0.74583280  0.37358198  1
