# generated using pymatgen
data_Ti(CuTe)4
_symmetry_space_group_name_H-M   'P 1'
_cell_length_a   16.89743752
_cell_length_b   16.89680313
_cell_length_c   20.71907515
_cell_angle_alpha   89.98191838
_cell_angle_beta   89.98977508
_cell_angle_gamma   120.01053375
_symmetry_Int_Tables_number   1
_chemical_formula_structural   Ti(CuTe)4
_chemical_formula_sum   'Ti24 Cu96 Te96'
_cell_volume   5122.47949183
_cell_formula_units_Z   24
loop_
 _symmetry_equiv_pos_site_id
 _symmetry_equiv_pos_as_xyz
  1  'x, y, z'
loop_
 _atom_type_symbol
 _atom_type_oxidation_number
  Ti4+  4.0
  Cu+  1.0
  Te2-  -2.0
loop_
 _atom_site_type_symbol
 _atom_site_label
 _atom_site_symmetry_multiplicity
 _atom_site_fract_x
 _atom_site_fract_y
 _atom_site_fract_z
 _atom_site_occupancy
  Ti4+  Ti0  1  0.00069802  0.00371899  0.25877693  1
  Ti4+  Ti1  1  -0.00201436  0.50171165  0.25585483  1
  Ti4+  Ti2  1  0.49839070  -0.00101403  0.25683075  1
  Ti4+  Ti3  1  0.50017042  0.49796704  0.25587136  1
  Ti4+  Ti4  1  0.33990265  0.16946007  0.58994652  1
  Ti4+  Ti5  1  0.33815415  0.66813901  0.58808226  1
  Ti4+  Ti6  1  0.83820234  0.16800352  0.59361668  1
  Ti4+  Ti7  1  0.83833079  0.67083940  0.59401508  1
  Ti4+  Ti8  1  0.16207532  0.32974746  0.92542008  1
  Ti4+  Ti9  1  0.16193605  0.83075025  0.92552575  1
  Ti4+  Ti10  1  0.66400158  0.33126178  0.92364113  1
  Ti4+  Ti11  1  0.66356165  0.83144412  0.92363081  1
  Ti4+  Ti12  1  0.00187860  0.00079708  0.75502660  1
  Ti4+  Ti13  1  0.00132596  0.50044169  0.75513525  1
  Ti4+  Ti14  1  0.50095730  -0.00049444  0.75523048  1
  Ti4+  Ti15  1  0.50123269  0.50016203  0.75559414  1
  Ti4+  Ti16  1  0.33057246  0.16540404  0.08728792  1
  Ti4+  Ti17  1  0.33086384  0.66603167  0.08696273  1
  Ti4+  Ti18  1  0.83163296  0.16545941  0.08890149  1
  Ti4+  Ti19  1  0.82995428  0.66341317  0.08882654  1
  Ti4+  Ti20  1  0.16797142  0.33516101  0.42283298  1
  Ti4+  Ti21  1  0.16766004  0.83343576  0.42263230  1
  Ti4+  Ti22  1  0.66615245  0.33303138  0.42349928  1
  Ti4+  Ti23  1  0.66908599  0.83433747  0.42190465  1
  Cu+  Cu24  1  0.01383552  0.26045753  0.14617068  1
  Cu+  Cu25  1  0.90422200  0.31693371  0.80973150  1
  Cu+  Cu26  1  0.90576794  0.58701738  0.81161398  1
  Cu+  Cu27  1  0.35928005  0.92970874  0.47347133  1
  Cu+  Cu28  1  0.90526821  0.81906359  0.81163146  1
  Cu+  Cu29  1  0.86042232  0.93060451  0.47629406  1
  Cu+  Cu30  1  0.00838356  0.75878970  0.14794651  1
  Cu+  Cu31  1  0.90566322  0.08581788  0.81194937  1
  Cu+  Cu32  1  0.73552348  0.47335392  0.13858507  1
  Cu+  Cu33  1  0.24342695  0.76296121  0.14105699  1
  Cu+  Cu34  1  0.24345586  0.26132769  0.14220890  1
  Cu+  Cu35  1  0.36053908  0.42931459  0.47272697  1
  Cu+  Cu36  1  0.16225819  0.08610568  0.16951576  1
  Cu+  Cu37  1  0.16282316  0.58715626  0.16765406  1
  Cu+  Cu38  1  0.66165037  0.08035068  0.17166714  1
  Cu+  Cu39  1  0.66237009  0.57386963  0.16976579  1
  Cu+  Cu40  1  0.41639825  0.33700073  0.16905533  1
  Cu+  Cu41  1  0.41464682  0.83678770  0.17037878  1
  Cu+  Cu42  1  0.91858460  0.33811404  0.16978658  1
  Cu+  Cu43  1  0.91690738  0.83891030  0.17318865  1
  Cu+  Cu44  1  0.41751359  0.08065435  0.16937710  1
  Cu+  Cu45  1  0.41834819  0.58175536  0.16923929  1
  Cu+  Cu46  1  0.91941274  0.08485238  0.17154041  1
  Cu+  Cu47  1  0.91406449  0.57966983  0.16826982  1
  Cu+  Cu48  1  0.49850658  0.24850319  0.50350332  1
  Cu+  Cu49  1  0.49723699  0.74718553  0.50075426  1
  Cu+  Cu50  1  0.99788868  0.25010411  0.50701639  1
  Cu+  Cu51  1  0.99770662  0.74869492  0.50709755  1
  Cu+  Cu52  1  0.25823465  0.00271942  0.50443238  1
  Cu+  Cu53  1  0.25838895  0.50346515  0.50288865  1
  Cu+  Cu54  1  0.75965817  0.00288275  0.50575686  1
  Cu+  Cu55  1  0.75484643  0.50297159  0.50827150  1
  Cu+  Cu56  1  0.25849482  0.25571021  0.50476390  1
  Cu+  Cu57  1  0.25765487  0.75377357  0.50296729  1
  Cu+  Cu58  1  0.75431613  0.25167047  0.50719166  1
  Cu+  Cu59  1  0.75984522  0.75687067  0.50528530  1
  Cu+  Cu60  1  0.33000722  0.41152303  0.83921226  1
  Cu+  Cu61  1  0.32990949  0.91283402  0.83876551  1
  Cu+  Cu62  1  0.82597891  0.41298835  0.83733460  1
  Cu+  Cu63  1  0.82452372  0.91203029  0.83695798  1
  Cu+  Cu64  1  0.08148904  0.17055979  0.83705735  1
  Cu+  Cu65  1  0.08084139  0.67061102  0.83749346  1
  Cu+  Cu66  1  0.58203419  0.16657845  0.83706433  1
  Cu+  Cu67  1  0.58174936  0.66750330  0.83727381  1
  Cu+  Cu68  1  0.07854500  0.40798185  0.83631182  1
  Cu+  Cu69  1  0.07983906  0.90889863  0.83647612  1
  Cu+  Cu70  1  0.58335645  0.41499502  0.83738689  1
  Cu+  Cu71  1  0.58264866  0.91411770  0.83658601  1
  Cu+  Cu72  1  0.17727245  0.08849916  0.67313115  1
  Cu+  Cu73  1  0.17497927  0.58731012  0.67145287  1
  Cu+  Cu74  1  0.67238030  0.08490776  0.67533566  1
  Cu+  Cu75  1  0.67259429  0.58747625  0.67556255  1
  Cu+  Cu76  1  0.41930610  0.33331765  0.67442463  1
  Cu+  Cu77  1  0.41748858  0.83229700  0.67281880  1
  Cu+  Cu78  1  0.91879687  0.33201825  0.68087629  1
  Cu+  Cu79  1  0.92014442  0.83392974  0.68136457  1
  Cu+  Cu80  1  0.41812903  0.08370307  0.67478445  1
  Cu+  Cu81  1  0.41683779  0.58302430  0.67369635  1
  Cu+  Cu82  1  0.92082828  0.08696354  0.68159941  1
  Cu+  Cu83  1  0.91968088  0.58796952  0.68195552  1
  Cu+  Cu84  1  -0.00127385  0.24717868  0.01505175  1
  Cu+  Cu85  1  -0.00214387  0.74917375  0.01578887  1
  Cu+  Cu86  1  0.49840006  0.24881927  0.00660950  1
  Cu+  Cu87  1  0.49948752  0.75000819  0.00650739  1
  Cu+  Cu88  1  0.24675408  0.49587172  0.00662696  1
  Cu+  Cu89  1  0.24634631  0.99647270  0.00743209  1
  Cu+  Cu90  1  0.74478141  0.49344695  0.01115322  1
  Cu+  Cu91  1  0.74569766  0.99449353  0.00851996  1
  Cu+  Cu92  1  0.24454275  0.24887960  0.01302143  1
  Cu+  Cu93  1  0.24518555  0.75063326  0.01219714  1
  Cu+  Cu94  1  0.74624623  0.24844920  0.00809282  1
  Cu+  Cu95  1  0.74476324  0.74976750  0.00809569  1
  Cu+  Cu96  1  0.33666745  0.41846176  0.34455957  1
  Cu+  Cu97  1  0.33623797  0.91669924  0.34490091  1
  Cu+  Cu98  1  0.83348820  0.41776288  0.34139416  1
  Cu+  Cu99  1  0.83846276  0.92027529  0.34660066  1
  Cu+  Cu100  1  0.08090538  0.16831565  0.34442535  1
  Cu+  Cu101  1  0.07926398  0.66584350  0.34177630  1
  Cu+  Cu102  1  0.58168723  0.16426537  0.34175413  1
  Cu+  Cu103  1  0.58426317  0.66470386  0.33902160  1
  Cu+  Cu104  1  0.07990975  0.41831221  0.34134546  1
  Cu+  Cu105  1  0.08070899  0.91694872  0.34301953  1
  Cu+  Cu106  1  0.58248827  0.41546340  0.34181810  1
  Cu+  Cu107  1  0.58205437  0.91627288  0.34006204  1
  Cu+  Cu108  1  -0.00279415  -0.00200916  0.11483328  1
  Cu+  Cu109  1  -0.00018709  0.49872800  0.11151832  1
  Cu+  Cu110  1  0.50018994  0.00082654  0.11338937  1
  Cu+  Cu111  1  0.49852455  0.50196280  0.11201924  1
  Cu+  Cu112  1  0.32895186  0.16443640  0.44786978  1
  Cu+  Cu113  1  0.33115854  0.66551530  0.44488374  1
  Cu+  Cu114  1  0.82892382  0.16611614  0.45127503  1
  Cu+  Cu115  1  0.82902784  0.66327610  0.45158402  1
  Cu+  Cu116  1  0.17150378  0.33750124  0.78097334  1
  Cu+  Cu117  1  0.17115781  0.83547756  0.78090900  1
  Cu+  Cu118  1  0.66032209  0.32947696  0.78065731  1
  Cu+  Cu119  1  0.66029388  0.82980443  0.77993830  1
  Te2-  Te120  1  0.00469467  0.00422546  0.38912254  1
  Te2-  Te121  1  -0.00186047  0.50108841  0.38425255  1
  Te2-  Te122  1  0.50314701  0.00029645  0.38716374  1
  Te2-  Te123  1  0.50408885  0.50151541  0.38592390  1
  Te2-  Te124  1  0.33986036  0.16941374  0.71900114  1
  Te2-  Te125  1  0.33767685  0.66824386  0.71709863  1
  Te2-  Te126  1  0.83403116  0.16603729  0.72598561  1
  Te2-  Te127  1  0.83406478  0.66808507  0.72647620  1
  Te2-  Te128  1  0.16503941  0.33488279  0.05754766  1
  Te2-  Te129  1  0.16425510  0.83511200  0.05754920  1
  Te2-  Te130  1  0.66110300  0.32677222  0.05423072  1
  Te2-  Te131  1  0.66226991  0.83076316  0.05291485  1
  Te2-  Te132  1  0.49396547  0.24665592  0.88082760  1
  Te2-  Te133  1  0.49281373  0.74646465  0.88083578  1
  Te2-  Te134  1  0.98533114  0.24142785  0.88686556  1
  Te2-  Te135  1  0.98506220  0.74234162  0.88716518  1
  Te2-  Te136  1  0.24721108  0.00013691  0.88136629  1
  Te2-  Te137  1  0.24668813  0.49879472  0.88052548  1
  Te2-  Te138  1  0.74919946  0.00545562  0.88305428  1
  Te2-  Te139  1  0.74964801  0.50522785  0.88463913  1
  Te2-  Te140  1  0.24695146  0.24387662  0.88563323  1
  Te2-  Te141  1  0.24691201  0.74527130  0.88495214  1
  Te2-  Te142  1  0.74934675  0.24338841  0.88255235  1
  Te2-  Te143  1  0.74890817  0.74282117  0.88277313  1
  Te2-  Te144  1  0.32620351  0.41554191  0.21722620  1
  Te2-  Te145  1  0.32392992  0.91504755  0.21782796  1
  Te2-  Te146  1  0.82499095  0.41117281  0.21540662  1
  Te2-  Te147  1  0.83042275  0.91832889  0.21919408  1
  Te2-  Te148  1  0.08875574  0.18037798  0.21828825  1
  Te2-  Te149  1  0.08528786  0.67790258  0.21568067  1
  Te2-  Te150  1  0.58436050  0.17069331  0.21574914  1
  Te2-  Te151  1  0.58717421  0.66785126  0.21290557  1
  Te2-  Te152  1  0.08903803  0.41996636  0.21532680  1
  Te2-  Te153  1  0.08867699  0.91903040  0.21701028  1
  Te2-  Te154  1  0.58250652  0.40601011  0.21597711  1
  Te2-  Te155  1  0.58245756  0.91198769  0.21439721  1
  Te2-  Te156  1  0.16989361  0.08492454  0.54678423  1
  Te2-  Te157  1  0.16799726  0.58347756  0.54536630  1
  Te2-  Te158  1  0.66924288  0.08173870  0.54904281  1
  Te2-  Te159  1  0.66942812  0.58769228  0.54924228  1
  Te2-  Te160  1  0.42794910  0.34400698  0.54910219  1
  Te2-  Te161  1  0.42699931  0.84265146  0.54742994  1
  Te2-  Te162  1  0.92155101  0.33968104  0.55401109  1
  Te2-  Te163  1  0.92766643  0.84470689  0.55391256  1
  Te2-  Te164  1  0.42742200  0.08243696  0.54943457  1
  Te2-  Te165  1  0.42707245  0.58209423  0.54822203  1
  Te2-  Te166  1  0.92791405  0.08390804  0.55392350  1
  Te2-  Te167  1  0.92231045  0.58309364  0.55471359  1
  Te2-  Te168  1  -0.00237857  -0.00166092  0.88236880  1
  Te2-  Te169  1  -0.00162747  0.49877877  0.88253549  1
  Te2-  Te170  1  0.49827373  -0.00201126  0.88170122  1
  Te2-  Te171  1  0.49844535  0.49862306  0.88204898  1
  Te2-  Te172  1  0.33287446  0.16633865  0.21407722  1
  Te2-  Te173  1  0.33253896  0.66574789  0.21379967  1
  Te2-  Te174  1  0.83190475  0.16792300  0.21566739  1
  Te2-  Te175  1  0.83225248  0.66758609  0.21630325  1
  Te2-  Te176  1  0.16893045  0.33534217  0.54955632  1
  Te2-  Te177  1  0.16898035  0.83353756  0.54934838  1
  Te2-  Te178  1  0.66775574  0.33357845  0.55000829  1
  Te2-  Te179  1  0.66644550  0.83282640  0.54871226  1
  Te2-  Te180  1  0.33036130  0.41379342  0.71179658  1
  Te2-  Te181  1  0.33002554  0.91383891  0.71138483  1
  Te2-  Te182  1  0.82707942  0.41390867  0.70987775  1
  Te2-  Te183  1  0.82698425  0.91374574  0.70954097  1
  Te2-  Te184  1  0.09360883  0.17462360  0.71098464  1
  Te2-  Te185  1  0.09252538  0.67398820  0.71105818  1
  Te2-  Te186  1  0.58828946  0.17107233  0.71067420  1
  Te2-  Te187  1  0.58663021  0.67143146  0.71074695  1
  Te2-  Te188  1  0.09164441  0.41773288  0.70990912  1
  Te2-  Te189  1  0.09295237  0.91845352  0.71026490  1
  Te2-  Te190  1  0.58926675  0.41692156  0.71088902  1
  Te2-  Te191  1  0.58722450  0.91467519  0.71006145  1
  Te2-  Te192  1  0.15658236  0.07631991  0.04309773  1
  Te2-  Te193  1  0.15807696  0.57744128  0.04104722  1
  Te2-  Te194  1  0.65995626  0.07881441  0.04496700  1
  Te2-  Te195  1  0.65793929  0.57917434  0.04296973  1
  Te2-  Te196  1  0.41801689  0.33850617  0.04231716  1
  Te2-  Te197  1  0.41807666  0.83884056  0.04292983  1
  Te2-  Te198  1  0.91600164  0.33798726  0.04267811  1
  Te2-  Te199  1  0.91378298  0.83750796  0.04547278  1
  Te2-  Te200  1  0.41640331  0.07876629  0.04325288  1
  Te2-  Te201  1  0.41652367  0.57978730  0.04269910  1
  Te2-  Te202  1  0.91478568  0.07517091  0.04487065  1
  Te2-  Te203  1  0.91688430  0.57634386  0.04169208  1
  Te2-  Te204  1  0.49417121  0.24614960  0.37821970  1
  Te2-  Te205  1  0.49690787  0.74678757  0.37556958  1
  Te2-  Te206  1  0.99390494  0.24999851  0.38115097  1
  Te2-  Te207  1  0.99367226  0.74822790  0.38110019  1
  Te2-  Te208  1  0.25208990  0.00539284  0.37695159  1
  Te2-  Te209  1  0.25132446  0.50608708  0.37554476  1
  Te2-  Te210  1  0.75238713  0.00699731  0.37798395  1
  Te2-  Te211  1  0.75193523  0.50475389  0.38046329  1
  Te2-  Te212  1  0.25194460  0.24669169  0.37736328  1
  Te2-  Te213  1  0.25017791  0.74450114  0.37573842  1
  Te2-  Te214  1  0.75202397  0.24796120  0.37958000  1
  Te2-  Te215  1  0.75414986  0.74699965  0.37739001  1
