# generated using pymatgen
data_Ti(CuTe)4
_symmetry_space_group_name_H-M   'P 1'
_cell_length_a   16.88951426
_cell_length_b   16.89256572
_cell_length_c   20.71274460
_cell_angle_alpha   90.00907579
_cell_angle_beta   90.02248408
_cell_angle_gamma   120.01431967
_symmetry_Int_Tables_number   1
_chemical_formula_structural   Ti(CuTe)4
_chemical_formula_sum   'Ti24 Cu96 Te96'
_cell_volume   5117.03401857
_cell_formula_units_Z   24
loop_
 _symmetry_equiv_pos_site_id
 _symmetry_equiv_pos_as_xyz
  1  'x, y, z'
loop_
 _atom_type_symbol
 _atom_type_oxidation_number
  Ti4+  4.0
  Cu+  1.0
  Te2-  -2.0
loop_
 _atom_site_type_symbol
 _atom_site_label
 _atom_site_symmetry_multiplicity
 _atom_site_fract_x
 _atom_site_fract_y
 _atom_site_fract_z
 _atom_site_occupancy
  Ti4+  Ti0  1  0.00444259  0.00298516  0.25491360  1
  Ti4+  Ti1  1  -0.00018209  0.49766235  0.25857086  1
  Ti4+  Ti2  1  0.50087305  0.00234527  0.26027245  1
  Ti4+  Ti3  1  0.50056546  0.50188428  0.25776059  1
  Ti4+  Ti4  1  0.33304598  0.16625561  0.59166896  1
  Ti4+  Ti5  1  0.33081754  0.66602872  0.59264105  1
  Ti4+  Ti6  1  0.82798872  0.16300232  0.59306487  1
  Ti4+  Ti7  1  0.83476539  0.66522128  0.58957648  1
  Ti4+  Ti8  1  0.16498693  0.33368748  0.92084056  1
  Ti4+  Ti9  1  0.16834763  0.83307071  0.92598786  1
  Ti4+  Ti10  1  0.66593123  0.33404596  0.92473799  1
  Ti4+  Ti11  1  0.66766161  0.83191203  0.92162203  1
  Ti4+  Ti12  1  -0.00107046  0.00017642  0.75352882  1
  Ti4+  Ti13  1  -0.00049005  0.49916529  0.75498117  1
  Ti4+  Ti14  1  0.49868672  -0.00092377  0.75691095  1
  Ti4+  Ti15  1  0.50081441  0.49956681  0.75231161  1
  Ti4+  Ti16  1  0.33216291  0.16577799  0.08775842  1
  Ti4+  Ti17  1  0.33504422  0.66657978  0.09005347  1
  Ti4+  Ti18  1  0.83467879  0.16935670  0.09011774  1
  Ti4+  Ti19  1  0.83338227  0.66709981  0.08804822  1
  Ti4+  Ti20  1  0.16749945  0.33367233  0.42437828  1
  Ti4+  Ti21  1  0.16639196  0.83138071  0.42234152  1
  Ti4+  Ti22  1  0.66669747  0.33404223  0.42232213  1
  Ti4+  Ti23  1  0.66876872  0.83584815  0.42207739  1
  Cu+  Cu24  1  0.57108076  0.15047918  0.47802982  1
  Cu+  Cu25  1  0.90388516  0.08886793  0.80897308  1
  Cu+  Cu26  1  0.90308897  0.31563762  0.80902435  1
  Cu+  Cu27  1  0.18145316  0.59489489  0.81146291  1
  Cu+  Cu28  1  0.56936554  0.92111776  0.47662206  1
  Cu+  Cu29  1  0.73928068  0.26264300  0.14392409  1
  Cu+  Cu30  1  0.07010113  0.63980843  0.47388265  1
  Cu+  Cu31  1  0.02511067  0.26427900  0.14041239  1
  Cu+  Cu32  1  0.24139524  0.97820657  0.14273946  1
  Cu+  Cu33  1  0.40786045  0.31346907  0.80648195  1
  Cu+  Cu34  1  0.41334819  0.59236223  0.80835195  1
  Cu+  Cu35  1  0.68998608  0.59318033  0.80377383  1
  Cu+  Cu36  1  0.16378614  0.07884071  0.16771514  1
  Cu+  Cu37  1  0.16619838  0.58173789  0.17294401  1
  Cu+  Cu38  1  0.66521655  0.08857381  0.17402984  1
  Cu+  Cu39  1  0.66365420  0.58273767  0.17146644  1
  Cu+  Cu40  1  0.41744462  0.33795917  0.17122071  1
  Cu+  Cu41  1  0.42248850  0.83633842  0.17335859  1
  Cu+  Cu42  1  0.91924334  0.33705990  0.17099596  1
  Cu+  Cu43  1  0.91902768  0.83754442  0.16869333  1
  Cu+  Cu44  1  0.41640540  0.08060044  0.17162789  1
  Cu+  Cu45  1  0.41889660  0.58127263  0.17199320  1
  Cu+  Cu46  1  0.92601007  0.08981089  0.16974563  1
  Cu+  Cu47  1  0.91820389  0.58318767  0.17160789  1
  Cu+  Cu48  1  0.49506575  0.24603676  0.50535132  1
  Cu+  Cu49  1  0.49721485  0.75097165  0.50614905  1
  Cu+  Cu50  1  0.99662477  0.24705847  0.50826479  1
  Cu+  Cu51  1  0.99784125  0.74221581  0.50316931  1
  Cu+  Cu52  1  0.25101207  0.00240206  0.50457425  1
  Cu+  Cu53  1  0.24975780  0.50213042  0.50723110  1
  Cu+  Cu54  1  0.74653121  0.00211829  0.50404583  1
  Cu+  Cu55  1  0.75187858  0.50455689  0.50344013  1
  Cu+  Cu56  1  0.25184592  0.24951039  0.50700511  1
  Cu+  Cu57  1  0.24455884  0.74186750  0.50416314  1
  Cu+  Cu58  1  0.74677498  0.24449091  0.50462555  1
  Cu+  Cu59  1  0.75303967  0.74889667  0.50391384  1
  Cu+  Cu60  1  0.32968394  0.41428667  0.83181047  1
  Cu+  Cu61  1  0.33097741  0.91573689  0.83982955  1
  Cu+  Cu62  1  0.82821904  0.41202506  0.83819296  1
  Cu+  Cu63  1  0.82877413  0.91545717  0.83495648  1
  Cu+  Cu64  1  0.07937269  0.17033597  0.83320469  1
  Cu+  Cu65  1  0.08902589  0.67334318  0.83869621  1
  Cu+  Cu66  1  0.58489997  0.16900500  0.83890308  1
  Cu+  Cu67  1  0.58858985  0.67007920  0.83319529  1
  Cu+  Cu68  1  0.08342901  0.41427162  0.83330787  1
  Cu+  Cu69  1  0.08610170  0.91715820  0.83918413  1
  Cu+  Cu70  1  0.58576096  0.41624143  0.83492285  1
  Cu+  Cu71  1  0.58314544  0.91291163  0.83622796  1
  Cu+  Cu72  1  0.16880125  0.08438781  0.67439033  1
  Cu+  Cu73  1  0.16732520  0.58394960  0.68153752  1
  Cu+  Cu74  1  0.66370135  0.08137751  0.67707826  1
  Cu+  Cu75  1  0.67216981  0.58523148  0.67593459  1
  Cu+  Cu76  1  0.41618106  0.32868377  0.67748620  1
  Cu+  Cu77  1  0.41225872  0.83124198  0.67615484  1
  Cu+  Cu78  1  0.91108604  0.32716349  0.67961680  1
  Cu+  Cu79  1  0.91744201  0.83039601  0.67216471  1
  Cu+  Cu80  1  0.41546873  0.08477960  0.67720870  1
  Cu+  Cu81  1  0.41466449  0.58541409  0.67821444  1
  Cu+  Cu82  1  0.91195889  0.08302515  0.67914341  1
  Cu+  Cu83  1  0.91617834  0.58327427  0.67473911  1
  Cu+  Cu84  1  0.00090836  0.25231408  0.01159898  1
  Cu+  Cu85  1  0.00405440  0.75162544  0.00817878  1
  Cu+  Cu86  1  0.50007847  0.25126097  0.00852112  1
  Cu+  Cu87  1  0.50284087  0.74911609  0.00796696  1
  Cu+  Cu88  1  0.25000510  0.50026977  0.00754640  1
  Cu+  Cu89  1  0.24876085  0.99592888  0.01361671  1
  Cu+  Cu90  1  0.74902314  0.49837824  0.00860610  1
  Cu+  Cu91  1  0.74777268  0.99668438  0.00796974  1
  Cu+  Cu92  1  0.24873031  0.25063890  0.00535256  1
  Cu+  Cu93  1  0.25219688  0.75206769  0.01098864  1
  Cu+  Cu94  1  0.74776405  0.25190815  0.01540887  1
  Cu+  Cu95  1  0.74894969  0.74938967  0.00560375  1
  Cu+  Cu96  1  0.33810836  0.42039053  0.34274843  1
  Cu+  Cu97  1  0.33447204  0.91698040  0.34394551  1
  Cu+  Cu98  1  0.83447658  0.41821664  0.34263402  1
  Cu+  Cu99  1  0.83999699  0.92079655  0.33876598  1
  Cu+  Cu100  1  0.08572450  0.16641347  0.34017877  1
  Cu+  Cu101  1  0.08157882  0.66115639  0.34587822  1
  Cu+  Cu102  1  0.58229663  0.16638873  0.34783733  1
  Cu+  Cu103  1  0.58421553  0.66657170  0.34025611  1
  Cu+  Cu104  1  0.08338452  0.41577161  0.34328111  1
  Cu+  Cu105  1  0.08431417  0.91802896  0.34007777  1
  Cu+  Cu106  1  0.58258454  0.42121593  0.34086741  1
  Cu+  Cu107  1  0.58551244  0.92233118  0.34771119  1
  Cu+  Cu108  1  -0.00245916  -0.00043588  0.11073253  1
  Cu+  Cu109  1  0.00379177  0.50628318  0.11621017  1
  Cu+  Cu110  1  0.50152013  -0.00096333  0.11754082  1
  Cu+  Cu111  1  0.50010199  0.49910263  0.11460210  1
  Cu+  Cu112  1  0.32942456  0.16550931  0.44880128  1
  Cu+  Cu113  1  0.33536687  0.66568276  0.44963474  1
  Cu+  Cu114  1  0.83734916  0.16894345  0.44963691  1
  Cu+  Cu115  1  0.83422534  0.67077739  0.44578434  1
  Cu+  Cu116  1  0.16702052  0.33215782  0.77485535  1
  Cu+  Cu117  1  0.16614699  0.83752671  0.78305586  1
  Cu+  Cu118  1  0.66578415  0.33146928  0.78065223  1
  Cu+  Cu119  1  0.66667408  0.83394944  0.77680897  1
  Te2-  Te120  1  0.00364726  0.00177099  0.38376831  1
  Te2-  Te121  1  -0.00199186  0.49430466  0.38899321  1
  Te2-  Te122  1  0.49733427  0.00013734  0.39236639  1
  Te2-  Te123  1  0.50215961  0.50378815  0.38739952  1
  Te2-  Te124  1  0.33095086  0.16368323  0.72282610  1
  Te2-  Te125  1  0.33349291  0.66877535  0.72507798  1
  Te2-  Te126  1  0.82646240  0.16245427  0.72541861  1
  Te2-  Te127  1  0.83798779  0.66828167  0.72066162  1
  Te2-  Te128  1  0.16922497  0.33524789  0.05047083  1
  Te2-  Te129  1  0.16639318  0.82989465  0.05657450  1
  Te2-  Te130  1  0.66355926  0.33514866  0.05512345  1
  Te2-  Te131  1  0.66783087  0.83208502  0.05043962  1
  Te2-  Te132  1  0.49342823  0.24633483  0.88241084  1
  Te2-  Te133  1  0.49411144  0.74596049  0.88191868  1
  Te2-  Te134  1  0.98863973  0.24662637  0.88387161  1
  Te2-  Te135  1  0.99735140  0.74821379  0.88231441  1
  Te2-  Te136  1  0.25325912  0.00481676  0.88627408  1
  Te2-  Te137  1  0.25389939  0.50838707  0.88098418  1
  Te2-  Te138  1  0.74975893  0.00620199  0.88227906  1
  Te2-  Te139  1  0.75517819  0.50647648  0.88235625  1
  Te2-  Te140  1  0.24818730  0.24529482  0.87897735  1
  Te2-  Te141  1  0.25868526  0.74898006  0.88528616  1
  Te2-  Te142  1  0.75051096  0.24425367  0.88760788  1
  Te2-  Te143  1  0.75674479  0.74783487  0.87978029  1
  Te2-  Te144  1  0.32748868  0.41451123  0.21711326  1
  Te2-  Te145  1  0.32857697  0.91113367  0.21769986  1
  Te2-  Te146  1  0.82669162  0.41520321  0.21673072  1
  Te2-  Te147  1  0.83360710  0.92049551  0.21259205  1
  Te2-  Te148  1  0.09515780  0.17738089  0.21439725  1
  Te2-  Te149  1  0.08533644  0.66847846  0.21862609  1
  Te2-  Te150  1  0.58328091  0.17558899  0.22013399  1
  Te2-  Te151  1  0.58700167  0.67399841  0.21496666  1
  Te2-  Te152  1  0.08928609  0.41388424  0.21722877  1
  Te2-  Te153  1  0.08619145  0.91045518  0.21455493  1
  Te2-  Te154  1  0.58549473  0.41464184  0.21533961  1
  Te2-  Te155  1  0.58947873  0.92080381  0.22015795  1
  Te2-  Te156  1  0.16182575  0.08057151  0.54888604  1
  Te2-  Te157  1  0.15682315  0.57565538  0.55397070  1
  Te2-  Te158  1  0.65201798  0.07559941  0.55131225  1
  Te2-  Te159  1  0.66254563  0.58141142  0.54969432  1
  Te2-  Te160  1  0.42054117  0.33780289  0.55084308  1
  Te2-  Te161  1  0.41251532  0.83786894  0.55003606  1
  Te2-  Te162  1  0.91365108  0.33333096  0.55204694  1
  Te2-  Te163  1  0.92209407  0.83553961  0.54639348  1
  Te2-  Te164  1  0.41689385  0.07626682  0.55167086  1
  Te2-  Te165  1  0.41831394  0.58355383  0.55089722  1
  Te2-  Te166  1  0.91324106  0.07825021  0.55183707  1
  Te2-  Te167  1  0.91766624  0.57355739  0.54959462  1
  Te2-  Te168  1  -0.00074134  0.00105902  0.88048290  1
  Te2-  Te169  1  0.00019070  0.50079380  0.88238947  1
  Te2-  Te170  1  0.50081741  -0.00060045  0.88300254  1
  Te2-  Te171  1  0.49868397  0.49987786  0.88083612  1
  Te2-  Te172  1  0.33289865  0.16793160  0.21453687  1
  Te2-  Te173  1  0.33573572  0.66694730  0.21634194  1
  Te2-  Te174  1  0.83535385  0.16758020  0.21735013  1
  Te2-  Te175  1  0.83395956  0.66876587  0.21417042  1
  Te2-  Te176  1  0.16597449  0.33257107  0.55069166  1
  Te2-  Te177  1  0.16649522  0.83316848  0.54917402  1
  Te2-  Te178  1  0.66630716  0.33443788  0.54909163  1
  Te2-  Te179  1  0.66799406  0.83259276  0.54902642  1
  Te2-  Te180  1  0.32650757  0.41251051  0.70521658  1
  Te2-  Te181  1  0.32636258  0.91448448  0.71347044  1
  Te2-  Te182  1  0.82541955  0.41366287  0.71107320  1
  Te2-  Te183  1  0.82663898  0.90983946  0.70784689  1
  Te2-  Te184  1  0.08573141  0.17224315  0.70674334  1
  Te2-  Te185  1  0.08511742  0.67383913  0.71185857  1
  Te2-  Te186  1  0.58489794  0.17162513  0.71272914  1
  Te2-  Te187  1  0.58768618  0.67368071  0.70616282  1
  Te2-  Te188  1  0.08441472  0.41044166  0.70687012  1
  Te2-  Te189  1  0.08620853  0.91487938  0.71181602  1
  Te2-  Te190  1  0.58871334  0.41304126  0.70787228  1
  Te2-  Te191  1  0.58254449  0.91125967  0.71028647  1
  Te2-  Te192  1  0.15964209  0.08100929  0.04114539  1
  Te2-  Te193  1  0.16284781  0.58173346  0.04603762  1
  Te2-  Te194  1  0.66099503  0.07917411  0.04664123  1
  Te2-  Te195  1  0.66125223  0.58058845  0.04452212  1
  Te2-  Te196  1  0.41752216  0.33847435  0.04416932  1
  Te2-  Te197  1  0.42259983  0.83851867  0.04668879  1
  Te2-  Te198  1  0.92085269  0.34341984  0.04396169  1
  Te2-  Te199  1  0.91932972  0.83793189  0.04228228  1
  Te2-  Te200  1  0.42185621  0.08140486  0.04486703  1
  Te2-  Te201  1  0.41944806  0.57972444  0.04498716  1
  Te2-  Te202  1  0.91769217  0.08033371  0.04273875  1
  Te2-  Te203  1  0.91975971  0.58129583  0.04477059  1
  Te2-  Te204  1  0.49356753  0.25067416  0.37820102  1
  Te2-  Te205  1  0.49599621  0.74856504  0.37812579  1
  Te2-  Te206  1  0.99654448  0.24619393  0.38040605  1
  Te2-  Te207  1  0.99466853  0.74765792  0.37597900  1
  Te2-  Te208  1  0.25269324  0.00466180  0.37856403  1
  Te2-  Te209  1  0.25316045  0.50512155  0.38059064  1
  Te2-  Te210  1  0.75833778  0.00854049  0.37744998  1
  Te2-  Te211  1  0.75240695  0.50633566  0.37781436  1
  Te2-  Te212  1  0.25452939  0.25014647  0.37989044  1
  Te2-  Te213  1  0.25467518  0.74615120  0.37762504  1
  Te2-  Te214  1  0.75498893  0.24831693  0.37800483  1
  Te2-  Te215  1  0.75449399  0.75082322  0.37681832  1
