# generated using pymatgen
data_Ti(CuTe)4
_symmetry_space_group_name_H-M   'P 1'
_cell_length_a   16.89509087
_cell_length_b   16.89594647
_cell_length_c   20.71918190
_cell_angle_alpha   90.05341299
_cell_angle_beta   89.94782174
_cell_angle_gamma   119.97833976
_symmetry_Int_Tables_number   1
_chemical_formula_structural   Ti(CuTe)4
_chemical_formula_sum   'Ti24 Cu96 Te96'
_cell_volume   5123.19392072
_cell_formula_units_Z   24
loop_
 _symmetry_equiv_pos_site_id
 _symmetry_equiv_pos_as_xyz
  1  'x, y, z'
loop_
 _atom_type_symbol
 _atom_type_oxidation_number
  Ti4+  4.0
  Cu+  1.0
  Te2-  -2.0
loop_
 _atom_site_type_symbol
 _atom_site_label
 _atom_site_symmetry_multiplicity
 _atom_site_fract_x
 _atom_site_fract_y
 _atom_site_fract_z
 _atom_site_occupancy
  Ti4+  Ti0  1  0.00017445  -0.00242454  0.25925822  1
  Ti4+  Ti1  1  -0.00219815  0.49714529  0.25778175  1
  Ti4+  Ti2  1  0.49963759  -0.00181624  0.26056944  1
  Ti4+  Ti3  1  0.50071178  0.49895331  0.25709454  1
  Ti4+  Ti4  1  0.33249802  0.16739310  0.58573501  1
  Ti4+  Ti5  1  0.33379911  0.66749857  0.58889597  1
  Ti4+  Ti6  1  0.83426670  0.16897858  0.59200121  1
  Ti4+  Ti7  1  0.83463265  0.66701656  0.58922857  1
  Ti4+  Ti8  1  0.16681042  0.33422479  0.92375123  1
  Ti4+  Ti9  1  0.16688883  0.83511970  0.92857554  1
  Ti4+  Ti10  1  0.66725236  0.33132696  0.92533962  1
  Ti4+  Ti11  1  0.66650987  0.83461869  0.92439532  1
  Ti4+  Ti12  1  0.00065039  0.00126765  0.75619940  1
  Ti4+  Ti13  1  0.00002463  0.50091586  0.75596321  1
  Ti4+  Ti14  1  0.49984949  0.00189815  0.75575764  1
  Ti4+  Ti15  1  0.49992877  0.50033589  0.75464947  1
  Ti4+  Ti16  1  0.33263452  0.16666967  0.09043006  1
  Ti4+  Ti17  1  0.33354599  0.66752866  0.08886812  1
  Ti4+  Ti18  1  0.83361381  0.16707632  0.09109508  1
  Ti4+  Ti19  1  0.83197815  0.66474219  0.08781299  1
  Ti4+  Ti20  1  0.16678957  0.33298788  0.41917460  1
  Ti4+  Ti21  1  0.16608704  0.83333069  0.41962800  1
  Ti4+  Ti22  1  0.66777012  0.33350664  0.42014936  1
  Ti4+  Ti23  1  0.66540674  0.83243827  0.42066337  1
  Cu+  Cu24  1  0.07087011  0.15167595  0.47531747  1
  Cu+  Cu25  1  0.85592085  0.42839250  0.47471498  1
  Cu+  Cu26  1  0.35000064  0.42962809  0.47251603  1
  Cu+  Cu27  1  0.01188997  0.75136311  0.14444156  1
  Cu+  Cu28  1  0.07302449  0.92084039  0.47770532  1
  Cu+  Cu29  1  0.73787210  0.47549370  0.14039956  1
  Cu+  Cu30  1  0.68347151  0.08863854  0.81071114  1
  Cu+  Cu31  1  0.91198926  0.31756854  0.81157525  1
  Cu+  Cu32  1  0.34672706  0.92072269  0.47702131  1
  Cu+  Cu33  1  0.58193653  0.42696114  0.47658363  1
  Cu+  Cu34  1  0.24549592  0.98325841  0.14708151  1
  Cu+  Cu35  1  0.58112421  0.15406996  0.47769444  1
  Cu+  Cu36  1  0.16344924  0.07735831  0.17277482  1
  Cu+  Cu37  1  0.16481430  0.58076146  0.17034839  1
  Cu+  Cu38  1  0.66505733  0.08237578  0.17497340  1
  Cu+  Cu39  1  0.66261930  0.57472770  0.16910671  1
  Cu+  Cu40  1  0.41895588  0.33771447  0.17154353  1
  Cu+  Cu41  1  0.41770987  0.83515239  0.17189854  1
  Cu+  Cu42  1  0.91596064  0.33476833  0.17250997  1
  Cu+  Cu43  1  0.92208752  0.83652736  0.16961494  1
  Cu+  Cu44  1  0.41739766  0.07936169  0.17505888  1
  Cu+  Cu45  1  0.41762161  0.58181154  0.17080836  1
  Cu+  Cu46  1  0.91849890  0.08276660  0.17360148  1
  Cu+  Cu47  1  0.91394138  0.57595469  0.17053087  1
  Cu+  Cu48  1  0.49560741  0.24784041  0.49803827  1
  Cu+  Cu49  1  0.49563143  0.74856371  0.50094639  1
  Cu+  Cu50  1  0.99519545  0.24870546  0.50343647  1
  Cu+  Cu51  1  0.99365376  0.74797821  0.50209567  1
  Cu+  Cu52  1  0.25170266  0.00489944  0.49791044  1
  Cu+  Cu53  1  0.25363529  0.50506201  0.50188876  1
  Cu+  Cu54  1  0.74857490  0.00167992  0.50319053  1
  Cu+  Cu55  1  0.75664280  0.50556239  0.50174055  1
  Cu+  Cu56  1  0.25110300  0.24904192  0.49763361  1
  Cu+  Cu57  1  0.25338054  0.74896718  0.50286712  1
  Cu+  Cu58  1  0.75564265  0.25122883  0.50389208  1
  Cu+  Cu59  1  0.75111487  0.74946210  0.50167922  1
  Cu+  Cu60  1  0.33074929  0.41540892  0.83766786  1
  Cu+  Cu61  1  0.32944894  0.91886672  0.84067775  1
  Cu+  Cu62  1  0.83074160  0.41205100  0.83773950  1
  Cu+  Cu63  1  0.83087631  0.91647551  0.83801329  1
  Cu+  Cu64  1  0.08583219  0.17090309  0.83753800  1
  Cu+  Cu65  1  0.08454543  0.67168652  0.84081499  1
  Cu+  Cu66  1  0.58863975  0.16996285  0.83713142  1
  Cu+  Cu67  1  0.58333106  0.66960649  0.83804216  1
  Cu+  Cu68  1  0.08400936  0.41313960  0.83740877  1
  Cu+  Cu69  1  0.08621762  0.91776384  0.84196156  1
  Cu+  Cu70  1  0.58444769  0.41559993  0.83934154  1
  Cu+  Cu71  1  0.58754312  0.91745396  0.83801390  1
  Cu+  Cu72  1  0.16640682  0.08332210  0.67374833  1
  Cu+  Cu73  1  0.17066259  0.58800435  0.67316974  1
  Cu+  Cu74  1  0.66837132  0.08739333  0.68091798  1
  Cu+  Cu75  1  0.66932470  0.58450668  0.67374884  1
  Cu+  Cu76  1  0.41680548  0.33373321  0.67255679  1
  Cu+  Cu77  1  0.41385905  0.83257662  0.67515845  1
  Cu+  Cu78  1  0.91522030  0.33325458  0.68062492  1
  Cu+  Cu79  1  0.91758165  0.83239309  0.67590497  1
  Cu+  Cu80  1  0.41439635  0.08332614  0.67411378  1
  Cu+  Cu81  1  0.41552710  0.58487951  0.67388954  1
  Cu+  Cu82  1  0.91667897  0.08470328  0.67649553  1
  Cu+  Cu83  1  0.91705424  0.58648423  0.67481464  1
  Cu+  Cu84  1  0.00279357  0.25272939  0.00914687  1
  Cu+  Cu85  1  0.00229172  0.75226750  0.01450265  1
  Cu+  Cu86  1  0.50123299  0.25089215  0.00885668  1
  Cu+  Cu87  1  0.50255688  0.75306003  0.00738349  1
  Cu+  Cu88  1  0.24868727  0.49847130  0.00594507  1
  Cu+  Cu89  1  0.24710669  0.99761871  0.01686739  1
  Cu+  Cu90  1  0.74748951  0.49479101  0.01159590  1
  Cu+  Cu91  1  0.74873870  0.99814387  0.01028902  1
  Cu+  Cu92  1  0.24860691  0.25331183  0.00835729  1
  Cu+  Cu93  1  0.24943583  0.75273837  0.01014722  1
  Cu+  Cu94  1  0.74995962  0.24981830  0.01104551  1
  Cu+  Cu95  1  0.74601500  0.75109051  0.00725587  1
  Cu+  Cu96  1  0.33722109  0.41984678  0.34375654  1
  Cu+  Cu97  1  0.33616371  0.91686562  0.34760089  1
  Cu+  Cu98  1  0.83633765  0.41744131  0.34571361  1
  Cu+  Cu99  1  0.83433486  0.91716191  0.34073716  1
  Cu+  Cu100  1  0.08022102  0.16162983  0.34587897  1
  Cu+  Cu101  1  0.07911833  0.66160460  0.34116270  1
  Cu+  Cu102  1  0.58161365  0.16093379  0.34724514  1
  Cu+  Cu103  1  0.58236571  0.66469845  0.33840087  1
  Cu+  Cu104  1  0.08061288  0.41587140  0.34014414  1
  Cu+  Cu105  1  0.08011885  0.91580731  0.34761990  1
  Cu+  Cu106  1  0.58274615  0.41848041  0.34559571  1
  Cu+  Cu107  1  0.58190616  0.91581541  0.34218597  1
  Cu+  Cu108  1  -0.00182590  0.00262746  0.11609194  1
  Cu+  Cu109  1  0.00306606  0.49875315  0.11471890  1
  Cu+  Cu110  1  0.50281534  0.00060384  0.11828618  1
  Cu+  Cu111  1  0.49841967  0.50225337  0.11319486  1
  Cu+  Cu112  1  0.33321029  0.16832203  0.43989532  1
  Cu+  Cu113  1  0.33206147  0.66576843  0.44400100  1
  Cu+  Cu114  1  0.83289980  0.16303021  0.44721072  1
  Cu+  Cu115  1  0.83053429  0.66837396  0.44435807  1
  Cu+  Cu116  1  0.16933336  0.33455562  0.78027466  1
  Cu+  Cu117  1  0.16644486  0.83412539  0.78613596  1
  Cu+  Cu118  1  0.66463740  0.33542952  0.78221216  1
  Cu+  Cu119  1  0.66685658  0.83126168  0.78164836  1
  Te2-  Te120  1  -0.00444321  -0.00306978  0.39123016  1
  Te2-  Te121  1  0.00235103  0.49942530  0.38895088  1
  Te2-  Te122  1  0.50136254  -0.00331193  0.39310402  1
  Te2-  Te123  1  0.50237497  0.50361913  0.38939453  1
  Te2-  Te124  1  0.33264447  0.16795947  0.71372851  1
  Te2-  Te125  1  0.33419983  0.66789975  0.71778548  1
  Te2-  Te126  1  0.83505615  0.16698506  0.72343719  1
  Te2-  Te127  1  0.83349096  0.66731100  0.71774807  1
  Te2-  Te128  1  0.16714995  0.33573202  0.05286947  1
  Te2-  Te129  1  0.16701968  0.83201022  0.06139477  1
  Te2-  Te130  1  0.66451154  0.32885023  0.05562992  1
  Te2-  Te131  1  0.66558327  0.83350729  0.05357832  1
  Te2-  Te132  1  0.49716207  0.24645109  0.88262393  1
  Te2-  Te133  1  0.49554748  0.75042764  0.88146675  1
  Te2-  Te134  1  0.99194587  0.24342993  0.88359511  1
  Te2-  Te135  1  0.99579029  0.74986504  0.88725297  1
  Te2-  Te136  1  0.25233561  0.00707579  0.88951163  1
  Te2-  Te137  1  0.25148984  0.50509520  0.88027317  1
  Te2-  Te138  1  0.75724190  0.00927545  0.88446030  1
  Te2-  Te139  1  0.75290166  0.50166730  0.88419365  1
  Te2-  Te140  1  0.25277703  0.24803671  0.88258331  1
  Te2-  Te141  1  0.25272802  0.75068752  0.88439702  1
  Te2-  Te142  1  0.75638246  0.24375042  0.88499997  1
  Te2-  Te143  1  0.75168805  0.74838535  0.88159280  1
  Te2-  Te144  1  0.32916288  0.41467629  0.21700435  1
  Te2-  Te145  1  0.32627026  0.90934428  0.22050391  1
  Te2-  Te146  1  0.82364441  0.40892590  0.21884290  1
  Te2-  Te147  1  0.83091713  0.91286514  0.21483408  1
  Te2-  Te148  1  0.08630438  0.16797922  0.21857732  1
  Te2-  Te149  1  0.08537561  0.66939330  0.21562023  1
  Te2-  Te150  1  0.58460648  0.16942909  0.22010861  1
  Te2-  Te151  1  0.58719196  0.66822233  0.21262489  1
  Te2-  Te152  1  0.08406520  0.41311218  0.21487510  1
  Te2-  Te153  1  0.08820460  0.90888164  0.22010667  1
  Te2-  Te154  1  0.58483537  0.40826271  0.21834464  1
  Te2-  Te155  1  0.58496741  0.91351701  0.21670557  1
  Te2-  Te156  1  0.15714713  0.07965743  0.54733956  1
  Te2-  Te157  1  0.16262052  0.58184071  0.54715740  1
  Te2-  Te158  1  0.66172459  0.08110068  0.55254728  1
  Te2-  Te159  1  0.66184428  0.58221143  0.54769228  1
  Te2-  Te160  1  0.42070631  0.34242622  0.54610692  1
  Te2-  Te161  1  0.42311475  0.84191739  0.54931826  1
  Te2-  Te162  1  0.92297048  0.34217339  0.55267553  1
  Te2-  Te163  1  0.91754789  0.84092576  0.54976452  1
  Te2-  Te164  1  0.42041732  0.07937484  0.54777055  1
  Te2-  Te165  1  0.42301561  0.58262926  0.54805320  1
  Te2-  Te166  1  0.91627567  0.07876019  0.54997972  1
  Te2-  Te167  1  0.92475054  0.58276966  0.54917860  1
  Te2-  Te168  1  0.00000532  0.00195688  0.88249757  1
  Te2-  Te169  1  0.00090528  0.50087840  0.88271466  1
  Te2-  Te170  1  0.49982262  0.00076793  0.88259037  1
  Te2-  Te171  1  0.49970404  0.50041733  0.88108706  1
  Te2-  Te172  1  0.33384840  0.16759166  0.21719393  1
  Te2-  Te173  1  0.33308486  0.66559506  0.21509403  1
  Te2-  Te174  1  0.83402774  0.16631787  0.21775193  1
  Te2-  Te175  1  0.83245739  0.66580645  0.21525272  1
  Te2-  Te176  1  0.16679689  0.33417288  0.54671319  1
  Te2-  Te177  1  0.16609922  0.83425016  0.54700572  1
  Te2-  Te178  1  0.66528757  0.33370758  0.54839086  1
  Te2-  Te179  1  0.66502047  0.83244556  0.54654681  1
  Te2-  Te180  1  0.32871885  0.41507130  0.71038414  1
  Te2-  Te181  1  0.32694282  0.91496457  0.71364147  1
  Te2-  Te182  1  0.82673724  0.41685846  0.71121069  1
  Te2-  Te183  1  0.82866071  0.91441508  0.71176751  1
  Te2-  Te184  1  0.08673663  0.17321634  0.71106954  1
  Te2-  Te185  1  0.08663717  0.67311118  0.71364590  1
  Te2-  Te186  1  0.58388212  0.17517672  0.71034605  1
  Te2-  Te187  1  0.58569201  0.67146994  0.71094043  1
  Te2-  Te188  1  0.08864467  0.41736899  0.71011843  1
  Te2-  Te189  1  0.08694580  0.91496454  0.71439707  1
  Te2-  Te190  1  0.58600158  0.41489056  0.71134109  1
  Te2-  Te191  1  0.58487517  0.91400606  0.71084691  1
  Te2-  Te192  1  0.15980591  0.08334800  0.04621375  1
  Te2-  Te193  1  0.16225383  0.58168748  0.04392819  1
  Te2-  Te194  1  0.66186595  0.08058052  0.04807412  1
  Te2-  Te195  1  0.65962179  0.58023272  0.04233284  1
  Te2-  Te196  1  0.41860525  0.33831684  0.04567561  1
  Te2-  Te197  1  0.41962823  0.83982736  0.04581325  1
  Te2-  Te198  1  0.91934973  0.33855252  0.04632624  1
  Te2-  Te199  1  0.91599653  0.83884829  0.04379809  1
  Te2-  Te200  1  0.42054866  0.08107586  0.04728171  1
  Te2-  Te201  1  0.41872491  0.58224682  0.04367968  1
  Te2-  Te202  1  0.91928952  0.08231374  0.04650741  1
  Te2-  Te203  1  0.92010749  0.57865869  0.04290847  1
  Te2-  Te204  1  0.49333520  0.24589162  0.37204826  1
  Te2-  Te205  1  0.49354135  0.74543475  0.37527615  1
  Te2-  Te206  1  0.99230493  0.24657857  0.37652074  1
  Te2-  Te207  1  0.99146603  0.74318793  0.37586589  1
  Te2-  Te208  1  0.25350958  0.00769490  0.37194139  1
  Te2-  Te209  1  0.25102416  0.50614207  0.37468933  1
  Te2-  Te210  1  0.75207824  0.00483979  0.37693431  1
  Te2-  Te211  1  0.75469922  0.50824408  0.37471022  1
  Te2-  Te212  1  0.25375852  0.24670741  0.37108858  1
  Te2-  Te213  1  0.24982863  0.74338779  0.37580468  1
  Te2-  Te214  1  0.75438421  0.24491738  0.37674549  1
  Te2-  Te215  1  0.75174921  0.74712791  0.37527430  1
