# generated using pymatgen
data_Ti(CuTe)4
_symmetry_space_group_name_H-M   'P 1'
_cell_length_a   16.84491151
_cell_length_b   16.84342742
_cell_length_c   20.64409591
_cell_angle_alpha   90.02038162
_cell_angle_beta   89.96206042
_cell_angle_gamma   119.98624717
_symmetry_Int_Tables_number   1
_chemical_formula_structural   Ti(CuTe)4
_chemical_formula_sum   'Ti24 Cu96 Te96'
_cell_volume   5073.24430767
_cell_formula_units_Z   24
loop_
 _symmetry_equiv_pos_site_id
 _symmetry_equiv_pos_as_xyz
  1  'x, y, z'
loop_
 _atom_type_symbol
 _atom_type_oxidation_number
  Ti4+  4.0
  Cu+  1.0
  Te2-  -2.0
loop_
 _atom_site_type_symbol
 _atom_site_label
 _atom_site_symmetry_multiplicity
 _atom_site_fract_x
 _atom_site_fract_y
 _atom_site_fract_z
 _atom_site_occupancy
  Ti4+  Ti0  1  -0.00197562  -0.00063302  0.25970669  1
  Ti4+  Ti1  1  0.00155185  0.49912544  0.25948164  1
  Ti4+  Ti2  1  0.50211494  0.00340439  0.25744771  1
  Ti4+  Ti3  1  0.50155768  0.50150113  0.25628557  1
  Ti4+  Ti4  1  0.33139596  0.16357213  0.58618643  1
  Ti4+  Ti5  1  0.33504597  0.66536819  0.58847424  1
  Ti4+  Ti6  1  0.83326966  0.16595560  0.59026367  1
  Ti4+  Ti7  1  0.83681026  0.66342036  0.59227249  1
  Ti4+  Ti8  1  0.16508845  0.33386175  0.92849954  1
  Ti4+  Ti9  1  0.16712810  0.83441171  0.92534344  1
  Ti4+  Ti10  1  0.66618972  0.33622461  0.92516565  1
  Ti4+  Ti11  1  0.66629914  0.83365417  0.92353351  1
  Ti4+  Ti12  1  -0.00055716  -0.00072608  0.75611246  1
  Ti4+  Ti13  1  -0.00017114  0.49984916  0.75648074  1
  Ti4+  Ti14  1  0.49888835  -0.00060855  0.75693724  1
  Ti4+  Ti15  1  0.50003325  0.49906473  0.75566451  1
  Ti4+  Ti16  1  0.33418051  0.16816194  0.09034661  1
  Ti4+  Ti17  1  0.33089720  0.66593778  0.08949231  1
  Ti4+  Ti18  1  0.83303698  0.16782718  0.08892708  1
  Ti4+  Ti19  1  0.83292543  0.66723630  0.09247693  1
  Ti4+  Ti20  1  0.16714200  0.33421351  0.42099039  1
  Ti4+  Ti21  1  0.16574159  0.83339758  0.41734375  1
  Ti4+  Ti22  1  0.66671863  0.33394955  0.42149108  1
  Ti4+  Ti23  1  0.66576511  0.83357689  0.42110934  1
  Cu+  Cu24  1  0.24324384  0.47888651  0.14349168  1
  Cu+  Cu25  1  0.07387803  0.15070380  0.47672988  1
  Cu+  Cu26  1  0.52683542  0.26293840  0.14064995  1
  Cu+  Cu27  1  0.68498415  0.59508352  0.80936813  1
  Cu+  Cu28  1  0.57925341  0.14947639  0.47606103  1
  Cu+  Cu29  1  0.01837716  0.25517394  0.14396420  1
  Cu+  Cu30  1  0.34694282  0.91946023  0.47288906  1
  Cu+  Cu31  1  0.85166576  0.42189019  0.47624058  1
  Cu+  Cu32  1  0.91106807  0.59620325  0.81284147  1
  Cu+  Cu33  1  0.07092101  0.91700962  0.47655314  1
  Cu+  Cu34  1  0.07944987  0.65060100  0.47584714  1
  Cu+  Cu35  1  0.35927778  0.42711300  0.47102503  1
  Cu+  Cu36  1  0.16280057  0.08103496  0.17363675  1
  Cu+  Cu37  1  0.16429099  0.57849889  0.17141007  1
  Cu+  Cu38  1  0.66286028  0.08400321  0.16943692  1
  Cu+  Cu39  1  0.66513293  0.58425290  0.17188556  1
  Cu+  Cu40  1  0.42289211  0.33633198  0.17033816  1
  Cu+  Cu41  1  0.41664785  0.83651120  0.17081988  1
  Cu+  Cu42  1  0.92061698  0.33555116  0.17112591  1
  Cu+  Cu43  1  0.91812541  0.83392116  0.17517917  1
  Cu+  Cu44  1  0.42378732  0.08894711  0.17193446  1
  Cu+  Cu45  1  0.41592286  0.58139849  0.17159333  1
  Cu+  Cu46  1  0.91853528  0.08283021  0.17247747  1
  Cu+  Cu47  1  0.91777234  0.58270676  0.17657373  1
  Cu+  Cu48  1  0.49495363  0.24256922  0.49897549  1
  Cu+  Cu49  1  0.49772154  0.74710615  0.50138754  1
  Cu+  Cu50  1  0.99417031  0.24443614  0.50205518  1
  Cu+  Cu51  1  0.99184773  0.74049404  0.49967299  1
  Cu+  Cu52  1  0.25210003  0.00459138  0.49561449  1
  Cu+  Cu53  1  0.25927446  0.50331841  0.50031891  1
  Cu+  Cu54  1  0.75156136  0.00128388  0.50213724  1
  Cu+  Cu55  1  0.75843626  0.50349327  0.50395929  1
  Cu+  Cu56  1  0.25083535  0.24960437  0.50069997  1
  Cu+  Cu57  1  0.25365267  0.74551348  0.49956321  1
  Cu+  Cu58  1  0.75251690  0.24776201  0.50398225  1
  Cu+  Cu59  1  0.74695828  0.74602469  0.50485303  1
  Cu+  Cu60  1  0.32933548  0.41739603  0.84019517  1
  Cu+  Cu61  1  0.33147421  0.91702205  0.83921512  1
  Cu+  Cu62  1  0.82931258  0.41975054  0.83681838  1
  Cu+  Cu63  1  0.83018019  0.91624111  0.83714546  1
  Cu+  Cu64  1  0.08062805  0.16824515  0.84153137  1
  Cu+  Cu65  1  0.08468558  0.67180904  0.83799745  1
  Cu+  Cu66  1  0.57997236  0.16852884  0.84042745  1
  Cu+  Cu67  1  0.58717182  0.67132893  0.83711709  1
  Cu+  Cu68  1  0.08463775  0.41533702  0.84131809  1
  Cu+  Cu69  1  0.08584062  0.91721090  0.83768839  1
  Cu+  Cu70  1  0.58667064  0.41783725  0.83729135  1
  Cu+  Cu71  1  0.58405612  0.91662886  0.83879378  1
  Cu+  Cu72  1  0.16645928  0.08403263  0.67344022  1
  Cu+  Cu73  1  0.16884331  0.58100716  0.67356153  1
  Cu+  Cu74  1  0.66815559  0.08553349  0.67585947  1
  Cu+  Cu75  1  0.67110118  0.58114847  0.68043368  1
  Cu+  Cu76  1  0.41160175  0.32997253  0.67238952  1
  Cu+  Cu77  1  0.41429246  0.82974451  0.67403323  1
  Cu+  Cu78  1  0.91768305  0.33064236  0.67603684  1
  Cu+  Cu79  1  0.91743737  0.83147833  0.67507571  1
  Cu+  Cu80  1  0.41408363  0.08225681  0.67316474  1
  Cu+  Cu81  1  0.41488550  0.58145387  0.67444785  1
  Cu+  Cu82  1  0.91565447  0.08386375  0.67521106  1
  Cu+  Cu83  1  0.91693087  0.58278371  0.68205291  1
  Cu+  Cu84  1  0.00218611  0.25348727  0.01547246  1
  Cu+  Cu85  1  0.00189162  0.75064916  0.01073148  1
  Cu+  Cu86  1  0.50483504  0.25467108  0.01296257  1
  Cu+  Cu87  1  0.50180490  0.75226622  0.00706455  1
  Cu+  Cu88  1  0.24445659  0.49625357  0.01549568  1
  Cu+  Cu89  1  0.24705771  0.99787621  0.00899979  1
  Cu+  Cu90  1  0.74965384  0.50081561  0.01211143  1
  Cu+  Cu91  1  0.74702744  0.99786724  0.00748371  1
  Cu+  Cu92  1  0.24706957  0.24775240  0.00973705  1
  Cu+  Cu93  1  0.24776741  0.75250731  0.00807291  1
  Cu+  Cu94  1  0.74694541  0.25020548  0.00659517  1
  Cu+  Cu95  1  0.74939981  0.75227835  0.00894331  1
  Cu+  Cu96  1  0.33904132  0.42217022  0.34364907  1
  Cu+  Cu97  1  0.33837146  0.92222712  0.34355925  1
  Cu+  Cu98  1  0.83775131  0.42165552  0.34650588  1
  Cu+  Cu99  1  0.83274068  0.91645362  0.34031993  1
  Cu+  Cu100  1  0.07898749  0.16336292  0.34722750  1
  Cu+  Cu101  1  0.08097683  0.66332620  0.34576997  1
  Cu+  Cu102  1  0.57972367  0.16512380  0.34620959  1
  Cu+  Cu103  1  0.58111460  0.66574113  0.33887782  1
  Cu+  Cu104  1  0.08346494  0.41761054  0.34328826  1
  Cu+  Cu105  1  0.07906538  0.91844371  0.34689888  1
  Cu+  Cu106  1  0.58372357  0.41925061  0.34058978  1
  Cu+  Cu107  1  0.58280105  0.91854593  0.33795264  1
  Cu+  Cu108  1  -0.00426533  -0.00390584  0.11743601  1
  Cu+  Cu109  1  -0.00249209  0.50160200  0.11758413  1
  Cu+  Cu110  1  0.49643686  -0.00215640  0.11426127  1
  Cu+  Cu111  1  0.50096838  0.50333986  0.11341185  1
  Cu+  Cu112  1  0.33230199  0.16998538  0.44060700  1
  Cu+  Cu113  1  0.33679453  0.66790076  0.44220334  1
  Cu+  Cu114  1  0.82960114  0.16337468  0.44371142  1
  Cu+  Cu115  1  0.82592259  0.66702677  0.44777923  1
  Cu+  Cu116  1  0.16578402  0.32934087  0.78682915  1
  Cu+  Cu117  1  0.17029511  0.83692923  0.78137758  1
  Cu+  Cu118  1  0.66418915  0.32781622  0.78221600  1
  Cu+  Cu119  1  0.66596534  0.83682042  0.77977475  1
  Te2-  Te120  1  -0.00643323  -0.00244671  0.39221258  1
  Te2-  Te121  1  0.00276858  0.49876440  0.39216864  1
  Te2-  Te122  1  0.50284909  -0.00083647  0.39011655  1
  Te2-  Te123  1  0.50548202  0.50377718  0.38732961  1
  Te2-  Te124  1  0.33171078  0.16516826  0.71464936  1
  Te2-  Te125  1  0.33359678  0.66502897  0.71736311  1
  Te2-  Te126  1  0.83296491  0.16569846  0.71909016  1
  Te2-  Te127  1  0.83708257  0.66953258  0.72442467  1
  Te2-  Te128  1  0.16789214  0.33009583  0.06116639  1
  Te2-  Te129  1  0.16653177  0.83434017  0.05497466  1
  Te2-  Te130  1  0.67152655  0.33626637  0.05627727  1
  Te2-  Te131  1  0.66587306  0.83381706  0.05282646  1
  Te2-  Te132  1  0.49449671  0.25148440  0.88581508  1
  Te2-  Te133  1  0.49470746  0.74667880  0.88070966  1
  Te2-  Te134  1  0.99282575  0.24839481  0.88823499  1
  Te2-  Te135  1  0.99249372  0.75011738  0.88448985  1
  Te2-  Te136  1  0.25280500  0.00661082  0.88317941  1
  Te2-  Te137  1  0.25137228  0.50630989  0.88830072  1
  Te2-  Te138  1  0.75249776  0.00605234  0.88175282  1
  Te2-  Te139  1  0.75529149  0.51338553  0.88560032  1
  Te2-  Te140  1  0.25037506  0.24839575  0.88368930  1
  Te2-  Te141  1  0.25166491  0.74736998  0.88192359  1
  Te2-  Te142  1  0.75117797  0.25137159  0.88063704  1
  Te2-  Te143  1  0.75724705  0.74934372  0.88298553  1
  Te2-  Te144  1  0.32788779  0.40987432  0.21710010  1
  Te2-  Te145  1  0.33113497  0.91955909  0.21614291  1
  Te2-  Te146  1  0.83068166  0.41297526  0.21945037  1
  Te2-  Te147  1  0.82782294  0.91452671  0.21445880  1
  Te2-  Te148  1  0.08849079  0.17399991  0.22018472  1
  Te2-  Te149  1  0.08785244  0.66985638  0.21882029  1
  Te2-  Te150  1  0.59285151  0.17896460  0.21891925  1
  Te2-  Te151  1  0.58437942  0.67273341  0.21334310  1
  Te2-  Te152  1  0.08945318  0.41002214  0.21798264  1
  Te2-  Te153  1  0.08550141  0.91423773  0.22026777  1
  Te2-  Te154  1  0.59172938  0.41684451  0.21558764  1
  Te2-  Te155  1  0.58553895  0.91622701  0.21266595  1
  Te2-  Te156  1  0.15567683  0.07623706  0.54691726  1
  Te2-  Te157  1  0.16226730  0.57525531  0.54670130  1
  Te2-  Te158  1  0.65978653  0.07707273  0.54942657  1
  Te2-  Te159  1  0.66599282  0.57771204  0.55232590  1
  Te2-  Te160  1  0.42121374  0.33680645  0.54614954  1
  Te2-  Te161  1  0.42173922  0.83926370  0.54763512  1
  Te2-  Te162  1  0.92362006  0.33948359  0.54939517  1
  Te2-  Te163  1  0.91704685  0.83482939  0.54880264  1
  Te2-  Te164  1  0.41922676  0.07448873  0.54713628  1
  Te2-  Te165  1  0.42540605  0.58040950  0.54871246  1
  Te2-  Te166  1  0.91783296  0.07610640  0.54963662  1
  Te2-  Te167  1  0.92646483  0.57622164  0.55323504  1
  Te2-  Te168  1  -0.00133714  -0.00086659  0.88306256  1
  Te2-  Te169  1  -0.00106140  0.50100070  0.88371022  1
  Te2-  Te170  1  0.49940185  0.00032488  0.88396179  1
  Te2-  Te171  1  0.49926883  0.50093211  0.88295582  1
  Te2-  Te172  1  0.33298460  0.16749296  0.21754959  1
  Te2-  Te173  1  0.33359094  0.66870671  0.21694748  1
  Te2-  Te174  1  0.83132444  0.16597971  0.21641773  1
  Te2-  Te175  1  0.83221670  0.66606175  0.21953931  1
  Te2-  Te176  1  0.16558430  0.33334894  0.54881501  1
  Te2-  Te177  1  0.16627159  0.83259777  0.54588671  1
  Te2-  Te178  1  0.66419403  0.33152352  0.54935099  1
  Te2-  Te179  1  0.66557627  0.83254957  0.54818157  1
  Te2-  Te180  1  0.32650050  0.41277825  0.71319343  1
  Te2-  Te181  1  0.32783697  0.91320066  0.71124843  1
  Te2-  Te182  1  0.82611898  0.40967292  0.71004086  1
  Te2-  Te183  1  0.82762898  0.91281713  0.71014157  1
  Te2-  Te184  1  0.08505339  0.17175824  0.71327964  1
  Te2-  Te185  1  0.09052489  0.67289377  0.71040609  1
  Te2-  Te186  1  0.58313832  0.17064322  0.71211055  1
  Te2-  Te187  1  0.58628685  0.67150289  0.70952903  1
  Te2-  Te188  1  0.08665939  0.41278610  0.71455720  1
  Te2-  Te189  1  0.08712816  0.91430231  0.71075328  1
  Te2-  Te190  1  0.58199643  0.40783556  0.71016641  1
  Te2-  Te191  1  0.58473316  0.91434298  0.71104908  1
  Te2-  Te192  1  0.15988574  0.07932943  0.04759887  1
  Te2-  Te193  1  0.15732610  0.58254047  0.04475944  1
  Te2-  Te194  1  0.66040619  0.08135053  0.04360591  1
  Te2-  Te195  1  0.66158035  0.58280818  0.04552757  1
  Te2-  Te196  1  0.41781687  0.34096568  0.04370417  1
  Te2-  Te197  1  0.41755941  0.83781287  0.04426733  1
  Te2-  Te198  1  0.91657274  0.34155433  0.04422043  1
  Te2-  Te199  1  0.91902681  0.83813511  0.04744394  1
  Te2-  Te200  1  0.41859948  0.08060686  0.04433010  1
  Te2-  Te201  1  0.41923345  0.58185460  0.04389646  1
  Te2-  Te202  1  0.91752794  0.07895866  0.04485693  1
  Te2-  Te203  1  0.91921581  0.58160363  0.04871050  1
  Te2-  Te204  1  0.49274301  0.25034332  0.37332257  1
  Te2-  Te205  1  0.49475851  0.74882691  0.37440284  1
  Te2-  Te206  1  0.99136210  0.24820865  0.37577728  1
  Te2-  Te207  1  0.98878699  0.74459887  0.37338591  1
  Te2-  Te208  1  0.25300427  0.00966624  0.36997587  1
  Te2-  Te209  1  0.25348029  0.50864343  0.37408887  1
  Te2-  Te210  1  0.75180947  0.00554592  0.37528530  1
  Te2-  Te211  1  0.75254108  0.50861315  0.37710609  1
  Te2-  Te212  1  0.25344673  0.24820960  0.37257012  1
  Te2-  Te213  1  0.25546869  0.74814614  0.37204983  1
  Te2-  Te214  1  0.75375559  0.24747954  0.37547204  1
  Te2-  Te215  1  0.75049854  0.74657657  0.37693719  1
