# generated using pymatgen
data_Ti(CuTe)4
_symmetry_space_group_name_H-M   'P 1'
_cell_length_a   16.83889417
_cell_length_b   16.84002684
_cell_length_c   20.63618257
_cell_angle_alpha   89.99046743
_cell_angle_beta   90.01804043
_cell_angle_gamma   120.00464031
_symmetry_Int_Tables_number   1
_chemical_formula_structural   Ti(CuTe)4
_chemical_formula_sum   'Ti24 Cu96 Te96'
_cell_volume   5067.52627976
_cell_formula_units_Z   24
loop_
 _symmetry_equiv_pos_site_id
 _symmetry_equiv_pos_as_xyz
  1  'x, y, z'
loop_
 _atom_type_symbol
 _atom_type_oxidation_number
  Ti4+  4.0
  Cu+  1.0
  Te2-  -2.0
loop_
 _atom_site_type_symbol
 _atom_site_label
 _atom_site_symmetry_multiplicity
 _atom_site_fract_x
 _atom_site_fract_y
 _atom_site_fract_z
 _atom_site_occupancy
  Ti4+  Ti0  1  0.00070377  0.00028628  0.26038962  1
  Ti4+  Ti1  1  -0.00089212  0.50000426  0.25426822  1
  Ti4+  Ti2  1  0.50148372  0.00032177  0.25666197  1
  Ti4+  Ti3  1  0.50333305  0.50275649  0.25631775  1
  Ti4+  Ti4  1  0.33481596  0.17060852  0.58981390  1
  Ti4+  Ti5  1  0.33128714  0.66826507  0.58893524  1
  Ti4+  Ti6  1  0.83091841  0.16593432  0.59021504  1
  Ti4+  Ti7  1  0.83303996  0.66581257  0.59117122  1
  Ti4+  Ti8  1  0.16644054  0.33242697  0.92590421  1
  Ti4+  Ti9  1  0.16509863  0.83280338  0.92571207  1
  Ti4+  Ti10  1  0.66596954  0.33159603  0.92706173  1
  Ti4+  Ti11  1  0.66693718  0.83085846  0.92555685  1
  Ti4+  Ti12  1  -0.00141305  -0.00252589  0.75813937  1
  Ti4+  Ti13  1  -0.00072010  0.49963289  0.75740110  1
  Ti4+  Ti14  1  0.50035475  0.00122162  0.75628671  1
  Ti4+  Ti15  1  0.50072061  0.50132904  0.75655843  1
  Ti4+  Ti16  1  0.33346703  0.16559651  0.08934832  1
  Ti4+  Ti17  1  0.33357206  0.66657912  0.08829874  1
  Ti4+  Ti18  1  0.83441729  0.16630507  0.08856216  1
  Ti4+  Ti19  1  0.83384701  0.66717114  0.08914315  1
  Ti4+  Ti20  1  0.16778488  0.33246516  0.41977669  1
  Ti4+  Ti21  1  0.16652219  0.83090354  0.42036753  1
  Ti4+  Ti22  1  0.66709778  0.33546613  0.42299527  1
  Ti4+  Ti23  1  0.66749735  0.83585000  0.42031718  1
  Cu+  Cu24  1  0.02260688  0.76329878  0.14232862  1
  Cu+  Cu25  1  0.02550450  0.26043589  0.14072421  1
  Cu+  Cu26  1  0.73928148  0.25420440  0.14229147  1
  Cu+  Cu27  1  0.07773299  0.91877501  0.48281982  1
  Cu+  Cu28  1  0.56904599  0.93038079  0.47183765  1
  Cu+  Cu29  1  0.84353995  0.92298557  0.48157554  1
  Cu+  Cu30  1  0.74276281  0.76379260  0.14281947  1
  Cu+  Cu31  1  0.56997359  0.43245422  0.47265472  1
  Cu+  Cu32  1  0.90197904  0.80349636  0.81107157  1
  Cu+  Cu33  1  0.73919183  0.48631813  0.14311957  1
  Cu+  Cu34  1  0.06785009  0.63916370  0.47307659  1
  Cu+  Cu35  1  0.07809567  0.15563519  0.48180332  1
  Cu+  Cu36  1  0.16574255  0.08356115  0.17277820  1
  Cu+  Cu37  1  0.16498868  0.58568737  0.16894998  1
  Cu+  Cu38  1  0.66114251  0.08064712  0.16995068  1
  Cu+  Cu39  1  0.66091397  0.58316749  0.16914338  1
  Cu+  Cu40  1  0.41998539  0.33370943  0.17124604  1
  Cu+  Cu41  1  0.42000120  0.83435886  0.17156560  1
  Cu+  Cu42  1  0.91870924  0.33386003  0.16709596  1
  Cu+  Cu43  1  0.91987842  0.83753749  0.17098723  1
  Cu+  Cu44  1  0.41785614  0.08181289  0.17005073  1
  Cu+  Cu45  1  0.41780586  0.58344951  0.17015164  1
  Cu+  Cu46  1  0.92322840  0.08626517  0.17114053  1
  Cu+  Cu47  1  0.91991187  0.58344873  0.16744058  1
  Cu+  Cu48  1  0.49941189  0.25721908  0.50407827  1
  Cu+  Cu49  1  0.49692559  0.75532765  0.50105654  1
  Cu+  Cu50  1  0.99715666  0.25007632  0.50228153  1
  Cu+  Cu51  1  0.99599794  0.74367844  0.50292761  1
  Cu+  Cu52  1  0.25290358  0.00533386  0.50118899  1
  Cu+  Cu53  1  0.25098843  0.50362976  0.50095490  1
  Cu+  Cu54  1  0.74801432  0.00488146  0.50061461  1
  Cu+  Cu55  1  0.74562118  0.50166476  0.50354437  1
  Cu+  Cu56  1  0.25365460  0.24778571  0.50081861  1
  Cu+  Cu57  1  0.24601092  0.74049253  0.49926862  1
  Cu+  Cu58  1  0.75053252  0.24836507  0.50358297  1
  Cu+  Cu59  1  0.75419324  0.74826611  0.50148188  1
  Cu+  Cu60  1  0.33195578  0.41568834  0.83925237  1
  Cu+  Cu61  1  0.33261071  0.91775250  0.83913257  1
  Cu+  Cu62  1  0.83016339  0.41340631  0.84178551  1
  Cu+  Cu63  1  0.82976670  0.90733933  0.83984496  1
  Cu+  Cu64  1  0.08414783  0.16975309  0.84045352  1
  Cu+  Cu65  1  0.08385899  0.66893205  0.83914749  1
  Cu+  Cu66  1  0.58576001  0.16911694  0.84001400  1
  Cu+  Cu67  1  0.58496869  0.66866944  0.83880057  1
  Cu+  Cu68  1  0.08196424  0.41313093  0.84052401  1
  Cu+  Cu69  1  0.07892712  0.90910146  0.83953352  1
  Cu+  Cu70  1  0.58520964  0.41585005  0.84070308  1
  Cu+  Cu71  1  0.58348465  0.91520496  0.83918141  1
  Cu+  Cu72  1  0.16813938  0.08612157  0.67743726  1
  Cu+  Cu73  1  0.16703688  0.58438873  0.67551388  1
  Cu+  Cu74  1  0.66765014  0.08355311  0.67512791  1
  Cu+  Cu75  1  0.66834648  0.58530644  0.67702201  1
  Cu+  Cu76  1  0.41775899  0.33437617  0.67612991  1
  Cu+  Cu77  1  0.41457758  0.83270749  0.67345285  1
  Cu+  Cu78  1  0.91441208  0.33040366  0.67508975  1
  Cu+  Cu79  1  0.91631776  0.83024495  0.68182401  1
  Cu+  Cu80  1  0.41745204  0.08803052  0.67322114  1
  Cu+  Cu81  1  0.41652446  0.58748566  0.67271144  1
  Cu+  Cu82  1  0.91490109  0.08313546  0.67736076  1
  Cu+  Cu83  1  0.91558633  0.58289617  0.67639534  1
  Cu+  Cu84  1  0.00606674  0.24992062  0.01290277  1
  Cu+  Cu85  1  0.00404060  0.75303183  0.01441123  1
  Cu+  Cu86  1  0.50042524  0.24857578  0.00751717  1
  Cu+  Cu87  1  0.50317579  0.75030587  0.00758029  1
  Cu+  Cu88  1  0.24776491  0.49765011  0.00780972  1
  Cu+  Cu89  1  0.24652195  0.99720489  0.00798735  1
  Cu+  Cu90  1  0.74901026  0.49538501  0.01393744  1
  Cu+  Cu91  1  0.75076054  0.99665375  0.00751060  1
  Cu+  Cu92  1  0.24897710  0.24950271  0.00827401  1
  Cu+  Cu93  1  0.24925115  0.75178461  0.00752914  1
  Cu+  Cu94  1  0.74653286  0.24937541  0.01364523  1
  Cu+  Cu95  1  0.74823366  0.75109445  0.01459135  1
  Cu+  Cu96  1  0.33704725  0.41797075  0.33865733  1
  Cu+  Cu97  1  0.33580104  0.91575327  0.33888504  1
  Cu+  Cu98  1  0.83455384  0.41697731  0.33949605  1
  Cu+  Cu99  1  0.83624634  0.91747233  0.34723943  1
  Cu+  Cu100  1  0.08335323  0.16391596  0.34924274  1
  Cu+  Cu101  1  0.08180744  0.66139851  0.34436920  1
  Cu+  Cu102  1  0.58550819  0.16685131  0.34104011  1
  Cu+  Cu103  1  0.58560506  0.66705052  0.34042529  1
  Cu+  Cu104  1  0.08371718  0.41820964  0.33807687  1
  Cu+  Cu105  1  0.08271709  0.91718445  0.34870984  1
  Cu+  Cu106  1  0.58427214  0.42194272  0.34514549  1
  Cu+  Cu107  1  0.58128401  0.92022198  0.34359280  1
  Cu+  Cu108  1  0.00233883  0.00107309  0.11644250  1
  Cu+  Cu109  1  0.00215202  0.49796092  0.11087865  1
  Cu+  Cu110  1  0.49331321  -0.00480207  0.11376596  1
  Cu+  Cu111  1  0.48987559  0.49466345  0.11409042  1
  Cu+  Cu112  1  0.33861634  0.16645464  0.44353614  1
  Cu+  Cu113  1  0.33614618  0.66391780  0.44346450  1
  Cu+  Cu114  1  0.83549015  0.17139161  0.44414335  1
  Cu+  Cu115  1  0.83369003  0.66333274  0.44513344  1
  Cu+  Cu116  1  0.17005898  0.33835553  0.78404393  1
  Cu+  Cu117  1  0.17191797  0.83439310  0.78315533  1
  Cu+  Cu118  1  0.66591337  0.33320263  0.78514758  1
  Cu+  Cu119  1  0.66283343  0.83430888  0.78311074  1
  Te2-  Te120  1  0.00018184  -0.00096630  0.39425114  1
  Te2-  Te121  1  -0.00223049  0.49458828  0.38512947  1
  Te2-  Te122  1  0.49772977  0.00345332  0.38767059  1
  Te2-  Te123  1  0.49900386  0.50423536  0.38717969  1
  Te2-  Te124  1  0.33429181  0.16894577  0.71855026  1
  Te2-  Te125  1  0.33268548  0.66796805  0.71791223  1
  Te2-  Te126  1  0.83200130  0.16587607  0.71914647  1
  Te2-  Te127  1  0.83184334  0.66254141  0.72198181  1
  Te2-  Te128  1  0.17230012  0.33529881  0.05748468  1
  Te2-  Te129  1  0.17063579  0.83525322  0.05715984  1
  Te2-  Te130  1  0.66156883  0.32999163  0.05991857  1
  Te2-  Te131  1  0.66533321  0.83496481  0.05697280  1
  Te2-  Te132  1  0.49491858  0.24677795  0.88206812  1
  Te2-  Te133  1  0.49545235  0.74688801  0.88215769  1
  Te2-  Te134  1  0.99318106  0.24528965  0.88652742  1
  Te2-  Te135  1  0.98951734  0.74095012  0.88753423  1
  Te2-  Te136  1  0.24841765  0.00333079  0.88187668  1
  Te2-  Te137  1  0.25136531  0.50389416  0.88195041  1
  Te2-  Te138  1  0.75380110  0.00131650  0.88151932  1
  Te2-  Te139  1  0.75260589  0.50397778  0.88720003  1
  Te2-  Te140  1  0.25262540  0.24691567  0.88251140  1
  Te2-  Te141  1  0.25234050  0.74903261  0.88184170  1
  Te2-  Te142  1  0.75230326  0.24534997  0.88701643  1
  Te2-  Te143  1  0.75095425  0.73907475  0.88769522  1
  Te2-  Te144  1  0.33198125  0.41498987  0.21335549  1
  Te2-  Te145  1  0.33007727  0.91363858  0.21361732  1
  Te2-  Te146  1  0.82430307  0.41199570  0.21351414  1
  Te2-  Te147  1  0.82875565  0.91728503  0.21835326  1
  Te2-  Te148  1  0.09001294  0.17450199  0.22108399  1
  Te2-  Te149  1  0.08738738  0.67461194  0.21740915  1
  Te2-  Te150  1  0.58538688  0.17489885  0.21570523  1
  Te2-  Te151  1  0.58686848  0.67698729  0.21500219  1
  Te2-  Te152  1  0.08823843  0.41635422  0.21272927  1
  Te2-  Te153  1  0.08833793  0.91495934  0.21997777  1
  Te2-  Te154  1  0.58790895  0.41320099  0.21819712  1
  Te2-  Te155  1  0.58885209  0.91519603  0.21685620  1
  Te2-  Te156  1  0.15730285  0.07852236  0.55109677  1
  Te2-  Te157  1  0.15566034  0.57457520  0.54904812  1
  Te2-  Te158  1  0.65672237  0.08070541  0.54897343  1
  Te2-  Te159  1  0.65946838  0.58432049  0.55043805  1
  Te2-  Te160  1  0.41802361  0.34530433  0.54959293  1
  Te2-  Te161  1  0.41365849  0.84189279  0.54666730  1
  Te2-  Te162  1  0.91849161  0.33757728  0.54876777  1
  Te2-  Te163  1  0.92208705  0.84175700  0.55307286  1
  Te2-  Te164  1  0.42041542  0.08605240  0.54619529  1
  Te2-  Te165  1  0.42003367  0.58633311  0.54584607  1
  Te2-  Te166  1  0.91955101  0.07851946  0.55045910  1
  Te2-  Te167  1  0.91485625  0.57512325  0.54949999  1
  Te2-  Te168  1  -0.00024484  -0.00033725  0.88519460  1
  Te2-  Te169  1  -0.00003569  0.49990023  0.88431869  1
  Te2-  Te170  1  0.50056824  0.00023881  0.88347791  1
  Te2-  Te171  1  0.50004662  0.49978437  0.88362505  1
  Te2-  Te172  1  0.33477797  0.16599987  0.21659423  1
  Te2-  Te173  1  0.33290553  0.66606055  0.21551542  1
  Te2-  Te174  1  0.83268776  0.16621002  0.21666225  1
  Te2-  Te175  1  0.83295509  0.66654293  0.21767513  1
  Te2-  Te176  1  0.16806476  0.33428096  0.54732847  1
  Te2-  Te177  1  0.16837618  0.83355283  0.54830913  1
  Te2-  Te178  1  0.66765432  0.33349475  0.55029356  1
  Te2-  Te179  1  0.66711321  0.83344394  0.54826742  1
  Te2-  Te180  1  0.32931847  0.41699609  0.71159569  1
  Te2-  Te181  1  0.32931226  0.91750114  0.71110349  1
  Te2-  Te182  1  0.82685474  0.41259679  0.71410135  1
  Te2-  Te183  1  0.82532147  0.91263021  0.71230927  1
  Te2-  Te184  1  0.08432382  0.17132892  0.71421492  1
  Te2-  Te185  1  0.08526769  0.67233604  0.71255487  1
  Te2-  Te186  1  0.58697061  0.17319872  0.71246850  1
  Te2-  Te187  1  0.58623842  0.67362275  0.71178969  1
  Te2-  Te188  1  0.08465077  0.41343863  0.71289020  1
  Te2-  Te189  1  0.08940490  0.91518227  0.71220863  1
  Te2-  Te190  1  0.58755321  0.41525266  0.71338465  1
  Te2-  Te191  1  0.58435968  0.91366569  0.71143991  1
  Te2-  Te192  1  0.16063883  0.08029001  0.04609367  1
  Te2-  Te193  1  0.16169268  0.58177705  0.04263355  1
  Te2-  Te194  1  0.66017367  0.07613269  0.04356225  1
  Te2-  Te195  1  0.65819249  0.57749824  0.04317152  1
  Te2-  Te196  1  0.41958357  0.33734261  0.04408401  1
  Te2-  Te197  1  0.42007343  0.83791793  0.04373561  1
  Te2-  Te198  1  0.92088251  0.33934151  0.04017409  1
  Te2-  Te199  1  0.92117893  0.84257613  0.04401587  1
  Te2-  Te200  1  0.41782314  0.07856017  0.04310985  1
  Te2-  Te201  1  0.41878468  0.58016987  0.04303741  1
  Te2-  Te202  1  0.91976357  0.07736486  0.04458868  1
  Te2-  Te203  1  0.92165997  0.57972568  0.04137566  1
  Te2-  Te204  1  0.49607342  0.24821066  0.37563626  1
  Te2-  Te205  1  0.49485540  0.74693656  0.37400382  1
  Te2-  Te206  1  0.99393729  0.24876721  0.37462532  1
  Te2-  Te207  1  0.99157873  0.74393679  0.37494737  1
  Te2-  Te208  1  0.25605567  0.00545540  0.37441115  1
  Te2-  Te209  1  0.25320051  0.50446277  0.37422276  1
  Te2-  Te210  1  0.75502423  0.01015986  0.37345361  1
  Te2-  Te211  1  0.75649035  0.50755448  0.37569800  1
  Te2-  Te212  1  0.25783674  0.24821171  0.37413012  1
  Te2-  Te213  1  0.25512263  0.74620553  0.37330587  1
  Te2-  Te214  1  0.75344492  0.24898749  0.37705993  1
  Te2-  Te215  1  0.75368111  0.74545836  0.37545949  1
