# generated using pymatgen
data_Ti(CuTe)4
_symmetry_space_group_name_H-M   'P 1'
_cell_length_a   16.88851639
_cell_length_b   16.89033799
_cell_length_c   20.71166854
_cell_angle_alpha   89.94710090
_cell_angle_beta   90.07547559
_cell_angle_gamma   120.00666703
_symmetry_Int_Tables_number   1
_chemical_formula_structural   Ti(CuTe)4
_chemical_formula_sum   'Ti24 Cu96 Te96'
_cell_volume   5116.18195433
_cell_formula_units_Z   24
loop_
 _symmetry_equiv_pos_site_id
 _symmetry_equiv_pos_as_xyz
  1  'x, y, z'
loop_
 _atom_type_symbol
 _atom_type_oxidation_number
  Ti4+  4.0
  Cu+  1.0
  Te2-  -2.0
loop_
 _atom_site_type_symbol
 _atom_site_label
 _atom_site_symmetry_multiplicity
 _atom_site_fract_x
 _atom_site_fract_y
 _atom_site_fract_z
 _atom_site_occupancy
  Ti4+  Ti0  1  0.00170589  0.00204514  0.26142064  1
  Ti4+  Ti1  1  -0.00177000  0.50246134  0.25824226  1
  Ti4+  Ti2  1  0.50071879  0.00136129  0.25521109  1
  Ti4+  Ti3  1  0.49880968  0.50133130  0.25710557  1
  Ti4+  Ti4  1  0.33044537  0.16541065  0.59083662  1
  Ti4+  Ti5  1  0.33028937  0.66534842  0.59265595  1
  Ti4+  Ti6  1  0.83336271  0.16912934  0.59025252  1
  Ti4+  Ti7  1  0.83255552  0.66719234  0.59322110  1
  Ti4+  Ti8  1  0.16434191  0.33136562  0.92580282  1
  Ti4+  Ti9  1  0.17046264  0.83203933  0.92383434  1
  Ti4+  Ti10  1  0.66458597  0.33165903  0.92297118  1
  Ti4+  Ti11  1  0.67091358  0.83261957  0.92044088  1
  Ti4+  Ti12  1  -0.00074226  0.00034748  0.75536234  1
  Ti4+  Ti13  1  0.00138788  0.49978893  0.75616230  1
  Ti4+  Ti14  1  0.49923908  -0.00033821  0.75357292  1
  Ti4+  Ti15  1  0.50108892  0.49935943  0.75322052  1
  Ti4+  Ti16  1  0.33257138  0.16651925  0.08904881  1
  Ti4+  Ti17  1  0.33532751  0.66708680  0.08842206  1
  Ti4+  Ti18  1  0.83250809  0.16572465  0.08978989  1
  Ti4+  Ti19  1  0.83541813  0.66577641  0.08977462  1
  Ti4+  Ti20  1  0.16534322  0.33519872  0.42147102  1
  Ti4+  Ti21  1  0.16780263  0.83476187  0.42397076  1
  Ti4+  Ti22  1  0.66555799  0.33305524  0.42255345  1
  Ti4+  Ti23  1  0.66730454  0.83338753  0.42264621  1
  Cu+  Cu24  1  0.68461784  0.58645227  0.80825666  1
  Cu+  Cu25  1  0.06946978  0.42930876  0.47205428  1
  Cu+  Cu26  1  0.91502153  0.81811290  0.81025009  1
  Cu+  Cu27  1  0.40489315  0.09372231  0.80537248  1
  Cu+  Cu28  1  0.07381578  0.15560875  0.47884047  1
  Cu+  Cu29  1  0.41407799  0.81816227  0.80944339  1
  Cu+  Cu30  1  0.90592177  0.09678523  0.80535734  1
  Cu+  Cu31  1  0.06992373  0.92109310  0.47799695  1
  Cu+  Cu32  1  0.23760101  0.26198644  0.14322515  1
  Cu+  Cu33  1  0.18526981  0.58634352  0.81084854  1
  Cu+  Cu34  1  0.23909188  0.76099440  0.14282724  1
  Cu+  Cu35  1  0.73817580  0.26443286  0.13873378  1
  Cu+  Cu36  1  0.16472484  0.08674270  0.17364542  1
  Cu+  Cu37  1  0.16567375  0.58715066  0.17238902  1
  Cu+  Cu38  1  0.66495989  0.08725098  0.16942485  1
  Cu+  Cu39  1  0.66503546  0.58341516  0.17202553  1
  Cu+  Cu40  1  0.41240917  0.33636560  0.17057410  1
  Cu+  Cu41  1  0.41547106  0.83653944  0.16907526  1
  Cu+  Cu42  1  0.91177798  0.33465516  0.17259017  1
  Cu+  Cu43  1  0.92105384  0.83486270  0.17464171  1
  Cu+  Cu44  1  0.41945236  0.08065306  0.16910699  1
  Cu+  Cu45  1  0.42142556  0.58291533  0.17020650  1
  Cu+  Cu46  1  0.91957884  0.08177045  0.17366875  1
  Cu+  Cu47  1  0.91934985  0.58206473  0.17086952  1
  Cu+  Cu48  1  0.49624007  0.24686278  0.50498492  1
  Cu+  Cu49  1  0.49736804  0.74997393  0.50618857  1
  Cu+  Cu50  1  0.99515797  0.25174635  0.50291638  1
  Cu+  Cu51  1  0.99598242  0.75081559  0.50721270  1
  Cu+  Cu52  1  0.24703128  0.00222488  0.50502644  1
  Cu+  Cu53  1  0.24308420  0.50312084  0.50375176  1
  Cu+  Cu54  1  0.75127800  0.00228970  0.50401701  1
  Cu+  Cu55  1  0.74825726  0.50108546  0.50667168  1
  Cu+  Cu56  1  0.24857644  0.24486057  0.50275172  1
  Cu+  Cu57  1  0.25074592  0.74641547  0.50638656  1
  Cu+  Cu58  1  0.75156778  0.25054210  0.50393070  1
  Cu+  Cu59  1  0.75047138  0.74758326  0.50582217  1
  Cu+  Cu60  1  0.33077657  0.41104651  0.83777790  1
  Cu+  Cu61  1  0.33245666  0.91522817  0.83549512  1
  Cu+  Cu62  1  0.83028629  0.41206407  0.83775955  1
  Cu+  Cu63  1  0.83228181  0.91603997  0.83345547  1
  Cu+  Cu64  1  0.07935088  0.16842703  0.83910810  1
  Cu+  Cu65  1  0.09068320  0.66784897  0.83645989  1
  Cu+  Cu66  1  0.57985183  0.16855788  0.83607640  1
  Cu+  Cu67  1  0.59140699  0.66869642  0.83221969  1
  Cu+  Cu68  1  0.08710815  0.41406063  0.83881640  1
  Cu+  Cu69  1  0.08634052  0.91216009  0.83753027  1
  Cu+  Cu70  1  0.58744841  0.41411317  0.83496532  1
  Cu+  Cu71  1  0.58710378  0.91248560  0.83395342  1
  Cu+  Cu72  1  0.16738943  0.08435792  0.67655240  1
  Cu+  Cu73  1  0.16848265  0.58308051  0.68135873  1
  Cu+  Cu74  1  0.66927351  0.08554109  0.67246593  1
  Cu+  Cu75  1  0.66963178  0.58410438  0.67952021  1
  Cu+  Cu76  1  0.41524350  0.33026942  0.67301045  1
  Cu+  Cu77  1  0.41385880  0.82908634  0.67977584  1
  Cu+  Cu78  1  0.91806728  0.33341421  0.67504730  1
  Cu+  Cu79  1  0.91544868  0.83140805  0.68096512  1
  Cu+  Cu80  1  0.41368551  0.08551664  0.67733487  1
  Cu+  Cu81  1  0.41268433  0.58162764  0.67290651  1
  Cu+  Cu82  1  0.91671592  0.08921148  0.67787122  1
  Cu+  Cu83  1  0.91524485  0.58429846  0.67506891  1
  Cu+  Cu84  1  -0.00037238  0.24808525  0.01002934  1
  Cu+  Cu85  1  0.00332257  0.74818289  0.00983963  1
  Cu+  Cu86  1  0.49957434  0.24926405  0.00708275  1
  Cu+  Cu87  1  0.50564204  0.74885462  0.00543510  1
  Cu+  Cu88  1  0.25101307  0.49685843  0.01045601  1
  Cu+  Cu89  1  0.25101788  0.99790265  0.00927289  1
  Cu+  Cu90  1  0.75086533  0.49830473  0.00907804  1
  Cu+  Cu91  1  0.75251548  0.99692991  0.00645906  1
  Cu+  Cu92  1  0.24451047  0.24869190  0.01333368  1
  Cu+  Cu93  1  0.25221253  0.75063258  0.01296755  1
  Cu+  Cu94  1  0.74589543  0.24995876  0.01026575  1
  Cu+  Cu95  1  0.75465177  0.75120097  0.00738885  1
  Cu+  Cu96  1  0.33593679  0.42061407  0.34125909  1
  Cu+  Cu97  1  0.33757016  0.91688002  0.34159917  1
  Cu+  Cu98  1  0.83305650  0.41809560  0.34331518  1
  Cu+  Cu99  1  0.83634265  0.91672660  0.34383313  1
  Cu+  Cu100  1  0.08367118  0.16676098  0.34861666  1
  Cu+  Cu101  1  0.08513208  0.66843765  0.34362509  1
  Cu+  Cu102  1  0.58333799  0.16548490  0.34035074  1
  Cu+  Cu103  1  0.58257682  0.66486082  0.34175574  1
  Cu+  Cu104  1  0.08026570  0.42151006  0.34375234  1
  Cu+  Cu105  1  0.08532369  0.92211412  0.34834690  1
  Cu+  Cu106  1  0.57934454  0.41786900  0.33974870  1
  Cu+  Cu107  1  0.58281934  0.91842319  0.33791138  1
  Cu+  Cu108  1  -0.00115682  -0.00398702  0.11895204  1
  Cu+  Cu109  1  0.00277310  0.49688555  0.11610072  1
  Cu+  Cu110  1  0.50339309  -0.00181308  0.11147788  1
  Cu+  Cu111  1  0.50491684  0.49939395  0.11406712  1
  Cu+  Cu112  1  0.33679607  0.16832835  0.44738139  1
  Cu+  Cu113  1  0.33756811  0.66821888  0.44918554  1
  Cu+  Cu114  1  0.82704309  0.16294383  0.44673876  1
  Cu+  Cu115  1  0.83209741  0.66309336  0.45055243  1
  Cu+  Cu116  1  0.17063082  0.33230113  0.78240988  1
  Cu+  Cu117  1  0.16656472  0.83202664  0.77965890  1
  Cu+  Cu118  1  0.66957853  0.33113677  0.77884439  1
  Cu+  Cu119  1  0.66564700  0.83190622  0.77461354  1
  Te2-  Te120  1  -0.00147322  0.00103647  0.39351817  1
  Te2-  Te121  1  -0.00268208  0.50422627  0.38864198  1
  Te2-  Te122  1  0.50235616  0.00107331  0.38399365  1
  Te2-  Te123  1  0.49939561  0.50087347  0.38626237  1
  Te2-  Te124  1  0.33100817  0.16843047  0.72173904  1
  Te2-  Te125  1  0.33456189  0.66396914  0.72507391  1
  Te2-  Te126  1  0.83137878  0.17014170  0.72114511  1
  Te2-  Te127  1  0.83531264  0.66553012  0.72546597  1
  Te2-  Te128  1  0.16304273  0.33332177  0.05621714  1
  Te2-  Te129  1  0.16805198  0.83358819  0.05376040  1
  Te2-  Te130  1  0.66325489  0.33392346  0.05316178  1
  Te2-  Te131  1  0.67020501  0.83211234  0.04876580  1
  Te2-  Te132  1  0.49066698  0.24817547  0.88150293  1
  Te2-  Te133  1  0.49784671  0.74196180  0.87957741  1
  Te2-  Te134  1  0.99017772  0.24781443  0.88451227  1
  Te2-  Te135  1  0.99767621  0.74213890  0.88355001  1
  Te2-  Te136  1  0.25288992  0.00480145  0.88297056  1
  Te2-  Te137  1  0.25753345  0.50484595  0.88441581  1
  Te2-  Te138  1  0.75349083  0.00602958  0.88050606  1
  Te2-  Te139  1  0.75676099  0.50553384  0.88306286  1
  Te2-  Te140  1  0.24743732  0.24405320  0.88523210  1
  Te2-  Te141  1  0.25902201  0.74507405  0.88478046  1
  Te2-  Te142  1  0.74802075  0.24441202  0.88269207  1
  Te2-  Te143  1  0.75947373  0.74523736  0.88124257  1
  Te2-  Te144  1  0.32339015  0.41688137  0.21598997  1
  Te2-  Te145  1  0.32530982  0.91518409  0.21599257  1
  Te2-  Te146  1  0.82422065  0.41631034  0.21735499  1
  Te2-  Te147  1  0.83150141  0.91417673  0.21782100  1
  Te2-  Te148  1  0.08569962  0.17601964  0.22096824  1
  Te2-  Te149  1  0.08532085  0.67660310  0.21779642  1
  Te2-  Te150  1  0.58533261  0.17630276  0.21480415  1
  Te2-  Te151  1  0.58725242  0.67347409  0.21609255  1
  Te2-  Te152  1  0.08233233  0.41715111  0.21603238  1
  Te2-  Te153  1  0.08890587  0.91893237  0.22057330  1
  Te2-  Te154  1  0.58160839  0.41370815  0.21359448  1
  Te2-  Te155  1  0.58551474  0.91657680  0.21164618  1
  Te2-  Te156  1  0.15314352  0.07712749  0.55121799  1
  Te2-  Te157  1  0.15516972  0.58073848  0.55395222  1
  Te2-  Te158  1  0.66293922  0.08237548  0.54698700  1
  Te2-  Te159  1  0.66149905  0.58124931  0.55262137  1
  Te2-  Te160  1  0.41565646  0.33545424  0.54734579  1
  Te2-  Te161  1  0.41709843  0.83688081  0.55261591  1
  Te2-  Te162  1  0.91873466  0.34284822  0.54956415  1
  Te2-  Te163  1  0.91649716  0.84118756  0.55367869  1
  Te2-  Te164  1  0.41477255  0.07911109  0.55035201  1
  Te2-  Te165  1  0.41263520  0.57897117  0.54678566  1
  Te2-  Te166  1  0.91855666  0.08127608  0.55080286  1
  Te2-  Te167  1  0.91769743  0.58240728  0.54919964  1
  Te2-  Te168  1  0.00129952  -0.00260464  0.88275517  1
  Te2-  Te169  1  0.00027417  0.49801600  0.88301116  1
  Te2-  Te170  1  0.50320730  -0.00184329  0.88100915  1
  Te2-  Te171  1  0.50174318  0.49890839  0.88015288  1
  Te2-  Te172  1  0.33541362  0.16686836  0.21565023  1
  Te2-  Te173  1  0.33621613  0.66788646  0.21515247  1
  Te2-  Te174  1  0.83278421  0.16527105  0.21655958  1
  Te2-  Te175  1  0.83380555  0.66558780  0.21607546  1
  Te2-  Te176  1  0.16631894  0.33290774  0.54897333  1
  Te2-  Te177  1  0.16688141  0.83277410  0.55080815  1
  Te2-  Te178  1  0.66452239  0.33187457  0.54887889  1
  Te2-  Te179  1  0.66640556  0.83368962  0.54888358  1
  Te2-  Te180  1  0.32804669  0.41241100  0.71083066  1
  Te2-  Te181  1  0.32501600  0.91299534  0.70846802  1
  Te2-  Te182  1  0.82939944  0.41458363  0.71131589  1
  Te2-  Te183  1  0.82640223  0.91571337  0.70693162  1
  Te2-  Te184  1  0.08789795  0.17425926  0.71190565  1
  Te2-  Te185  1  0.08511050  0.67273894  0.71013258  1
  Te2-  Te186  1  0.58656370  0.17248698  0.70874222  1
  Te2-  Te187  1  0.58370744  0.67188389  0.70606008  1
  Te2-  Te188  1  0.08648562  0.41107393  0.71217257  1
  Te2-  Te189  1  0.08792038  0.91473433  0.71072760  1
  Te2-  Te190  1  0.58546814  0.41070408  0.70846684  1
  Te2-  Te191  1  0.58765042  0.91541250  0.70711503  1
  Te2-  Te192  1  0.15914177  0.07638481  0.04598990  1
  Te2-  Te193  1  0.16185114  0.57832303  0.04467238  1
  Te2-  Te194  1  0.66209553  0.07747421  0.04187016  1
  Te2-  Te195  1  0.66419843  0.58158866  0.04466426  1
  Te2-  Te196  1  0.41844147  0.33842074  0.04300097  1
  Te2-  Te197  1  0.42513437  0.83863877  0.04160662  1
  Te2-  Te198  1  0.91833912  0.33780305  0.04470833  1
  Te2-  Te199  1  0.92316052  0.83790555  0.04685058  1
  Te2-  Te200  1  0.42014791  0.08067909  0.04397194  1
  Te2-  Te201  1  0.42144060  0.58031108  0.04455305  1
  Te2-  Te202  1  0.91986736  0.07955331  0.04749494  1
  Te2-  Te203  1  0.92065943  0.57845612  0.04536086  1
  Te2-  Te204  1  0.49523857  0.24778308  0.37744211  1
  Te2-  Te205  1  0.49655406  0.74934838  0.37847707  1
  Te2-  Te206  1  0.99155075  0.24861943  0.37552915  1
  Te2-  Te207  1  0.99465223  0.74872366  0.37945595  1
  Te2-  Te208  1  0.25766590  0.00717138  0.37843555  1
  Te2-  Te209  1  0.25278939  0.50814381  0.37680477  1
  Te2-  Te210  1  0.75249457  0.00429506  0.37702914  1
  Te2-  Te211  1  0.74924057  0.50460182  0.37933090  1
  Te2-  Te212  1  0.25599550  0.25126755  0.37689450  1
  Te2-  Te213  1  0.25411787  0.74823613  0.38050464  1
  Te2-  Te214  1  0.75244734  0.24824696  0.37769844  1
  Te2-  Te215  1  0.75275582  0.74647427  0.37969995  1
