# generated using pymatgen
data_Ti(CuTe)4
_symmetry_space_group_name_H-M   'P 1'
_cell_length_a   16.86003386
_cell_length_b   16.85955403
_cell_length_c   20.66909226
_cell_angle_alpha   90.02691020
_cell_angle_beta   89.95254689
_cell_angle_gamma   119.98647707
_symmetry_Int_Tables_number   1
_chemical_formula_structural   Ti(CuTe)4
_chemical_formula_sum   'Ti24 Cu96 Te96'
_cell_volume   5088.80224600
_cell_formula_units_Z   24
loop_
 _symmetry_equiv_pos_site_id
 _symmetry_equiv_pos_as_xyz
  1  'x, y, z'
loop_
 _atom_type_symbol
 _atom_type_oxidation_number
  Ti4+  4.0
  Cu+  1.0
  Te2-  -2.0
loop_
 _atom_site_type_symbol
 _atom_site_label
 _atom_site_symmetry_multiplicity
 _atom_site_fract_x
 _atom_site_fract_y
 _atom_site_fract_z
 _atom_site_occupancy
  Ti4+  Ti0  1  0.00300658  0.00222225  0.25780058  1
  Ti4+  Ti1  1  0.00281877  0.49921326  0.26183460  1
  Ti4+  Ti2  1  0.50008404  0.00006622  0.25504015  1
  Ti4+  Ti3  1  0.50335653  0.50044833  0.25769538  1
  Ti4+  Ti4  1  0.32869550  0.16819719  0.58823181  1
  Ti4+  Ti5  1  0.33052966  0.66743007  0.59383686  1
  Ti4+  Ti6  1  0.83110479  0.16599352  0.59140458  1
  Ti4+  Ti7  1  0.83123005  0.66303262  0.58891619  1
  Ti4+  Ti8  1  0.16552915  0.33320033  0.92755832  1
  Ti4+  Ti9  1  0.16859312  0.83194702  0.92590468  1
  Ti4+  Ti10  1  0.66881789  0.33493490  0.92413442  1
  Ti4+  Ti11  1  0.66920352  0.83419942  0.92134478  1
  Ti4+  Ti12  1  -0.00199466  -0.00046671  0.75697069  1
  Ti4+  Ti13  1  -0.00087283  0.50030023  0.75599566  1
  Ti4+  Ti14  1  0.49868999  0.00052036  0.75393450  1
  Ti4+  Ti15  1  0.50010816  0.50079459  0.75557840  1
  Ti4+  Ti16  1  0.33464111  0.16553564  0.08767150  1
  Ti4+  Ti17  1  0.33290868  0.66719016  0.08950829  1
  Ti4+  Ti18  1  0.83626737  0.16898934  0.09038726  1
  Ti4+  Ti19  1  0.83272244  0.66629974  0.09159431  1
  Ti4+  Ti20  1  0.16632647  0.33149946  0.42128184  1
  Ti4+  Ti21  1  0.16648763  0.83238126  0.42159899  1
  Ti4+  Ti22  1  0.66611561  0.33486463  0.42184804  1
  Ti4+  Ti23  1  0.66659413  0.83416366  0.42266603  1
  Cu+  Cu24  1  0.07886657  0.64885566  0.47808787  1
  Cu+  Cu25  1  0.56956785  0.43009859  0.47280520  1
  Cu+  Cu26  1  0.68967661  0.09577968  0.80688564  1
  Cu+  Cu27  1  0.06903267  0.91789493  0.47572969  1
  Cu+  Cu28  1  0.23793635  0.97734232  0.14124001  1
  Cu+  Cu29  1  0.18313587  0.58619636  0.81184123  1
  Cu+  Cu30  1  0.52485711  0.26075939  0.13848979  1
  Cu+  Cu31  1  0.41346270  0.81875686  0.80996274  1
  Cu+  Cu32  1  0.84797055  0.41987178  0.47615097  1
  Cu+  Cu33  1  0.06751760  0.14704486  0.47399551  1
  Cu+  Cu34  1  0.69326215  0.59457714  0.80527432  1
  Cu+  Cu35  1  0.02875276  0.26533294  0.14273735  1
  Cu+  Cu36  1  0.16283452  0.07836874  0.16977993  1
  Cu+  Cu37  1  0.16421158  0.58355338  0.17456617  1
  Cu+  Cu38  1  0.66347049  0.08049762  0.16976176  1
  Cu+  Cu39  1  0.66374952  0.58138007  0.17253174  1
  Cu+  Cu40  1  0.42504559  0.33745615  0.16968318  1
  Cu+  Cu41  1  0.42062987  0.83671794  0.16922389  1
  Cu+  Cu42  1  0.92394334  0.33565767  0.17495170  1
  Cu+  Cu43  1  0.91919818  0.83513025  0.17264039  1
  Cu+  Cu44  1  0.41826058  0.08145576  0.16723957  1
  Cu+  Cu45  1  0.41913533  0.58455575  0.17247310  1
  Cu+  Cu46  1  0.92377667  0.08919097  0.17207854  1
  Cu+  Cu47  1  0.91786607  0.58257143  0.17759791  1
  Cu+  Cu48  1  0.49442179  0.25497610  0.50164010  1
  Cu+  Cu49  1  0.49741582  0.75178352  0.50747413  1
  Cu+  Cu50  1  0.99450369  0.24595604  0.50290667  1
  Cu+  Cu51  1  0.99602077  0.74472286  0.50146344  1
  Cu+  Cu52  1  0.24601873  0.00423909  0.50032512  1
  Cu+  Cu53  1  0.24785932  0.50136607  0.50534209  1
  Cu+  Cu54  1  0.74753983  0.00207619  0.50467640  1
  Cu+  Cu55  1  0.74802947  0.50123431  0.50137017  1
  Cu+  Cu56  1  0.24529076  0.24338465  0.49995498  1
  Cu+  Cu57  1  0.25100861  0.74556928  0.50584495  1
  Cu+  Cu58  1  0.75099551  0.24795075  0.50496554  1
  Cu+  Cu59  1  0.74782408  0.74622675  0.50251976  1
  Cu+  Cu60  1  0.32920419  0.41432916  0.83973466  1
  Cu+  Cu61  1  0.32797406  0.91130970  0.83578221  1
  Cu+  Cu62  1  0.82803948  0.41426953  0.83662308  1
  Cu+  Cu63  1  0.82879762  0.91289584  0.83582677  1
  Cu+  Cu64  1  0.08167290  0.16851593  0.84219528  1
  Cu+  Cu65  1  0.08831798  0.66896455  0.83667831  1
  Cu+  Cu66  1  0.58869769  0.17084931  0.83589006  1
  Cu+  Cu67  1  0.59149129  0.66908699  0.83408599  1
  Cu+  Cu68  1  0.08432338  0.41449020  0.84093672  1
  Cu+  Cu69  1  0.08495000  0.91629333  0.84089996  1
  Cu+  Cu70  1  0.58926535  0.42084101  0.83787619  1
  Cu+  Cu71  1  0.58853204  0.91833169  0.83425791  1
  Cu+  Cu72  1  0.16492340  0.08460643  0.67616527  1
  Cu+  Cu73  1  0.16670983  0.58508433  0.68235906  1
  Cu+  Cu74  1  0.66940387  0.08817703  0.67773899  1
  Cu+  Cu75  1  0.66800368  0.58212573  0.67772632  1
  Cu+  Cu76  1  0.41168335  0.33250366  0.67305458  1
  Cu+  Cu77  1  0.40944935  0.83074878  0.68058695  1
  Cu+  Cu78  1  0.91451993  0.33250709  0.67648325  1
  Cu+  Cu79  1  0.91605086  0.83125783  0.67463675  1
  Cu+  Cu80  1  0.41230244  0.08630995  0.66983072  1
  Cu+  Cu81  1  0.41302315  0.58325474  0.67533245  1
  Cu+  Cu82  1  0.91440685  0.08323970  0.67584858  1
  Cu+  Cu83  1  0.91402595  0.58064325  0.67552967  1
  Cu+  Cu84  1  0.00560380  0.25470953  0.01454446  1
  Cu+  Cu85  1  0.00138492  0.74941243  0.00912525  1
  Cu+  Cu86  1  0.50613511  0.25386987  0.00912756  1
  Cu+  Cu87  1  0.50292605  0.75151011  0.00482300  1
  Cu+  Cu88  1  0.24673185  0.49907049  0.01221843  1
  Cu+  Cu89  1  0.24711392  0.99454076  0.01202735  1
  Cu+  Cu90  1  0.74973467  0.50066696  0.01003637  1
  Cu+  Cu91  1  0.74983266  0.99902926  0.00660721  1
  Cu+  Cu92  1  0.24874447  0.24957687  0.00962575  1
  Cu+  Cu93  1  0.24950809  0.74948516  0.01110661  1
  Cu+  Cu94  1  0.75065759  0.25088733  0.00908107  1
  Cu+  Cu95  1  0.74898707  0.74970791  0.00841510  1
  Cu+  Cu96  1  0.33783221  0.41953149  0.34044626  1
  Cu+  Cu97  1  0.33654283  0.91646173  0.33917470  1
  Cu+  Cu98  1  0.83829811  0.41744680  0.34760289  1
  Cu+  Cu99  1  0.83489902  0.91937467  0.34040626  1
  Cu+  Cu100  1  0.08429579  0.16484413  0.34531010  1
  Cu+  Cu101  1  0.08418002  0.66258159  0.34916773  1
  Cu+  Cu102  1  0.58129951  0.16409397  0.33914862  1
  Cu+  Cu103  1  0.58368183  0.66749692  0.34088267  1
  Cu+  Cu104  1  0.08494502  0.41616476  0.34436120  1
  Cu+  Cu105  1  0.08440838  0.91906660  0.34646459  1
  Cu+  Cu106  1  0.58215047  0.41913366  0.34499634  1
  Cu+  Cu107  1  0.58196949  0.91845551  0.33913195  1
  Cu+  Cu108  1  -0.00788026  -0.00398695  0.11521800  1
  Cu+  Cu109  1  -0.00318470  0.50085282  0.12049780  1
  Cu+  Cu110  1  0.50102729  -0.00128638  0.10992616  1
  Cu+  Cu111  1  0.49774196  0.50313947  0.11515923  1
  Cu+  Cu112  1  0.33547658  0.16607810  0.44273724  1
  Cu+  Cu113  1  0.33833293  0.66495142  0.45107623  1
  Cu+  Cu114  1  0.83046688  0.16415779  0.44668383  1
  Cu+  Cu115  1  0.83171477  0.66786671  0.44346866  1
  Cu+  Cu116  1  0.16538511  0.32998975  0.78476702  1
  Cu+  Cu117  1  0.16093656  0.83388676  0.78212823  1
  Cu+  Cu118  1  0.66042856  0.33148834  0.77971217  1
  Cu+  Cu119  1  0.66451014  0.83237778  0.77456614  1
  Te2-  Te120  1  -0.00281425  -0.00172320  0.39005607  1
  Te2-  Te121  1  0.00333065  0.49680752  0.39440557  1
  Te2-  Te122  1  0.50020282  0.00047394  0.38442836  1
  Te2-  Te123  1  0.50044018  0.50441354  0.38833653  1
  Te2-  Te124  1  0.33083413  0.16786651  0.71722438  1
  Te2-  Te125  1  0.33324109  0.66521378  0.72622950  1
  Te2-  Te126  1  0.83549505  0.16832270  0.72207463  1
  Te2-  Te127  1  0.83535032  0.66677275  0.71889394  1
  Te2-  Te128  1  0.17229707  0.33561819  0.05834861  1
  Te2-  Te129  1  0.16464750  0.82876912  0.05629000  1
  Te2-  Te130  1  0.67183460  0.33611021  0.05476497  1
  Te2-  Te131  1  0.66731257  0.83403443  0.05000139  1
  Te2-  Te132  1  0.49934705  0.25069809  0.88129252  1
  Te2-  Te133  1  0.49770411  0.74503503  0.87854192  1
  Te2-  Te134  1  0.99367983  0.24879006  0.88740130  1
  Te2-  Te135  1  0.99825106  0.74628302  0.88282273  1
  Te2-  Te136  1  0.25406255  0.00325821  0.88468204  1
  Te2-  Te137  1  0.25536332  0.50660579  0.88632411  1
  Te2-  Te138  1  0.75687085  0.00821394  0.88074421  1
  Te2-  Te139  1  0.75839463  0.50957716  0.88395884  1
  Te2-  Te140  1  0.25086767  0.24717176  0.88395856  1
  Te2-  Te141  1  0.25687623  0.74372644  0.88454731  1
  Te2-  Te142  1  0.75723877  0.24893025  0.88323706  1
  Te2-  Te143  1  0.75781241  0.74754627  0.88250963  1
  Te2-  Te144  1  0.33299587  0.41445518  0.21404481  1
  Te2-  Te145  1  0.32671362  0.91087245  0.21325927  1
  Te2-  Te146  1  0.83223191  0.41237089  0.22027741  1
  Te2-  Te147  1  0.83379721  0.91950607  0.21433559  1
  Te2-  Te148  1  0.09372516  0.17557526  0.21777189  1
  Te2-  Te149  1  0.08633707  0.67112618  0.22225244  1
  Te2-  Te150  1  0.58887266  0.17351570  0.21347605  1
  Te2-  Te151  1  0.58681206  0.67219940  0.21550261  1
  Te2-  Te152  1  0.09359239  0.41690623  0.21923066  1
  Te2-  Te153  1  0.08596458  0.91116851  0.21908060  1
  Te2-  Te154  1  0.59219391  0.41459107  0.21790400  1
  Te2-  Te155  1  0.58683182  0.91428491  0.21397963  1
  Te2-  Te156  1  0.15101774  0.07621388  0.54956328  1
  Te2-  Te157  1  0.15705853  0.57599992  0.55459331  1
  Te2-  Te158  1  0.65993948  0.08210192  0.55062239  1
  Te2-  Te159  1  0.65780615  0.57965456  0.55024155  1
  Te2-  Te160  1  0.41201973  0.34167001  0.54716703  1
  Te2-  Te161  1  0.41578833  0.83881379  0.55315439  1
  Te2-  Te162  1  0.92217661  0.33940866  0.55030099  1
  Te2-  Te163  1  0.91551920  0.83541461  0.54853622  1
  Te2-  Te164  1  0.41504117  0.08463063  0.54382278  1
  Te2-  Te165  1  0.41551805  0.58218094  0.54958675  1
  Te2-  Te166  1  0.91482528  0.07644289  0.54989970  1
  Te2-  Te167  1  0.91914769  0.57584795  0.54908939  1
  Te2-  Te168  1  -0.00242598  -0.00181243  0.88375733  1
  Te2-  Te169  1  -0.00208699  0.49995756  0.88304022  1
  Te2-  Te170  1  0.49967896  0.00002958  0.88144371  1
  Te2-  Te171  1  0.49953522  0.50053565  0.88263597  1
  Te2-  Te172  1  0.33436156  0.16689227  0.21503783  1
  Te2-  Te173  1  0.33510194  0.66887319  0.21636576  1
  Te2-  Te174  1  0.83155258  0.16523679  0.21746712  1
  Te2-  Te175  1  0.83240072  0.66728770  0.21862078  1
  Te2-  Te176  1  0.16453924  0.33176438  0.54857721  1
  Te2-  Te177  1  0.16654417  0.83470701  0.54923158  1
  Te2-  Te178  1  0.66321024  0.33184221  0.54943371  1
  Te2-  Te179  1  0.66625967  0.83315175  0.54956140  1
  Te2-  Te180  1  0.32624157  0.41478166  0.71314983  1
  Te2-  Te181  1  0.32444242  0.91820652  0.70957311  1
  Te2-  Te182  1  0.82517389  0.41229878  0.71125448  1
  Te2-  Te183  1  0.82689541  0.91242506  0.70953696  1
  Te2-  Te184  1  0.08335464  0.17206496  0.71420610  1
  Te2-  Te185  1  0.08335975  0.67438937  0.70998690  1
  Te2-  Te186  1  0.58135327  0.17283026  0.70827824  1
  Te2-  Te187  1  0.58435382  0.67221512  0.70694413  1
  Te2-  Te188  1  0.08443209  0.41137465  0.71281622  1
  Te2-  Te189  1  0.08474615  0.91468853  0.71254467  1
  Te2-  Te190  1  0.58165922  0.41041336  0.70961569  1
  Te2-  Te191  1  0.58490451  0.91390795  0.70624271  1
  Te2-  Te192  1  0.15995546  0.07985573  0.04369954  1
  Te2-  Te193  1  0.15854156  0.58022007  0.04807444  1
  Te2-  Te194  1  0.66402344  0.08168853  0.04383493  1
  Te2-  Te195  1  0.66060914  0.58080574  0.04616657  1
  Te2-  Te196  1  0.41955317  0.33927142  0.04287428  1
  Te2-  Te197  1  0.42076877  0.83849619  0.04251403  1
  Te2-  Te198  1  0.92010708  0.34220612  0.04695882  1
  Te2-  Te199  1  0.91910983  0.83718979  0.04538599  1
  Te2-  Te200  1  0.42174099  0.08009935  0.03948444  1
  Te2-  Te201  1  0.41917458  0.58231771  0.04448360  1
  Te2-  Te202  1  0.91939664  0.08051548  0.04403648  1
  Te2-  Te203  1  0.91916196  0.58070037  0.04904701  1
  Te2-  Te204  1  0.49441285  0.24655105  0.37436771  1
  Te2-  Te205  1  0.49529715  0.74918888  0.37902326  1
  Te2-  Te206  1  0.99198409  0.24558617  0.37582261  1
  Te2-  Te207  1  0.99243001  0.74552514  0.37413256  1
  Te2-  Te208  1  0.25616358  0.00550148  0.37419010  1
  Te2-  Te209  1  0.25461742  0.50541264  0.37880144  1
  Te2-  Te210  1  0.75142488  0.00555890  0.37738643  1
  Te2-  Te211  1  0.75521943  0.50836759  0.37426561  1
  Te2-  Te212  1  0.25708363  0.24917456  0.37398343  1
  Te2-  Te213  1  0.25704694  0.74824124  0.37894625  1
  Te2-  Te214  1  0.74990878  0.24457275  0.37751557  1
  Te2-  Te215  1  0.75340753  0.74933149  0.37612826  1
