# generated using pymatgen
data_Ti(CuTe)4
_symmetry_space_group_name_H-M   'P 1'
_cell_length_a   16.86851779
_cell_length_b   16.86818468
_cell_length_c   20.68219041
_cell_angle_alpha   89.98826585
_cell_angle_beta   89.98832615
_cell_angle_gamma   119.99856013
_symmetry_Int_Tables_number   1
_chemical_formula_structural   Ti(CuTe)4
_chemical_formula_sum   'Ti24 Cu96 Te96'
_cell_volume   5096.57828632
_cell_formula_units_Z   24
loop_
 _symmetry_equiv_pos_site_id
 _symmetry_equiv_pos_as_xyz
  1  'x, y, z'
loop_
 _atom_type_symbol
 _atom_type_oxidation_number
  Ti4+  4.0
  Cu+  1.0
  Te2-  -2.0
loop_
 _atom_site_type_symbol
 _atom_site_label
 _atom_site_symmetry_multiplicity
 _atom_site_fract_x
 _atom_site_fract_y
 _atom_site_fract_z
 _atom_site_occupancy
  Ti4+  Ti0  1  -0.00105798  -0.00189234  0.25855295  1
  Ti4+  Ti1  1  0.00210185  0.49726954  0.25855881  1
  Ti4+  Ti2  1  0.49679353  -0.00193108  0.25659229  1
  Ti4+  Ti3  1  0.50003644  0.49718013  0.25740950  1
  Ti4+  Ti4  1  0.33480560  0.17090085  0.59253592  1
  Ti4+  Ti5  1  0.33521365  0.67163374  0.59285049  1
  Ti4+  Ti6  1  0.83437846  0.16773553  0.58932911  1
  Ti4+  Ti7  1  0.83473756  0.66654198  0.58914842  1
  Ti4+  Ti8  1  0.16185668  0.33190932  0.92668977  1
  Ti4+  Ti9  1  0.16874047  0.83321292  0.92722260  1
  Ti4+  Ti10  1  0.66781471  0.33723969  0.92496683  1
  Ti4+  Ti11  1  0.66764010  0.83330901  0.92081313  1
  Ti4+  Ti12  1  -0.00129025  0.00253905  0.75666658  1
  Ti4+  Ti13  1  0.00032966  0.50004194  0.75714792  1
  Ti4+  Ti14  1  0.49798731  -0.00200932  0.75593822  1
  Ti4+  Ti15  1  0.50367952  0.50232775  0.75575671  1
  Ti4+  Ti16  1  0.33473562  0.16723847  0.08630914  1
  Ti4+  Ti17  1  0.33190868  0.66517296  0.08802795  1
  Ti4+  Ti18  1  0.83291584  0.16582919  0.08998263  1
  Ti4+  Ti19  1  0.83296027  0.66685698  0.09043288  1
  Ti4+  Ti20  1  0.16639726  0.33095855  0.42320821  1
  Ti4+  Ti21  1  0.16685462  0.83177896  0.42285325  1
  Ti4+  Ti22  1  0.66662677  0.33396839  0.42175948  1
  Ti4+  Ti23  1  0.66576754  0.83380610  0.42234273  1
  Cu+  Cu24  1  0.23880123  0.98483434  0.14198353  1
  Cu+  Cu25  1  0.52350162  0.25984474  0.13899599  1
  Cu+  Cu26  1  0.23785644  0.75088368  0.14423697  1
  Cu+  Cu27  1  0.85727103  0.43009039  0.47243293  1
  Cu+  Cu28  1  0.01644108  0.25245120  0.14390891  1
  Cu+  Cu29  1  0.69596404  0.59677764  0.80381643  1
  Cu+  Cu30  1  0.40256794  0.80786246  0.80964703  1
  Cu+  Cu31  1  0.90161887  0.09864352  0.80589710  1
  Cu+  Cu32  1  0.57253845  0.93215386  0.47341968  1
  Cu+  Cu33  1  0.85492151  0.92716151  0.47484310  1
  Cu+  Cu34  1  0.57216080  0.42953475  0.47457636  1
  Cu+  Cu35  1  0.24441676  0.48050365  0.14200941  1
  Cu+  Cu36  1  0.16028731  0.07777367  0.16783603  1
  Cu+  Cu37  1  0.16210631  0.57674687  0.16904704  1
  Cu+  Cu38  1  0.66087942  0.07695535  0.17108655  1
  Cu+  Cu39  1  0.66326279  0.57969067  0.17170772  1
  Cu+  Cu40  1  0.42380580  0.33633347  0.16735495  1
  Cu+  Cu41  1  0.41524887  0.83613224  0.16859452  1
  Cu+  Cu42  1  0.92082995  0.33298812  0.17187372  1
  Cu+  Cu43  1  0.91523709  0.83439699  0.17232719  1
  Cu+  Cu44  1  0.41782232  0.08253427  0.16634986  1
  Cu+  Cu45  1  0.41591140  0.57835998  0.16995690  1
  Cu+  Cu46  1  0.91753011  0.08048731  0.17272376  1
  Cu+  Cu47  1  0.91633723  0.58022826  0.17298899  1
  Cu+  Cu48  1  0.49504056  0.25428221  0.50398399  1
  Cu+  Cu49  1  0.49583877  0.75590841  0.50449432  1
  Cu+  Cu50  1  0.99707629  0.24761943  0.50371446  1
  Cu+  Cu51  1  0.99756786  0.74750345  0.50288645  1
  Cu+  Cu52  1  0.25131665  0.00272773  0.50662925  1
  Cu+  Cu53  1  0.25061271  0.50136335  0.50730635  1
  Cu+  Cu54  1  0.75091800  0.00216593  0.50293947  1
  Cu+  Cu55  1  0.75142279  0.50214470  0.50244703  1
  Cu+  Cu56  1  0.25303403  0.24908573  0.50546050  1
  Cu+  Cu57  1  0.25388027  0.75088837  0.50581710  1
  Cu+  Cu58  1  0.75742140  0.25455591  0.50172159  1
  Cu+  Cu59  1  0.75596794  0.75221419  0.50271887  1
  Cu+  Cu60  1  0.33065319  0.41738548  0.84085703  1
  Cu+  Cu61  1  0.32969072  0.91030123  0.83988020  1
  Cu+  Cu62  1  0.82992053  0.41540388  0.83834041  1
  Cu+  Cu63  1  0.83050126  0.92118541  0.83491228  1
  Cu+  Cu64  1  0.07558899  0.16926401  0.83930182  1
  Cu+  Cu65  1  0.08555898  0.66904494  0.84008487  1
  Cu+  Cu66  1  0.58228952  0.17037831  0.83964101  1
  Cu+  Cu67  1  0.59268707  0.67009192  0.83418872  1
  Cu+  Cu68  1  0.08282128  0.41397729  0.84017290  1
  Cu+  Cu69  1  0.08625723  0.91761480  0.84127975  1
  Cu+  Cu70  1  0.59111409  0.42192542  0.83803643  1
  Cu+  Cu71  1  0.57926974  0.90982614  0.83462477  1
  Cu+  Cu72  1  0.17061898  0.08774056  0.67630614  1
  Cu+  Cu73  1  0.16849533  0.58461985  0.67632908  1
  Cu+  Cu74  1  0.66715648  0.08541588  0.67341833  1
  Cu+  Cu75  1  0.67153626  0.58421334  0.67644390  1
  Cu+  Cu76  1  0.41615188  0.33307310  0.67684559  1
  Cu+  Cu77  1  0.41408293  0.83164867  0.68076392  1
  Cu+  Cu78  1  0.91859957  0.33493023  0.67484401  1
  Cu+  Cu79  1  0.91897133  0.83435629  0.67469727  1
  Cu+  Cu80  1  0.41379749  0.08642875  0.67450155  1
  Cu+  Cu81  1  0.41632293  0.58673315  0.67473217  1
  Cu+  Cu82  1  0.91414655  0.08505515  0.67833469  1
  Cu+  Cu83  1  0.91719967  0.58236043  0.67545143  1
  Cu+  Cu84  1  -0.00000871  0.24957894  0.01545951  1
  Cu+  Cu85  1  0.00256809  0.75198984  0.00970859  1
  Cu+  Cu86  1  0.50579499  0.25690236  0.01016408  1
  Cu+  Cu87  1  0.50305323  0.74974994  0.00469583  1
  Cu+  Cu88  1  0.24655631  0.49540174  0.01356032  1
  Cu+  Cu89  1  0.25083990  0.99746939  0.01243769  1
  Cu+  Cu90  1  0.74954039  0.50133029  0.00917900  1
  Cu+  Cu91  1  0.74736214  0.99769877  0.00552793  1
  Cu+  Cu92  1  0.24765156  0.24990039  0.00654063  1
  Cu+  Cu93  1  0.25151643  0.75265713  0.01555281  1
  Cu+  Cu94  1  0.74669299  0.25043189  0.00825783  1
  Cu+  Cu95  1  0.75004498  0.75155045  0.00589780  1
  Cu+  Cu96  1  0.33484446  0.41453072  0.34149292  1
  Cu+  Cu97  1  0.33193533  0.91512969  0.34203532  1
  Cu+  Cu98  1  0.83870968  0.41639605  0.34444501  1
  Cu+  Cu99  1  0.83593245  0.91698101  0.34549369  1
  Cu+  Cu100  1  0.08238668  0.16323118  0.34289293  1
  Cu+  Cu101  1  0.08535243  0.66384018  0.34370595  1
  Cu+  Cu102  1  0.58054646  0.16465531  0.34050817  1
  Cu+  Cu103  1  0.58011744  0.66346177  0.34058238  1
  Cu+  Cu104  1  0.08433794  0.41419924  0.34508722  1
  Cu+  Cu105  1  0.08144626  0.91446960  0.34232275  1
  Cu+  Cu106  1  0.58148358  0.41636168  0.34583980  1
  Cu+  Cu107  1  0.57772693  0.91635536  0.34452420  1
  Cu+  Cu108  1  -0.00489257  -0.00327661  0.11404464  1
  Cu+  Cu109  1  -0.00685963  0.49729704  0.11531076  1
  Cu+  Cu110  1  0.50165997  0.00030244  0.11121923  1
  Cu+  Cu111  1  0.50209848  0.50333586  0.11275867  1
  Cu+  Cu112  1  0.32994036  0.16147550  0.44878645  1
  Cu+  Cu113  1  0.33013421  0.66090708  0.45037294  1
  Cu+  Cu114  1  0.83153736  0.16529117  0.44465661  1
  Cu+  Cu115  1  0.83377520  0.66665781  0.44434604  1
  Cu+  Cu116  1  0.17078440  0.33469479  0.78438658  1
  Cu+  Cu117  1  0.16309228  0.83415697  0.78447487  1
  Cu+  Cu118  1  0.66642935  0.32992318  0.78170310  1
  Cu+  Cu119  1  0.66640074  0.83393639  0.77516685  1
  Te2-  Te120  1  0.00199750  -0.00091746  0.38896574  1
  Te2-  Te121  1  0.00453585  0.49939530  0.38876179  1
  Te2-  Te122  1  0.49639507  0.00123108  0.38706536  1
  Te2-  Te123  1  0.49867011  0.50029642  0.38780912  1
  Te2-  Te124  1  0.33404612  0.16933223  0.72204188  1
  Te2-  Te125  1  0.33199607  0.66492080  0.72327149  1
  Te2-  Te126  1  0.83132847  0.16992283  0.71933712  1
  Te2-  Te127  1  0.83895180  0.66939979  0.71902310  1
  Te2-  Te128  1  0.16636408  0.32965179  0.05873574  1
  Te2-  Te129  1  0.16529252  0.83238404  0.05928182  1
  Te2-  Te130  1  0.67084918  0.33754475  0.05566693  1
  Te2-  Te131  1  0.66686789  0.83317865  0.04965585  1
  Te2-  Te132  1  0.49693674  0.25360244  0.88290566  1
  Te2-  Te133  1  0.49441357  0.74045771  0.87920438  1
  Te2-  Te134  1  0.98760238  0.24810970  0.88765987  1
  Te2-  Te135  1  0.99810791  0.74927942  0.88409603  1
  Te2-  Te136  1  0.25472548  0.00364397  0.88504689  1
  Te2-  Te137  1  0.24959246  0.50341418  0.88649222  1
  Te2-  Te138  1  0.74730349  0.00686086  0.87980034  1
  Te2-  Te139  1  0.75944100  0.51147064  0.88352746  1
  Te2-  Te140  1  0.24597947  0.24680439  0.88091404  1
  Te2-  Te141  1  0.25159286  0.74219365  0.88766401  1
  Te2-  Te142  1  0.75032192  0.24822608  0.88261771  1
  Te2-  Te143  1  0.76051729  0.75267550  0.87994431  1
  Te2-  Te144  1  0.32750501  0.40722232  0.21535327  1
  Te2-  Te145  1  0.32194154  0.91181034  0.21537764  1
  Te2-  Te146  1  0.83169079  0.41190338  0.21715898  1
  Te2-  Te147  1  0.82774670  0.91363942  0.21809190  1
  Te2-  Te148  1  0.08947347  0.17132913  0.21685299  1
  Te2-  Te149  1  0.08494805  0.67009599  0.21752470  1
  Te2-  Te150  1  0.58671854  0.17117737  0.21465388  1
  Te2-  Te151  1  0.58287962  0.66800649  0.21482996  1
  Te2-  Te152  1  0.09020628  0.40957336  0.21841359  1
  Te2-  Te153  1  0.08308281  0.90932269  0.21641998  1
  Te2-  Te154  1  0.58975731  0.41273605  0.21792314  1
  Te2-  Te155  1  0.58080097  0.91043074  0.21730344  1
  Te2-  Te156  1  0.16305897  0.08253126  0.55053655  1
  Te2-  Te157  1  0.16410506  0.58338511  0.55046770  1
  Te2-  Te158  1  0.66218008  0.08589765  0.54706709  1
  Te2-  Te159  1  0.66219499  0.58380230  0.54868801  1
  Te2-  Te160  1  0.41908424  0.34564441  0.55110451  1
  Te2-  Te161  1  0.41940642  0.84630369  0.55289580  1
  Te2-  Te162  1  0.92461450  0.34182086  0.54910809  1
  Te2-  Te163  1  0.92442015  0.84060946  0.54896878  1
  Te2-  Te164  1  0.42069028  0.08608753  0.54847661  1
  Te2-  Te165  1  0.42055093  0.58682826  0.54869931  1
  Te2-  Te166  1  0.92111333  0.08093941  0.55045621  1
  Te2-  Te167  1  0.92218269  0.58068660  0.54910020  1
  Te2-  Te168  1  -0.00144265  -0.00025919  0.88366561  1
  Te2-  Te169  1  -0.00166915  0.49943404  0.88356522  1
  Te2-  Te170  1  0.50060611  0.00003679  0.88278843  1
  Te2-  Te171  1  0.50089220  0.50176412  0.88264910  1
  Te2-  Te172  1  0.33151128  0.16554608  0.21389014  1
  Te2-  Te173  1  0.33356215  0.66605710  0.21579527  1
  Te2-  Te174  1  0.83020987  0.16304973  0.21714544  1
  Te2-  Te175  1  0.83202030  0.66509040  0.21699495  1
  Te2-  Te176  1  0.16643241  0.33237680  0.54950369  1
  Te2-  Te177  1  0.16645640  0.83353622  0.54914604  1
  Te2-  Te178  1  0.66586827  0.33265342  0.54900176  1
  Te2-  Te179  1  0.66638800  0.83288294  0.54965943  1
  Te2-  Te180  1  0.33052864  0.41754677  0.71341635  1
  Te2-  Te181  1  0.32514925  0.91604245  0.71228630  1
  Te2-  Te182  1  0.82783067  0.41338894  0.71189863  1
  Te2-  Te183  1  0.82705296  0.91251863  0.70823240  1
  Te2-  Te184  1  0.08682259  0.17490494  0.71172179  1
  Te2-  Te185  1  0.08682529  0.67272258  0.71334900  1
  Te2-  Te186  1  0.58340478  0.17042334  0.71218894  1
  Te2-  Te187  1  0.58739730  0.67353825  0.70735652  1
  Te2-  Te188  1  0.08750692  0.41447659  0.71344842  1
  Te2-  Te189  1  0.08721593  0.91796257  0.71392803  1
  Te2-  Te190  1  0.58707228  0.41271083  0.71089742  1
  Te2-  Te191  1  0.58779289  0.91572093  0.70791840  1
  Te2-  Te192  1  0.16011377  0.08011598  0.04156533  1
  Te2-  Te193  1  0.15666289  0.57847615  0.04263311  1
  Te2-  Te194  1  0.66159117  0.08066217  0.04438589  1
  Te2-  Te195  1  0.66137966  0.58248297  0.04481321  1
  Te2-  Te196  1  0.41773185  0.34092700  0.04122772  1
  Te2-  Te197  1  0.42401591  0.83921107  0.04248017  1
  Te2-  Te198  1  0.91650759  0.33911568  0.04495953  1
  Te2-  Te199  1  0.91906058  0.83859543  0.04533789  1
  Te2-  Te200  1  0.42426152  0.08307569  0.03949439  1
  Te2-  Te201  1  0.42006913  0.58061737  0.04243553  1
  Te2-  Te202  1  0.91608183  0.07630986  0.04454069  1
  Te2-  Te203  1  0.91973624  0.58168849  0.04583864  1
  Te2-  Te204  1  0.49232156  0.24486467  0.37729259  1
  Te2-  Te205  1  0.49237104  0.74488888  0.37764918  1
  Te2-  Te206  1  0.99326006  0.24400635  0.37794930  1
  Te2-  Te207  1  0.99462046  0.74429394  0.37706959  1
  Te2-  Te208  1  0.25111403  0.00386344  0.37864241  1
  Te2-  Te209  1  0.25431299  0.50351226  0.37940456  1
  Te2-  Te210  1  0.75123745  0.00586266  0.37474328  1
  Te2-  Te211  1  0.75538846  0.50650952  0.37444005  1
  Te2-  Te212  1  0.25284655  0.24502448  0.37888013  1
  Te2-  Te213  1  0.25483546  0.74622141  0.37929112  1
  Te2-  Te214  1  0.75035175  0.24455278  0.37539241  1
  Te2-  Te215  1  0.74983109  0.74470510  0.37618119  1
