# generated using pymatgen
data_Ti(CuTe)4
_symmetry_space_group_name_H-M   'P 1'
_cell_length_a   16.88817952
_cell_length_b   16.88393791
_cell_length_c   20.70481879
_cell_angle_alpha   89.97741327
_cell_angle_beta   89.99257869
_cell_angle_gamma   120.00223555
_symmetry_Int_Tables_number   1
_chemical_formula_structural   Ti(CuTe)4
_chemical_formula_sum   'Ti24 Cu96 Te96'
_cell_volume   5112.68222539
_cell_formula_units_Z   24
loop_
 _symmetry_equiv_pos_site_id
 _symmetry_equiv_pos_as_xyz
  1  'x, y, z'
loop_
 _atom_type_symbol
 _atom_type_oxidation_number
  Ti4+  4.0
  Cu+  1.0
  Te2-  -2.0
loop_
 _atom_site_type_symbol
 _atom_site_label
 _atom_site_symmetry_multiplicity
 _atom_site_fract_x
 _atom_site_fract_y
 _atom_site_fract_z
 _atom_site_occupancy
  Ti4+  Ti0  1  -0.00317630  -0.00199459  0.25997513  1
  Ti4+  Ti1  1  0.00086182  0.50301591  0.25584593  1
  Ti4+  Ti2  1  0.50230502  0.00157112  0.25375855  1
  Ti4+  Ti3  1  0.49514067  0.49643224  0.25478863  1
  Ti4+  Ti4  1  0.33276394  0.16657873  0.59188513  1
  Ti4+  Ti5  1  0.33286967  0.66731463  0.59268232  1
  Ti4+  Ti6  1  0.83371133  0.16837476  0.59286723  1
  Ti4+  Ti7  1  0.83353003  0.66955245  0.59128260  1
  Ti4+  Ti8  1  0.17010525  0.33510852  0.92640060  1
  Ti4+  Ti9  1  0.16431412  0.82966245  0.92592949  1
  Ti4+  Ti10  1  0.66804331  0.33125808  0.92438641  1
  Ti4+  Ti11  1  0.67136365  0.83437379  0.92343012  1
  Ti4+  Ti12  1  -0.00249773  -0.00307031  0.75815836  1
  Ti4+  Ti13  1  0.00240126  0.50233205  0.75656250  1
  Ti4+  Ti14  1  0.50288767  0.00252130  0.75675282  1
  Ti4+  Ti15  1  0.49815634  0.49859865  0.75544577  1
  Ti4+  Ti16  1  0.33384004  0.16657277  0.08584509  1
  Ti4+  Ti17  1  0.33351200  0.66624750  0.08553433  1
  Ti4+  Ti18  1  0.83301147  0.16447245  0.08788055  1
  Ti4+  Ti19  1  0.83432063  0.66569924  0.08886545  1
  Ti4+  Ti20  1  0.16535260  0.33317946  0.42259444  1
  Ti4+  Ti21  1  0.16585001  0.83387001  0.42267540  1
  Ti4+  Ti22  1  0.66569373  0.33272453  0.42238506  1
  Ti4+  Ti23  1  0.66573995  0.83272857  0.42218851  1
  Cu+  Cu24  1  0.51605593  0.26312968  0.13791947  1
  Cu+  Cu25  1  0.07823781  0.92950905  0.47935492  1
  Cu+  Cu26  1  0.73738380  0.97484454  0.13799402  1
  Cu+  Cu27  1  0.23724946  0.48496415  0.14079755  1
  Cu+  Cu28  1  0.23692279  0.25167729  0.14352908  1
  Cu+  Cu29  1  0.74583029  0.26034127  0.14215752  1
  Cu+  Cu30  1  0.69458469  0.09706886  0.80826761  1
  Cu+  Cu31  1  0.84757375  0.92956963  0.47951390  1
  Cu+  Cu32  1  0.24641241  0.76087573  0.14309948  1
  Cu+  Cu33  1  0.90354234  0.80532868  0.80824767  1
  Cu+  Cu34  1  0.01738301  0.76438232  0.14287232  1
  Cu+  Cu35  1  0.19247917  0.59630337  0.80912433  1
  Cu+  Cu36  1  0.16094870  0.08037822  0.17064083  1
  Cu+  Cu37  1  0.16199692  0.58329072  0.16721610  1
  Cu+  Cu38  1  0.66444288  0.08011397  0.16620146  1
  Cu+  Cu39  1  0.66168241  0.58079481  0.16936424  1
  Cu+  Cu40  1  0.41567238  0.33710739  0.16601404  1
  Cu+  Cu41  1  0.41918533  0.83947405  0.16661654  1
  Cu+  Cu42  1  0.91728284  0.33833848  0.16904221  1
  Cu+  Cu43  1  0.91822602  0.83597828  0.17336446  1
  Cu+  Cu44  1  0.42351852  0.08621349  0.16461696  1
  Cu+  Cu45  1  0.41268430  0.57588869  0.16620343  1
  Cu+  Cu46  1  0.91025149  0.07455383  0.17053914  1
  Cu+  Cu47  1  0.92285526  0.58732896  0.16832961  1
  Cu+  Cu48  1  0.49630474  0.24783692  0.50563634  1
  Cu+  Cu49  1  0.49489949  0.74761124  0.50554942  1
  Cu+  Cu50  1  0.99655490  0.25014336  0.50524295  1
  Cu+  Cu51  1  0.99672191  0.75388152  0.50445694  1
  Cu+  Cu52  1  0.25060521  0.00522673  0.50530982  1
  Cu+  Cu53  1  0.24851570  0.50306249  0.50659100  1
  Cu+  Cu54  1  0.75184193  0.00507183  0.50690205  1
  Cu+  Cu55  1  0.75074248  0.50279182  0.50544390  1
  Cu+  Cu56  1  0.25086845  0.24882034  0.50443258  1
  Cu+  Cu57  1  0.25103851  0.74725041  0.50661157  1
  Cu+  Cu58  1  0.74988847  0.24855500  0.50651291  1
  Cu+  Cu59  1  0.75468527  0.75315649  0.50299315  1
  Cu+  Cu60  1  0.32975945  0.41276405  0.83886505  1
  Cu+  Cu61  1  0.33120408  0.91440965  0.83920457  1
  Cu+  Cu62  1  0.83043164  0.41325728  0.83750686  1
  Cu+  Cu63  1  0.83066208  0.90917182  0.83791772  1
  Cu+  Cu64  1  0.08684592  0.16822387  0.84197736  1
  Cu+  Cu65  1  0.08866518  0.66967748  0.83890494  1
  Cu+  Cu66  1  0.59153530  0.16966787  0.83874491  1
  Cu+  Cu67  1  0.58538945  0.66759437  0.83708878  1
  Cu+  Cu68  1  0.09158427  0.42225803  0.83935180  1
  Cu+  Cu69  1  0.07590689  0.90662787  0.83959405  1
  Cu+  Cu70  1  0.58229511  0.41262599  0.83808375  1
  Cu+  Cu71  1  0.59370987  0.92417901  0.83813858  1
  Cu+  Cu72  1  0.16906193  0.08364276  0.67712918  1
  Cu+  Cu73  1  0.17188104  0.58798442  0.68046431  1
  Cu+  Cu74  1  0.67285438  0.08863610  0.67965224  1
  Cu+  Cu75  1  0.66714993  0.58412686  0.67393331  1
  Cu+  Cu76  1  0.41320523  0.32976346  0.67462139  1
  Cu+  Cu77  1  0.41573593  0.83210350  0.67516229  1
  Cu+  Cu78  1  0.91718267  0.33414739  0.67559844  1
  Cu+  Cu79  1  0.91329938  0.83081362  0.68093377  1
  Cu+  Cu80  1  0.41505618  0.08584632  0.67536344  1
  Cu+  Cu81  1  0.41208852  0.58176868  0.67530001  1
  Cu+  Cu82  1  0.91546625  0.08421630  0.67799153  1
  Cu+  Cu83  1  0.91706859  0.58665832  0.67492085  1
  Cu+  Cu84  1  0.00496075  0.25106000  0.00753281  1
  Cu+  Cu85  1  0.00228534  0.74934486  0.01409525  1
  Cu+  Cu86  1  0.50400835  0.24844022  0.00951231  1
  Cu+  Cu87  1  0.50643592  0.75346454  0.00445917  1
  Cu+  Cu88  1  0.25146082  0.49730883  0.01263591  1
  Cu+  Cu89  1  0.24611475  0.99594188  0.00616252  1
  Cu+  Cu90  1  0.74840373  0.49574022  0.00650078  1
  Cu+  Cu91  1  0.75233334  0.99573368  0.01063690  1
  Cu+  Cu92  1  0.24989268  0.25137821  0.01412907  1
  Cu+  Cu93  1  0.24830125  0.74991973  0.01408903  1
  Cu+  Cu94  1  0.74901762  0.24865373  0.01298165  1
  Cu+  Cu95  1  0.75220370  0.75038002  0.00889703  1
  Cu+  Cu96  1  0.33105331  0.41535225  0.34107476  1
  Cu+  Cu97  1  0.33586331  0.91745797  0.33995999  1
  Cu+  Cu98  1  0.83467190  0.41787518  0.34082732  1
  Cu+  Cu99  1  0.83271240  0.91546281  0.34868361  1
  Cu+  Cu100  1  0.08037896  0.16549137  0.34313220  1
  Cu+  Cu101  1  0.08439169  0.66677547  0.34273147  1
  Cu+  Cu102  1  0.58425350  0.16628564  0.34005432  1
  Cu+  Cu103  1  0.57738422  0.66109862  0.33915644  1
  Cu+  Cu104  1  0.08185550  0.41895832  0.34191278  1
  Cu+  Cu105  1  0.08100724  0.91733231  0.34957706  1
  Cu+  Cu106  1  0.57918568  0.41515615  0.34069051  1
  Cu+  Cu107  1  0.58209931  0.91671551  0.34005097  1
  Cu+  Cu108  1  -0.00076615  -0.00053136  0.11558239  1
  Cu+  Cu109  1  -0.00218260  0.49780477  0.11070480  1
  Cu+  Cu110  1  0.49988977  -0.00010067  0.10738355  1
  Cu+  Cu111  1  0.50371337  0.50376835  0.10955480  1
  Cu+  Cu112  1  0.33537715  0.16936227  0.44805571  1
  Cu+  Cu113  1  0.33313571  0.66593172  0.44981943  1
  Cu+  Cu114  1  0.83291235  0.16999057  0.44980911  1
  Cu+  Cu115  1  0.82973456  0.66237284  0.44791990  1
  Cu+  Cu116  1  0.16180690  0.32873864  0.78416410  1
  Cu+  Cu117  1  0.16996286  0.83783197  0.78276751  1
  Cu+  Cu118  1  0.66633087  0.33618413  0.78121955  1
  Cu+  Cu119  1  0.65892473  0.82865335  0.78068818  1
  Te2-  Te120  1  -0.00099630  0.00204991  0.39142295  1
  Te2-  Te121  1  -0.00061323  0.50143740  0.38429275  1
  Te2-  Te122  1  0.50113939  0.00094869  0.38213823  1
  Te2-  Te123  1  0.49600804  0.49694142  0.38327451  1
  Te2-  Te124  1  0.33293595  0.16674516  0.72117192  1
  Te2-  Te125  1  0.33773160  0.66968638  0.72391425  1
  Te2-  Te126  1  0.83873428  0.17118649  0.72350040  1
  Te2-  Te127  1  0.83042650  0.66327119  0.72146686  1
  Te2-  Te128  1  0.16549123  0.33226944  0.05878267  1
  Te2-  Te129  1  0.16797379  0.83539727  0.05811630  1
  Te2-  Te130  1  0.66851297  0.33397283  0.05660755  1
  Te2-  Te131  1  0.66771689  0.82964349  0.05419335  1
  Te2-  Te132  1  0.49765401  0.24461651  0.88258333  1
  Te2-  Te133  1  0.50160795  0.75330628  0.87869481  1
  Te2-  Te134  1  1.00049125  0.25203208  0.88193109  1
  Te2-  Te135  1  0.99109507  0.73880649  0.88672623  1
  Te2-  Te136  1  0.24634265  -0.00084628  0.88053288  1
  Te2-  Te137  1  0.25987524  0.50875506  0.88567738  1
  Te2-  Te138  1  0.76231955  0.00793989  0.88409089  1
  Te2-  Te139  1  0.75110217  0.50158632  0.88108869  1
  Te2-  Te140  1  0.25400894  0.24729309  0.88692920  1
  Te2-  Te141  1  0.25624211  0.74814628  0.88648983  1
  Te2-  Te142  1  0.75932284  0.24807992  0.88576730  1
  Te2-  Te143  1  0.75207000  0.74110447  0.88353824  1
  Te2-  Te144  1  0.31823483  0.40823146  0.21501884  1
  Te2-  Te145  1  0.32912245  0.91937137  0.21366097  1
  Te2-  Te146  1  0.82819559  0.41934623  0.21464318  1
  Te2-  Te147  1  0.82369046  0.90816381  0.22023456  1
  Te2-  Te148  1  0.07888152  0.16944467  0.21674277  1
  Te2-  Te149  1  0.09064328  0.67978752  0.21641244  1
  Te2-  Te150  1  0.59035186  0.17750427  0.21364717  1
  Te2-  Te151  1  0.57974189  0.66735981  0.21283707  1
  Te2-  Te152  1  0.08379446  0.41327520  0.21559566  1
  Te2-  Te153  1  0.08795121  0.91592699  0.22109511  1
  Te2-  Te154  1  0.58531989  0.41338366  0.21454835  1
  Te2-  Te155  1  0.58511694  0.91096311  0.21394378  1
  Te2-  Te156  1  0.15788637  0.08271661  0.55141307  1
  Te2-  Te157  1  0.16038356  0.58135633  0.55337498  1
  Te2-  Te158  1  0.66204364  0.08175696  0.55246111  1
  Te2-  Te159  1  0.66375427  0.58501164  0.54789065  1
  Te2-  Te160  1  0.41792603  0.33769000  0.54874655  1
  Te2-  Te161  1  0.41885405  0.83895939  0.54974231  1
  Te2-  Te162  1  0.91830324  0.33910728  0.54983625  1
  Te2-  Te163  1  0.92172400  0.84680217  0.55324007  1
  Te2-  Te164  1  0.41775052  0.08012799  0.54953587  1
  Te2-  Te165  1  0.41669121  0.57990479  0.54962649  1
  Te2-  Te166  1  0.92281923  0.08369244  0.55204012  1
  Te2-  Te167  1  0.91982485  0.58567474  0.54878730  1
  Te2-  Te168  1  -0.00036455  -0.00114607  0.88497274  1
  Te2-  Te169  1  -0.00044231  0.49962645  0.88336960  1
  Te2-  Te170  1  0.50071790  0.00000396  0.88353660  1
  Te2-  Te171  1  0.50006805  0.49886944  0.88184348  1
  Te2-  Te172  1  0.33299535  0.16570420  0.21343291  1
  Te2-  Te173  1  0.33405966  0.66817141  0.21291836  1
  Te2-  Te174  1  0.83331054  0.16833121  0.21533928  1
  Te2-  Te175  1  0.83050288  0.66451002  0.21559869  1
  Te2-  Te176  1  0.16581821  0.33338485  0.54877810  1
  Te2-  Te177  1  0.16723670  0.83428734  0.54937805  1
  Te2-  Te178  1  0.66567693  0.33389770  0.54863129  1
  Te2-  Te179  1  0.66479682  0.83308660  0.54910754  1
  Te2-  Te180  1  0.32563786  0.41197159  0.71279403  1
  Te2-  Te181  1  0.33059673  0.91606946  0.71293960  1
  Te2-  Te182  1  0.83005355  0.41652926  0.71172061  1
  Te2-  Te183  1  0.82440868  0.91409853  0.71212962  1
  Te2-  Te184  1  0.08531840  0.16931561  0.71501954  1
  Te2-  Te185  1  0.08664392  0.67553221  0.71226247  1
  Te2-  Te186  1  0.58599875  0.17453167  0.71152280  1
  Te2-  Te187  1  0.58338869  0.67005258  0.71036970  1
  Te2-  Te188  1  0.08731603  0.41466058  0.71180681  1
  Te2-  Te189  1  0.08595686  0.91330276  0.71220223  1
  Te2-  Te190  1  0.58420301  0.41369919  0.71065721  1
  Te2-  Te191  1  0.58676898  0.91514141  0.71029824  1
  Te2-  Te192  1  0.15911514  0.07797876  0.04344858  1
  Te2-  Te193  1  0.15808329  0.57683905  0.04033265  1
  Te2-  Te194  1  0.65991678  0.07610795  0.03950940  1
  Te2-  Te195  1  0.66310489  0.57983887  0.04294251  1
  Te2-  Te196  1  0.42362181  0.34087094  0.03941929  1
  Te2-  Te197  1  0.42252694  0.83939661  0.03991792  1
  Te2-  Te198  1  0.92184718  0.33789872  0.04223571  1
  Te2-  Te199  1  0.92082751  0.84002853  0.04590744  1
  Te2-  Te200  1  0.41667807  0.07626322  0.03882712  1
  Te2-  Te201  1  0.42425677  0.58345817  0.04007619  1
  Te2-  Te202  1  0.92366806  0.08140955  0.04390291  1
  Te2-  Te203  1  0.91775055  0.57640067  0.04223940  1
  Te2-  Te204  1  0.49425694  0.24588100  0.37809366  1
  Te2-  Te205  1  0.49409979  0.74703426  0.37834326  1
  Te2-  Te206  1  0.99301870  0.24849328  0.37866333  1
  Te2-  Te207  1  0.99203257  0.74456645  0.37795225  1
  Te2-  Te208  1  0.25488416  0.00670745  0.37766391  1
  Te2-  Te209  1  0.25130453  0.50526771  0.37925032  1
  Te2-  Te210  1  0.75099113  0.00665251  0.37896331  1
  Te2-  Te211  1  0.74991738  0.50360866  0.37774817  1
  Te2-  Te212  1  0.25051321  0.24577224  0.37800795  1
  Te2-  Te213  1  0.25351300  0.74878469  0.37972159  1
  Te2-  Te214  1  0.75310193  0.24828905  0.37873530  1
  Te2-  Te215  1  0.74774633  0.74203775  0.37637679  1
