# generated using pymatgen
data_Ti(CuTe)4
_symmetry_space_group_name_H-M   'P 1'
_cell_length_a   16.88448703
_cell_length_b   16.88075261
_cell_length_c   20.69732824
_cell_angle_alpha   89.98508696
_cell_angle_beta   89.98034996
_cell_angle_gamma   119.99564096
_symmetry_Int_Tables_number   1
_chemical_formula_structural   Ti(CuTe)4
_chemical_formula_sum   'Ti24 Cu96 Te96'
_cell_volume   5109.09043476
_cell_formula_units_Z   24
loop_
 _symmetry_equiv_pos_site_id
 _symmetry_equiv_pos_as_xyz
  1  'x, y, z'
loop_
 _atom_type_symbol
 _atom_type_oxidation_number
  Ti4+  4.0
  Cu+  1.0
  Te2-  -2.0
loop_
 _atom_site_type_symbol
 _atom_site_label
 _atom_site_symmetry_multiplicity
 _atom_site_fract_x
 _atom_site_fract_y
 _atom_site_fract_z
 _atom_site_occupancy
  Ti4+  Ti0  1  0.00205171  0.00259967  0.25874448  1
  Ti4+  Ti1  1  -0.00078798  0.50097246  0.26333583  1
  Ti4+  Ti2  1  0.50320624  0.00148470  0.25733143  1
  Ti4+  Ti3  1  0.50164847  0.50133798  0.25472485  1
  Ti4+  Ti4  1  0.33467635  0.16515442  0.58958536  1
  Ti4+  Ti5  1  0.33396540  0.66547643  0.58915914  1
  Ti4+  Ti6  1  0.83358780  0.16983688  0.59271611  1
  Ti4+  Ti7  1  0.83281303  0.66709454  0.59639976  1
  Ti4+  Ti8  1  0.16443855  0.33210696  0.92471378  1
  Ti4+  Ti9  1  0.16599697  0.83404684  0.92239130  1
  Ti4+  Ti10  1  0.66644086  0.33068299  0.92386467  1
  Ti4+  Ti11  1  0.66650204  0.83261307  0.92284729  1
  Ti4+  Ti12  1  -0.00087264  -0.00080919  0.75218599  1
  Ti4+  Ti13  1  -0.00056705  0.49804934  0.75370848  1
  Ti4+  Ti14  1  0.49872945  0.00070173  0.75528530  1
  Ti4+  Ti15  1  0.49939913  0.49903218  0.75463803  1
  Ti4+  Ti16  1  0.33292455  0.16739941  0.08800949  1
  Ti4+  Ti17  1  0.33501605  0.66717325  0.08798088  1
  Ti4+  Ti18  1  0.83180179  0.16603110  0.09134802  1
  Ti4+  Ti19  1  0.83262421  0.66467181  0.09011225  1
  Ti4+  Ti20  1  0.16725237  0.33621071  0.42102225  1
  Ti4+  Ti21  1  0.16766615  0.83442951  0.42131722  1
  Ti4+  Ti22  1  0.66529234  0.33108904  0.42444228  1
  Ti4+  Ti23  1  0.66737965  0.83326500  0.42436391  1
  Cu+  Cu24  1  0.57282094  0.14041029  0.47458071  1
  Cu+  Cu25  1  0.67534487  0.58614836  0.81577824  1
  Cu+  Cu26  1  0.91269329  0.58507023  0.81591594  1
  Cu+  Cu27  1  0.23752923  0.26244957  0.14046604  1
  Cu+  Cu28  1  0.68035331  0.08655497  0.81057204  1
  Cu+  Cu29  1  0.84575931  0.42813730  0.48241380  1
  Cu+  Cu30  1  0.91154547  0.82317109  0.81376814  1
  Cu+  Cu31  1  0.52374025  0.26264417  0.14044492  1
  Cu+  Cu32  1  0.91156920  0.31519722  0.80992617  1
  Cu+  Cu33  1  0.52857807  0.76541120  0.13796437  1
  Cu+  Cu34  1  0.40431565  0.09725949  0.80560868  1
  Cu+  Cu35  1  0.07749822  0.43087760  0.47648464  1
  Cu+  Cu36  1  0.16177407  0.08631352  0.17045116  1
  Cu+  Cu37  1  0.16333943  0.58213148  0.17428292  1
  Cu+  Cu38  1  0.66268568  0.08326940  0.17154556  1
  Cu+  Cu39  1  0.66263310  0.58093733  0.16892982  1
  Cu+  Cu40  1  0.41823500  0.33582681  0.16787932  1
  Cu+  Cu41  1  0.42382200  0.83526907  0.16975201  1
  Cu+  Cu42  1  0.91636643  0.33608032  0.17744020  1
  Cu+  Cu43  1  0.91887219  0.83539068  0.17340729  1
  Cu+  Cu44  1  0.42425671  0.08734328  0.17041015  1
  Cu+  Cu45  1  0.42485658  0.58844246  0.16682461  1
  Cu+  Cu46  1  0.91804308  0.08178593  0.17294099  1
  Cu+  Cu47  1  0.91575205  0.57977893  0.17613870  1
  Cu+  Cu48  1  0.49557522  0.24002180  0.50358506  1
  Cu+  Cu49  1  0.49669915  0.74569204  0.50450680  1
  Cu+  Cu50  1  1.00016771  0.25652762  0.50407356  1
  Cu+  Cu51  1  0.99901550  0.75151518  0.50693410  1
  Cu+  Cu52  1  0.25362311  0.00279078  0.50250554  1
  Cu+  Cu53  1  0.25102370  0.50504656  0.50220426  1
  Cu+  Cu54  1  0.74954012  0.00217664  0.50681188  1
  Cu+  Cu55  1  0.75171519  0.50586413  0.50907565  1
  Cu+  Cu56  1  0.25375247  0.25025560  0.50333011  1
  Cu+  Cu57  1  0.25358756  0.74964558  0.50181828  1
  Cu+  Cu58  1  0.74992385  0.24775685  0.50565890  1
  Cu+  Cu59  1  0.75011549  0.74836739  0.50976650  1
  Cu+  Cu60  1  0.32811120  0.41322542  0.83786346  1
  Cu+  Cu61  1  0.32915971  0.92014287  0.83564137  1
  Cu+  Cu62  1  0.82843760  0.40918827  0.83363114  1
  Cu+  Cu63  1  0.82774399  0.91419334  0.83258920  1
  Cu+  Cu64  1  0.08429572  0.16937917  0.83602722  1
  Cu+  Cu65  1  0.08638913  0.67135075  0.83449407  1
  Cu+  Cu66  1  0.58249974  0.16786180  0.83606231  1
  Cu+  Cu67  1  0.58326876  0.66939681  0.83591202  1
  Cu+  Cu68  1  0.08310125  0.40976693  0.83596724  1
  Cu+  Cu69  1  0.08515178  0.91322868  0.83276987  1
  Cu+  Cu70  1  0.58311177  0.41224012  0.83578412  1
  Cu+  Cu71  1  0.58560882  0.91403363  0.83714208  1
  Cu+  Cu72  1  0.16862721  0.08432167  0.67111775  1
  Cu+  Cu73  1  0.17083751  0.58283000  0.67351092  1
  Cu+  Cu74  1  0.66830694  0.08542610  0.68185232  1
  Cu+  Cu75  1  0.66871691  0.58436520  0.68313426  1
  Cu+  Cu76  1  0.41530511  0.33021954  0.67080372  1
  Cu+  Cu77  1  0.41394945  0.82798000  0.67146680  1
  Cu+  Cu78  1  0.91578089  0.33221060  0.68181531  1
  Cu+  Cu79  1  0.91413615  0.83138204  0.68178355  1
  Cu+  Cu80  1  0.41315442  0.08376117  0.67785773  1
  Cu+  Cu81  1  0.41271344  0.58165662  0.67139165  1
  Cu+  Cu82  1  0.91766171  0.08682271  0.67326011  1
  Cu+  Cu83  1  0.91631478  0.58468682  0.68316267  1
  Cu+  Cu84  1  -0.00081079  0.25118202  0.01039772  1
  Cu+  Cu85  1  0.00043459  0.74742185  0.01011764  1
  Cu+  Cu86  1  0.50206038  0.24905088  0.01193470  1
  Cu+  Cu87  1  0.50432827  0.75210846  0.00899150  1
  Cu+  Cu88  1  0.24657045  0.49841593  0.00648468  1
  Cu+  Cu89  1  0.24735424  0.99770132  0.00681597  1
  Cu+  Cu90  1  0.75144795  0.49875463  0.01095842  1
  Cu+  Cu91  1  0.74902118  1.00021804  0.00887155  1
  Cu+  Cu92  1  0.24546611  0.25082142  0.01124049  1
  Cu+  Cu93  1  0.24731660  0.74976851  0.00492180  1
  Cu+  Cu94  1  0.75055384  0.24854573  0.01130534  1
  Cu+  Cu95  1  0.75016462  0.74785614  0.00904103  1
  Cu+  Cu96  1  0.33598937  0.41899409  0.33727273  1
  Cu+  Cu97  1  0.33694148  0.91884254  0.33800180  1
  Cu+  Cu98  1  0.83443991  0.41770841  0.35171350  1
  Cu+  Cu99  1  0.83756265  0.91762995  0.34338979  1
  Cu+  Cu100  1  0.08291382  0.16541446  0.34241707  1
  Cu+  Cu101  1  0.08141940  0.66681114  0.34393319  1
  Cu+  Cu102  1  0.58121223  0.16354391  0.34668430  1
  Cu+  Cu103  1  0.58513486  0.66588423  0.34077526  1
  Cu+  Cu104  1  0.08094030  0.42026751  0.34809137  1
  Cu+  Cu105  1  0.08312465  0.91979736  0.34044749  1
  Cu+  Cu106  1  0.58152763  0.41638248  0.34073748  1
  Cu+  Cu107  1  0.58504375  0.91709221  0.34162291  1
  Cu+  Cu108  1  -0.00521041  -0.00498493  0.11569057  1
  Cu+  Cu109  1  0.00021834  0.49979912  0.12164165  1
  Cu+  Cu110  1  0.49455842  -0.00391976  0.11320243  1
  Cu+  Cu111  1  0.49835585  0.49907665  0.10857797  1
  Cu+  Cu112  1  0.32853991  0.16588658  0.44590485  1
  Cu+  Cu113  1  0.33698839  0.67084601  0.44426004  1
  Cu+  Cu114  1  0.83614573  0.16268113  0.45005739  1
  Cu+  Cu115  1  0.83544353  0.67224775  0.45404622  1
  Cu+  Cu116  1  0.16981499  0.33184176  0.77968313  1
  Cu+  Cu117  1  0.16922907  0.83328192  0.77590942  1
  Cu+  Cu118  1  0.66332046  0.33140253  0.77784372  1
  Cu+  Cu119  1  0.66323975  0.83197212  0.77653798  1
  Te2-  Te120  1  0.00196422  0.00169287  0.38785932  1
  Te2-  Te121  1  0.00020539  0.50473987  0.39541258  1
  Te2-  Te122  1  0.49955965  -0.00392406  0.38754631  1
  Te2-  Te123  1  0.49985894  0.50022113  0.38318532  1
  Te2-  Te124  1  0.33108441  0.16810725  0.72021076  1
  Te2-  Te125  1  0.33404580  0.66551112  0.71872651  1
  Te2-  Te126  1  0.83441484  0.16559139  0.72460724  1
  Te2-  Te127  1  0.83336612  0.66658765  0.72977031  1
  Te2-  Te128  1  0.16413451  0.33556755  0.05502191  1
  Te2-  Te129  1  0.16662594  0.83296304  0.05113423  1
  Te2-  Te130  1  0.66876315  0.33287442  0.05361444  1
  Te2-  Te131  1  0.67084289  0.83444543  0.05266025  1
  Te2-  Te132  1  0.49344979  0.24715086  0.88423549  1
  Te2-  Te133  1  0.49591214  0.74768776  0.88220154  1
  Te2-  Te134  1  0.99040421  0.24144993  0.88431311  1
  Te2-  Te135  1  0.98992839  0.74390751  0.88364752  1
  Te2-  Te136  1  0.24939111  0.00835621  0.88110088  1
  Te2-  Te137  1  0.24925326  0.50295711  0.88088279  1
  Te2-  Te138  1  0.75586619  0.00646613  0.88267750  1
  Te2-  Te139  1  0.75417360  0.50517831  0.88428951  1
  Te2-  Te140  1  0.24999434  0.24611841  0.88375800  1
  Te2-  Te141  1  0.25287704  0.75065240  0.87909065  1
  Te2-  Te142  1  0.75356948  0.24289045  0.88414799  1
  Te2-  Te143  1  0.75392765  0.74478496  0.88288080  1
  Te2-  Te144  1  0.32993831  0.41903553  0.21124254  1
  Te2-  Te145  1  0.33485113  0.91682647  0.21179383  1
  Te2-  Te146  1  0.82734440  0.41392577  0.22399070  1
  Te2-  Te147  1  0.83028171  0.91459124  0.21732868  1
  Te2-  Te148  1  0.08508549  0.17700597  0.21686974  1
  Te2-  Te149  1  0.08432077  0.67100989  0.21829981  1
  Te2-  Te150  1  0.59090018  0.17654234  0.21918589  1
  Te2-  Te151  1  0.59169379  0.67577033  0.21478049  1
  Te2-  Te152  1  0.08471481  0.41567716  0.22084780  1
  Te2-  Te153  1  0.08828360  0.91819998  0.21451803  1
  Te2-  Te154  1  0.58856785  0.41448790  0.21471658  1
  Te2-  Te155  1  0.59218437  0.91656415  0.21592684  1
  Te2-  Te156  1  0.16418377  0.08168095  0.54554935  1
  Te2-  Te157  1  0.16023181  0.58353217  0.54837853  1
  Te2-  Te158  1  0.65991919  0.07916862  0.55389022  1
  Te2-  Te159  1  0.66219452  0.58146124  0.55562602  1
  Te2-  Te160  1  0.42211532  0.33578295  0.54563401  1
  Te2-  Te161  1  0.42005938  0.83714847  0.54631668  1
  Te2-  Te162  1  0.92039332  0.34453728  0.55361618  1
  Te2-  Te163  1  0.91787930  0.83681456  0.55412606  1
  Te2-  Te164  1  0.41844793  0.07370105  0.55091361  1
  Te2-  Te165  1  0.41756928  0.57765239  0.54623011  1
  Te2-  Te166  1  0.91971956  0.08768509  0.54761388  1
  Te2-  Te167  1  0.92223002  0.58460578  0.55476458  1
  Te2-  Te168  1  -0.00152722  -0.00204852  0.87950888  1
  Te2-  Te169  1  0.00050345  0.49931017  0.88146117  1
  Te2-  Te170  1  0.49862182  -0.00216493  0.88271224  1
  Te2-  Te171  1  0.49834001  0.49850894  0.88205345  1
  Te2-  Te172  1  0.33290832  0.16651719  0.21518892  1
  Te2-  Te173  1  0.33437463  0.66655817  0.21496668  1
  Te2-  Te174  1  0.83199390  0.16525381  0.21766432  1
  Te2-  Te175  1  0.83143884  0.66606514  0.21640672  1
  Te2-  Te176  1  0.16989261  0.33517150  0.54811348  1
  Te2-  Te177  1  0.16943995  0.83422732  0.54775307  1
  Te2-  Te178  1  0.66497042  0.33347378  0.55186980  1
  Te2-  Te179  1  0.66471182  0.83293826  0.55090934  1
  Te2-  Te180  1  0.32844372  0.41250343  0.71014777  1
  Te2-  Te181  1  0.32747526  0.91119958  0.70844455  1
  Te2-  Te182  1  0.82285460  0.41200471  0.70773231  1
  Te2-  Te183  1  0.82497652  0.91615718  0.70672696  1
  Te2-  Te184  1  0.08694511  0.17215315  0.70938094  1
  Te2-  Te185  1  0.08944304  0.67185829  0.70841916  1
  Te2-  Te186  1  0.58512815  0.17478811  0.70886654  1
  Te2-  Te187  1  0.58242043  0.67178439  0.70910167  1
  Te2-  Te188  1  0.08883548  0.41340378  0.70932598  1
  Te2-  Te189  1  0.08815451  0.91443826  0.70686338  1
  Te2-  Te190  1  0.58409947  0.41061157  0.70916807  1
  Te2-  Te191  1  0.58298401  0.91196798  0.70967575  1
  Te2-  Te192  1  0.15927766  0.07900823  0.04395450  1
  Te2-  Te193  1  0.16151997  0.58171893  0.04672157  1
  Te2-  Te194  1  0.65885926  0.07896856  0.04589314  1
  Te2-  Te195  1  0.66032414  0.57820270  0.04334042  1
  Te2-  Te196  1  0.41909717  0.33952354  0.03992376  1
  Te2-  Te197  1  0.41806393  0.83830944  0.04159108  1
  Te2-  Te198  1  0.91905025  0.33946232  0.04964995  1
  Te2-  Te199  1  0.91939130  0.83661327  0.04585588  1
  Te2-  Te200  1  0.41673113  0.07777525  0.04305616  1
  Te2-  Te201  1  0.41798857  0.57909988  0.03996013  1
  Te2-  Te202  1  0.91856545  0.08093802  0.04643409  1
  Te2-  Te203  1  0.92011920  0.57853657  0.04863680  1
  Te2-  Te204  1  0.49303464  0.24727469  0.37729623  1
  Te2-  Te205  1  0.49680850  0.74727049  0.37736870  1
  Te2-  Te206  1  0.99359478  0.24685279  0.37734394  1
  Te2-  Te207  1  0.99427835  0.74992136  0.37990043  1
  Te2-  Te208  1  0.25407409  0.00576394  0.37578048  1
  Te2-  Te209  1  0.25553607  0.50847227  0.37495988  1
  Te2-  Te210  1  0.75410748  0.00492058  0.37978660  1
  Te2-  Te211  1  0.74955825  0.50563126  0.38194707  1
  Te2-  Te212  1  0.25328005  0.25022771  0.37637557  1
  Te2-  Te213  1  0.25344445  0.74860268  0.37533944  1
  Te2-  Te214  1  0.75317675  0.24427613  0.37924316  1
  Te2-  Te215  1  0.75377266  0.74763712  0.38173565  1
