# generated using pymatgen
data_Ti(CuTe)4
_symmetry_space_group_name_H-M   'P 1'
_cell_length_a   16.88977584
_cell_length_b   16.88784543
_cell_length_c   20.71142768
_cell_angle_alpha   89.97901252
_cell_angle_beta   90.03219135
_cell_angle_gamma   120.01413551
_symmetry_Int_Tables_number   1
_chemical_formula_structural   Ti(CuTe)4
_chemical_formula_sum   'Ti24 Cu96 Te96'
_cell_volume   5115.36762975
_cell_formula_units_Z   24
loop_
 _symmetry_equiv_pos_site_id
 _symmetry_equiv_pos_as_xyz
  1  'x, y, z'
loop_
 _atom_type_symbol
 _atom_type_oxidation_number
  Ti4+  4.0
  Cu+  1.0
  Te2-  -2.0
loop_
 _atom_site_type_symbol
 _atom_site_label
 _atom_site_symmetry_multiplicity
 _atom_site_fract_x
 _atom_site_fract_y
 _atom_site_fract_z
 _atom_site_occupancy
  Ti4+  Ti0  1  -0.00181932  -0.00449002  0.25485639  1
  Ti4+  Ti1  1  -0.00036172  0.49549986  0.25928848  1
  Ti4+  Ti2  1  0.50061988  0.00067834  0.25665962  1
  Ti4+  Ti3  1  0.49668341  0.49692930  0.25689559  1
  Ti4+  Ti4  1  0.33574773  0.16415079  0.59150078  1
  Ti4+  Ti5  1  0.33360234  0.66810025  0.59244917  1
  Ti4+  Ti6  1  0.83463436  0.16859195  0.59164535  1
  Ti4+  Ti7  1  0.83342593  0.66631219  0.59185036  1
  Ti4+  Ti8  1  0.16788526  0.33606372  0.92131377  1
  Ti4+  Ti9  1  0.16450939  0.83214100  0.92475652  1
  Ti4+  Ti10  1  0.66494848  0.33566875  0.92680344  1
  Ti4+  Ti11  1  0.66698006  0.83757681  0.92282842  1
  Ti4+  Ti12  1  0.00027830  0.00204177  0.75408802  1
  Ti4+  Ti13  1  0.00102029  0.50277050  0.75607762  1
  Ti4+  Ti14  1  0.50179050  0.00024290  0.75757492  1
  Ti4+  Ti15  1  0.49919485  0.49808691  0.75465833  1
  Ti4+  Ti16  1  0.33264648  0.16614616  0.08715442  1
  Ti4+  Ti17  1  0.33216895  0.66510080  0.09037050  1
  Ti4+  Ti18  1  0.83356085  0.16758183  0.08744442  1
  Ti4+  Ti19  1  0.83308449  0.66843532  0.08773664  1
  Ti4+  Ti20  1  0.16470939  0.33173857  0.42387628  1
  Ti4+  Ti21  1  0.16888192  0.83293752  0.42259176  1
  Ti4+  Ti22  1  0.66591197  0.33175134  0.42282595  1
  Ti4+  Ti23  1  0.66677761  0.83155693  0.42257481  1
  Cu+  Cu24  1  0.90578102  0.09779116  0.80615120  1
  Cu+  Cu25  1  0.23831621  0.97624876  0.13994861  1
  Cu+  Cu26  1  0.18384011  0.59889778  0.80864345  1
  Cu+  Cu27  1  0.51127583  0.25809958  0.14666887  1
  Cu+  Cu28  1  0.41338261  0.59643536  0.80779120  1
  Cu+  Cu29  1  0.90405346  0.59571280  0.80741662  1
  Cu+  Cu30  1  0.73921909  0.97846684  0.14027921  1
  Cu+  Cu31  1  0.23585388  0.47170699  0.13983121  1
  Cu+  Cu32  1  0.07232345  0.42860592  0.47822209  1
  Cu+  Cu33  1  0.40567551  0.30955119  0.80645270  1
  Cu+  Cu34  1  0.74571936  0.25982990  0.14479940  1
  Cu+  Cu35  1  0.36010506  0.92887971  0.47465207  1
  Cu+  Cu36  1  0.16284748  0.07557199  0.16865080  1
  Cu+  Cu37  1  0.16488984  0.57367182  0.17311924  1
  Cu+  Cu38  1  0.66451342  0.08204116  0.16813601  1
  Cu+  Cu39  1  0.66414093  0.58309475  0.16957235  1
  Cu+  Cu40  1  0.42034104  0.34043743  0.16899764  1
  Cu+  Cu41  1  0.41752854  0.83617298  0.17118059  1
  Cu+  Cu42  1  0.91937837  0.33852369  0.17095466  1
  Cu+  Cu43  1  0.91815548  0.83693909  0.16767840  1
  Cu+  Cu44  1  0.41597006  0.07978316  0.16843956  1
  Cu+  Cu45  1  0.41023915  0.57527952  0.17138431  1
  Cu+  Cu46  1  0.91440632  0.07634009  0.16811567  1
  Cu+  Cu47  1  0.91652300  0.58209848  0.17140930  1
  Cu+  Cu48  1  0.49702413  0.24735564  0.50495072  1
  Cu+  Cu49  1  0.49864991  0.74795389  0.50550019  1
  Cu+  Cu50  1  0.99685739  0.25245744  0.50557702  1
  Cu+  Cu51  1  0.99705245  0.74649680  0.50609162  1
  Cu+  Cu52  1  0.25857132  0.00180681  0.50423730  1
  Cu+  Cu53  1  0.24618317  0.50185679  0.50716149  1
  Cu+  Cu54  1  0.75267662  0.00136377  0.50603745  1
  Cu+  Cu55  1  0.75289211  0.50187840  0.50613904  1
  Cu+  Cu56  1  0.25217104  0.24727970  0.50673032  1
  Cu+  Cu57  1  0.25693858  0.75298420  0.50425939  1
  Cu+  Cu58  1  0.75096867  0.24719826  0.50500652  1
  Cu+  Cu59  1  0.75187531  0.74709906  0.50512240  1
  Cu+  Cu60  1  0.33216491  0.41697786  0.83402815  1
  Cu+  Cu61  1  0.33165275  0.91654928  0.84003649  1
  Cu+  Cu62  1  0.83161748  0.42194558  0.83988452  1
  Cu+  Cu63  1  0.83198015  0.92386666  0.83596238  1
  Cu+  Cu64  1  0.08072290  0.17149076  0.83427901  1
  Cu+  Cu65  1  0.08276077  0.67165495  0.83750135  1
  Cu+  Cu66  1  0.58515481  0.17029863  0.84105548  1
  Cu+  Cu67  1  0.58411217  0.67219976  0.83675913  1
  Cu+  Cu68  1  0.09235840  0.42311241  0.83427888  1
  Cu+  Cu69  1  0.08430641  0.91558972  0.83752923  1
  Cu+  Cu70  1  0.57932275  0.40955234  0.83729742  1
  Cu+  Cu71  1  0.58688023  0.91733506  0.83752989  1
  Cu+  Cu72  1  0.17105886  0.08331773  0.67346655  1
  Cu+  Cu73  1  0.16929840  0.58624697  0.67964004  1
  Cu+  Cu74  1  0.66970822  0.08420416  0.67590014  1
  Cu+  Cu75  1  0.66931523  0.58237731  0.67438931  1
  Cu+  Cu76  1  0.41626268  0.32690596  0.67852464  1
  Cu+  Cu77  1  0.41798903  0.83330603  0.67766412  1
  Cu+  Cu78  1  0.91663980  0.33315266  0.67557904  1
  Cu+  Cu79  1  0.91612799  0.83115810  0.67424115  1
  Cu+  Cu80  1  0.41869401  0.08345089  0.67612643  1
  Cu+  Cu81  1  0.41406012  0.58336312  0.67843653  1
  Cu+  Cu82  1  0.91650156  0.08789647  0.67730149  1
  Cu+  Cu83  1  0.91431461  0.58610010  0.67945030  1
  Cu+  Cu84  1  0.00159518  0.25388901  0.00575219  1
  Cu+  Cu85  1  -0.00041858  0.75010715  0.00881139  1
  Cu+  Cu86  1  0.50140000  0.25207040  0.01546411  1
  Cu+  Cu87  1  0.50143198  0.75319758  0.00853895  1
  Cu+  Cu88  1  0.24996160  0.49854533  0.01198153  1
  Cu+  Cu89  1  0.24649264  0.99481111  0.01160264  1
  Cu+  Cu90  1  0.74810690  0.50081706  0.00891834  1
  Cu+  Cu91  1  0.75010987  1.00022110  0.01115862  1
  Cu+  Cu92  1  0.24972981  0.25192602  0.00519696  1
  Cu+  Cu93  1  0.24726497  0.74980870  0.00997834  1
  Cu+  Cu94  1  0.74959827  0.25602944  0.01456564  1
  Cu+  Cu95  1  0.75009270  0.75562227  0.00537890  1
  Cu+  Cu96  1  0.33379242  0.41521801  0.34216337  1
  Cu+  Cu97  1  0.33628311  0.91803748  0.34619776  1
  Cu+  Cu98  1  0.83418932  0.41481774  0.34395065  1
  Cu+  Cu99  1  0.83385170  0.91436302  0.34027615  1
  Cu+  Cu100  1  0.08005712  0.15887031  0.33882347  1
  Cu+  Cu101  1  0.08333882  0.66193608  0.34189776  1
  Cu+  Cu102  1  0.58204838  0.16603994  0.34257627  1
  Cu+  Cu103  1  0.58039566  0.66173473  0.34055294  1
  Cu+  Cu104  1  0.08042778  0.41463875  0.34790746  1
  Cu+  Cu105  1  0.08190470  0.91454227  0.34042570  1
  Cu+  Cu106  1  0.58147155  0.41685675  0.34213785  1
  Cu+  Cu107  1  0.58377275  0.91658800  0.34223294  1
  Cu+  Cu108  1  0.00190411  0.00395731  0.11028792  1
  Cu+  Cu109  1  0.00247365  0.50678644  0.11713401  1
  Cu+  Cu110  1  0.49958796  -0.00252015  0.11232096  1
  Cu+  Cu111  1  0.50330488  0.50676379  0.11402676  1
  Cu+  Cu112  1  0.33071091  0.16651594  0.44836548  1
  Cu+  Cu113  1  0.33590896  0.66443097  0.44935169  1
  Cu+  Cu114  1  0.83142413  0.16215733  0.44885110  1
  Cu+  Cu115  1  0.83426439  0.66571470  0.44920007  1
  Cu+  Cu116  1  0.16716824  0.33334603  0.77673567  1
  Cu+  Cu117  1  0.17033239  0.83985605  0.78173203  1
  Cu+  Cu118  1  0.66934930  0.33173539  0.78389815  1
  Cu+  Cu119  1  0.67046199  0.83189755  0.77894263  1
  Te2-  Te120  1  -0.00165346  -0.00460911  0.38383148  1
  Te2-  Te121  1  -0.00154781  0.49920479  0.38960262  1
  Te2-  Te122  1  0.50404514  0.00136459  0.38648250  1
  Te2-  Te123  1  0.49815791  0.49802908  0.38590325  1
  Te2-  Te124  1  0.33295031  0.16118368  0.72254285  1
  Te2-  Te125  1  0.33509475  0.66961829  0.72476909  1
  Te2-  Te126  1  0.83302618  0.17010708  0.72240412  1
  Te2-  Te127  1  0.83113436  0.66916120  0.72336166  1
  Te2-  Te128  1  0.16496506  0.33034204  0.05153171  1
  Te2-  Te129  1  0.16289080  0.82876550  0.05544572  1
  Te2-  Te130  1  0.66703123  0.33861272  0.05900191  1
  Te2-  Te131  1  0.66561555  0.83352321  0.05328470  1
  Te2-  Te132  1  0.49096971  0.24357804  0.88726836  1
  Te2-  Te133  1  0.49269788  0.75083821  0.88296805  1
  Te2-  Te134  1  0.99534487  0.25531123  0.88002517  1
  Te2-  Te135  1  0.99110320  0.74834896  0.88313831  1
  Te2-  Te136  1  0.25084829  0.00364039  0.88466915  1
  Te2-  Te137  1  0.25850163  0.51258434  0.88425711  1
  Te2-  Te138  1  0.75279566  0.01220109  0.88426730  1
  Te2-  Te139  1  0.74738742  0.50774192  0.88304678  1
  Te2-  Te140  1  0.24993754  0.24641454  0.87930349  1
  Te2-  Te141  1  0.25411375  0.74848544  0.88421310  1
  Te2-  Te142  1  0.75341611  0.25386499  0.88641454  1
  Te2-  Te143  1  0.75282714  0.75368792  0.87903431  1
  Te2-  Te144  1  0.32177896  0.40603477  0.21652358  1
  Te2-  Te145  1  0.32723392  0.91241914  0.21834835  1
  Te2-  Te146  1  0.82624457  0.41439668  0.21800781  1
  Te2-  Te147  1  0.82344653  0.90782269  0.21464054  1
  Te2-  Te148  1  0.08387757  0.16617911  0.21234142  1
  Te2-  Te149  1  0.08575347  0.66504858  0.21542742  1
  Te2-  Te150  1  0.58752600  0.17580701  0.21615363  1
  Te2-  Te151  1  0.58023207  0.66734767  0.21420315  1
  Te2-  Te152  1  0.08375197  0.40542776  0.22009082  1
  Te2-  Te153  1  0.08417403  0.90677399  0.21481218  1
  Te2-  Te154  1  0.58951205  0.41581154  0.21627911  1
  Te2-  Te155  1  0.58537231  0.91292982  0.21573855  1
  Te2-  Te156  1  0.16525835  0.07764606  0.54773046  1
  Te2-  Te157  1  0.16049989  0.58579242  0.55234068  1
  Te2-  Te158  1  0.66308005  0.08018459  0.55013394  1
  Te2-  Te159  1  0.66204625  0.57919499  0.54917824  1
  Te2-  Te160  1  0.41982328  0.33634934  0.55184616  1
  Te2-  Te161  1  0.42476161  0.84130425  0.55141727  1
  Te2-  Te162  1  0.91793606  0.34291236  0.55041908  1
  Te2-  Te163  1  0.91990141  0.83756999  0.54880124  1
  Te2-  Te164  1  0.42692116  0.08112100  0.55065694  1
  Te2-  Te165  1  0.41529416  0.58015540  0.55107178  1
  Te2-  Te166  1  0.92109178  0.08418971  0.55039298  1
  Te2-  Te167  1  0.91966596  0.57996009  0.55300295  1
  Te2-  Te168  1  0.00122097  0.00276901  0.88092331  1
  Te2-  Te169  1  0.00185725  0.50114687  0.88348143  1
  Te2-  Te170  1  0.50105469  0.00077710  0.88375209  1
  Te2-  Te171  1  0.50103662  0.50195016  0.88208644  1
  Te2-  Te172  1  0.33323624  0.16816290  0.21441315  1
  Te2-  Te173  1  0.33417881  0.66754745  0.21714449  1
  Te2-  Te174  1  0.83501743  0.16647750  0.21474022  1
  Te2-  Te175  1  0.83279170  0.66761668  0.21385537  1
  Te2-  Te176  1  0.16677746  0.33156612  0.55055041  1
  Te2-  Te177  1  0.16704883  0.83248241  0.54934955  1
  Te2-  Te178  1  0.66667802  0.33230564  0.54902378  1
  Te2-  Te179  1  0.66782988  0.83221052  0.54884501  1
  Te2-  Te180  1  0.32615127  0.41076473  0.70701555  1
  Te2-  Te181  1  0.32953588  0.91434966  0.71339221  1
  Te2-  Te182  1  0.82752576  0.41377905  0.71256312  1
  Te2-  Te183  1  0.82847035  0.91449087  0.70847449  1
  Te2-  Te184  1  0.08970558  0.17339045  0.70739333  1
  Te2-  Te185  1  0.08740326  0.67672147  0.71035609  1
  Te2-  Te186  1  0.58797599  0.17209755  0.71414986  1
  Te2-  Te187  1  0.58710106  0.67114143  0.70924299  1
  Te2-  Te188  1  0.08618594  0.41413552  0.70867524  1
  Te2-  Te189  1  0.08551028  0.91433778  0.71134228  1
  Te2-  Te190  1  0.58841470  0.41311335  0.71122803  1
  Te2-  Te191  1  0.58811843  0.91455511  0.71219434  1
  Te2-  Te192  1  0.16035364  0.08185234  0.04119056  1
  Te2-  Te193  1  0.15966941  0.57985105  0.04546902  1
  Te2-  Te194  1  0.65943369  0.08217800  0.04128038  1
  Te2-  Te195  1  0.66148128  0.58493561  0.04278806  1
  Te2-  Te196  1  0.41775446  0.34136276  0.04287111  1
  Te2-  Te197  1  0.41700508  0.83749298  0.04518524  1
  Te2-  Te198  1  0.92234905  0.34269041  0.04456997  1
  Te2-  Te199  1  0.91928806  0.84046355  0.04223464  1
  Te2-  Te200  1  0.41936524  0.07835001  0.04172362  1
  Te2-  Te201  1  0.42172528  0.58306294  0.04397382  1
  Te2-  Te202  1  0.92251052  0.08407041  0.04095661  1
  Te2-  Te203  1  0.91791551  0.58029016  0.04473979  1
  Te2-  Te204  1  0.49331692  0.24688902  0.37881958  1
  Te2-  Te205  1  0.49505782  0.74615768  0.37857652  1
  Te2-  Te206  1  0.99300432  0.24153501  0.37828561  1
  Te2-  Te207  1  0.99647549  0.74516402  0.37930098  1
  Te2-  Te208  1  0.25156751  0.00557417  0.37715893  1
  Te2-  Te209  1  0.25314387  0.50429826  0.37948200  1
  Te2-  Te210  1  0.75354345  0.00328063  0.37865425  1
  Te2-  Te211  1  0.75226493  0.50383171  0.37939268  1
  Te2-  Te212  1  0.24933866  0.24526235  0.37938009  1
  Te2-  Te213  1  0.25370842  0.74475811  0.37761735  1
  Te2-  Te214  1  0.75191425  0.24495745  0.37892468  1
  Te2-  Te215  1  0.75083495  0.74451648  0.37825797  1
