# generated using pymatgen
data_Ti(CuTe)4
_symmetry_space_group_name_H-M   'P 1'
_cell_length_a   16.88946443
_cell_length_b   16.89316010
_cell_length_c   20.71440317
_cell_angle_alpha   90.02934169
_cell_angle_beta   89.98684511
_cell_angle_gamma   119.99877451
_symmetry_Int_Tables_number   1
_chemical_formula_structural   Ti(CuTe)4
_chemical_formula_sum   'Ti24 Cu96 Te96'
_cell_volume   5118.41079203
_cell_formula_units_Z   24
loop_
 _symmetry_equiv_pos_site_id
 _symmetry_equiv_pos_as_xyz
  1  'x, y, z'
loop_
 _atom_type_symbol
 _atom_type_oxidation_number
  Ti4+  4.0
  Cu+  1.0
  Te2-  -2.0
loop_
 _atom_site_type_symbol
 _atom_site_label
 _atom_site_symmetry_multiplicity
 _atom_site_fract_x
 _atom_site_fract_y
 _atom_site_fract_z
 _atom_site_occupancy
  Ti4+  Ti0  1  -0.00118848  -0.00040270  0.25529654  1
  Ti4+  Ti1  1  -0.00522932  0.49825531  0.25666768  1
  Ti4+  Ti2  1  0.49702875  -0.00362776  0.25598522  1
  Ti4+  Ti3  1  0.49930070  0.50085970  0.25951575  1
  Ti4+  Ti4  1  0.33722062  0.16751969  0.59053031  1
  Ti4+  Ti5  1  0.33539867  0.66640858  0.59263770  1
  Ti4+  Ti6  1  0.83156934  0.16676227  0.58845743  1
  Ti4+  Ti7  1  0.83629582  0.66692341  0.59390153  1
  Ti4+  Ti8  1  0.16902680  0.33432615  0.92055668  1
  Ti4+  Ti9  1  0.16855375  0.83491799  0.92656124  1
  Ti4+  Ti10  1  0.66666704  0.33616271  0.92703392  1
  Ti4+  Ti11  1  0.66723515  0.83275635  0.92551872  1
  Ti4+  Ti12  1  0.00164350  0.00147490  0.75439927  1
  Ti4+  Ti13  1  0.00092422  0.50043987  0.75642395  1
  Ti4+  Ti14  1  0.50085515  0.00021311  0.75854200  1
  Ti4+  Ti15  1  0.50149952  0.50042167  0.75389309  1
  Ti4+  Ti16  1  0.33289581  0.16678441  0.08854004  1
  Ti4+  Ti17  1  0.33309196  0.66686646  0.08796296  1
  Ti4+  Ti18  1  0.83269813  0.16690578  0.08680990  1
  Ti4+  Ti19  1  0.83293050  0.66652870  0.08776846  1
  Ti4+  Ti20  1  0.16837302  0.33505566  0.42124998  1
  Ti4+  Ti21  1  0.16474979  0.83271715  0.42307120  1
  Ti4+  Ti22  1  0.66589424  0.33095860  0.42213819  1
  Ti4+  Ti23  1  0.66508931  0.83331852  0.42334426  1
  Cu+  Cu24  1  0.73659054  0.25342899  0.14291933  1
  Cu+  Cu25  1  0.73637582  0.48414702  0.14492112  1
  Cu+  Cu26  1  0.57149361  0.14145143  0.47311001  1
  Cu+  Cu27  1  0.40984734  0.59311092  0.80896360  1
  Cu+  Cu28  1  0.35802236  0.42884149  0.47720738  1
  Cu+  Cu29  1  0.74396911  0.98381742  0.14241930  1
  Cu+  Cu30  1  0.85240260  0.42713877  0.47719719  1
  Cu+  Cu31  1  0.68779891  0.59439811  0.80880670  1
  Cu+  Cu32  1  0.23687038  0.98209101  0.14261959  1
  Cu+  Cu33  1  0.23585974  0.75246077  0.14223130  1
  Cu+  Cu34  1  0.51624903  0.75327179  0.14154429  1
  Cu+  Cu35  1  0.40977762  0.31507893  0.80662611  1
  Cu+  Cu36  1  0.16188753  0.07915939  0.16962590  1
  Cu+  Cu37  1  0.15979576  0.58171853  0.17006851  1
  Cu+  Cu38  1  0.66125215  0.07884003  0.16844157  1
  Cu+  Cu39  1  0.66112483  0.58102906  0.17164081  1
  Cu+  Cu40  1  0.41473437  0.33715340  0.17282831  1
  Cu+  Cu41  1  0.41682349  0.83414500  0.16680617  1
  Cu+  Cu42  1  0.91160244  0.33623520  0.16855295  1
  Cu+  Cu43  1  0.91821612  0.83807896  0.16768648  1
  Cu+  Cu44  1  0.41314692  0.07769253  0.16881518  1
  Cu+  Cu45  1  0.41893609  0.58250094  0.17266161  1
  Cu+  Cu46  1  0.91652479  0.07878726  0.16857054  1
  Cu+  Cu47  1  0.91226163  0.57681808  0.16811151  1
  Cu+  Cu48  1  0.49684208  0.24231059  0.50336100  1
  Cu+  Cu49  1  0.49667845  0.74934920  0.50632088  1
  Cu+  Cu50  1  0.99683761  0.24967819  0.50210839  1
  Cu+  Cu51  1  0.99814374  0.74852159  0.50618555  1
  Cu+  Cu52  1  0.25338500  0.00177675  0.50404693  1
  Cu+  Cu53  1  0.25754749  0.50325101  0.50454421  1
  Cu+  Cu54  1  0.74926928  0.00334513  0.50310447  1
  Cu+  Cu55  1  0.75680396  0.50477134  0.50663748  1
  Cu+  Cu56  1  0.25780152  0.25512642  0.50406937  1
  Cu+  Cu57  1  0.25088748  0.74922891  0.50638209  1
  Cu+  Cu58  1  0.75053924  0.24633874  0.50133206  1
  Cu+  Cu59  1  0.75103714  0.74978151  0.50833252  1
  Cu+  Cu60  1  0.32908484  0.41428763  0.83253227  1
  Cu+  Cu61  1  0.33146973  0.91614976  0.84156879  1
  Cu+  Cu62  1  0.83242470  0.41865498  0.84060909  1
  Cu+  Cu63  1  0.83333776  0.91827101  0.83768506  1
  Cu+  Cu64  1  0.08761176  0.17056330  0.83375126  1
  Cu+  Cu65  1  0.08794980  0.67022657  0.84017721  1
  Cu+  Cu66  1  0.58538306  0.16942509  0.84150826  1
  Cu+  Cu67  1  0.58674669  0.67172580  0.83598194  1
  Cu+  Cu68  1  0.08609174  0.41656611  0.83556422  1
  Cu+  Cu69  1  0.08811865  0.91912312  0.83905853  1
  Cu+  Cu70  1  0.58758696  0.41721841  0.83693653  1
  Cu+  Cu71  1  0.58440303  0.91471638  0.84042902  1
  Cu+  Cu72  1  0.17102550  0.08591121  0.67282841  1
  Cu+  Cu73  1  0.17055977  0.58402120  0.67490956  1
  Cu+  Cu74  1  0.66771283  0.08444859  0.67477629  1
  Cu+  Cu75  1  0.67381607  0.58622679  0.67977089  1
  Cu+  Cu76  1  0.41835387  0.33071278  0.67752815  1
  Cu+  Cu77  1  0.41627135  0.83087130  0.67772256  1
  Cu+  Cu78  1  0.91290195  0.33102896  0.67370284  1
  Cu+  Cu79  1  0.91711590  0.83189619  0.67733680  1
  Cu+  Cu80  1  0.41824119  0.08404817  0.67737617  1
  Cu+  Cu81  1  0.41709294  0.58489497  0.67932923  1
  Cu+  Cu82  1  0.91467253  0.08487578  0.67189294  1
  Cu+  Cu83  1  0.91761288  0.58438665  0.67809643  1
  Cu+  Cu84  1  0.00523392  0.25308894  0.00380570  1
  Cu+  Cu85  1  0.00289674  0.75220154  0.00794671  1
  Cu+  Cu86  1  0.50138668  0.25492893  0.00980196  1
  Cu+  Cu87  1  0.50303436  0.74904216  0.01310871  1
  Cu+  Cu88  1  0.24989682  0.49747296  0.00525805  1
  Cu+  Cu89  1  0.24979557  0.99800244  0.01323763  1
  Cu+  Cu90  1  0.74825125  0.49911021  0.01470777  1
  Cu+  Cu91  1  0.74860373  0.99719420  0.01274520  1
  Cu+  Cu92  1  0.25113892  0.25337983  0.00496817  1
  Cu+  Cu93  1  0.24883267  0.75189758  0.01326799  1
  Cu+  Cu94  1  0.74987304  0.25512498  0.01402134  1
  Cu+  Cu95  1  0.74966273  0.75020724  0.00819142  1
  Cu+  Cu96  1  0.33732016  0.42079514  0.34689561  1
  Cu+  Cu97  1  0.33022150  0.91397837  0.34228511  1
  Cu+  Cu98  1  0.83212452  0.41603665  0.34697907  1
  Cu+  Cu99  1  0.83451534  0.91764810  0.34124208  1
  Cu+  Cu100  1  0.08188672  0.16369604  0.33804935  1
  Cu+  Cu101  1  0.07802930  0.66412147  0.34234103  1
  Cu+  Cu102  1  0.57889749  0.16127471  0.34488816  1
  Cu+  Cu103  1  0.58149385  0.66554089  0.34417391  1
  Cu+  Cu104  1  0.08054466  0.41824119  0.33959395  1
  Cu+  Cu105  1  0.08049898  0.91732388  0.34175915  1
  Cu+  Cu106  1  0.58143074  0.41681717  0.34397931  1
  Cu+  Cu107  1  0.58069640  0.91478491  0.34244772  1
  Cu+  Cu108  1  0.00091318  0.00214959  0.10996290  1
  Cu+  Cu109  1  0.00069979  0.49872580  0.11159949  1
  Cu+  Cu110  1  0.49906581  0.00030863  0.11088987  1
  Cu+  Cu111  1  0.49713879  0.49849399  0.11579956  1
  Cu+  Cu112  1  0.32583425  0.16266090  0.44748342  1
  Cu+  Cu113  1  0.32898391  0.66697178  0.45018653  1
  Cu+  Cu114  1  0.83701029  0.16479082  0.44387538  1
  Cu+  Cu115  1  0.83294816  0.67088039  0.45225963  1
  Cu+  Cu116  1  0.16169728  0.33102091  0.77574130  1
  Cu+  Cu117  1  0.16631983  0.83375178  0.78445122  1
  Cu+  Cu118  1  0.67052605  0.33048256  0.78422588  1
  Cu+  Cu119  1  0.67105318  0.83990914  0.78189368  1
  Te2-  Te120  1  -0.00074321  0.00087530  0.38411897  1
  Te2-  Te121  1  -0.00070869  0.49980754  0.38680717  1
  Te2-  Te122  1  0.49515383  -0.00603447  0.38574930  1
  Te2-  Te123  1  0.50322377  0.50199151  0.38993176  1
  Te2-  Te124  1  0.33386174  0.16467211  0.72078275  1
  Te2-  Te125  1  0.33338912  0.66696551  0.72328351  1
  Te2-  Te126  1  0.83272059  0.16659698  0.71723678  1
  Te2-  Te127  1  0.83893847  0.66904891  0.72470511  1
  Te2-  Te128  1  0.16794916  0.33385448  0.04983870  1
  Te2-  Te129  1  0.16399608  0.83235031  0.05941772  1
  Te2-  Te130  1  0.66311447  0.33352794  0.05942529  1
  Te2-  Te131  1  0.66880912  0.83155239  0.05770367  1
  Te2-  Te132  1  0.49435202  0.24797897  0.88377607  1
  Te2-  Te133  1  0.49394157  0.74689609  0.88568872  1
  Te2-  Te134  1  0.99784293  0.24850884  0.87833252  1
  Te2-  Te135  1  0.99863111  0.75017740  0.88232493  1
  Te2-  Te136  1  0.25449181  0.00648209  0.88649374  1
  Te2-  Te137  1  0.25387655  0.50841541  0.88002652  1
  Te2-  Te138  1  0.75196895  0.00332290  0.88540232  1
  Te2-  Te139  1  0.75525290  0.50927947  0.88692555  1
  Te2-  Te140  1  0.25464514  0.24587177  0.87961005  1
  Te2-  Te141  1  0.25452092  0.74894971  0.88680090  1
  Te2-  Te142  1  0.75281284  0.25153925  0.88685636  1
  Te2-  Te143  1  0.75608246  0.74933563  0.88232259  1
  Te2-  Te144  1  0.32798667  0.41670573  0.21956860  1
  Te2-  Te145  1  0.32212287  0.90865079  0.21586857  1
  Te2-  Te146  1  0.81772693  0.40942000  0.21879528  1
  Te2-  Te147  1  0.82410677  0.90917606  0.21549336  1
  Te2-  Te148  1  0.08442362  0.17022034  0.21209999  1
  Te2-  Te149  1  0.07870372  0.67097303  0.21604947  1
  Te2-  Te150  1  0.58053804  0.16859927  0.21695681  1
  Te2-  Te151  1  0.58904104  0.67447819  0.21842005  1
  Te2-  Te152  1  0.08005328  0.41388243  0.21330518  1
  Te2-  Te153  1  0.08288964  0.90907571  0.21598209  1
  Te2-  Te154  1  0.58214675  0.41043514  0.21812976  1
  Te2-  Te155  1  0.58547754  0.90986490  0.21593563  1
  Te2-  Te156  1  0.16787947  0.08548529  0.54663975  1
  Te2-  Te157  1  0.16545513  0.57998619  0.54886725  1
  Te2-  Te158  1  0.65698269  0.07731938  0.54899994  1
  Te2-  Te159  1  0.66527046  0.58079911  0.55249737  1
  Te2-  Te160  1  0.42787888  0.34088937  0.55030184  1
  Te2-  Te161  1  0.41858784  0.83786478  0.55171977  1
  Te2-  Te162  1  0.92063625  0.34057324  0.54784747  1
  Te2-  Te163  1  0.91992480  0.83748405  0.55136991  1
  Te2-  Te164  1  0.41977474  0.07564369  0.55122209  1
  Te2-  Te165  1  0.42590677  0.58252320  0.55229638  1
  Te2-  Te166  1  0.91766733  0.08182006  0.54598923  1
  Te2-  Te167  1  0.92557663  0.58202931  0.55233392  1
  Te2-  Te168  1  0.00253480  0.00340687  0.88064302  1
  Te2-  Te169  1  0.00227916  0.50054382  0.88261184  1
  Te2-  Te170  1  0.50120200  0.00043961  0.88476296  1
  Te2-  Te171  1  0.49905783  0.50057544  0.88182214  1
  Te2-  Te172  1  0.33174141  0.16619926  0.21534243  1
  Te2-  Te173  1  0.32991559  0.66501527  0.21555940  1
  Te2-  Te174  1  0.83242696  0.16556060  0.21433745  1
  Te2-  Te175  1  0.83277409  0.66779517  0.21454294  1
  Te2-  Te176  1  0.16615408  0.33320842  0.54803365  1
  Te2-  Te177  1  0.16737375  0.83414272  0.54942484  1
  Te2-  Te178  1  0.66761685  0.33306874  0.54919330  1
  Te2-  Te179  1  0.66688988  0.83536253  0.54954699  1
  Te2-  Te180  1  0.32709491  0.41203848  0.70630294  1
  Te2-  Te181  1  0.32915619  0.91403593  0.71492078  1
  Te2-  Te182  1  0.82832555  0.41463318  0.71379392  1
  Te2-  Te183  1  0.82952753  0.91554910  0.71105434  1
  Te2-  Te184  1  0.08583150  0.17150333  0.70717240  1
  Te2-  Te185  1  0.08876331  0.67230062  0.71328798  1
  Te2-  Te186  1  0.58711889  0.17190816  0.71460004  1
  Te2-  Te187  1  0.58981921  0.67538300  0.70936866  1
  Te2-  Te188  1  0.08414083  0.41364822  0.70909437  1
  Te2-  Te189  1  0.08859224  0.91613124  0.71197411  1
  Te2-  Te190  1  0.59006276  0.41360718  0.71029722  1
  Te2-  Te191  1  0.58646533  0.91484209  0.71357015  1
  Te2-  Te192  1  0.16167876  0.08326639  0.04214705  1
  Te2-  Te193  1  0.16079656  0.57856979  0.04248625  1
  Te2-  Te194  1  0.65882740  0.08096522  0.04097597  1
  Te2-  Te195  1  0.65816401  0.58150584  0.04467751  1
  Te2-  Te196  1  0.41800516  0.33991850  0.04628285  1
  Te2-  Te197  1  0.42173847  0.84098670  0.04055814  1
  Te2-  Te198  1  0.92276189  0.33994868  0.04190287  1
  Te2-  Te199  1  0.91996673  0.83941535  0.04237765  1
  Te2-  Te200  1  0.42266591  0.08381006  0.04247114  1
  Te2-  Te201  1  0.41775585  0.57752155  0.04508096  1
  Te2-  Te202  1  0.92187337  0.08344563  0.04138560  1
  Te2-  Te203  1  0.92192063  0.58195791  0.04215003  1
  Te2-  Te204  1  0.49178626  0.24624914  0.37749179  1
  Te2-  Te205  1  0.49217249  0.74591503  0.38016644  1
  Te2-  Te206  1  0.99693464  0.24846047  0.37557264  1
  Te2-  Te207  1  0.99242954  0.74768663  0.37978792  1
  Te2-  Te208  1  0.25059360  0.00404139  0.37740742  1
  Te2-  Te209  1  0.25071176  0.50747716  0.37692853  1
  Te2-  Te210  1  0.75097805  0.00411534  0.37667704  1
  Te2-  Te211  1  0.75084278  0.50605883  0.37984252  1
  Te2-  Te212  1  0.25189406  0.24687505  0.37607378  1
  Te2-  Te213  1  0.24837394  0.74460882  0.37887121  1
  Te2-  Te214  1  0.75156687  0.24316412  0.37435395  1
  Te2-  Te215  1  0.75191293  0.74824464  0.38075934  1
