# generated using pymatgen
data_Ti(CuTe)4
_symmetry_space_group_name_H-M   'P 1'
_cell_length_a   16.87232021
_cell_length_b   16.87054341
_cell_length_c   20.68482862
_cell_angle_alpha   90.04070902
_cell_angle_beta   89.95876908
_cell_angle_gamma   119.98438886
_symmetry_Int_Tables_number   1
_chemical_formula_structural   Ti(CuTe)4
_chemical_formula_sum   'Ti24 Cu96 Te96'
_cell_volume   5099.81694808
_cell_formula_units_Z   24
loop_
 _symmetry_equiv_pos_site_id
 _symmetry_equiv_pos_as_xyz
  1  'x, y, z'
loop_
 _atom_type_symbol
 _atom_type_oxidation_number
  Ti4+  4.0
  Cu+  1.0
  Te2-  -2.0
loop_
 _atom_site_type_symbol
 _atom_site_label
 _atom_site_symmetry_multiplicity
 _atom_site_fract_x
 _atom_site_fract_y
 _atom_site_fract_z
 _atom_site_occupancy
  Ti4+  Ti0  1  -0.00448076  -0.00631519  0.25658461  1
  Ti4+  Ti1  1  0.00121460  0.49754895  0.25663332  1
  Ti4+  Ti2  1  0.49956715  -0.00035057  0.25773200  1
  Ti4+  Ti3  1  0.49771917  0.49600070  0.25982914  1
  Ti4+  Ti4  1  0.33641507  0.16814343  0.58992322  1
  Ti4+  Ti5  1  0.33332369  0.66744123  0.58938421  1
  Ti4+  Ti6  1  0.83256433  0.16685691  0.59188328  1
  Ti4+  Ti7  1  0.83201870  0.66568831  0.59420463  1
  Ti4+  Ti8  1  0.16660300  0.33331499  0.92266270  1
  Ti4+  Ti9  1  0.16883715  0.83821425  0.92406571  1
  Ti4+  Ti10  1  0.66661668  0.33529377  0.92832640  1
  Ti4+  Ti11  1  0.66998454  0.83501645  0.92400512  1
  Ti4+  Ti12  1  0.00120611  0.00294673  0.75288391  1
  Ti4+  Ti13  1  -0.00056603  0.50043180  0.75461429  1
  Ti4+  Ti14  1  0.49953042  0.00091800  0.75813484  1
  Ti4+  Ti15  1  0.50118680  0.50046729  0.75697242  1
  Ti4+  Ti16  1  0.33503453  0.16821633  0.09089252  1
  Ti4+  Ti17  1  0.33071868  0.66415895  0.08904650  1
  Ti4+  Ti18  1  0.83232311  0.16562024  0.08797580  1
  Ti4+  Ti19  1  0.83446452  0.66986308  0.08925535  1
  Ti4+  Ti20  1  0.16657783  0.33216084  0.42134479  1
  Ti4+  Ti21  1  0.16706464  0.83332698  0.42245757  1
  Ti4+  Ti22  1  0.66481219  0.33231723  0.42082818  1
  Ti4+  Ti23  1  0.66493276  0.83187277  0.42306600  1
  Cu+  Cu24  1  0.23615178  0.46903981  0.14001161  1
  Cu+  Cu25  1  0.18938797  0.09650694  0.80527945  1
  Cu+  Cu26  1  0.35063179  0.42854031  0.47622085  1
  Cu+  Cu27  1  0.57974208  0.42831649  0.47722116  1
  Cu+  Cu28  1  0.35236104  0.92358887  0.47540400  1
  Cu+  Cu29  1  0.90634993  0.09450876  0.80735192  1
  Cu+  Cu30  1  0.57982350  0.15061574  0.47387865  1
  Cu+  Cu31  1  0.52383235  0.26132832  0.14446922  1
  Cu+  Cu32  1  0.24074851  0.97733350  0.14110120  1
  Cu+  Cu33  1  0.91674000  0.82665333  0.81279086  1
  Cu+  Cu34  1  0.68568711  0.58822511  0.81130549  1
  Cu+  Cu35  1  0.73464430  0.97354268  0.13960690  1
  Cu+  Cu36  1  0.16244578  0.07451460  0.17067151  1
  Cu+  Cu37  1  0.16298238  0.57397042  0.16940268  1
  Cu+  Cu38  1  0.66412331  0.07781138  0.16984256  1
  Cu+  Cu39  1  0.66526268  0.58075418  0.17298256  1
  Cu+  Cu40  1  0.42298413  0.33687713  0.17235495  1
  Cu+  Cu41  1  0.41572897  0.83589006  0.17027625  1
  Cu+  Cu42  1  0.91931789  0.33827009  0.16957196  1
  Cu+  Cu43  1  0.91762707  0.83772842  0.16973049  1
  Cu+  Cu44  1  0.41836149  0.08309021  0.17240698  1
  Cu+  Cu45  1  0.40950220  0.57574004  0.17274897  1
  Cu+  Cu46  1  0.90983209  0.07451438  0.16962376  1
  Cu+  Cu47  1  0.91858399  0.58280501  0.17177785  1
  Cu+  Cu48  1  0.49660154  0.24840957  0.49920072  1
  Cu+  Cu49  1  0.49499432  0.74842462  0.50259071  1
  Cu+  Cu50  1  0.99570839  0.24743212  0.50527981  1
  Cu+  Cu51  1  0.99634424  0.74857510  0.50722345  1
  Cu+  Cu52  1  0.25487597  0.00272712  0.50362376  1
  Cu+  Cu53  1  0.25318870  0.50408968  0.50273527  1
  Cu+  Cu54  1  0.75136435  0.00212444  0.50576048  1
  Cu+  Cu55  1  0.75039921  0.50472669  0.50471610  1
  Cu+  Cu56  1  0.25377148  0.25137595  0.50291198  1
  Cu+  Cu57  1  0.25387055  0.75066020  0.50319556  1
  Cu+  Cu58  1  0.75103683  0.24614997  0.50327739  1
  Cu+  Cu59  1  0.74956647  0.74793088  0.50744901  1
  Cu+  Cu60  1  0.32974515  0.41675669  0.83779402  1
  Cu+  Cu61  1  0.33141829  0.91920314  0.83892267  1
  Cu+  Cu62  1  0.83116260  0.41614449  0.83847412  1
  Cu+  Cu63  1  0.82815679  0.91690380  0.83350765  1
  Cu+  Cu64  1  0.08626606  0.17230169  0.83256230  1
  Cu+  Cu65  1  0.08495531  0.66897690  0.83631387  1
  Cu+  Cu66  1  0.58172309  0.17012423  0.84295514  1
  Cu+  Cu67  1  0.58843243  0.66835982  0.83737116  1
  Cu+  Cu68  1  0.08703040  0.41882531  0.83603657  1
  Cu+  Cu69  1  0.09257356  0.91942142  0.83367446  1
  Cu+  Cu70  1  0.58625344  0.41601215  0.84145382  1
  Cu+  Cu71  1  0.58563624  0.91794163  0.83951258  1
  Cu+  Cu72  1  0.17280034  0.08760365  0.67609568  1
  Cu+  Cu73  1  0.16859478  0.58539286  0.67067839  1
  Cu+  Cu74  1  0.66733778  0.08514387  0.67662974  1
  Cu+  Cu75  1  0.66891126  0.58350337  0.68283741  1
  Cu+  Cu76  1  0.41763728  0.33458244  0.67716169  1
  Cu+  Cu77  1  0.41446648  0.83205129  0.67580940  1
  Cu+  Cu78  1  0.91519306  0.33176930  0.67396888  1
  Cu+  Cu79  1  0.91480792  0.83160652  0.68101717  1
  Cu+  Cu80  1  0.41779421  0.08428921  0.67665902  1
  Cu+  Cu81  1  0.41379192  0.58398903  0.67474348  1
  Cu+  Cu82  1  0.91545269  0.08770558  0.67826749  1
  Cu+  Cu83  1  0.91390079  0.58296975  0.67533734  1
  Cu+  Cu84  1  0.00052861  0.25145123  0.00566728  1
  Cu+  Cu85  1  0.00366646  0.75639636  0.00797567  1
  Cu+  Cu86  1  0.50566511  0.25684531  0.01588480  1
  Cu+  Cu87  1  0.50110163  0.75086502  0.00771821  1
  Cu+  Cu88  1  0.24695203  0.49509181  0.01124713  1
  Cu+  Cu89  1  0.24994218  0.99969503  0.01241404  1
  Cu+  Cu90  1  0.74886511  0.50077054  0.01154946  1
  Cu+  Cu91  1  0.74831374  0.99748161  0.01208057  1
  Cu+  Cu92  1  0.25128948  0.25234285  0.00677250  1
  Cu+  Cu93  1  0.24968441  0.75215159  0.00683909  1
  Cu+  Cu94  1  0.74891466  0.25285656  0.00968759  1
  Cu+  Cu95  1  0.75189464  0.75269286  0.01001103  1
  Cu+  Cu96  1  0.33363413  0.41334726  0.34672336  1
  Cu+  Cu97  1  0.33467218  0.91964757  0.34665324  1
  Cu+  Cu98  1  0.83707873  0.41898888  0.33997553  1
  Cu+  Cu99  1  0.83181382  0.91407980  0.34195938  1
  Cu+  Cu100  1  0.07669490  0.15829861  0.33801416  1
  Cu+  Cu101  1  0.08019025  0.66149063  0.33911995  1
  Cu+  Cu102  1  0.58263118  0.16475217  0.34528620  1
  Cu+  Cu103  1  0.58085168  0.66350239  0.34225895  1
  Cu+  Cu104  1  0.08060606  0.41517354  0.34098176  1
  Cu+  Cu105  1  0.07887911  0.91394024  0.34120575  1
  Cu+  Cu106  1  0.58189509  0.41638674  0.34845424  1
  Cu+  Cu107  1  0.58378952  0.91649949  0.34218349  1
  Cu+  Cu108  1  0.00309436  0.00690542  0.11227910  1
  Cu+  Cu109  1  -0.00023102  0.50472328  0.11269467  1
  Cu+  Cu110  1  0.49938694  -0.00075425  0.11335468  1
  Cu+  Cu111  1  0.50353756  0.50866029  0.11752783  1
  Cu+  Cu112  1  0.32693860  0.16349885  0.44536658  1
  Cu+  Cu113  1  0.33042767  0.66521935  0.44350372  1
  Cu+  Cu114  1  0.83525881  0.16492187  0.44827132  1
  Cu+  Cu115  1  0.83620344  0.67078265  0.45115921  1
  Cu+  Cu116  1  0.16783212  0.33804556  0.77822922  1
  Cu+  Cu117  1  0.17056953  0.82869202  0.78030455  1
  Cu+  Cu118  1  0.66810024  0.33007885  0.78520395  1
  Cu+  Cu119  1  0.65805339  0.83025744  0.78096577  1
  Te2-  Te120  1  -0.00343548  -0.00415255  0.38579920  1
  Te2-  Te121  1  0.00022831  0.49865202  0.38612340  1
  Te2-  Te122  1  0.50144106  -0.00149100  0.38942996  1
  Te2-  Te123  1  0.49970273  0.50048730  0.39171265  1
  Te2-  Te124  1  0.33794756  0.16951132  0.72046506  1
  Te2-  Te125  1  0.33158053  0.66663558  0.71847188  1
  Te2-  Te126  1  0.83146015  0.16913155  0.72252636  1
  Te2-  Te127  1  0.83552440  0.66658058  0.72615378  1
  Te2-  Te128  1  0.16375822  0.32828724  0.05313518  1
  Te2-  Te129  1  0.16731581  0.83306048  0.05443840  1
  Te2-  Te130  1  0.67155280  0.33771812  0.05907208  1
  Te2-  Te131  1  0.66474148  0.83048743  0.05413742  1
  Te2-  Te132  1  0.49466975  0.25038254  0.88853796  1
  Te2-  Te133  1  0.49993584  0.74863090  0.88162435  1
  Te2-  Te134  1  0.99407446  0.24989898  0.87967478  1
  Te2-  Te135  1  0.99657786  0.74906091  0.88172574  1
  Te2-  Te136  1  0.25789463  0.01248789  0.88459768  1
  Te2-  Te137  1  0.25245588  0.50540409  0.88411466  1
  Te2-  Te138  1  0.75335947  0.00889953  0.88446000  1
  Te2-  Te139  1  0.75698332  0.50807637  0.88576090  1
  Te2-  Te140  1  0.25548261  0.24872578  0.88094429  1
  Te2-  Te141  1  0.25206535  0.75077310  0.88115725  1
  Te2-  Te142  1  0.75116391  0.24931348  0.88385579  1
  Te2-  Te143  1  0.75829245  0.74791282  0.88346766  1
  Te2-  Te144  1  0.32496495  0.40587597  0.21878299  1
  Te2-  Te145  1  0.32652359  0.91244257  0.21854971  1
  Te2-  Te146  1  0.82919033  0.41449392  0.21457787  1
  Te2-  Te147  1  0.82087870  0.90625652  0.21615271  1
  Te2-  Te148  1  0.08033128  0.16328553  0.21172072  1
  Te2-  Te149  1  0.08775560  0.66818392  0.21315890  1
  Te2-  Te150  1  0.59008555  0.17184059  0.21746558  1
  Te2-  Te151  1  0.57979607  0.66490623  0.21592088  1
  Te2-  Te152  1  0.08432340  0.40584973  0.21545964  1
  Te2-  Te153  1  0.08296403  0.90621364  0.21573919  1
  Te2-  Te154  1  0.59034035  0.41467371  0.22083143  1
  Te2-  Te155  1  0.58221275  0.90937567  0.21642294  1
  Te2-  Te156  1  0.16663498  0.08316324  0.54868970  1
  Te2-  Te157  1  0.16302845  0.58220860  0.54502322  1
  Te2-  Te158  1  0.65905103  0.07753114  0.55054873  1
  Te2-  Te159  1  0.65865024  0.58098023  0.55468600  1
  Te2-  Te160  1  0.42327771  0.34353187  0.55017348  1
  Te2-  Te161  1  0.42301040  0.84178626  0.54975652  1
  Te2-  Te162  1  0.91765291  0.33785115  0.54816194  1
  Te2-  Te163  1  0.91725285  0.83678689  0.55292023  1
  Te2-  Te164  1  0.42448021  0.08066709  0.54988362  1
  Te2-  Te165  1  0.42273538  0.58271558  0.54909562  1
  Te2-  Te166  1  0.91856000  0.08077598  0.55100803  1
  Te2-  Te167  1  0.91667292  0.57986458  0.54982305  1
  Te2-  Te168  1  0.00085619  0.00146664  0.88070178  1
  Te2-  Te169  1  0.00080054  0.50111236  0.88128176  1
  Te2-  Te170  1  0.49939888  0.00039474  0.88477601  1
  Te2-  Te171  1  0.49877698  0.50026585  0.88403251  1
  Te2-  Te172  1  0.33093883  0.16570374  0.21820401  1
  Te2-  Te173  1  0.33121741  0.66654794  0.21614068  1
  Te2-  Te174  1  0.83387492  0.16753443  0.21476900  1
  Te2-  Te175  1  0.83472747  0.66790118  0.21563378  1
  Te2-  Te176  1  0.16623113  0.33392544  0.54842373  1
  Te2-  Te177  1  0.16661150  0.83326049  0.54961516  1
  Te2-  Te178  1  0.66641112  0.33293391  0.54851930  1
  Te2-  Te179  1  0.66399894  0.83279075  0.54949777  1
  Te2-  Te180  1  0.32868580  0.41528457  0.71163391  1
  Te2-  Te181  1  0.32778300  0.91491623  0.71200063  1
  Te2-  Te182  1  0.82642414  0.41312355  0.71164475  1
  Te2-  Te183  1  0.82522755  0.91501409  0.70777473  1
  Te2-  Te184  1  0.08901475  0.17665083  0.70559964  1
  Te2-  Te185  1  0.08533921  0.67188277  0.70909249  1
  Te2-  Te186  1  0.58636113  0.17323005  0.71480245  1
  Te2-  Te187  1  0.58402485  0.67261318  0.71045122  1
  Te2-  Te188  1  0.08610646  0.41581676  0.70906049  1
  Te2-  Te189  1  0.08873709  0.91527410  0.70709771  1
  Te2-  Te190  1  0.58656063  0.41113748  0.71401107  1
  Te2-  Te191  1  0.58467590  0.91488619  0.71253654  1
  Te2-  Te192  1  0.16268014  0.08367120  0.04347806  1
  Te2-  Te193  1  0.15955071  0.58119120  0.04180823  1
  Te2-  Te194  1  0.65933757  0.08160399  0.04289972  1
  Te2-  Te195  1  0.66104491  0.58263827  0.04608755  1
  Te2-  Te196  1  0.41895196  0.34234468  0.04646340  1
  Te2-  Te197  1  0.41842445  0.83747792  0.04446088  1
  Te2-  Te198  1  0.91937945  0.33911128  0.04390680  1
  Te2-  Te199  1  0.92162268  0.84341346  0.04443745  1
  Te2-  Te200  1  0.42219895  0.08253403  0.04432513  1
  Te2-  Te201  1  0.41949519  0.58071059  0.04430628  1
  Te2-  Te202  1  0.92084335  0.08189575  0.04176622  1
  Te2-  Te203  1  0.92076906  0.58498430  0.04409665  1
  Te2-  Te204  1  0.48895605  0.24330699  0.37359092  1
  Te2-  Te205  1  0.49279469  0.74605510  0.37669110  1
  Te2-  Te206  1  0.99444954  0.24498253  0.37796233  1
  Te2-  Te207  1  0.99462061  0.74503617  0.37968623  1
  Te2-  Te208  1  0.24887604  0.00582243  0.37636125  1
  Te2-  Te209  1  0.25128171  0.50467590  0.37509390  1
  Te2-  Te210  1  0.75268811  0.00457731  0.37895766  1
  Te2-  Te211  1  0.75513883  0.50660389  0.37769604  1
  Te2-  Te212  1  0.24685522  0.24035305  0.37541665  1
  Te2-  Te213  1  0.25086110  0.74562532  0.37531159  1
  Te2-  Te214  1  0.75512092  0.24886522  0.37637309  1
  Te2-  Te215  1  0.75041607  0.74451392  0.38025194  1
