# generated using pymatgen
data_Ti(CuTe)4
_symmetry_space_group_name_H-M   'P 1'
_cell_length_a   16.87590531
_cell_length_b   16.88209388
_cell_length_c   20.69236628
_cell_angle_alpha   90.00114411
_cell_angle_beta   90.04494083
_cell_angle_gamma   120.00678825
_symmetry_Int_Tables_number   1
_chemical_formula_structural   Ti(CuTe)4
_chemical_formula_sum   'Ti24 Cu96 Te96'
_cell_volume   5105.10038175
_cell_formula_units_Z   24
loop_
 _symmetry_equiv_pos_site_id
 _symmetry_equiv_pos_as_xyz
  1  'x, y, z'
loop_
 _atom_type_symbol
 _atom_type_oxidation_number
  Ti4+  4.0
  Cu+  1.0
  Te2-  -2.0
loop_
 _atom_site_type_symbol
 _atom_site_label
 _atom_site_symmetry_multiplicity
 _atom_site_fract_x
 _atom_site_fract_y
 _atom_site_fract_z
 _atom_site_occupancy
  Ti4+  Ti0  1  -0.00094893  -0.00261756  0.25836968  1
  Ti4+  Ti1  1  0.00187937  0.50306897  0.25953212  1
  Ti4+  Ti2  1  0.50192391  0.00120149  0.25854204  1
  Ti4+  Ti3  1  0.50058199  0.50055025  0.25849059  1
  Ti4+  Ti4  1  0.33248564  0.16721154  0.59070724  1
  Ti4+  Ti5  1  0.33279084  0.66638878  0.59354536  1
  Ti4+  Ti6  1  0.83391653  0.16596020  0.59108687  1
  Ti4+  Ti7  1  0.83678552  0.66930113  0.59367397  1
  Ti4+  Ti8  1  0.16414508  0.33293404  0.92229231  1
  Ti4+  Ti9  1  0.16477581  0.82889894  0.92336914  1
  Ti4+  Ti10  1  0.66096418  0.33132991  0.92053603  1
  Ti4+  Ti11  1  0.66795672  0.83568997  0.92600548  1
  Ti4+  Ti12  1  -0.00008351  0.00105840  0.75646037  1
  Ti4+  Ti13  1  0.00150597  0.50173770  0.75336010  1
  Ti4+  Ti14  1  0.49999593  -0.00016164  0.75291257  1
  Ti4+  Ti15  1  0.50142826  0.49893183  0.75363602  1
  Ti4+  Ti16  1  0.33254826  0.16598857  0.08874436  1
  Ti4+  Ti17  1  0.33337356  0.66678098  0.08920720  1
  Ti4+  Ti18  1  0.83141134  0.16559632  0.08784624  1
  Ti4+  Ti19  1  0.83594793  0.66787183  0.08866469  1
  Ti4+  Ti20  1  0.16759014  0.33356562  0.42199249  1
  Ti4+  Ti21  1  0.16646510  0.83284696  0.42466159  1
  Ti4+  Ti22  1  0.66800862  0.33406333  0.42246573  1
  Ti4+  Ti23  1  0.66889291  0.83506779  0.42497166  1
  Cu+  Cu24  1  0.90308467  0.81812607  0.81147203  1
  Cu+  Cu25  1  0.73692465  0.98158054  0.14301242  1
  Cu+  Cu26  1  0.18195264  0.58840369  0.80930197  1
  Cu+  Cu27  1  0.90488334  0.58764122  0.80972404  1
  Cu+  Cu28  1  0.39973740  0.08398352  0.80474868  1
  Cu+  Cu29  1  0.41411443  0.81687265  0.80883397  1
  Cu+  Cu30  1  0.90159379  0.09498959  0.80633058  1
  Cu+  Cu31  1  0.40087657  0.31375354  0.80624149  1
  Cu+  Cu32  1  0.74183642  0.75269438  0.14754602  1
  Cu+  Cu33  1  0.02526300  0.76275403  0.14301314  1
  Cu+  Cu34  1  0.07167919  0.92646820  0.47618871  1
  Cu+  Cu35  1  0.07212380  0.64442430  0.47772729  1
  Cu+  Cu36  1  0.16438252  0.08047814  0.17144366  1
  Cu+  Cu37  1  0.16452403  0.58366356  0.17276116  1
  Cu+  Cu38  1  0.66210884  0.07942086  0.17028378  1
  Cu+  Cu39  1  0.66037554  0.58072453  0.17103396  1
  Cu+  Cu40  1  0.41780939  0.33594926  0.17214386  1
  Cu+  Cu41  1  0.41917855  0.83754699  0.17138813  1
  Cu+  Cu42  1  0.91680705  0.33671793  0.17164465  1
  Cu+  Cu43  1  0.92176231  0.83741532  0.16960466  1
  Cu+  Cu44  1  0.41920933  0.08242846  0.17209800  1
  Cu+  Cu45  1  0.41899967  0.58292589  0.17126237  1
  Cu+  Cu46  1  0.91336251  0.07884736  0.16966523  1
  Cu+  Cu47  1  0.92638157  0.58787970  0.17099609  1
  Cu+  Cu48  1  0.49826949  0.24902102  0.50565932  1
  Cu+  Cu49  1  0.49970813  0.75274545  0.50835418  1
  Cu+  Cu50  1  0.99802932  0.24582587  0.50526955  1
  Cu+  Cu51  1  0.99771977  0.74908669  0.50670135  1
  Cu+  Cu52  1  0.24807494  0.00415163  0.50482873  1
  Cu+  Cu53  1  0.25023786  0.50239706  0.50529483  1
  Cu+  Cu54  1  0.75521383  0.00449595  0.50649678  1
  Cu+  Cu55  1  0.75309970  0.50169940  0.50575846  1
  Cu+  Cu56  1  0.25416122  0.25108580  0.50348130  1
  Cu+  Cu57  1  0.24832665  0.74393319  0.50730514  1
  Cu+  Cu58  1  0.75200064  0.24798516  0.50455451  1
  Cu+  Cu59  1  0.75505475  0.75303615  0.50745197  1
  Cu+  Cu60  1  0.33020914  0.41380735  0.83486103  1
  Cu+  Cu61  1  0.33054411  0.91157929  0.83429420  1
  Cu+  Cu62  1  0.82764773  0.41575672  0.83475242  1
  Cu+  Cu63  1  0.83087944  0.91936289  0.83989965  1
  Cu+  Cu64  1  0.07712835  0.16971967  0.83538431  1
  Cu+  Cu65  1  0.08427107  0.66932189  0.83411646  1
  Cu+  Cu66  1  0.57831883  0.16975328  0.83156915  1
  Cu+  Cu67  1  0.58638744  0.66888756  0.83696814  1
  Cu+  Cu68  1  0.08753590  0.41593317  0.83419853  1
  Cu+  Cu69  1  0.07893326  0.90866237  0.83560719  1
  Cu+  Cu70  1  0.57883594  0.40839378  0.83215723  1
  Cu+  Cu71  1  0.58669890  0.91480839  0.83621636  1
  Cu+  Cu72  1  0.16757270  0.08516618  0.67343812  1
  Cu+  Cu73  1  0.17111571  0.58574624  0.68091835  1
  Cu+  Cu74  1  0.66986970  0.08355574  0.67230592  1
  Cu+  Cu75  1  0.67082189  0.58577403  0.67477973  1
  Cu+  Cu76  1  0.41758619  0.33051284  0.67744695  1
  Cu+  Cu77  1  0.41586349  0.82947949  0.67973515  1
  Cu+  Cu78  1  0.91590831  0.32993368  0.67232079  1
  Cu+  Cu79  1  0.91821001  0.83286573  0.68197060  1
  Cu+  Cu80  1  0.41528434  0.08609664  0.67589528  1
  Cu+  Cu81  1  0.41931497  0.58602119  0.67417571  1
  Cu+  Cu82  1  0.91393838  0.08621333  0.67901363  1
  Cu+  Cu83  1  0.91829201  0.58786027  0.68083864  1
  Cu+  Cu84  1  0.00030020  0.25237873  0.00686192  1
  Cu+  Cu85  1  0.00186293  0.74724259  0.01440100  1
  Cu+  Cu86  1  0.49803597  0.24921260  0.00732755  1
  Cu+  Cu87  1  0.50059359  0.75103725  0.00975037  1
  Cu+  Cu88  1  0.24840347  0.49782854  0.00810971  1
  Cu+  Cu89  1  0.24827615  0.99677702  0.00777766  1
  Cu+  Cu90  1  0.74815211  0.49746631  0.00589311  1
  Cu+  Cu91  1  0.74902770  0.99878455  0.01370727  1
  Cu+  Cu92  1  0.24697081  0.24952822  0.00668660  1
  Cu+  Cu93  1  0.24991713  0.74813951  0.00973866  1
  Cu+  Cu94  1  0.74628847  0.25163476  0.00347453  1
  Cu+  Cu95  1  0.75270534  0.75362412  0.01632726  1
  Cu+  Cu96  1  0.33673924  0.41910762  0.34161603  1
  Cu+  Cu97  1  0.33892596  0.91868279  0.34261961  1
  Cu+  Cu98  1  0.83717482  0.42047034  0.34137205  1
  Cu+  Cu99  1  0.83415197  0.91578578  0.34386512  1
  Cu+  Cu100  1  0.08332220  0.16404568  0.34114775  1
  Cu+  Cu101  1  0.08408650  0.66488731  0.34875565  1
  Cu+  Cu102  1  0.58356833  0.16491797  0.34056144  1
  Cu+  Cu103  1  0.58312607  0.66494950  0.34402913  1
  Cu+  Cu104  1  0.08275408  0.41799296  0.34225487  1
  Cu+  Cu105  1  0.08256559  0.91711777  0.34780771  1
  Cu+  Cu106  1  0.58264180  0.41931961  0.34139226  1
  Cu+  Cu107  1  0.58510668  0.92056153  0.34381678  1
  Cu+  Cu108  1  0.00443685  0.00774720  0.11415291  1
  Cu+  Cu109  1  0.00061326  0.49569477  0.11597592  1
  Cu+  Cu110  1  0.49679202  0.00024512  0.11400782  1
  Cu+  Cu111  1  0.49364366  0.49559053  0.11481958  1
  Cu+  Cu112  1  0.33691824  0.17005788  0.44768171  1
  Cu+  Cu113  1  0.33884187  0.66611196  0.45136748  1
  Cu+  Cu114  1  0.83539632  0.16971092  0.44814585  1
  Cu+  Cu115  1  0.82783837  0.66364838  0.45098790  1
  Cu+  Cu116  1  0.16900822  0.33356930  0.77644361  1
  Cu+  Cu117  1  0.16832598  0.83635042  0.77793799  1
  Cu+  Cu118  1  0.66879602  0.33198412  0.77451228  1
  Cu+  Cu119  1  0.66663853  0.83097316  0.78105572  1
  Te2-  Te120  1  -0.00112183  0.00053325  0.38870770  1
  Te2-  Te121  1  -0.00022599  0.49822094  0.39031077  1
  Te2-  Te122  1  0.50262807  0.00224458  0.38786116  1
  Te2-  Te123  1  0.50044499  0.50044666  0.38763462  1
  Te2-  Te124  1  0.32969285  0.16492624  0.72283973  1
  Te2-  Te125  1  0.33647526  0.66486227  0.72580209  1
  Te2-  Te126  1  0.83070873  0.16888481  0.72234293  1
  Te2-  Te127  1  0.83254257  0.66735052  0.72587983  1
  Te2-  Te128  1  0.16499923  0.33241930  0.05070319  1
  Te2-  Te129  1  0.16939179  0.83268238  0.05345623  1
  Te2-  Te130  1  0.66365456  0.33261718  0.04914521  1
  Te2-  Te131  1  0.66487179  0.83266058  0.05744487  1
  Te2-  Te132  1  0.48365661  0.24127888  0.88096947  1
  Te2-  Te133  1  0.49559164  0.74507676  0.88367689  1
  Te2-  Te134  1  0.98992094  0.25048761  0.88124682  1
  Te2-  Te135  1  0.98873846  0.74159695  0.88569498  1
  Te2-  Te136  1  0.24719219  0.00023063  0.88134520  1
  Te2-  Te137  1  0.25635103  0.50652047  0.88194159  1
  Te2-  Te138  1  0.75126849  0.00873000  0.88599356  1
  Te2-  Te139  1  0.74621433  0.50504058  0.88001071  1
  Te2-  Te140  1  0.24589501  0.24233748  0.88033991  1
  Te2-  Te141  1  0.25422094  0.74348598  0.88315710  1
  Te2-  Te142  1  0.74686312  0.24707635  0.87727746  1
  Te2-  Te143  1  0.75200923  0.74700265  0.88710957  1
  Te2-  Te144  1  0.32931090  0.41562901  0.21549902  1
  Te2-  Te145  1  0.33011964  0.91498473  0.21669623  1
  Te2-  Te146  1  0.83159199  0.41972736  0.21545415  1
  Te2-  Te147  1  0.82377221  0.91012492  0.21730759  1
  Te2-  Te148  1  0.08202006  0.16698674  0.21464583  1
  Te2-  Te149  1  0.09315271  0.67799486  0.22057858  1
  Te2-  Te150  1  0.58747780  0.17190605  0.21468956  1
  Te2-  Te151  1  0.58539758  0.67515542  0.21788859  1
  Te2-  Te152  1  0.08483637  0.41551968  0.21613010  1
  Te2-  Te153  1  0.08952921  0.91426870  0.21949971  1
  Te2-  Te154  1  0.58597094  0.41453692  0.21549225  1
  Te2-  Te155  1  0.58557232  0.91053198  0.21772786  1
  Te2-  Te156  1  0.15855452  0.08404208  0.54829693  1
  Te2-  Te157  1  0.15837573  0.57593547  0.55347931  1
  Te2-  Te158  1  0.66256900  0.08011089  0.54730830  1
  Te2-  Te159  1  0.66705395  0.58409862  0.54921699  1
  Te2-  Te160  1  0.42016285  0.33833826  0.55027544  1
  Te2-  Te161  1  0.41630658  0.83718224  0.55252997  1
  Te2-  Te162  1  0.92026286  0.33673846  0.54708667  1
  Te2-  Te163  1  0.92113965  0.84256680  0.55402152  1
  Te2-  Te164  1  0.41634515  0.08059137  0.54900759  1
  Te2-  Te165  1  0.41879319  0.58284652  0.54872130  1
  Te2-  Te166  1  0.92087266  0.08009313  0.55237281  1
  Te2-  Te167  1  0.91965310  0.57929853  0.55311103  1
  Te2-  Te168  1  0.00191476  0.00067354  0.88402970  1
  Te2-  Te169  1  -0.00164865  0.49822928  0.88100038  1
  Te2-  Te170  1  0.50100205  0.00081311  0.88065833  1
  Te2-  Te171  1  0.49988605  0.49847971  0.88076377  1
  Te2-  Te172  1  0.33380279  0.16667022  0.21499304  1
  Te2-  Te173  1  0.33477818  0.66788302  0.21533985  1
  Te2-  Te174  1  0.83278794  0.16755469  0.21495667  1
  Te2-  Te175  1  0.83307590  0.66602983  0.21600086  1
  Te2-  Te176  1  0.16763552  0.33311954  0.54847752  1
  Te2-  Te177  1  0.16849080  0.83498440  0.55200272  1
  Te2-  Te178  1  0.66772372  0.33250468  0.54892783  1
  Te2-  Te179  1  0.66881349  0.83564419  0.55129671  1
  Te2-  Te180  1  0.32881008  0.41511478  0.70756577  1
  Te2-  Te181  1  0.32613285  0.91362991  0.70676362  1
  Te2-  Te182  1  0.82907160  0.41364688  0.70708691  1
  Te2-  Te183  1  0.82612147  0.91382380  0.71151614  1
  Te2-  Te184  1  0.08658575  0.17336758  0.70927820  1
  Te2-  Te185  1  0.09049732  0.67772857  0.70799127  1
  Te2-  Te186  1  0.58761343  0.17213585  0.70540697  1
  Te2-  Te187  1  0.58843543  0.67287923  0.71088804  1
  Te2-  Te188  1  0.08554846  0.41198425  0.70811606  1
  Te2-  Te189  1  0.08988038  0.91691645  0.70975237  1
  Te2-  Te190  1  0.59027538  0.41485738  0.70647833  1
  Te2-  Te191  1  0.58894879  0.91438089  0.70954516  1
  Te2-  Te192  1  0.16082426  0.07945214  0.04396868  1
  Te2-  Te193  1  0.16024812  0.57896099  0.04591575  1
  Te2-  Te194  1  0.65866317  0.08214413  0.04258370  1
  Te2-  Te195  1  0.66174724  0.58020309  0.04429298  1
  Te2-  Te196  1  0.41678352  0.33763010  0.04435221  1
  Te2-  Te197  1  0.41991957  0.83987043  0.04472822  1
  Te2-  Te198  1  0.91553058  0.33729103  0.04391739  1
  Te2-  Te199  1  0.92521010  0.84334660  0.04304888  1
  Te2-  Te200  1  0.41799559  0.07954274  0.04424673  1
  Te2-  Te201  1  0.41909517  0.58042378  0.04449630  1
  Te2-  Te202  1  0.92180364  0.08253757  0.04257711  1
  Te2-  Te203  1  0.91708825  0.57545028  0.04411854  1
  Te2-  Te204  1  0.49671830  0.24859566  0.37805535  1
  Te2-  Te205  1  0.49741737  0.74988788  0.38087443  1
  Te2-  Te206  1  0.99566957  0.24691963  0.37771320  1
  Te2-  Te207  1  0.99202879  0.74532789  0.37942247  1
  Te2-  Te208  1  0.25532903  0.00537244  0.37827173  1
  Te2-  Te209  1  0.25324181  0.50597402  0.37868016  1
  Te2-  Te210  1  0.75524030  0.00689261  0.37976545  1
  Te2-  Te211  1  0.75307461  0.50615479  0.37878322  1
  Te2-  Te212  1  0.25386469  0.24805911  0.37695693  1
  Te2-  Te213  1  0.25649766  0.74937363  0.38065024  1
  Te2-  Te214  1  0.75428715  0.24927564  0.37718776  1
  Te2-  Te215  1  0.75312343  0.74689999  0.38069858  1
