# generated using pymatgen
data_Ti(CuTe)4
_symmetry_space_group_name_H-M   'P 1'
_cell_length_a   16.89586613
_cell_length_b   16.89375866
_cell_length_c   20.71346009
_cell_angle_alpha   89.98512061
_cell_angle_beta   89.98712254
_cell_angle_gamma   120.00507583
_symmetry_Int_Tables_number   1
_chemical_formula_structural   Ti(CuTe)4
_chemical_formula_sum   'Ti24 Cu96 Te96'
_cell_volume   5119.97408502
_cell_formula_units_Z   24
loop_
 _symmetry_equiv_pos_site_id
 _symmetry_equiv_pos_as_xyz
  1  'x, y, z'
loop_
 _atom_type_symbol
 _atom_type_oxidation_number
  Ti4+  4.0
  Cu+  1.0
  Te2-  -2.0
loop_
 _atom_site_type_symbol
 _atom_site_label
 _atom_site_symmetry_multiplicity
 _atom_site_fract_x
 _atom_site_fract_y
 _atom_site_fract_z
 _atom_site_occupancy
  Ti4+  Ti0  1  0.00215952  0.00130982  0.25775592  1
  Ti4+  Ti1  1  -0.00072225  0.49897605  0.25770442  1
  Ti4+  Ti2  1  0.50013346  -0.00272451  0.25781883  1
  Ti4+  Ti3  1  0.50004854  0.50082949  0.25723246  1
  Ti4+  Ti4  1  0.33643689  0.16659150  0.59326494  1
  Ti4+  Ti5  1  0.33234683  0.66730839  0.59422456  1
  Ti4+  Ti6  1  0.83791995  0.16892547  0.58950231  1
  Ti4+  Ti7  1  0.83522266  0.66968172  0.58891440  1
  Ti4+  Ti8  1  0.16804931  0.33717861  0.92931716  1
  Ti4+  Ti9  1  0.16293977  0.83124300  0.92284607  1
  Ti4+  Ti10  1  0.66217054  0.33026653  0.92056404  1
  Ti4+  Ti11  1  0.66660897  0.83188791  0.92334347  1
  Ti4+  Ti12  1  -0.00005242  -0.00103247  0.75663870  1
  Ti4+  Ti13  1  0.00038158  0.50051638  0.75538374  1
  Ti4+  Ti14  1  0.50076592  0.00123322  0.75333483  1
  Ti4+  Ti15  1  0.50025184  0.50102085  0.75351530  1
  Ti4+  Ti16  1  0.33151947  0.16460224  0.08839225  1
  Ti4+  Ti17  1  0.33446225  0.66796751  0.08893115  1
  Ti4+  Ti18  1  0.83222184  0.16613816  0.08698533  1
  Ti4+  Ti19  1  0.83143355  0.66501064  0.08823461  1
  Ti4+  Ti20  1  0.16508255  0.33422667  0.42497734  1
  Ti4+  Ti21  1  0.16877557  0.83343798  0.42258116  1
  Ti4+  Ti22  1  0.66486127  0.33217316  0.42107110  1
  Ti4+  Ti23  1  0.66966384  0.83324183  0.42298535  1
  Cu+  Cu24  1  0.24515095  0.25508282  0.14983114  1
  Cu+  Cu25  1  0.18361092  0.59380831  0.81183232  1
  Cu+  Cu26  1  0.40410643  0.32031848  0.81083422  1
  Cu+  Cu27  1  0.41059188  0.59329677  0.81219533  1
  Cu+  Cu28  1  0.00996318  0.25485913  0.14850926  1
  Cu+  Cu29  1  0.07169572  0.43255908  0.47569322  1
  Cu+  Cu30  1  0.40342067  0.08724600  0.80907619  1
  Cu+  Cu31  1  0.90180586  0.80625049  0.80507385  1
  Cu+  Cu32  1  0.52424482  0.76240562  0.14061676  1
  Cu+  Cu33  1  0.24758051  0.49495474  0.15394591  1
  Cu+  Cu34  1  0.86238537  0.93253741  0.47296501  1
  Cu+  Cu35  1  0.35904806  0.92878680  0.47501538  1
  Cu+  Cu36  1  0.16147571  0.08160049  0.16989681  1
  Cu+  Cu37  1  0.15938565  0.57922421  0.17073836  1
  Cu+  Cu38  1  0.66138883  0.07923911  0.16908802  1
  Cu+  Cu39  1  0.66356110  0.58093494  0.17005284  1
  Cu+  Cu40  1  0.41690138  0.33534709  0.17040176  1
  Cu+  Cu41  1  0.42290217  0.83739167  0.17051460  1
  Cu+  Cu42  1  0.91938581  0.33650305  0.16892023  1
  Cu+  Cu43  1  0.91743226  0.83467353  0.17202945  1
  Cu+  Cu44  1  0.41386186  0.07577868  0.17134384  1
  Cu+  Cu45  1  0.42319380  0.58488162  0.16938904  1
  Cu+  Cu46  1  0.91899156  0.08141500  0.16973285  1
  Cu+  Cu47  1  0.91659951  0.58135254  0.17098049  1
  Cu+  Cu48  1  0.49645595  0.24842715  0.50508866  1
  Cu+  Cu49  1  0.49818597  0.74517643  0.50723426  1
  Cu+  Cu50  1  0.99722393  0.25443045  0.50379467  1
  Cu+  Cu51  1  0.99709982  0.75092914  0.50302054  1
  Cu+  Cu52  1  0.25837310  0.00263226  0.50533812  1
  Cu+  Cu53  1  0.24573691  0.50281990  0.50815779  1
  Cu+  Cu54  1  0.75977753  0.00249118  0.50419589  1
  Cu+  Cu55  1  0.75039084  0.50246311  0.50334161  1
  Cu+  Cu56  1  0.25301143  0.25064411  0.50882868  1
  Cu+  Cu57  1  0.25450806  0.75112975  0.50576268  1
  Cu+  Cu58  1  0.75204016  0.24979997  0.50269141  1
  Cu+  Cu59  1  0.75997082  0.75661998  0.50309246  1
  Cu+  Cu60  1  0.32716224  0.41723651  0.83893968  1
  Cu+  Cu61  1  0.32792109  0.91600679  0.83578486  1
  Cu+  Cu62  1  0.82809691  0.41396246  0.83575131  1
  Cu+  Cu63  1  0.83135171  0.90995635  0.83725441  1
  Cu+  Cu64  1  0.08376302  0.16917916  0.84158856  1
  Cu+  Cu65  1  0.08607520  0.67003609  0.83660267  1
  Cu+  Cu66  1  0.57997295  0.16972084  0.83320384  1
  Cu+  Cu67  1  0.58418833  0.67382197  0.83511691  1
  Cu+  Cu68  1  0.08780095  0.42005895  0.84055548  1
  Cu+  Cu69  1  0.07671341  0.90827892  0.83620750  1
  Cu+  Cu70  1  0.58021965  0.40932724  0.83280739  1
  Cu+  Cu71  1  0.58456618  0.91546703  0.83637793  1
  Cu+  Cu72  1  0.17051219  0.08529249  0.67563451  1
  Cu+  Cu73  1  0.16923120  0.58411803  0.68171246  1
  Cu+  Cu74  1  0.67371430  0.08541334  0.67175911  1
  Cu+  Cu75  1  0.66946852  0.58807621  0.67056382  1
  Cu+  Cu76  1  0.41705077  0.33116305  0.68071633  1
  Cu+  Cu77  1  0.41711699  0.83270556  0.67621211  1
  Cu+  Cu78  1  0.91781839  0.33202675  0.67481953  1
  Cu+  Cu79  1  0.91491986  0.83132091  0.67766799  1
  Cu+  Cu80  1  0.41814779  0.08605999  0.67954556  1
  Cu+  Cu81  1  0.41310823  0.58359384  0.68151912  1
  Cu+  Cu82  1  0.91950963  0.08655460  0.67404434  1
  Cu+  Cu83  1  0.91540203  0.58490415  0.67187355  1
  Cu+  Cu84  1  0.00231094  0.25249630  0.01562867  1
  Cu+  Cu85  1  -0.00098243  0.74885304  0.00717796  1
  Cu+  Cu86  1  0.49895022  0.24625008  0.00665242  1
  Cu+  Cu87  1  0.50282383  0.75276724  0.01235807  1
  Cu+  Cu88  1  0.24940235  0.49990700  0.01872879  1
  Cu+  Cu89  1  0.24628381  0.99597207  0.00672236  1
  Cu+  Cu90  1  0.74552656  0.49424863  0.00453501  1
  Cu+  Cu91  1  0.74832222  0.99766515  0.00595714  1
  Cu+  Cu92  1  0.24845197  0.25138794  0.01707017  1
  Cu+  Cu93  1  0.24769607  0.75222843  0.00803029  1
  Cu+  Cu94  1  0.74504333  0.24835461  0.00381143  1
  Cu+  Cu95  1  0.74748789  0.74869308  0.00756855  1
  Cu+  Cu96  1  0.33532244  0.41895633  0.34426601  1
  Cu+  Cu97  1  0.33786212  0.91552357  0.34581546  1
  Cu+  Cu98  1  0.83354057  0.41572278  0.34000666  1
  Cu+  Cu99  1  0.84003448  0.91890243  0.34446879  1
  Cu+  Cu100  1  0.08394960  0.16710203  0.34453840  1
  Cu+  Cu101  1  0.08281875  0.66419986  0.34143237  1
  Cu+  Cu102  1  0.57851037  0.16281984  0.34048746  1
  Cu+  Cu103  1  0.58327299  0.66491047  0.34174850  1
  Cu+  Cu104  1  0.08140422  0.41792189  0.34775823  1
  Cu+  Cu105  1  0.08544664  0.91800412  0.34044112  1
  Cu+  Cu106  1  0.57958470  0.41577099  0.34074614  1
  Cu+  Cu107  1  0.58190222  0.91420567  0.34252186  1
  Cu+  Cu108  1  -0.00396749  -0.00502868  0.11376421  1
  Cu+  Cu109  1  -0.00583968  0.49910883  0.11293190  1
  Cu+  Cu110  1  0.49987867  0.00287298  0.11290007  1
  Cu+  Cu111  1  0.50253239  0.49703878  0.11306212  1
  Cu+  Cu112  1  0.32926207  0.16648573  0.45085031  1
  Cu+  Cu113  1  0.33631755  0.66664444  0.45128110  1
  Cu+  Cu114  1  0.82662004  0.16379558  0.44632844  1
  Cu+  Cu115  1  0.83280787  0.66359157  0.44599342  1
  Cu+  Cu116  1  0.15977951  0.32875448  0.78565284  1
  Cu+  Cu117  1  0.16586463  0.83338137  0.77888969  1
  Cu+  Cu118  1  0.67012063  0.33495286  0.77576906  1
  Cu+  Cu119  1  0.67020313  0.84018140  0.77972906  1
  Te2-  Te120  1  0.00651434  0.00222159  0.38771851  1
  Te2-  Te121  1  -0.00326617  0.50084791  0.38776955  1
  Te2-  Te122  1  0.50411778  0.00021440  0.38843899  1
  Te2-  Te123  1  0.50059651  0.50060362  0.38598871  1
  Te2-  Te124  1  0.33211083  0.16572333  0.72549047  1
  Te2-  Te125  1  0.33472665  0.67036420  0.72656770  1
  Te2-  Te126  1  0.83651576  0.16761842  0.71848770  1
  Te2-  Te127  1  0.83139947  0.66395432  0.71931564  1
  Te2-  Te128  1  0.16669954  0.33474139  0.06226072  1
  Te2-  Te129  1  0.16322306  0.83204465  0.05153474  1
  Te2-  Te130  1  0.66356996  0.33024181  0.04924915  1
  Te2-  Te131  1  0.66998524  0.83476316  0.05361486  1
  Te2-  Te132  1  0.48412729  0.24192278  0.88143898  1
  Te2-  Te133  1  0.49239306  0.74959387  0.88507579  1
  Te2-  Te134  1  0.99934180  0.25257800  0.88722521  1
  Te2-  Te135  1  0.98934278  0.74002040  0.88157224  1
  Te2-  Te136  1  0.24529310  0.00369859  0.88106630  1
  Te2-  Te137  1  0.25616089  0.51272652  0.88939224  1
  Te2-  Te138  1  0.75299420  0.00153705  0.87998543  1
  Te2-  Te139  1  0.74688965  0.50135022  0.87867677  1
  Te2-  Te140  1  0.25125486  0.24849575  0.88820864  1
  Te2-  Te141  1  0.25576601  0.75032021  0.88257137  1
  Te2-  Te142  1  0.74755024  0.24494167  0.87812379  1
  Te2-  Te143  1  0.74908554  0.74064234  0.88185113  1
  Te2-  Te144  1  0.32399308  0.41320315  0.21834709  1
  Te2-  Te145  1  0.32838580  0.90925276  0.21853865  1
  Te2-  Te146  1  0.82936300  0.41264550  0.21401290  1
  Te2-  Te147  1  0.83125960  0.91612765  0.21728372  1
  Te2-  Te148  1  0.08875935  0.17784977  0.21855494  1
  Te2-  Te149  1  0.08480447  0.67003075  0.21553077  1
  Te2-  Te150  1  0.58249706  0.16782325  0.21436363  1
  Te2-  Te151  1  0.58997289  0.67424233  0.21594543  1
  Te2-  Te152  1  0.08797518  0.41084962  0.22034429  1
  Te2-  Te153  1  0.08659719  0.91541138  0.21463374  1
  Te2-  Te154  1  0.58285267  0.41322522  0.21472169  1
  Te2-  Te155  1  0.59095672  0.91371204  0.21682969  1
  Te2-  Te156  1  0.16679909  0.08056748  0.54945733  1
  Te2-  Te157  1  0.15913393  0.58450819  0.55422384  1
  Te2-  Te158  1  0.66811706  0.08074139  0.54571436  1
  Te2-  Te159  1  0.66521035  0.58689873  0.54506883  1
  Te2-  Te160  1  0.42040532  0.33813158  0.55362415  1
  Te2-  Te161  1  0.42366124  0.83948895  0.55046281  1
  Te2-  Te162  1  0.91879830  0.34361482  0.54943813  1
  Te2-  Te163  1  0.92640083  0.84507646  0.55122992  1
  Te2-  Te164  1  0.42599421  0.08267453  0.55247670  1
  Te2-  Te165  1  0.41369919  0.57848756  0.55395035  1
  Te2-  Te166  1  0.92936116  0.08651422  0.54862843  1
  Te2-  Te167  1  0.91931579  0.58286999  0.54634107  1
  Te2-  Te168  1  -0.00055464  -0.00061662  0.88352472  1
  Te2-  Te169  1  -0.00360319  0.49991121  0.88219338  1
  Te2-  Te170  1  0.49889156  0.00003662  0.88020062  1
  Te2-  Te171  1  0.50109400  0.50122731  0.88076498  1
  Te2-  Te172  1  0.33227966  0.16418961  0.21546940  1
  Te2-  Te173  1  0.33268193  0.66666695  0.21637387  1
  Te2-  Te174  1  0.83163975  0.16539786  0.21407432  1
  Te2-  Te175  1  0.83214053  0.66528356  0.21461879  1
  Te2-  Te176  1  0.16595131  0.33305708  0.55163483  1
  Te2-  Te177  1  0.16620560  0.83294312  0.54926819  1
  Te2-  Te178  1  0.66710159  0.33363759  0.54733867  1
  Te2-  Te179  1  0.66839807  0.83332584  0.54971442  1
  Te2-  Te180  1  0.32409909  0.41089123  0.71186076  1
  Te2-  Te181  1  0.32691448  0.91297030  0.70894332  1
  Te2-  Te182  1  0.83006148  0.41518941  0.70886216  1
  Te2-  Te183  1  0.82875696  0.91670836  0.71000934  1
  Te2-  Te184  1  0.08777894  0.17179169  0.71425715  1
  Te2-  Te185  1  0.08437282  0.67288764  0.70975607  1
  Te2-  Te186  1  0.59123630  0.17341790  0.70706495  1
  Te2-  Te187  1  0.58724959  0.67465969  0.70882368  1
  Te2-  Te188  1  0.08628676  0.41225849  0.71324687  1
  Te2-  Te189  1  0.08737342  0.91484934  0.70969730  1
  Te2-  Te190  1  0.59018471  0.41811656  0.70688746  1
  Te2-  Te191  1  0.58777149  0.91578379  0.70980387  1
  Te2-  Te192  1  0.15841468  0.07781182  0.04337422  1
  Te2-  Te193  1  0.15967295  0.58294435  0.04466305  1
  Te2-  Te194  1  0.66037688  0.07937390  0.04263780  1
  Te2-  Te195  1  0.66050409  0.57858917  0.04326253  1
  Te2-  Te196  1  0.42121086  0.33796657  0.04337756  1
  Te2-  Te197  1  0.41788570  0.84055676  0.04388002  1
  Te2-  Te198  1  0.91517255  0.33886727  0.04183769  1
  Te2-  Te199  1  0.91719536  0.83658676  0.04460538  1
  Te2-  Te200  1  0.41556035  0.07709806  0.04407531  1
  Te2-  Te201  1  0.42221826  0.58049410  0.04303810  1
  Te2-  Te202  1  0.91823339  0.07870546  0.04270176  1
  Te2-  Te203  1  0.91540487  0.57849752  0.04352183  1
  Te2-  Te204  1  0.49222238  0.24609469  0.37873377  1
  Te2-  Te205  1  0.49610803  0.74587886  0.38073270  1
  Te2-  Te206  1  0.99237421  0.24535979  0.37807058  1
  Te2-  Te207  1  0.99679324  0.74845125  0.37712883  1
  Te2-  Te208  1  0.25495643  0.00585808  0.37780994  1
  Te2-  Te209  1  0.25365769  0.50699085  0.38063653  1
  Te2-  Te210  1  0.75329350  0.00461899  0.37661471  1
  Te2-  Te211  1  0.75064149  0.50316479  0.37619226  1
  Te2-  Te212  1  0.25318815  0.24964142  0.38160045  1
  Te2-  Te213  1  0.25204269  0.74349952  0.37903350  1
  Te2-  Te214  1  0.74977049  0.24584792  0.37589980  1
  Te2-  Te215  1  0.75420035  0.74642544  0.37622261  1
