# generated using pymatgen
data_Ti(CuTe)4
_symmetry_space_group_name_H-M   'P 1'
_cell_length_a   16.85863024
_cell_length_b   16.85991765
_cell_length_c   20.66418393
_cell_angle_alpha   90.01246151
_cell_angle_beta   90.01025758
_cell_angle_gamma   119.99698514
_symmetry_Int_Tables_number   1
_chemical_formula_structural   Ti(CuTe)4
_chemical_formula_sum   'Ti24 Cu96 Te96'
_cell_volume   5086.74285463
_cell_formula_units_Z   24
loop_
 _symmetry_equiv_pos_site_id
 _symmetry_equiv_pos_as_xyz
  1  'x, y, z'
loop_
 _atom_type_symbol
 _atom_type_oxidation_number
  Ti4+  4.0
  Cu+  1.0
  Te2-  -2.0
loop_
 _atom_site_type_symbol
 _atom_site_label
 _atom_site_symmetry_multiplicity
 _atom_site_fract_x
 _atom_site_fract_y
 _atom_site_fract_z
 _atom_site_occupancy
  Ti4+  Ti0  1  0.00126645  -0.00039686  0.25322403  1
  Ti4+  Ti1  1  0.00248925  0.49912103  0.25448755  1
  Ti4+  Ti2  1  0.50159548  -0.00110763  0.25875778  1
  Ti4+  Ti3  1  0.50025240  0.49983044  0.26386665  1
  Ti4+  Ti4  1  0.33599949  0.16550422  0.59287125  1
  Ti4+  Ti5  1  0.33343918  0.66537806  0.59268642  1
  Ti4+  Ti6  1  0.83202708  0.16410253  0.59055780  1
  Ti4+  Ti7  1  0.83565142  0.66728204  0.58939651  1
  Ti4+  Ti8  1  0.16472901  0.33577854  0.92341181  1
  Ti4+  Ti9  1  0.16573804  0.83409500  0.92553261  1
  Ti4+  Ti10  1  0.66176413  0.33378841  0.92360606  1
  Ti4+  Ti11  1  0.66356287  0.83511817  0.92464665  1
  Ti4+  Ti12  1  -0.00000793  0.00133119  0.75701169  1
  Ti4+  Ti13  1  0.00036293  0.49957236  0.75509523  1
  Ti4+  Ti14  1  0.50029103  0.00078843  0.75557043  1
  Ti4+  Ti15  1  0.50042338  0.50028121  0.75520562  1
  Ti4+  Ti16  1  0.33218904  0.16773734  0.09072758  1
  Ti4+  Ti17  1  0.33243471  0.66744944  0.08966083  1
  Ti4+  Ti18  1  0.83339954  0.16709413  0.08777207  1
  Ti4+  Ti19  1  0.83290376  0.66792586  0.08740788  1
  Ti4+  Ti20  1  0.16863563  0.33432702  0.42326885  1
  Ti4+  Ti21  1  0.16758138  0.83391649  0.42398080  1
  Ti4+  Ti22  1  0.66700010  0.33122806  0.41993861  1
  Ti4+  Ti23  1  0.66816132  0.83301164  0.42102659  1
  Cu+  Cu24  1  0.73893024  0.97776187  0.14084108  1
  Cu+  Cu25  1  0.01900066  0.75514253  0.14026093  1
  Cu+  Cu26  1  0.57901799  0.41751236  0.48294498  1
  Cu+  Cu27  1  0.24816254  0.98299632  0.14299273  1
  Cu+  Cu28  1  0.57863195  0.65541086  0.48166463  1
  Cu+  Cu29  1  0.40345688  0.32037895  0.81157825  1
  Cu+  Cu30  1  0.40359958  0.59554731  0.80835972  1
  Cu+  Cu31  1  0.56915983  0.14003470  0.47313689  1
  Cu+  Cu32  1  0.02446089  0.25971879  0.13873610  1
  Cu+  Cu33  1  0.40179197  0.08831064  0.81028674  1
  Cu+  Cu34  1  0.90046517  0.09727639  0.80822320  1
  Cu+  Cu35  1  0.34781732  0.42329782  0.48238464  1
  Cu+  Cu36  1  0.16419043  0.07760127  0.16714277  1
  Cu+  Cu37  1  0.16273881  0.57960356  0.16830576  1
  Cu+  Cu38  1  0.66363386  0.07776175  0.17131897  1
  Cu+  Cu39  1  0.66300038  0.58130999  0.17500604  1
  Cu+  Cu40  1  0.41851224  0.33784258  0.17676499  1
  Cu+  Cu41  1  0.41969148  0.83606914  0.17125678  1
  Cu+  Cu42  1  0.92539336  0.33739765  0.16719828  1
  Cu+  Cu43  1  0.92303629  0.83650341  0.16528006  1
  Cu+  Cu44  1  0.41897847  0.08195187  0.17457619  1
  Cu+  Cu45  1  0.41673253  0.58239332  0.17680888  1
  Cu+  Cu46  1  0.91873607  0.08228637  0.16723831  1
  Cu+  Cu47  1  0.91991526  0.58273032  0.16864179  1
  Cu+  Cu48  1  0.49585575  0.24196654  0.50328634  1
  Cu+  Cu49  1  0.49738019  0.74833718  0.50483714  1
  Cu+  Cu50  1  0.99708784  0.24602927  0.50469819  1
  Cu+  Cu51  1  0.99861406  0.74899804  0.50453181  1
  Cu+  Cu52  1  0.25398310  0.00190614  0.50680568  1
  Cu+  Cu53  1  0.25294507  0.50322638  0.50543245  1
  Cu+  Cu54  1  0.75604574  0.00445234  0.50291408  1
  Cu+  Cu55  1  0.75512808  0.50573657  0.49947870  1
  Cu+  Cu56  1  0.25171558  0.24929098  0.50574394  1
  Cu+  Cu57  1  0.25016739  0.74786651  0.50755815  1
  Cu+  Cu58  1  0.74552886  0.24100819  0.50085589  1
  Cu+  Cu59  1  0.75419783  0.74910054  0.50168209  1
  Cu+  Cu60  1  0.32870713  0.41930232  0.83683390  1
  Cu+  Cu61  1  0.32945639  0.91681729  0.83890533  1
  Cu+  Cu62  1  0.83009043  0.41797527  0.83750164  1
  Cu+  Cu63  1  0.83141117  0.92244760  0.83895307  1
  Cu+  Cu64  1  0.07691767  0.16858620  0.83698638  1
  Cu+  Cu65  1  0.08138876  0.66823176  0.83927139  1
  Cu+  Cu66  1  0.57792137  0.17016433  0.83570034  1
  Cu+  Cu67  1  0.57801700  0.67073587  0.83688993  1
  Cu+  Cu68  1  0.08346313  0.41501371  0.83613120  1
  Cu+  Cu69  1  0.08449503  0.91434658  0.83950166  1
  Cu+  Cu70  1  0.58079932  0.41031064  0.83501745  1
  Cu+  Cu71  1  0.58427514  0.91488450  0.83753914  1
  Cu+  Cu72  1  0.16876626  0.08275693  0.67619587  1
  Cu+  Cu73  1  0.16892999  0.58278260  0.67580600  1
  Cu+  Cu74  1  0.66805559  0.08163698  0.67408564  1
  Cu+  Cu75  1  0.67178773  0.58584673  0.67538417  1
  Cu+  Cu76  1  0.41998223  0.33135027  0.68293484  1
  Cu+  Cu77  1  0.41773382  0.83071124  0.67646395  1
  Cu+  Cu78  1  0.91653768  0.33121639  0.67160514  1
  Cu+  Cu79  1  0.91841318  0.83203413  0.67335014  1
  Cu+  Cu80  1  0.41748886  0.08486841  0.68167178  1
  Cu+  Cu81  1  0.41685672  0.58485290  0.68169427  1
  Cu+  Cu82  1  0.91523453  0.08609403  0.67891037  1
  Cu+  Cu83  1  0.91731208  0.58556416  0.67174468  1
  Cu+  Cu84  1  0.00270983  0.25403481  0.01121154  1
  Cu+  Cu85  1  0.00233740  0.75316150  0.01171977  1
  Cu+  Cu86  1  0.49940329  0.25408153  0.01148065  1
  Cu+  Cu87  1  0.49910252  0.74993439  0.01008436  1
  Cu+  Cu88  1  0.25094849  0.50148028  0.00874646  1
  Cu+  Cu89  1  0.24914981  1.00003394  0.01415917  1
  Cu+  Cu90  1  0.74329679  0.49797315  0.00587839  1
  Cu+  Cu91  1  0.74544142  0.99762151  0.01273228  1
  Cu+  Cu92  1  0.25140379  0.25502399  0.00828986  1
  Cu+  Cu93  1  0.24994241  0.75189029  0.00780932  1
  Cu+  Cu94  1  0.74485096  0.25226106  0.00542911  1
  Cu+  Cu95  1  0.74429946  0.74938090  0.00604294  1
  Cu+  Cu96  1  0.33617479  0.41824277  0.35084272  1
  Cu+  Cu97  1  0.33455215  0.91802076  0.34384178  1
  Cu+  Cu98  1  0.83823980  0.41729681  0.33602857  1
  Cu+  Cu99  1  0.83664594  0.91907156  0.33694617  1
  Cu+  Cu100  1  0.08328178  0.16526873  0.33827700  1
  Cu+  Cu101  1  0.08272295  0.66453606  0.33999751  1
  Cu+  Cu102  1  0.58234840  0.16060055  0.34441478  1
  Cu+  Cu103  1  0.58300213  0.66436558  0.34981776  1
  Cu+  Cu104  1  0.08306063  0.41647268  0.34031038  1
  Cu+  Cu105  1  0.08501736  0.91841424  0.34158054  1
  Cu+  Cu106  1  0.58332479  0.41667886  0.35006260  1
  Cu+  Cu107  1  0.58595990  0.91846926  0.34330859  1
  Cu+  Cu108  1  -0.00184811  0.00036405  0.10707468  1
  Cu+  Cu109  1  -0.00353393  0.49962616  0.10867929  1
  Cu+  Cu110  1  0.49996135  0.00134445  0.11526312  1
  Cu+  Cu111  1  0.49927617  0.50276213  0.12239344  1
  Cu+  Cu112  1  0.32764539  0.16327775  0.44893891  1
  Cu+  Cu113  1  0.33108592  0.66956974  0.44917986  1
  Cu+  Cu114  1  0.83752274  0.16999307  0.44628224  1
  Cu+  Cu115  1  0.83927080  0.67106304  0.44398686  1
  Cu+  Cu116  1  0.16537292  0.33137404  0.77869692  1
  Cu+  Cu117  1  0.16547151  0.82901440  0.78229418  1
  Cu+  Cu118  1  0.67334190  0.33273043  0.77940399  1
  Cu+  Cu119  1  0.67159589  0.83204966  0.78126613  1
  Te2-  Te120  1  0.00099157  0.00047972  0.38185253  1
  Te2-  Te121  1  0.00113739  0.49958124  0.38364225  1
  Te2-  Te122  1  0.49840234  -0.00540072  0.38951086  1
  Te2-  Te123  1  0.50133020  0.49934673  0.39822596  1
  Te2-  Te124  1  0.33094311  0.16484194  0.72496942  1
  Te2-  Te125  1  0.33182572  0.66756503  0.72307079  1
  Te2-  Te126  1  0.83129020  0.16913081  0.72136394  1
  Te2-  Te127  1  0.83636988  0.66799062  0.71855811  1
  Te2-  Te128  1  0.16964903  0.33723701  0.05356700  1
  Te2-  Te129  1  0.16851168  0.83297012  0.05768742  1
  Te2-  Te130  1  0.66488268  0.33492827  0.05282424  1
  Te2-  Te131  1  0.66334043  0.83070815  0.05518264  1
  Te2-  Te132  1  0.48356923  0.24430783  0.88493647  1
  Te2-  Te133  1  0.48888477  0.74919190  0.88440573  1
  Te2-  Te134  1  0.99041426  0.25010819  0.88439210  1
  Te2-  Te135  1  0.99399352  0.74790027  0.88488744  1
  Te2-  Te136  1  0.25037510  0.00768411  0.88668705  1
  Te2-  Te137  1  0.25041228  0.50930677  0.88282219  1
  Te2-  Te138  1  0.74913433  0.00979797  0.88552662  1
  Te2-  Te139  1  0.74711432  0.50461537  0.88022546  1
  Te2-  Te140  1  0.24738711  0.24672740  0.88188418  1
  Te2-  Te141  1  0.25111889  0.74918787  0.88178512  1
  Te2-  Te142  1  0.74620901  0.24788928  0.87952588  1
  Te2-  Te143  1  0.74766707  0.75017099  0.87947515  1
  Te2-  Te144  1  0.32919731  0.41499532  0.22331195  1
  Te2-  Te145  1  0.32786498  0.91036216  0.21807758  1
  Te2-  Te146  1  0.83217223  0.41354031  0.21004271  1
  Te2-  Te147  1  0.82885788  0.91068799  0.21112580  1
  Te2-  Te148  1  0.09047528  0.17219401  0.21227553  1
  Te2-  Te149  1  0.09039100  0.67319909  0.21438306  1
  Te2-  Te150  1  0.58733752  0.16964803  0.21718860  1
  Te2-  Te151  1  0.58499378  0.67016405  0.22196914  1
  Te2-  Te152  1  0.09256729  0.41394905  0.21463811  1
  Te2-  Te153  1  0.08991977  0.91075056  0.21548061  1
  Te2-  Te154  1  0.58565097  0.41442448  0.22225880  1
  Te2-  Te155  1  0.58607074  0.90916568  0.21745331  1
  Te2-  Te156  1  0.16583232  0.08221965  0.55035593  1
  Te2-  Te157  1  0.16216349  0.57904603  0.54993084  1
  Te2-  Te158  1  0.65811960  0.07332233  0.54824681  1
  Te2-  Te159  1  0.65914544  0.57813286  0.54963887  1
  Te2-  Te160  1  0.42281793  0.33984136  0.55417487  1
  Te2-  Te161  1  0.41941186  0.83661349  0.55039724  1
  Te2-  Te162  1  0.91445692  0.33386748  0.54526243  1
  Te2-  Te163  1  0.92014031  0.83893604  0.54746955  1
  Te2-  Te164  1  0.42051312  0.07584963  0.55388553  1
  Te2-  Te165  1  0.42267326  0.57851056  0.55435811  1
  Te2-  Te166  1  0.92067697  0.07986631  0.55173538  1
  Te2-  Te167  1  0.91997175  0.58021729  0.54613216  1
  Te2-  Te168  1  0.00010858  0.00007187  0.88411631  1
  Te2-  Te169  1  -0.00193039  0.49919875  0.88188786  1
  Te2-  Te170  1  0.49980439  0.00116343  0.88270668  1
  Te2-  Te171  1  0.49970546  0.50057091  0.88271558  1
  Te2-  Te172  1  0.33251938  0.16659306  0.21795932  1
  Te2-  Te173  1  0.33116423  0.66699279  0.21639775  1
  Te2-  Te174  1  0.83520602  0.16770526  0.21513413  1
  Te2-  Te175  1  0.83494693  0.66749180  0.21466836  1
  Te2-  Te176  1  0.16547883  0.33259828  0.55085651  1
  Te2-  Te177  1  0.16637116  0.83286908  0.55085319  1
  Te2-  Te178  1  0.66948969  0.33472098  0.54778118  1
  Te2-  Te179  1  0.66929523  0.83407908  0.54841189  1
  Te2-  Te180  1  0.32562612  0.41109355  0.70872478  1
  Te2-  Te181  1  0.32694537  0.91107147  0.71102070  1
  Te2-  Te182  1  0.83033418  0.41542278  0.70903335  1
  Te2-  Te183  1  0.82907259  0.91317372  0.71061538  1
  Te2-  Te184  1  0.08825942  0.17292903  0.70959215  1
  Te2-  Te185  1  0.08624640  0.67122676  0.71129076  1
  Te2-  Te186  1  0.59020322  0.17389675  0.70874445  1
  Te2-  Te187  1  0.58994328  0.67371678  0.70972681  1
  Te2-  Te188  1  0.08560570  0.41243644  0.70984420  1
  Te2-  Te189  1  0.08637516  0.91433613  0.71318123  1
  Te2-  Te190  1  0.59199736  0.41646609  0.70951794  1
  Te2-  Te191  1  0.58689385  0.91334532  0.71212505  1
  Te2-  Te192  1  0.16038685  0.08453560  0.04104557  1
  Te2-  Te193  1  0.16060478  0.58161487  0.04243129  1
  Te2-  Te194  1  0.65943481  0.08384226  0.04407470  1
  Te2-  Te195  1  0.65899399  0.58139956  0.04733501  1
  Te2-  Te196  1  0.41846747  0.34166595  0.04946594  1
  Te2-  Te197  1  0.41922643  0.84027440  0.04499723  1
  Te2-  Te198  1  0.91509503  0.33910874  0.04030328  1
  Te2-  Te199  1  0.91553025  0.83978519  0.03891042  1
  Te2-  Te200  1  0.42128966  0.08354461  0.04625648  1
  Te2-  Te201  1  0.41931283  0.58090304  0.04854758  1
  Te2-  Te202  1  0.91953411  0.08085548  0.03921825  1
  Te2-  Te203  1  0.91524882  0.57905933  0.04041516  1
  Te2-  Te204  1  0.49117842  0.24259448  0.37616534  1
  Te2-  Te205  1  0.49313963  0.74794808  0.37787691  1
  Te2-  Te206  1  0.99747825  0.24739647  0.37749174  1
  Te2-  Te207  1  0.99729284  0.74847444  0.37687533  1
  Te2-  Te208  1  0.25370989  0.00619395  0.37948565  1
  Te2-  Te209  1  0.25225396  0.50779143  0.37843109  1
  Te2-  Te210  1  0.75585547  0.00599374  0.37681110  1
  Te2-  Te211  1  0.75748562  0.50545253  0.37351533  1
  Te2-  Te212  1  0.25166597  0.24441580  0.37785223  1
  Te2-  Te213  1  0.25201507  0.74736323  0.37926129  1
  Te2-  Te214  1  0.75587960  0.24796817  0.37374919  1
  Te2-  Te215  1  0.75756834  0.74964741  0.37442224  1
