# generated using pymatgen
data_Ti(CuTe)4
_symmetry_space_group_name_H-M   'P 1'
_cell_length_a   16.87762368
_cell_length_b   16.87834005
_cell_length_c   20.69007046
_cell_angle_alpha   89.94786682
_cell_angle_beta   90.06619909
_cell_angle_gamma   120.02027906
_symmetry_Int_Tables_number   1
_chemical_formula_structural   Ti(CuTe)4
_chemical_formula_sum   'Ti24 Cu96 Te96'
_cell_volume   5103.22279401
_cell_formula_units_Z   24
loop_
 _symmetry_equiv_pos_site_id
 _symmetry_equiv_pos_as_xyz
  1  'x, y, z'
loop_
 _atom_type_symbol
 _atom_type_oxidation_number
  Ti4+  4.0
  Cu+  1.0
  Te2-  -2.0
loop_
 _atom_site_type_symbol
 _atom_site_label
 _atom_site_symmetry_multiplicity
 _atom_site_fract_x
 _atom_site_fract_y
 _atom_site_fract_z
 _atom_site_occupancy
  Ti4+  Ti0  1  0.00061935  -0.00322415  0.25985065  1
  Ti4+  Ti1  1  -0.00201155  0.49684672  0.26037034  1
  Ti4+  Ti2  1  0.49915910  0.00105295  0.25597442  1
  Ti4+  Ti3  1  0.50118103  0.50342899  0.25530284  1
  Ti4+  Ti4  1  0.33660959  0.16790963  0.58845244  1
  Ti4+  Ti5  1  0.33382256  0.66795700  0.59312425  1
  Ti4+  Ti6  1  0.83631439  0.16874423  0.59322417  1
  Ti4+  Ti7  1  0.83666051  0.67083965  0.59175648  1
  Ti4+  Ti8  1  0.16228990  0.33004397  0.92226453  1
  Ti4+  Ti9  1  0.16356323  0.83140671  0.92478617  1
  Ti4+  Ti10  1  0.66763425  0.33517763  0.92286155  1
  Ti4+  Ti11  1  0.66170404  0.83098309  0.92620032  1
  Ti4+  Ti12  1  0.00199533  0.00147711  0.75688615  1
  Ti4+  Ti13  1  0.00041678  0.50095461  0.75381961  1
  Ti4+  Ti14  1  0.50200610  -0.00101188  0.75584682  1
  Ti4+  Ti15  1  0.50072271  0.50098444  0.75426075  1
  Ti4+  Ti16  1  0.33154304  0.16281348  0.08750744  1
  Ti4+  Ti17  1  0.33392544  0.66510829  0.08817197  1
  Ti4+  Ti18  1  0.83217784  0.16749563  0.09064602  1
  Ti4+  Ti19  1  0.83213380  0.66673183  0.08876760  1
  Ti4+  Ti20  1  0.16577552  0.33309292  0.42154465  1
  Ti4+  Ti21  1  0.16787099  0.83357796  0.42189834  1
  Ti4+  Ti22  1  0.66716005  0.33295490  0.42249865  1
  Ti4+  Ti23  1  0.66838961  0.83313885  0.42489897  1
  Cu+  Cu24  1  0.40105710  0.81422476  0.81022310  1
  Cu+  Cu25  1  0.90012172  0.08537603  0.80946804  1
  Cu+  Cu26  1  0.85504530  0.93200791  0.47747620  1
  Cu+  Cu27  1  0.74610795  0.76439857  0.14284032  1
  Cu+  Cu28  1  0.73780215  0.26556865  0.13975821  1
  Cu+  Cu29  1  0.08060854  0.92845141  0.47761351  1
  Cu+  Cu30  1  0.90412059  0.59475077  0.80590005  1
  Cu+  Cu31  1  0.23511860  0.97103784  0.13988397  1
  Cu+  Cu32  1  0.07307219  0.42905328  0.47686846  1
  Cu+  Cu33  1  0.51642781  0.76187073  0.14508678  1
  Cu+  Cu34  1  0.40255224  0.58750698  0.80904385  1
  Cu+  Cu35  1  0.90566735  0.31985307  0.80984417  1
  Cu+  Cu36  1  0.16524684  0.07462497  0.17201770  1
  Cu+  Cu37  1  0.16366275  0.57722048  0.17404576  1
  Cu+  Cu38  1  0.66415560  0.08850342  0.16968247  1
  Cu+  Cu39  1  0.66394868  0.58741107  0.16829717  1
  Cu+  Cu40  1  0.41817169  0.33690999  0.16923361  1
  Cu+  Cu41  1  0.42053455  0.83754027  0.16917835  1
  Cu+  Cu42  1  0.91359922  0.33467079  0.17380555  1
  Cu+  Cu43  1  0.91759635  0.83685449  0.17190817  1
  Cu+  Cu44  1  0.41243951  0.07611632  0.16788817  1
  Cu+  Cu45  1  0.42363040  0.58511689  0.16771211  1
  Cu+  Cu46  1  0.91653088  0.08025824  0.17345290  1
  Cu+  Cu47  1  0.91875835  0.58033611  0.17245454  1
  Cu+  Cu48  1  0.49836884  0.24876110  0.50310361  1
  Cu+  Cu49  1  0.49739023  0.74945937  0.50842467  1
  Cu+  Cu50  1  0.99822458  0.25254868  0.50465923  1
  Cu+  Cu51  1  0.99918513  0.75250712  0.50466592  1
  Cu+  Cu52  1  0.25375329  0.00593352  0.50250698  1
  Cu+  Cu53  1  0.24849012  0.50187987  0.50536638  1
  Cu+  Cu54  1  0.75497705  0.00224621  0.50743126  1
  Cu+  Cu55  1  0.75289041  0.50335097  0.50646399  1
  Cu+  Cu56  1  0.25532564  0.24936374  0.50136070  1
  Cu+  Cu57  1  0.25699610  0.75181419  0.50526219  1
  Cu+  Cu58  1  0.75336424  0.24993500  0.50580244  1
  Cu+  Cu59  1  0.75834452  0.75544225  0.50527295  1
  Cu+  Cu60  1  0.32941343  0.41536297  0.83601997  1
  Cu+  Cu61  1  0.33085046  0.91490236  0.83956149  1
  Cu+  Cu62  1  0.82957024  0.41759518  0.83528031  1
  Cu+  Cu63  1  0.82998651  0.91504255  0.84126731  1
  Cu+  Cu64  1  0.07850619  0.16779174  0.83567675  1
  Cu+  Cu65  1  0.07848005  0.66989775  0.83572074  1
  Cu+  Cu66  1  0.58659794  0.16996160  0.83695314  1
  Cu+  Cu67  1  0.57947923  0.66777093  0.83780884  1
  Cu+  Cu68  1  0.08049199  0.40779286  0.83320195  1
  Cu+  Cu69  1  0.08631926  0.91562716  0.83915383  1
  Cu+  Cu70  1  0.58667173  0.41586056  0.83537566  1
  Cu+  Cu71  1  0.57813804  0.90809600  0.83643791  1
  Cu+  Cu72  1  0.17376349  0.08490456  0.67350487  1
  Cu+  Cu73  1  0.16884780  0.58535365  0.67512148  1
  Cu+  Cu74  1  0.67049709  0.08343690  0.67567871  1
  Cu+  Cu75  1  0.67084965  0.58644235  0.67378772  1
  Cu+  Cu76  1  0.41851486  0.33073742  0.67127583  1
  Cu+  Cu77  1  0.41763934  0.83110041  0.68109686  1
  Cu+  Cu78  1  0.91843406  0.33318157  0.68078501  1
  Cu+  Cu79  1  0.92051581  0.83505839  0.67881392  1
  Cu+  Cu80  1  0.41850626  0.08586101  0.67135143  1
  Cu+  Cu81  1  0.41637386  0.58619207  0.67868894  1
  Cu+  Cu82  1  0.91812260  0.08617077  0.68106026  1
  Cu+  Cu83  1  0.91679829  0.58833953  0.67799254  1
  Cu+  Cu84  1  -0.00086153  0.24825138  0.00997705  1
  Cu+  Cu85  1  -0.00220393  0.74905342  0.00894100  1
  Cu+  Cu86  1  0.50151088  0.24978748  0.00501080  1
  Cu+  Cu87  1  0.49922735  0.74786846  0.01583645  1
  Cu+  Cu88  1  0.24638832  0.49419069  0.00651327  1
  Cu+  Cu89  1  0.24633132  0.99268273  0.01196633  1
  Cu+  Cu90  1  0.75163784  0.49982928  0.00759989  1
  Cu+  Cu91  1  0.74868354  0.99943841  0.00953795  1
  Cu+  Cu92  1  0.24566363  0.24780771  0.00446675  1
  Cu+  Cu93  1  0.24612008  0.74696318  0.00862701  1
  Cu+  Cu94  1  0.75121232  0.25535110  0.01220073  1
  Cu+  Cu95  1  0.74684164  0.75145781  0.01327417  1
  Cu+  Cu96  1  0.33597004  0.41940348  0.33783545  1
  Cu+  Cu97  1  0.33556773  0.91609740  0.34072814  1
  Cu+  Cu98  1  0.83381760  0.41462598  0.34382408  1
  Cu+  Cu99  1  0.83589793  0.91550089  0.34949136  1
  Cu+  Cu100  1  0.08338061  0.16429067  0.34104784  1
  Cu+  Cu101  1  0.08415416  0.66173310  0.34358191  1
  Cu+  Cu102  1  0.58264609  0.16526398  0.33992567  1
  Cu+  Cu103  1  0.58184539  0.66584623  0.34343053  1
  Cu+  Cu104  1  0.07913134  0.41578718  0.34711910  1
  Cu+  Cu105  1  0.08186948  0.91444203  0.34756615  1
  Cu+  Cu106  1  0.58296908  0.42045092  0.33808126  1
  Cu+  Cu107  1  0.58212151  0.91766662  0.34199977  1
  Cu+  Cu108  1  0.00268438  0.00625489  0.11675077  1
  Cu+  Cu109  1  0.00303876  0.50143827  0.11775469  1
  Cu+  Cu110  1  0.50104693  0.00105694  0.11057647  1
  Cu+  Cu111  1  0.49856001  0.49377133  0.11019287  1
  Cu+  Cu112  1  0.33741354  0.16996916  0.44331754  1
  Cu+  Cu113  1  0.33638845  0.66518734  0.45007171  1
  Cu+  Cu114  1  0.83065484  0.16438388  0.44965637  1
  Cu+  Cu115  1  0.83146157  0.66241966  0.44926786  1
  Cu+  Cu116  1  0.17086059  0.33078272  0.77756906  1
  Cu+  Cu117  1  0.17028247  0.83687528  0.78117508  1
  Cu+  Cu118  1  0.66252973  0.33067978  0.77759015  1
  Cu+  Cu119  1  0.66970250  0.83180833  0.78250187  1
  Te2-  Te120  1  0.00309439  0.00187786  0.39154558  1
  Te2-  Te121  1  -0.00309775  0.49896836  0.39124706  1
  Te2-  Te122  1  0.50020406  0.00078689  0.38458705  1
  Te2-  Te123  1  0.49942243  0.50036415  0.38426693  1
  Te2-  Te124  1  0.33755656  0.16776221  0.71780006  1
  Te2-  Te125  1  0.33072382  0.66523236  0.72546761  1
  Te2-  Te126  1  0.83269312  0.16697796  0.72502529  1
  Te2-  Te127  1  0.83320818  0.67065059  0.72241658  1
  Te2-  Te128  1  0.16478200  0.33003435  0.05097068  1
  Te2-  Te129  1  0.16185665  0.82632695  0.05518232  1
  Te2-  Te130  1  0.66454550  0.33592720  0.05323987  1
  Te2-  Te131  1  0.66597399  0.83626106  0.05786571  1
  Te2-  Te132  1  0.49705860  0.24842500  0.87925690  1
  Te2-  Te133  1  0.48577832  0.74188202  0.88698202  1
  Te2-  Te134  1  0.98477620  0.24160986  0.88367401  1
  Te2-  Te135  1  0.98957926  0.74858349  0.88321107  1
  Te2-  Te136  1  0.25226938  0.00322262  0.88483692  1
  Te2-  Te137  1  0.24609715  0.50358249  0.88087080  1
  Te2-  Te138  1  0.74527474  0.00298833  0.88381783  1
  Te2-  Te139  1  0.75254998  0.50906140  0.88187611  1
  Te2-  Te140  1  0.24786928  0.24603333  0.87828975  1
  Te2-  Te141  1  0.24584937  0.74126473  0.88259103  1
  Te2-  Te142  1  0.75275996  0.24688500  0.88432373  1
  Te2-  Te143  1  0.74730428  0.74676331  0.88516053  1
  Te2-  Te144  1  0.33038165  0.41756275  0.21199437  1
  Te2-  Te145  1  0.32525495  0.90818401  0.21499917  1
  Te2-  Te146  1  0.82370292  0.41420495  0.21819229  1
  Te2-  Te147  1  0.82684537  0.91466118  0.22140370  1
  Te2-  Te148  1  0.08624340  0.16579297  0.21480274  1
  Te2-  Te149  1  0.08595972  0.66773787  0.21745990  1
  Te2-  Te150  1  0.58081256  0.17401924  0.21377493  1
  Te2-  Te151  1  0.59089083  0.68146060  0.21725072  1
  Te2-  Te152  1  0.08189023  0.40989555  0.21930805  1
  Te2-  Te153  1  0.08314805  0.90616138  0.21957987  1
  Te2-  Te154  1  0.58704367  0.41896150  0.21189479  1
  Te2-  Te155  1  0.59089713  0.91976022  0.21557738  1
  Te2-  Te156  1  0.16169322  0.08397356  0.54813010  1
  Te2-  Te157  1  0.16057025  0.58475011  0.54969532  1
  Te2-  Te158  1  0.66629553  0.08196332  0.54988533  1
  Te2-  Te159  1  0.66678742  0.58658545  0.54804395  1
  Te2-  Te160  1  0.42169722  0.33971100  0.54580348  1
  Te2-  Te161  1  0.42140614  0.84002747  0.55386285  1
  Te2-  Te162  1  0.91948446  0.34197286  0.55277704  1
  Te2-  Te163  1  0.92616869  0.84795553  0.55263289  1
  Te2-  Te164  1  0.42116819  0.08100993  0.54591885  1
  Te2-  Te165  1  0.41684392  0.58088670  0.55090348  1
  Te2-  Te166  1  0.92596247  0.08583037  0.55315019  1
  Te2-  Te167  1  0.92144096  0.58515647  0.55053647  1
  Te2-  Te168  1  0.00050807  -0.00038116  0.88394780  1
  Te2-  Te169  1  0.00069238  0.49885455  0.88129028  1
  Te2-  Te170  1  0.50085291  0.00064553  0.88299668  1
  Te2-  Te171  1  0.49857636  0.49693148  0.88138421  1
  Te2-  Te172  1  0.33550255  0.16822354  0.21440817  1
  Te2-  Te173  1  0.33515120  0.66638304  0.21508808  1
  Te2-  Te174  1  0.83230765  0.16495623  0.21759921  1
  Te2-  Te175  1  0.83331749  0.66542690  0.21566571  1
  Te2-  Te176  1  0.16915204  0.33214431  0.54841640  1
  Te2-  Te177  1  0.17050601  0.83620482  0.54883008  1
  Te2-  Te178  1  0.66706932  0.33379153  0.54856346  1
  Te2-  Te179  1  0.66704113  0.83290351  0.55201122  1
  Te2-  Te180  1  0.32942640  0.41229351  0.70764652  1
  Te2-  Te181  1  0.32980865  0.91676802  0.71111775  1
  Te2-  Te182  1  0.82646721  0.41501652  0.70755172  1
  Te2-  Te183  1  0.82842160  0.91366193  0.71265712  1
  Te2-  Te184  1  0.09111461  0.17285580  0.70910303  1
  Te2-  Te185  1  0.08890866  0.67529090  0.70966220  1
  Te2-  Te186  1  0.58746224  0.17069182  0.71028790  1
  Te2-  Te187  1  0.58894120  0.67446590  0.71024654  1
  Te2-  Te188  1  0.09058683  0.41572570  0.70815516  1
  Te2-  Te189  1  0.08997355  0.91667324  0.71302266  1
  Te2-  Te190  1  0.58776635  0.41620564  0.70907118  1
  Te2-  Te191  1  0.59052126  0.91362062  0.71052538  1
  Te2-  Te192  1  0.15879305  0.07840996  0.04349087  1
  Te2-  Te193  1  0.16100080  0.57755847  0.04637267  1
  Te2-  Te194  1  0.66055503  0.08178203  0.04267667  1
  Te2-  Te195  1  0.65963026  0.57842340  0.04162753  1
  Te2-  Te196  1  0.41586102  0.33396086  0.04151020  1
  Te2-  Te197  1  0.41653337  0.83885477  0.04230345  1
  Te2-  Te198  1  0.92208548  0.34065557  0.04646230  1
  Te2-  Te199  1  0.91959388  0.84091008  0.04492571  1
  Te2-  Te200  1  0.42030797  0.07962275  0.04083897  1
  Te2-  Te201  1  0.41649297  0.57458715  0.04152311  1
  Te2-  Te202  1  0.91714393  0.07924186  0.04663877  1
  Te2-  Te203  1  0.91936289  0.58016506  0.04619504  1
  Te2-  Te204  1  0.49685653  0.25012400  0.37566811  1
  Te2-  Te205  1  0.49610809  0.74898437  0.38098817  1
  Te2-  Te206  1  0.99198840  0.24256913  0.37758973  1
  Te2-  Te207  1  0.99368254  0.74223602  0.37814678  1
  Te2-  Te208  1  0.25544917  0.00626727  0.37518181  1
  Te2-  Te209  1  0.25315841  0.50556697  0.37719535  1
  Te2-  Te210  1  0.75224933  0.00537236  0.37916335  1
  Te2-  Te211  1  0.75230788  0.50452132  0.37836804  1
  Te2-  Te212  1  0.25383497  0.24952077  0.37519652  1
  Te2-  Te213  1  0.25438982  0.74695759  0.37927549  1
  Te2-  Te214  1  0.75189327  0.24488683  0.37889161  1
  Te2-  Te215  1  0.75179568  0.74345013  0.37891014  1
