# generated using pymatgen
data_Ti(CuTe)4
_symmetry_space_group_name_H-M   'P 1'
_cell_length_a   16.87766980
_cell_length_b   16.87890417
_cell_length_c   20.69087467
_cell_angle_alpha   89.99656203
_cell_angle_beta   90.04319015
_cell_angle_gamma   120.00985047
_symmetry_Int_Tables_number   1
_chemical_formula_structural   Ti(CuTe)4
_chemical_formula_sum   'Ti24 Cu96 Te96'
_cell_volume   5104.14432624
_cell_formula_units_Z   24
loop_
 _symmetry_equiv_pos_site_id
 _symmetry_equiv_pos_as_xyz
  1  'x, y, z'
loop_
 _atom_type_symbol
 _atom_type_oxidation_number
  Ti4+  4.0
  Cu+  1.0
  Te2-  -2.0
loop_
 _atom_site_type_symbol
 _atom_site_label
 _atom_site_symmetry_multiplicity
 _atom_site_fract_x
 _atom_site_fract_y
 _atom_site_fract_z
 _atom_site_occupancy
  Ti4+  Ti0  1  -0.00061862  0.00337027  0.25564326  1
  Ti4+  Ti1  1  0.00054620  0.50391073  0.25768028  1
  Ti4+  Ti2  1  0.49956432  -0.00086581  0.25691145  1
  Ti4+  Ti3  1  0.49883643  0.49915633  0.25659686  1
  Ti4+  Ti4  1  0.33158285  0.16187060  0.59199939  1
  Ti4+  Ti5  1  0.32965472  0.66369831  0.59360326  1
  Ti4+  Ti6  1  0.83226471  0.16622283  0.58849227  1
  Ti4+  Ti7  1  0.83215820  0.66614024  0.59193761  1
  Ti4+  Ti8  1  0.17136067  0.33583779  0.92224034  1
  Ti4+  Ti9  1  0.16681307  0.83230029  0.92505501  1
  Ti4+  Ti10  1  0.66438390  0.33123914  0.92961713  1
  Ti4+  Ti11  1  0.66817342  0.83456381  0.92358379  1
  Ti4+  Ti12  1  0.00004092  0.00042215  0.75562103  1
  Ti4+  Ti13  1  0.00101107  0.50063359  0.75704227  1
  Ti4+  Ti14  1  0.50087867  -0.00058558  0.75820371  1
  Ti4+  Ti15  1  0.49775455  0.49633634  0.75452406  1
  Ti4+  Ti16  1  0.33402285  0.16962921  0.08805433  1
  Ti4+  Ti17  1  0.33319119  0.66822987  0.09004373  1
  Ti4+  Ti18  1  0.83484131  0.16480301  0.08790965  1
  Ti4+  Ti19  1  0.83425423  0.66557985  0.08554465  1
  Ti4+  Ti20  1  0.16576001  0.33480381  0.42317002  1
  Ti4+  Ti21  1  0.16740552  0.83509496  0.42261266  1
  Ti4+  Ti22  1  0.66638720  0.33201476  0.42283984  1
  Ti4+  Ti23  1  0.66730191  0.83337302  0.42199857  1
  Cu+  Cu24  1  0.07293851  0.14470777  0.47345904  1
  Cu+  Cu25  1  0.40594846  0.30657398  0.80617198  1
  Cu+  Cu26  1  0.73718051  0.97464145  0.13943976  1
  Cu+  Cu27  1  0.50677893  0.25443208  0.15127417  1
  Cu+  Cu28  1  0.74804028  0.25257579  0.15103150  1
  Cu+  Cu29  1  0.23685065  0.26489990  0.13911389  1
  Cu+  Cu30  1  0.23679689  0.76442575  0.14035552  1
  Cu+  Cu31  1  0.41439239  0.59437395  0.80869120  1
  Cu+  Cu32  1  0.18674011  0.59790003  0.80962079  1
  Cu+  Cu33  1  0.74450407  0.48890147  0.14559109  1
  Cu+  Cu34  1  0.56821514  0.13946104  0.47418634  1
  Cu+  Cu35  1  0.06950041  0.42938425  0.47392095  1
  Cu+  Cu36  1  0.16462743  0.09049615  0.16882958  1
  Cu+  Cu37  1  0.16535497  0.58911449  0.17215433  1
  Cu+  Cu38  1  0.66439028  0.07714794  0.16915794  1
  Cu+  Cu39  1  0.66507903  0.58288014  0.16734513  1
  Cu+  Cu40  1  0.41462074  0.33927477  0.16787044  1
  Cu+  Cu41  1  0.41204058  0.83564140  0.17012660  1
  Cu+  Cu42  1  0.92206450  0.33891018  0.17001705  1
  Cu+  Cu43  1  0.91868463  0.83744476  0.16739230  1
  Cu+  Cu44  1  0.41942954  0.08113357  0.16877935  1
  Cu+  Cu45  1  0.41853713  0.58202450  0.17096972  1
  Cu+  Cu46  1  0.91598161  0.07715819  0.16715643  1
  Cu+  Cu47  1  0.91906317  0.58094218  0.16661635  1
  Cu+  Cu48  1  0.49758432  0.24261088  0.50622235  1
  Cu+  Cu49  1  0.49828963  0.74623434  0.50747886  1
  Cu+  Cu50  1  0.99782749  0.25029130  0.50205888  1
  Cu+  Cu51  1  0.99676981  0.74859068  0.50535356  1
  Cu+  Cu52  1  0.25194900  0.00296242  0.50388291  1
  Cu+  Cu53  1  0.24532155  0.50374563  0.50635179  1
  Cu+  Cu54  1  0.75095592  0.00329329  0.50176374  1
  Cu+  Cu55  1  0.75222322  0.50489189  0.50625460  1
  Cu+  Cu56  1  0.24799477  0.24395422  0.50573438  1
  Cu+  Cu57  1  0.24801780  0.74631699  0.50619094  1
  Cu+  Cu58  1  0.74548233  0.24248445  0.50194112  1
  Cu+  Cu59  1  0.75066432  0.74684612  0.50507880  1
  Cu+  Cu60  1  0.33152871  0.41277461  0.83378567  1
  Cu+  Cu61  1  0.33191574  0.91380924  0.84003332  1
  Cu+  Cu62  1  0.83048617  0.41520170  0.84245387  1
  Cu+  Cu63  1  0.83240263  0.91879098  0.83816268  1
  Cu+  Cu64  1  0.08787189  0.17012549  0.83670323  1
  Cu+  Cu65  1  0.08878394  0.67032886  0.83912174  1
  Cu+  Cu66  1  0.58559977  0.16895993  0.84241686  1
  Cu+  Cu67  1  0.58541310  0.67240373  0.83583738  1
  Cu+  Cu68  1  0.09021328  0.42162240  0.83603185  1
  Cu+  Cu69  1  0.08377982  0.91474993  0.83912159  1
  Cu+  Cu70  1  0.57906512  0.40836728  0.83948347  1
  Cu+  Cu71  1  0.58844760  0.91801865  0.83858402  1
  Cu+  Cu72  1  0.16677281  0.08255148  0.67548991  1
  Cu+  Cu73  1  0.16776495  0.58325896  0.68148742  1
  Cu+  Cu74  1  0.66783286  0.08493521  0.67541994  1
  Cu+  Cu75  1  0.66915040  0.58260645  0.67481567  1
  Cu+  Cu76  1  0.41543227  0.32491034  0.67786178  1
  Cu+  Cu77  1  0.41707719  0.83127378  0.67599639  1
  Cu+  Cu78  1  0.91288379  0.33113913  0.67313741  1
  Cu+  Cu79  1  0.91269225  0.82868629  0.67456752  1
  Cu+  Cu80  1  0.41804801  0.08271979  0.67810042  1
  Cu+  Cu81  1  0.41180415  0.58058056  0.67935834  1
  Cu+  Cu82  1  0.91668161  0.08582627  0.67266686  1
  Cu+  Cu83  1  0.91348103  0.58452584  0.67578402  1
  Cu+  Cu84  1  0.00460709  0.25116484  0.00427150  1
  Cu+  Cu85  1  0.00244819  0.74893968  0.00608484  1
  Cu+  Cu86  1  0.50159704  0.25083868  0.01719372  1
  Cu+  Cu87  1  0.50321557  0.75197228  0.00755778  1
  Cu+  Cu88  1  0.25269035  0.50092522  0.00831701  1
  Cu+  Cu89  1  0.24886092  0.99744174  0.00701978  1
  Cu+  Cu90  1  0.74793352  0.49516022  0.01394545  1
  Cu+  Cu91  1  0.75164479  0.99526884  0.01168985  1
  Cu+  Cu92  1  0.25077910  0.25415470  0.01127206  1
  Cu+  Cu93  1  0.24692459  0.75142994  0.01415444  1
  Cu+  Cu94  1  0.75092061  0.25139657  0.01722275  1
  Cu+  Cu95  1  0.75060828  0.75210253  0.00403402  1
  Cu+  Cu96  1  0.33493282  0.41863153  0.34228990  1
  Cu+  Cu97  1  0.33413787  0.91770307  0.34353242  1
  Cu+  Cu98  1  0.83460598  0.41955571  0.34363509  1
  Cu+  Cu99  1  0.83410915  0.91790446  0.34050764  1
  Cu+  Cu100  1  0.08296615  0.16648929  0.34401436  1
  Cu+  Cu101  1  0.08461315  0.66966137  0.34194856  1
  Cu+  Cu102  1  0.58291930  0.16428745  0.34692220  1
  Cu+  Cu103  1  0.58256874  0.66334284  0.34036619  1
  Cu+  Cu104  1  0.08436815  0.42495358  0.34529921  1
  Cu+  Cu105  1  0.08473547  0.92215137  0.33906638  1
  Cu+  Cu106  1  0.58265719  0.41769139  0.34299494  1
  Cu+  Cu107  1  0.58217151  0.91509070  0.34120521  1
  Cu+  Cu108  1  0.00296282  -0.00270085  0.11044936  1
  Cu+  Cu109  1  0.00411789  0.49950293  0.11253735  1
  Cu+  Cu110  1  0.50092468  -0.00202818  0.11167487  1
  Cu+  Cu111  1  0.50324650  0.50679678  0.11103505  1
  Cu+  Cu112  1  0.33483128  0.16929376  0.44846992  1
  Cu+  Cu113  1  0.33805126  0.67276706  0.45157383  1
  Cu+  Cu114  1  0.83433366  0.16636825  0.44318778  1
  Cu+  Cu115  1  0.83587151  0.66974410  0.44847249  1
  Cu+  Cu116  1  0.16133408  0.33039044  0.77842048  1
  Cu+  Cu117  1  0.16730930  0.83754767  0.78267415  1
  Cu+  Cu118  1  0.67016972  0.33338313  0.78658754  1
  Cu+  Cu119  1  0.67073642  0.83668711  0.78054457  1
  Te2-  Te120  1  -0.00118729  -0.00005421  0.38579326  1
  Te2-  Te121  1  -0.00075392  0.50564389  0.38802953  1
  Te2-  Te122  1  0.49924095  -0.00345415  0.38684998  1
  Te2-  Te123  1  0.49957052  0.49940234  0.38547638  1
  Te2-  Te124  1  0.33047133  0.15973613  0.72252959  1
  Te2-  Te125  1  0.33430150  0.66808477  0.72520142  1
  Te2-  Te126  1  0.83352693  0.16695402  0.71728943  1
  Te2-  Te127  1  0.83179099  0.66598664  0.72165831  1
  Te2-  Te128  1  0.16684882  0.33684629  0.05273711  1
  Te2-  Te129  1  0.16402057  0.83529754  0.05566399  1
  Te2-  Te130  1  0.66631488  0.33160001  0.06283379  1
  Te2-  Te131  1  0.66633906  0.82917858  0.05430841  1
  Te2-  Te132  1  0.49116706  0.24142686  0.88843918  1
  Te2-  Te133  1  0.49418359  0.75046476  0.88218079  1
  Te2-  Te134  1  1.00076776  0.25213121  0.87865729  1
  Te2-  Te135  1  0.99616980  0.74595010  0.88095856  1
  Te2-  Te136  1  0.25243591  0.00296611  0.88160004  1
  Te2-  Te137  1  0.25917515  0.51106139  0.88208324  1
  Te2-  Te138  1  0.75462581  0.00694553  0.88453998  1
  Te2-  Te139  1  0.74721151  0.50063999  0.88595008  1
  Te2-  Te140  1  0.25430701  0.24527168  0.88358955  1
  Te2-  Te141  1  0.25731775  0.74811550  0.88707564  1
  Te2-  Te142  1  0.75235090  0.24848977  0.88897983  1
  Te2-  Te143  1  0.75316251  0.74932361  0.87875853  1
  Te2-  Te144  1  0.32417302  0.41550835  0.21622355  1
  Te2-  Te145  1  0.32565533  0.91680941  0.21746389  1
  Te2-  Te146  1  0.82520356  0.41313168  0.21729749  1
  Te2-  Te147  1  0.82521935  0.90989515  0.21465377  1
  Te2-  Te148  1  0.08276975  0.17697434  0.21605033  1
  Te2-  Te149  1  0.08363551  0.67688416  0.21611460  1
  Te2-  Te150  1  0.58862124  0.17422955  0.21884040  1
  Te2-  Te151  1  0.58635801  0.67024367  0.21428534  1
  Te2-  Te152  1  0.08829730  0.42045983  0.21740053  1
  Te2-  Te153  1  0.08698280  0.92067200  0.21259560  1
  Te2-  Te154  1  0.58733076  0.41253217  0.21660725  1
  Te2-  Te155  1  0.58118641  0.90852392  0.21498189  1
  Te2-  Te156  1  0.15774751  0.07474015  0.54981000  1
  Te2-  Te157  1  0.15504366  0.58065878  0.55387504  1
  Te2-  Te158  1  0.65739236  0.07526352  0.54935746  1
  Te2-  Te159  1  0.65982864  0.57953124  0.54950729  1
  Te2-  Te160  1  0.41771850  0.33237372  0.54996860  1
  Te2-  Te161  1  0.41653851  0.83381583  0.55013035  1
  Te2-  Te162  1  0.91465710  0.33886531  0.54693216  1
  Te2-  Te163  1  0.91810838  0.83770757  0.54889449  1
  Te2-  Te164  1  0.41734802  0.07352579  0.55185817  1
  Te2-  Te165  1  0.41378639  0.57752561  0.55168796  1
  Te2-  Te166  1  0.91829560  0.07912291  0.54653774  1
  Te2-  Te167  1  0.91930129  0.58111526  0.55008094  1
  Te2-  Te168  1  0.00143559  0.00161631  0.88184006  1
  Te2-  Te169  1  0.00081038  0.50000563  0.88419511  1
  Te2-  Te170  1  0.50133087  -0.00089929  0.88445436  1
  Te2-  Te171  1  0.50133487  0.50215786  0.88202358  1
  Te2-  Te172  1  0.33432134  0.16781011  0.21590384  1
  Te2-  Te173  1  0.33457776  0.66723354  0.21685790  1
  Te2-  Te174  1  0.83605809  0.16748015  0.21586774  1
  Te2-  Te175  1  0.83500182  0.66782433  0.21289752  1
  Te2-  Te176  1  0.16658737  0.33263479  0.55038632  1
  Te2-  Te177  1  0.16569178  0.83348239  0.54876078  1
  Te2-  Te178  1  0.66788212  0.33371974  0.54929360  1
  Te2-  Te179  1  0.66817504  0.83391245  0.54813609  1
  Te2-  Te180  1  0.32418374  0.40756119  0.70736969  1
  Te2-  Te181  1  0.32833747  0.91198879  0.71361161  1
  Te2-  Te182  1  0.82853828  0.41482120  0.71470917  1
  Te2-  Te183  1  0.82875079  0.91554134  0.71072881  1
  Te2-  Te184  1  0.08617861  0.17206999  0.70987379  1
  Te2-  Te185  1  0.08456350  0.67339021  0.71201502  1
  Te2-  Te186  1  0.58724221  0.17253936  0.71558640  1
  Te2-  Te187  1  0.58525729  0.66975731  0.70914505  1
  Te2-  Te188  1  0.08287714  0.41051685  0.70929149  1
  Te2-  Te189  1  0.08353945  0.91204670  0.71180296  1
  Te2-  Te190  1  0.58729339  0.41226424  0.71209818  1
  Te2-  Te191  1  0.58728573  0.91447470  0.71206353  1
  Te2-  Te192  1  0.16228044  0.08134458  0.04159613  1
  Te2-  Te193  1  0.16085441  0.57885043  0.04429330  1
  Te2-  Te194  1  0.66074756  0.07763360  0.04199912  1
  Te2-  Te195  1  0.66104595  0.58215748  0.04034184  1
  Te2-  Te196  1  0.42249495  0.34470771  0.04157673  1
  Te2-  Te197  1  0.42093177  0.84009691  0.04344618  1
  Te2-  Te198  1  0.92383018  0.33897368  0.04316920  1
  Te2-  Te199  1  0.92016158  0.83759187  0.04108225  1
  Te2-  Te200  1  0.41788418  0.07800211  0.04354934  1
  Te2-  Te201  1  0.42093397  0.58329242  0.04495914  1
  Te2-  Te202  1  0.92440198  0.08194393  0.04129267  1
  Te2-  Te203  1  0.92188382  0.57880234  0.04085496  1
  Te2-  Te204  1  0.49345067  0.24731702  0.37826866  1
  Te2-  Te205  1  0.49489874  0.74548129  0.37921294  1
  Te2-  Te206  1  0.99439033  0.25100873  0.37418255  1
  Te2-  Te207  1  0.99596003  0.75160235  0.37763970  1
  Te2-  Te208  1  0.25380834  0.00788308  0.37811695  1
  Te2-  Te209  1  0.25535508  0.50866153  0.37966417  1
  Te2-  Te210  1  0.75219644  0.00576375  0.37585920  1
  Te2-  Te211  1  0.75180607  0.50588332  0.38006239  1
  Te2-  Te212  1  0.25371967  0.24926743  0.37832281  1
  Te2-  Te213  1  0.25348610  0.74776273  0.37945523  1
  Te2-  Te214  1  0.75577722  0.24874034  0.37572159  1
  Te2-  Te215  1  0.75284470  0.74723860  0.37765903  1
