# generated using pymatgen
data_Ti(CuTe)4
_symmetry_space_group_name_H-M   'P 1'
_cell_length_a   16.87853039
_cell_length_b   16.87785167
_cell_length_c   20.69471965
_cell_angle_alpha   90.04565252
_cell_angle_beta   89.95445912
_cell_angle_gamma   119.98028087
_symmetry_Int_Tables_number   1
_chemical_formula_structural   Ti(CuTe)4
_chemical_formula_sum   'Ti24 Cu96 Te96'
_cell_volume   5106.55546105
_cell_formula_units_Z   24
loop_
 _symmetry_equiv_pos_site_id
 _symmetry_equiv_pos_as_xyz
  1  'x, y, z'
loop_
 _atom_type_symbol
 _atom_type_oxidation_number
  Ti4+  4.0
  Cu+  1.0
  Te2-  -2.0
loop_
 _atom_site_type_symbol
 _atom_site_label
 _atom_site_symmetry_multiplicity
 _atom_site_fract_x
 _atom_site_fract_y
 _atom_site_fract_z
 _atom_site_occupancy
  Ti4+  Ti0  1  0.00212729  0.00010778  0.25250384  1
  Ti4+  Ti1  1  0.00128212  0.49903901  0.26009991  1
  Ti4+  Ti2  1  0.49952400  -0.00064869  0.25954970  1
  Ti4+  Ti3  1  0.50244236  0.49963865  0.25711006  1
  Ti4+  Ti4  1  0.33506788  0.16487741  0.59098181  1
  Ti4+  Ti5  1  0.33450005  0.66574733  0.59064386  1
  Ti4+  Ti6  1  0.83575578  0.17025435  0.58872653  1
  Ti4+  Ti7  1  0.83130659  0.66556619  0.59200170  1
  Ti4+  Ti8  1  0.16513655  0.33394979  0.92416724  1
  Ti4+  Ti9  1  0.16387733  0.83063061  0.92623567  1
  Ti4+  Ti10  1  0.66618519  0.33637805  0.92855769  1
  Ti4+  Ti11  1  0.66213184  0.83420246  0.92202601  1
  Ti4+  Ti12  1  0.00023679  0.00139865  0.75419869  1
  Ti4+  Ti13  1  -0.00139919  0.50143734  0.75816707  1
  Ti4+  Ti14  1  0.49992418  -0.00156472  0.75734463  1
  Ti4+  Ti15  1  0.49988326  0.49958043  0.75576309  1
  Ti4+  Ti16  1  0.33198804  0.16572122  0.08626344  1
  Ti4+  Ti17  1  0.33215367  0.66687614  0.09053996  1
  Ti4+  Ti18  1  0.83412904  0.16821967  0.08879555  1
  Ti4+  Ti19  1  0.83123763  0.66721694  0.08789063  1
  Ti4+  Ti20  1  0.16699876  0.33332035  0.42051243  1
  Ti4+  Ti21  1  0.16827223  0.83458898  0.42339490  1
  Ti4+  Ti22  1  0.66794501  0.33348531  0.42058307  1
  Ti4+  Ti23  1  0.66676938  0.83173463  0.42060706  1
  Cu+  Cu24  1  0.84925679  0.42831792  0.47818729  1
  Cu+  Cu25  1  0.58042833  0.15407727  0.47888632  1
  Cu+  Cu26  1  0.35313683  0.92332362  0.47819231  1
  Cu+  Cu27  1  0.90127238  0.59616049  0.81071681  1
  Cu+  Cu28  1  0.07870716  0.42913274  0.47712647  1
  Cu+  Cu29  1  0.01421896  0.75225228  0.14351145  1
  Cu+  Cu30  1  0.39986177  0.80645043  0.80672571  1
  Cu+  Cu31  1  0.24634492  0.98235200  0.14118259  1
  Cu+  Cu32  1  0.02517344  0.26318856  0.13985472  1
  Cu+  Cu33  1  0.51376453  0.25272855  0.14466295  1
  Cu+  Cu34  1  0.57151265  0.64111626  0.47274340  1
  Cu+  Cu35  1  0.74662327  0.48606288  0.14611435  1
  Cu+  Cu36  1  0.16121029  0.07499555  0.16407580  1
  Cu+  Cu37  1  0.16482960  0.58018164  0.17290467  1
  Cu+  Cu38  1  0.66479463  0.08324936  0.17194396  1
  Cu+  Cu39  1  0.66226682  0.57881136  0.16941264  1
  Cu+  Cu40  1  0.42209513  0.33644754  0.16810828  1
  Cu+  Cu41  1  0.41522471  0.83496715  0.17303398  1
  Cu+  Cu42  1  0.92266553  0.33548263  0.17233917  1
  Cu+  Cu43  1  0.92225672  0.83733188  0.16598258  1
  Cu+  Cu44  1  0.41888296  0.07902133  0.17147718  1
  Cu+  Cu45  1  0.42075760  0.58479450  0.17240362  1
  Cu+  Cu46  1  0.92316335  0.08695480  0.16746423  1
  Cu+  Cu47  1  0.91863154  0.57990863  0.17325053  1
  Cu+  Cu48  1  0.49545383  0.24375944  0.50255228  1
  Cu+  Cu49  1  0.49883000  0.74444468  0.50251747  1
  Cu+  Cu50  1  0.99856481  0.25410611  0.50094875  1
  Cu+  Cu51  1  0.99795586  0.74814675  0.50594892  1
  Cu+  Cu52  1  0.25689398  0.00304606  0.50415823  1
  Cu+  Cu53  1  0.25102783  0.50406527  0.50300504  1
  Cu+  Cu54  1  0.75315346  0.00339395  0.50138760  1
  Cu+  Cu55  1  0.75585334  0.50757074  0.50326072  1
  Cu+  Cu56  1  0.25220636  0.24823774  0.50413365  1
  Cu+  Cu57  1  0.25536754  0.75096522  0.50527444  1
  Cu+  Cu58  1  0.75659027  0.25020016  0.50084647  1
  Cu+  Cu59  1  0.74543166  0.74382159  0.50389169  1
  Cu+  Cu60  1  0.32991568  0.41664423  0.83787971  1
  Cu+  Cu61  1  0.33059166  0.90976950  0.84021901  1
  Cu+  Cu62  1  0.82983487  0.42277022  0.84151603  1
  Cu+  Cu63  1  0.82917505  0.91856769  0.83605162  1
  Cu+  Cu64  1  0.08156288  0.17060963  0.83742982  1
  Cu+  Cu65  1  0.07822850  0.66970293  0.83921710  1
  Cu+  Cu66  1  0.58352547  0.16935454  0.84241176  1
  Cu+  Cu67  1  0.58095410  0.67013379  0.83617380  1
  Cu+  Cu68  1  0.08335113  0.41466207  0.84011858  1
  Cu+  Cu69  1  0.08339154  0.91629715  0.83906530  1
  Cu+  Cu70  1  0.58352212  0.41527811  0.84102184  1
  Cu+  Cu71  1  0.57725072  0.90924930  0.83618191  1
  Cu+  Cu72  1  0.17053911  0.08469864  0.67406526  1
  Cu+  Cu73  1  0.16737057  0.58416613  0.67703532  1
  Cu+  Cu74  1  0.67041848  0.08734732  0.67476448  1
  Cu+  Cu75  1  0.66723710  0.58158055  0.67617519  1
  Cu+  Cu76  1  0.41640559  0.32853797  0.67501636  1
  Cu+  Cu77  1  0.41615442  0.82965297  0.67851563  1
  Cu+  Cu78  1  0.91573069  0.33407792  0.67622204  1
  Cu+  Cu79  1  0.91587045  0.83184709  0.67423581  1
  Cu+  Cu80  1  0.41738440  0.08333634  0.67754526  1
  Cu+  Cu81  1  0.41650575  0.58241279  0.67452309  1
  Cu+  Cu82  1  0.91805732  0.08782506  0.67144555  1
  Cu+  Cu83  1  0.91399453  0.58507909  0.68178689  1
  Cu+  Cu84  1  0.00321475  0.25331686  0.01134715  1
  Cu+  Cu85  1  -0.00048019  0.75112779  0.01404248  1
  Cu+  Cu86  1  0.50214499  0.25201960  0.01504643  1
  Cu+  Cu87  1  0.49897651  0.75300224  0.00791234  1
  Cu+  Cu88  1  0.24854068  0.49888480  0.00812496  1
  Cu+  Cu89  1  0.24717359  0.99559718  0.01179272  1
  Cu+  Cu90  1  0.74529357  0.49880029  0.01601964  1
  Cu+  Cu91  1  0.74461362  0.99845249  0.00441500  1
  Cu+  Cu92  1  0.24647134  0.25113048  0.00582196  1
  Cu+  Cu93  1  0.24673776  0.74840425  0.01047966  1
  Cu+  Cu94  1  0.74903927  0.25367921  0.01027721  1
  Cu+  Cu95  1  0.74331594  0.75287400  0.00482311  1
  Cu+  Cu96  1  0.33676698  0.41742708  0.33943318  1
  Cu+  Cu97  1  0.33637349  0.92002538  0.34831435  1
  Cu+  Cu98  1  0.83682679  0.41818122  0.34748385  1
  Cu+  Cu99  1  0.83725858  0.91778058  0.33551926  1
  Cu+  Cu100  1  0.08405435  0.16393424  0.33693347  1
  Cu+  Cu101  1  0.08265024  0.66588927  0.34379989  1
  Cu+  Cu102  1  0.58024445  0.16392846  0.34786490  1
  Cu+  Cu103  1  0.58336109  0.66239443  0.34429856  1
  Cu+  Cu104  1  0.08201733  0.41674179  0.34778801  1
  Cu+  Cu105  1  0.08271362  0.91682005  0.34049122  1
  Cu+  Cu106  1  0.58512912  0.41860866  0.34237502  1
  Cu+  Cu107  1  0.58260008  0.91671877  0.34120824  1
  Cu+  Cu108  1  -0.00530574  -0.00057320  0.10705250  1
  Cu+  Cu109  1  0.00102441  0.49949406  0.11636141  1
  Cu+  Cu110  1  0.50388270  -0.00331821  0.11596786  1
  Cu+  Cu111  1  0.49468627  0.50037319  0.11315874  1
  Cu+  Cu112  1  0.33002298  0.16743855  0.44696785  1
  Cu+  Cu113  1  0.33510274  0.66738586  0.44667282  1
  Cu+  Cu114  1  0.83593106  0.16222332  0.44354164  1
  Cu+  Cu115  1  0.83824609  0.67566396  0.44876253  1
  Cu+  Cu116  1  0.16743546  0.33372015  0.78147660  1
  Cu+  Cu117  1  0.16735547  0.83727253  0.78366663  1
  Cu+  Cu118  1  0.66517338  0.33011628  0.78647908  1
  Cu+  Cu119  1  0.66925352  0.83423112  0.77828551  1
  Te2-  Te120  1  0.00045771  -0.00000218  0.38129678  1
  Te2-  Te121  1  0.00241048  0.50343908  0.39213687  1
  Te2-  Te122  1  0.50253317  -0.00178818  0.39185629  1
  Te2-  Te123  1  0.49902279  0.49596930  0.38761041  1
  Te2-  Te124  1  0.33375336  0.16469755  0.71972246  1
  Te2-  Te125  1  0.33218661  0.66230894  0.72057842  1
  Te2-  Te126  1  0.83531374  0.16865006  0.71741629  1
  Te2-  Te127  1  0.83067473  0.66918396  0.72246717  1
  Te2-  Te128  1  0.16961766  0.33584423  0.05544200  1
  Te2-  Te129  1  0.16581012  0.83028750  0.05844747  1
  Te2-  Te130  1  0.66749865  0.33317095  0.06121474  1
  Te2-  Te131  1  0.66345013  0.83571392  0.05139812  1
  Te2-  Te132  1  0.49488005  0.24843258  0.88793005  1
  Te2-  Te133  1  0.48623142  0.74162929  0.88254167  1
  Te2-  Te134  1  0.99242728  0.24786748  0.88488968  1
  Te2-  Te135  1  0.99009989  0.74925436  0.88660506  1
  Te2-  Te136  1  0.25177518  0.00019113  0.88425861  1
  Te2-  Te137  1  0.25143688  0.50587124  0.88259022  1
  Te2-  Te138  1  0.74645592  0.00504689  0.87876792  1
  Te2-  Te139  1  0.74937320  0.51047701  0.88865347  1
  Te2-  Te140  1  0.25015624  0.24794527  0.88041362  1
  Te2-  Te141  1  0.24617465  0.74005846  0.88435983  1
  Te2-  Te142  1  0.75312667  0.25341786  0.88423394  1
  Te2-  Te143  1  0.74907491  0.74962677  0.87929343  1
  Te2-  Te144  1  0.33252683  0.41423728  0.21336446  1
  Te2-  Te145  1  0.32584151  0.91169144  0.22072452  1
  Te2-  Te146  1  0.82895625  0.41016459  0.21962066  1
  Te2-  Te147  1  0.83233329  0.91608447  0.20939688  1
  Te2-  Te148  1  0.09343764  0.17342304  0.21142719  1
  Te2-  Te149  1  0.08856223  0.67154540  0.21793623  1
  Te2-  Te150  1  0.58738262  0.17254100  0.21992329  1
  Te2-  Te151  1  0.58881723  0.67091337  0.21731296  1
  Te2-  Te152  1  0.09012109  0.41435463  0.22028939  1
  Te2-  Te153  1  0.08989077  0.90937281  0.21495982  1
  Te2-  Te154  1  0.59035003  0.41034129  0.21709435  1
  Te2-  Te155  1  0.58446526  0.91459828  0.21516801  1
  Te2-  Te156  1  0.16490248  0.07957118  0.54783260  1
  Te2-  Te157  1  0.16124988  0.58415001  0.55074602  1
  Te2-  Te158  1  0.66303561  0.08046544  0.54857341  1
  Te2-  Te159  1  0.65781709  0.57430011  0.54993104  1
  Te2-  Te160  1  0.42085751  0.33555510  0.54866254  1
  Te2-  Te161  1  0.42533606  0.83845051  0.55103003  1
  Te2-  Te162  1  0.92362281  0.34771066  0.55029082  1
  Te2-  Te163  1  0.91523724  0.83503197  0.54775518  1
  Te2-  Te164  1  0.42541669  0.07631619  0.55188842  1
  Te2-  Te165  1  0.41722772  0.57554004  0.54859888  1
  Te2-  Te166  1  0.92159371  0.08615058  0.54525459  1
  Te2-  Te167  1  0.92265681  0.58223603  0.55422203  1
  Te2-  Te168  1  -0.00228689  0.00128333  0.88063689  1
  Te2-  Te169  1  -0.00038170  0.50065683  0.88495805  1
  Te2-  Te170  1  0.49992367  -0.00002884  0.88428510  1
  Te2-  Te171  1  0.49843211  0.50132859  0.88218067  1
  Te2-  Te172  1  0.33142006  0.16546321  0.21380507  1
  Te2-  Te173  1  0.33404931  0.66615243  0.21703785  1
  Te2-  Te174  1  0.83403497  0.16536243  0.21575952  1
  Te2-  Te175  1  0.83328279  0.66829954  0.21555603  1
  Te2-  Te176  1  0.16790139  0.33347509  0.54753507  1
  Te2-  Te177  1  0.16724440  0.83337569  0.55036331  1
  Te2-  Te178  1  0.66801212  0.33404333  0.54789258  1
  Te2-  Te179  1  0.66799497  0.83555592  0.54753480  1
  Te2-  Te180  1  0.32877438  0.41235994  0.71092826  1
  Te2-  Te181  1  0.32732736  0.91288123  0.71247124  1
  Te2-  Te182  1  0.82548981  0.41294574  0.71398446  1
  Te2-  Te183  1  0.82983333  0.91726152  0.70860317  1
  Te2-  Te184  1  0.08718768  0.17264295  0.71023443  1
  Te2-  Te185  1  0.08723522  0.67423749  0.71257995  1
  Te2-  Te186  1  0.58635192  0.17132536  0.71501560  1
  Te2-  Te187  1  0.58585672  0.67135156  0.71004812  1
  Te2-  Te188  1  0.08481229  0.41499217  0.71374928  1
  Te2-  Te189  1  0.08585259  0.91453348  0.71182400  1
  Te2-  Te190  1  0.58569427  0.41213910  0.71436296  1
  Te2-  Te191  1  0.58887462  0.91622929  0.70944762  1
  Te2-  Te192  1  0.15869926  0.08080434  0.03859588  1
  Te2-  Te193  1  0.16018133  0.57921488  0.04657531  1
  Te2-  Te194  1  0.66175906  0.08353769  0.04518991  1
  Te2-  Te195  1  0.65739262  0.58418862  0.04336067  1
  Te2-  Te196  1  0.41627685  0.33988631  0.04182066  1
  Te2-  Te197  1  0.41608018  0.83857168  0.04627669  1
  Te2-  Te198  1  0.91903861  0.34137563  0.04521605  1
  Te2-  Te199  1  0.91369842  0.83901582  0.03968923  1
  Te2-  Te200  1  0.42002707  0.07809727  0.04350784  1
  Te2-  Te201  1  0.41838189  0.58305807  0.04498092  1
  Te2-  Te202  1  0.91532023  0.07979802  0.03997597  1
  Te2-  Te203  1  0.91857065  0.57859075  0.04483893  1
  Te2-  Te204  1  0.49285597  0.24870625  0.37639923  1
  Te2-  Te205  1  0.49418179  0.74658182  0.37547507  1
  Te2-  Te206  1  0.99468000  0.24378295  0.37403398  1
  Te2-  Te207  1  0.99586768  0.74827494  0.37896500  1
  Te2-  Te208  1  0.25151249  0.00719673  0.37740742  1
  Te2-  Te209  1  0.25564628  0.50631010  0.37591047  1
  Te2-  Te210  1  0.75321282  0.00286692  0.37453628  1
  Te2-  Te211  1  0.75462321  0.50882589  0.37704896  1
  Te2-  Te212  1  0.25285881  0.24763966  0.37638934  1
  Te2-  Te213  1  0.25323065  0.74649347  0.37804105  1
  Te2-  Te214  1  0.75414087  0.24476447  0.37428479  1
  Te2-  Te215  1  0.75586294  0.74901875  0.37572452  1
