# generated using pymatgen
data_Ti(CuTe)4
_symmetry_space_group_name_H-M   'P 1'
_cell_length_a   16.89344560
_cell_length_b   16.89207472
_cell_length_c   20.70708701
_cell_angle_alpha   90.00920845
_cell_angle_beta   89.97171946
_cell_angle_gamma   119.99874856
_symmetry_Int_Tables_number   1
_chemical_formula_structural   Ti(CuTe)4
_chemical_formula_sum   'Ti24 Cu96 Te96'
_cell_volume   5117.48163614
_cell_formula_units_Z   24
loop_
 _symmetry_equiv_pos_site_id
 _symmetry_equiv_pos_as_xyz
  1  'x, y, z'
loop_
 _atom_type_symbol
 _atom_type_oxidation_number
  Ti4+  4.0
  Cu+  1.0
  Te2-  -2.0
loop_
 _atom_site_type_symbol
 _atom_site_label
 _atom_site_symmetry_multiplicity
 _atom_site_fract_x
 _atom_site_fract_y
 _atom_site_fract_z
 _atom_site_occupancy
  Ti4+  Ti0  1  -0.00113453  -0.00083190  0.25708886  1
  Ti4+  Ti1  1  -0.00216715  0.49875643  0.25634721  1
  Ti4+  Ti2  1  0.49848075  -0.00192916  0.25997054  1
  Ti4+  Ti3  1  0.50054974  0.49906938  0.25253648  1
  Ti4+  Ti4  1  0.33001136  0.16466629  0.58937192  1
  Ti4+  Ti5  1  0.33518493  0.67014173  0.59083466  1
  Ti4+  Ti6  1  0.83425153  0.16674224  0.59073041  1
  Ti4+  Ti7  1  0.83446546  0.66548175  0.59221666  1
  Ti4+  Ti8  1  0.16779523  0.33465073  0.92102537  1
  Ti4+  Ti9  1  0.16699509  0.83379530  0.93018832  1
  Ti4+  Ti10  1  0.66779304  0.33142047  0.92263750  1
  Ti4+  Ti11  1  0.66865714  0.83693764  0.92865309  1
  Ti4+  Ti12  1  -0.00019714  -0.00016717  0.75767895  1
  Ti4+  Ti13  1  0.00045786  0.50053794  0.75536656  1
  Ti4+  Ti14  1  0.50162104  0.00159324  0.75868487  1
  Ti4+  Ti15  1  0.49940414  0.50007298  0.75381790  1
  Ti4+  Ti16  1  0.33336354  0.16695642  0.08718400  1
  Ti4+  Ti17  1  0.33419652  0.66815907  0.08661858  1
  Ti4+  Ti18  1  0.83380159  0.16743286  0.08955876  1
  Ti4+  Ti19  1  0.83137477  0.66361273  0.08437101  1
  Ti4+  Ti20  1  0.16529032  0.33097915  0.42019324  1
  Ti4+  Ti21  1  0.16606661  0.83307248  0.42152918  1
  Ti4+  Ti22  1  0.66802050  0.33448278  0.42202623  1
  Ti4+  Ti23  1  0.66462927  0.83232164  0.42272943  1
  Cu+  Cu24  1  0.00335714  0.75060329  0.14868775  1
  Cu+  Cu25  1  0.24398121  0.98846474  0.14662830  1
  Cu+  Cu26  1  0.06998034  0.14088120  0.47331426  1
  Cu+  Cu27  1  0.74318810  0.98800006  0.14747798  1
  Cu+  Cu28  1  0.73805748  0.47574750  0.13629200  1
  Cu+  Cu29  1  0.69359242  0.09555491  0.80804330  1
  Cu+  Cu30  1  0.74657304  0.75153280  0.14708183  1
  Cu+  Cu31  1  0.24436796  0.75431488  0.14820081  1
  Cu+  Cu32  1  0.85805223  0.43007778  0.47553688  1
  Cu+  Cu33  1  0.57686189  0.92735478  0.48070501  1
  Cu+  Cu34  1  0.51150172  0.75631397  0.14552772  1
  Cu+  Cu35  1  0.34646003  0.92575348  0.48121553  1
  Cu+  Cu36  1  0.16400552  0.08232594  0.16992411  1
  Cu+  Cu37  1  0.16174474  0.58133095  0.16820607  1
  Cu+  Cu38  1  0.66383370  0.07985914  0.17274898  1
  Cu+  Cu39  1  0.65899247  0.57527772  0.16344832  1
  Cu+  Cu40  1  0.41905925  0.33756911  0.16625088  1
  Cu+  Cu41  1  0.42014023  0.84015334  0.17003707  1
  Cu+  Cu42  1  0.91671352  0.33680863  0.17041050  1
  Cu+  Cu43  1  0.92104101  0.84325844  0.16584547  1
  Cu+  Cu44  1  0.41553586  0.08052022  0.17135436  1
  Cu+  Cu45  1  0.42095756  0.58263789  0.16551568  1
  Cu+  Cu46  1  0.91719665  0.08184889  0.17113158  1
  Cu+  Cu47  1  0.91431417  0.57407580  0.16599696  1
  Cu+  Cu48  1  0.49683413  0.24871771  0.50354221  1
  Cu+  Cu49  1  0.49590904  0.75294629  0.50360583  1
  Cu+  Cu50  1  0.99765837  0.24323476  0.50235797  1
  Cu+  Cu51  1  0.99477357  0.74741598  0.50488263  1
  Cu+  Cu52  1  0.25308463  0.00587592  0.50259799  1
  Cu+  Cu53  1  0.25177405  0.50302810  0.50379137  1
  Cu+  Cu54  1  0.74926101  0.00396961  0.50451572  1
  Cu+  Cu55  1  0.75674535  0.50316143  0.50494413  1
  Cu+  Cu56  1  0.24392633  0.24230770  0.50201477  1
  Cu+  Cu57  1  0.25530494  0.75194578  0.50318342  1
  Cu+  Cu58  1  0.75488477  0.25302776  0.50375989  1
  Cu+  Cu59  1  0.75178815  0.74848801  0.50670997  1
  Cu+  Cu60  1  0.32976024  0.41519854  0.83460972  1
  Cu+  Cu61  1  0.33046261  0.91658527  0.84389221  1
  Cu+  Cu62  1  0.83105432  0.41455003  0.83679109  1
  Cu+  Cu63  1  0.83141390  0.91749439  0.84152812  1
  Cu+  Cu64  1  0.08520861  0.17101136  0.83728826  1
  Cu+  Cu65  1  0.08617314  0.66939289  0.84210890  1
  Cu+  Cu66  1  0.59130361  0.16960494  0.83753307  1
  Cu+  Cu67  1  0.58319771  0.66879554  0.84035286  1
  Cu+  Cu68  1  0.08518472  0.41522016  0.83596471  1
  Cu+  Cu69  1  0.08501389  0.91635411  0.84329762  1
  Cu+  Cu70  1  0.58362451  0.41461489  0.83667387  1
  Cu+  Cu71  1  0.59090527  0.92254444  0.84190933  1
  Cu+  Cu72  1  0.16683188  0.08162914  0.67504068  1
  Cu+  Cu73  1  0.17106986  0.58839990  0.67459785  1
  Cu+  Cu74  1  0.67017619  0.08515196  0.67968425  1
  Cu+  Cu75  1  0.66982609  0.58477520  0.67445975  1
  Cu+  Cu76  1  0.41322331  0.32997289  0.67160933  1
  Cu+  Cu77  1  0.41639011  0.83423830  0.67893399  1
  Cu+  Cu78  1  0.91634238  0.33280042  0.67422430  1
  Cu+  Cu79  1  0.91493641  0.82893246  0.67819543  1
  Cu+  Cu80  1  0.41298635  0.08291139  0.67660172  1
  Cu+  Cu81  1  0.41726398  0.58770037  0.67356003  1
  Cu+  Cu82  1  0.91486338  0.08138969  0.67590565  1
  Cu+  Cu83  1  0.91705369  0.58491739  0.67670513  1
  Cu+  Cu84  1  0.00556603  0.25473883  0.00559944  1
  Cu+  Cu85  1  0.00235059  0.74965104  0.01546925  1
  Cu+  Cu86  1  0.50271415  0.25082235  0.00505466  1
  Cu+  Cu87  1  0.50394126  0.75439846  0.01356359  1
  Cu+  Cu88  1  0.24860734  0.49718018  0.00288436  1
  Cu+  Cu89  1  0.24744028  0.99655315  0.01650393  1
  Cu+  Cu90  1  0.74697202  0.49392573  0.00810316  1
  Cu+  Cu91  1  0.75046024  0.99946307  0.01653857  1
  Cu+  Cu92  1  0.24928818  0.25283925  0.00391067  1
  Cu+  Cu93  1  0.24886320  0.75229520  0.01611905  1
  Cu+  Cu94  1  0.75096562  0.25123819  0.00799437  1
  Cu+  Cu95  1  0.74748949  0.75073475  0.01425492  1
  Cu+  Cu96  1  0.33550201  0.41751998  0.33633047  1
  Cu+  Cu97  1  0.33370538  0.91579339  0.34954289  1
  Cu+  Cu98  1  0.83514104  0.41861162  0.34566151  1
  Cu+  Cu99  1  0.83245074  0.91504015  0.34336888  1
  Cu+  Cu100  1  0.08048368  0.16164449  0.34411775  1
  Cu+  Cu101  1  0.07919652  0.66393691  0.34240101  1
  Cu+  Cu102  1  0.58123808  0.16395827  0.34246725  1
  Cu+  Cu103  1  0.58194290  0.66323194  0.34026366  1
  Cu+  Cu104  1  0.08154331  0.41674161  0.33973386  1
  Cu+  Cu105  1  0.08084456  0.91542462  0.34319143  1
  Cu+  Cu106  1  0.58393847  0.41843709  0.33864166  1
  Cu+  Cu107  1  0.57941593  0.91506887  0.35004743  1
  Cu+  Cu108  1  0.00403007  0.00854175  0.11255645  1
  Cu+  Cu109  1  0.00224196  0.49567507  0.11034655  1
  Cu+  Cu110  1  0.50329804  0.00742677  0.11623190  1
  Cu+  Cu111  1  0.49357002  0.49597971  0.10530245  1
  Cu+  Cu112  1  0.33661395  0.17332525  0.44597944  1
  Cu+  Cu113  1  0.33001979  0.66128750  0.44697849  1
  Cu+  Cu114  1  0.83360462  0.16788205  0.44737569  1
  Cu+  Cu115  1  0.82991278  0.66696692  0.44966071  1
  Cu+  Cu116  1  0.16642519  0.33368804  0.77717422  1
  Cu+  Cu117  1  0.16663177  0.83384561  0.78847006  1
  Cu+  Cu118  1  0.66475425  0.33448702  0.77958343  1
  Cu+  Cu119  1  0.66580209  0.83090780  0.78623168  1
  Te2-  Te120  1  -0.00338405  -0.00470826  0.38715028  1
  Te2-  Te121  1  0.00200422  0.50003574  0.38655508  1
  Te2-  Te122  1  0.50005278  0.00218476  0.39171988  1
  Te2-  Te123  1  0.49896222  0.49804821  0.38141653  1
  Te2-  Te124  1  0.33153485  0.16686666  0.71831263  1
  Te2-  Te125  1  0.33491443  0.66863567  0.71953291  1
  Te2-  Te126  1  0.83775650  0.16876849  0.72063318  1
  Te2-  Te127  1  0.83258147  0.66432525  0.72133340  1
  Te2-  Te128  1  0.16895611  0.33520882  0.05082101  1
  Te2-  Te129  1  0.16558370  0.83246778  0.06486835  1
  Te2-  Te130  1  0.66478255  0.32851450  0.05354608  1
  Te2-  Te131  1  0.66734110  0.83433632  0.06263602  1
  Te2-  Te132  1  0.49741376  0.24536659  0.87934363  1
  Te2-  Te133  1  0.49914696  0.75348462  0.88584172  1
  Te2-  Te134  1  0.99477773  0.24821304  0.88045400  1
  Te2-  Te135  1  0.99694492  0.74796882  0.88781732  1
  Te2-  Te136  1  0.25192308  0.00493341  0.88953678  1
  Te2-  Te137  1  0.25352229  0.50683527  0.87799334  1
  Te2-  Te138  1  0.75851926  0.01047590  0.88890719  1
  Te2-  Te139  1  0.75183444  0.50296649  0.88164223  1
  Te2-  Te140  1  0.25349549  0.24791777  0.87883644  1
  Te2-  Te141  1  0.25323366  0.74920769  0.88894013  1
  Te2-  Te142  1  0.75950450  0.24849941  0.88282255  1
  Te2-  Te143  1  0.75138019  0.74946170  0.88642100  1
  Te2-  Te144  1  0.32968759  0.41632807  0.21025162  1
  Te2-  Te145  1  0.32335379  0.91080953  0.22093128  1
  Te2-  Te146  1  0.82389120  0.41033766  0.21780200  1
  Te2-  Te147  1  0.82311911  0.91068126  0.21746971  1
  Te2-  Te148  1  0.08404862  0.16871563  0.21650689  1
  Te2-  Te149  1  0.08465369  0.67443892  0.21662383  1
  Te2-  Te150  1  0.58306412  0.16718980  0.21609385  1
  Te2-  Te151  1  0.58970198  0.67599524  0.21479255  1
  Te2-  Te152  1  0.08517979  0.41556092  0.21366504  1
  Te2-  Te153  1  0.08651846  0.91122193  0.21728173  1
  Te2-  Te154  1  0.58561475  0.41019930  0.21293618  1
  Te2-  Te155  1  0.58646195  0.91037410  0.22161914  1
  Te2-  Te156  1  0.15570528  0.07341937  0.54900724  1
  Te2-  Te157  1  0.16487920  0.58510478  0.54813916  1
  Te2-  Te158  1  0.66131971  0.08531903  0.55201230  1
  Te2-  Te159  1  0.66380058  0.57931574  0.54842747  1
  Te2-  Te160  1  0.41342855  0.33461359  0.54527823  1
  Te2-  Te161  1  0.42361763  0.84858551  0.55282530  1
  Te2-  Te162  1  0.92451369  0.33875894  0.54801833  1
  Te2-  Te163  1  0.91930315  0.83790463  0.55192656  1
  Te2-  Te164  1  0.42205641  0.08237848  0.55067660  1
  Te2-  Te165  1  0.42064232  0.58554039  0.54741580  1
  Te2-  Te166  1  0.91567928  0.07486432  0.54964176  1
  Te2-  Te167  1  0.92587440  0.58173202  0.55106613  1
  Te2-  Te168  1  0.00117461  0.00279680  0.88410553  1
  Te2-  Te169  1  0.00034200  0.49869842  0.88171605  1
  Te2-  Te170  1  0.50050968  0.00198516  0.88548699  1
  Te2-  Te171  1  0.49829884  0.49842605  0.88016440  1
  Te2-  Te172  1  0.33385312  0.16950344  0.21437029  1
  Te2-  Te173  1  0.33343130  0.66600162  0.21437772  1
  Te2-  Te174  1  0.83424970  0.16836554  0.21669187  1
  Te2-  Te175  1  0.83251246  0.66681272  0.21306406  1
  Te2-  Te176  1  0.16687469  0.33409219  0.54713022  1
  Te2-  Te177  1  0.16636393  0.83445484  0.54815180  1
  Te2-  Te178  1  0.66562363  0.33310430  0.54885183  1
  Te2-  Te179  1  0.66640525  0.83334958  0.54952176  1
  Te2-  Te180  1  0.32886470  0.41600327  0.70796272  1
  Te2-  Te181  1  0.32814904  0.91506801  0.71710177  1
  Te2-  Te182  1  0.82823805  0.41410330  0.71083426  1
  Te2-  Te183  1  0.82755514  0.91243563  0.71493136  1
  Te2-  Te184  1  0.08525320  0.17033957  0.71075042  1
  Te2-  Te185  1  0.08718184  0.67346497  0.71489338  1
  Te2-  Te186  1  0.58436702  0.17242119  0.71065831  1
  Te2-  Te187  1  0.58686858  0.67236526  0.71265132  1
  Te2-  Te188  1  0.08724466  0.41669146  0.70923201  1
  Te2-  Te189  1  0.08529441  0.91310357  0.71606929  1
  Te2-  Te190  1  0.58374298  0.41347995  0.70937226  1
  Te2-  Te191  1  0.58678689  0.91364432  0.71452115  1
  Te2-  Te192  1  0.16093318  0.08374463  0.04262776  1
  Te2-  Te193  1  0.16109223  0.57845340  0.04144087  1
  Te2-  Te194  1  0.66070420  0.08215255  0.04536461  1
  Te2-  Te195  1  0.65700808  0.57704359  0.03741245  1
  Te2-  Te196  1  0.41892378  0.33696580  0.03978160  1
  Te2-  Te197  1  0.42205055  0.84475348  0.04360421  1
  Te2-  Te198  1  0.92010260  0.33813705  0.04369742  1
  Te2-  Te199  1  0.92054976  0.84142616  0.04031837  1
  Te2-  Te200  1  0.42113578  0.08151921  0.04385049  1
  Te2-  Te201  1  0.41828635  0.58039843  0.03882249  1
  Te2-  Te202  1  0.92352925  0.08537705  0.04382273  1
  Te2-  Te203  1  0.91929763  0.57602524  0.03991012  1
  Te2-  Te204  1  0.49626484  0.24891055  0.37681056  1
  Te2-  Te205  1  0.49159228  0.74232679  0.37696749  1
  Te2-  Te206  1  0.99283606  0.24662205  0.37531291  1
  Te2-  Te207  1  0.99213575  0.74592544  0.37879628  1
  Te2-  Te208  1  0.25132032  0.00712970  0.37623616  1
  Te2-  Te209  1  0.25162481  0.50266252  0.37615626  1
  Te2-  Te210  1  0.75299754  0.00578523  0.37758135  1
  Te2-  Te211  1  0.75202407  0.50718565  0.37750186  1
  Te2-  Te212  1  0.25341549  0.24774074  0.37416341  1
  Te2-  Te213  1  0.24977110  0.74275007  0.37650454  1
  Te2-  Te214  1  0.75148082  0.24536764  0.37665498  1
  Te2-  Te215  1  0.75054449  0.74569425  0.37927016  1
