# generated using pymatgen
data_Ti(CuTe)4
_symmetry_space_group_name_H-M   'P 1'
_cell_length_a   16.88579293
_cell_length_b   16.88755127
_cell_length_c   20.69901408
_cell_angle_alpha   89.97175607
_cell_angle_beta   90.05479481
_cell_angle_gamma   120.01007808
_symmetry_Int_Tables_number   1
_chemical_formula_structural   Ti(CuTe)4
_chemical_formula_sum   'Ti24 Cu96 Te96'
_cell_volume   5111.21464629
_cell_formula_units_Z   24
loop_
 _symmetry_equiv_pos_site_id
 _symmetry_equiv_pos_as_xyz
  1  'x, y, z'
loop_
 _atom_type_symbol
 _atom_type_oxidation_number
  Ti4+  4.0
  Cu+  1.0
  Te2-  -2.0
loop_
 _atom_site_type_symbol
 _atom_site_label
 _atom_site_symmetry_multiplicity
 _atom_site_fract_x
 _atom_site_fract_y
 _atom_site_fract_z
 _atom_site_occupancy
  Ti4+  Ti0  1  -0.00128054  0.00162424  0.25581229  1
  Ti4+  Ti1  1  0.00071689  0.50151070  0.25603428  1
  Ti4+  Ti2  1  0.49924860  -0.00326037  0.26370562  1
  Ti4+  Ti3  1  0.49704963  0.49871659  0.25587665  1
  Ti4+  Ti4  1  0.33167257  0.16482075  0.58961985  1
  Ti4+  Ti5  1  0.33489818  0.66772041  0.59695866  1
  Ti4+  Ti6  1  0.83298599  0.16762882  0.59065517  1
  Ti4+  Ti7  1  0.83486746  0.66947133  0.58694328  1
  Ti4+  Ti8  1  0.16645089  0.33202965  0.92213537  1
  Ti4+  Ti9  1  0.16883598  0.83275758  0.92643752  1
  Ti4+  Ti10  1  0.66444406  0.33179998  0.92191079  1
  Ti4+  Ti11  1  0.66858092  0.83607926  0.92504890  1
  Ti4+  Ti12  1  -0.00052481  0.00140330  0.75614556  1
  Ti4+  Ti13  1  0.00126293  0.50153038  0.75330517  1
  Ti4+  Ti14  1  0.50075655  0.00040530  0.75584759  1
  Ti4+  Ti15  1  0.50045454  0.49681837  0.75358738  1
  Ti4+  Ti16  1  0.33347655  0.16798358  0.09048386  1
  Ti4+  Ti17  1  0.33309147  0.66675222  0.08992887  1
  Ti4+  Ti18  1  0.83335477  0.16461400  0.08985968  1
  Ti4+  Ti19  1  0.83396300  0.66592185  0.08598549  1
  Ti4+  Ti20  1  0.16719225  0.33401071  0.42339194  1
  Ti4+  Ti21  1  0.16485300  0.83420233  0.42179169  1
  Ti4+  Ti22  1  0.66747366  0.33326897  0.41875480  1
  Ti4+  Ti23  1  0.66708271  0.83254602  0.42226247  1
  Cu+  Cu24  1  0.33871528  0.91799563  0.48622410  1
  Cu+  Cu25  1  0.57798514  0.91980696  0.48467903  1
  Cu+  Cu26  1  0.57836282  0.15640207  0.48018789  1
  Cu+  Cu27  1  0.90330500  0.09675111  0.80607400  1
  Cu+  Cu28  1  0.07013486  0.93017831  0.46989614  1
  Cu+  Cu29  1  0.41571235  0.58644154  0.81658754  1
  Cu+  Cu30  1  0.73591718  0.97549581  0.14386511  1
  Cu+  Cu31  1  0.41358299  0.82600910  0.82048474  1
  Cu+  Cu32  1  0.23617448  0.26336361  0.13905259  1
  Cu+  Cu33  1  0.17928965  0.58996308  0.81459211  1
  Cu+  Cu34  1  0.40460770  0.30621708  0.80487400  1
  Cu+  Cu35  1  0.24094371  0.76188367  0.14599282  1
  Cu+  Cu36  1  0.16500293  0.08887970  0.17115156  1
  Cu+  Cu37  1  0.16312077  0.58547936  0.17054173  1
  Cu+  Cu38  1  0.66522322  0.07659195  0.17569851  1
  Cu+  Cu39  1  0.66400277  0.58277766  0.16916958  1
  Cu+  Cu40  1  0.41051655  0.33610411  0.17013042  1
  Cu+  Cu41  1  0.41574792  0.83632300  0.17470849  1
  Cu+  Cu42  1  0.92046858  0.33598206  0.17116643  1
  Cu+  Cu43  1  0.91871073  0.83502015  0.16892677  1
  Cu+  Cu44  1  0.41745351  0.08135566  0.17641508  1
  Cu+  Cu45  1  0.41677509  0.57934512  0.17078593  1
  Cu+  Cu46  1  0.91384862  0.07703842  0.16944582  1
  Cu+  Cu47  1  0.91867990  0.58140187  0.16773847  1
  Cu+  Cu48  1  0.49772301  0.24856115  0.50162698  1
  Cu+  Cu49  1  0.49701351  0.74809660  0.50785975  1
  Cu+  Cu50  1  0.99835454  0.24859790  0.50546594  1
  Cu+  Cu51  1  0.99608661  0.75546168  0.50070788  1
  Cu+  Cu52  1  0.24766407  0.00388168  0.50161490  1
  Cu+  Cu53  1  0.25119350  0.50182716  0.50975739  1
  Cu+  Cu54  1  0.75240706  0.00429220  0.50372176  1
  Cu+  Cu55  1  0.75391169  0.50500676  0.50021340  1
  Cu+  Cu56  1  0.25155288  0.24886963  0.50436607  1
  Cu+  Cu57  1  0.25245596  0.74672165  0.50754399  1
  Cu+  Cu58  1  0.75160235  0.24742857  0.50124561  1
  Cu+  Cu59  1  0.75427181  0.74894381  0.50134722  1
  Cu+  Cu60  1  0.33086874  0.40927603  0.83428887  1
  Cu+  Cu61  1  0.32920054  0.91369194  0.83876549  1
  Cu+  Cu62  1  0.82974328  0.41508771  0.83548620  1
  Cu+  Cu63  1  0.83284236  0.92392114  0.83853295  1
  Cu+  Cu64  1  0.08050613  0.16911234  0.83603828  1
  Cu+  Cu65  1  0.08872944  0.67105955  0.83695146  1
  Cu+  Cu66  1  0.58518976  0.17194669  0.83619953  1
  Cu+  Cu67  1  0.58791511  0.67055968  0.83664389  1
  Cu+  Cu68  1  0.08670512  0.41570085  0.83407943  1
  Cu+  Cu69  1  0.08590951  0.91633967  0.84039187  1
  Cu+  Cu70  1  0.57900582  0.40645830  0.83403152  1
  Cu+  Cu71  1  0.58834861  0.91577065  0.83773234  1
  Cu+  Cu72  1  0.16624715  0.08202664  0.67466810  1
  Cu+  Cu73  1  0.17165575  0.58738244  0.68300981  1
  Cu+  Cu74  1  0.66820268  0.08512156  0.67666826  1
  Cu+  Cu75  1  0.67194838  0.58384442  0.67034374  1
  Cu+  Cu76  1  0.41662105  0.32752242  0.67626308  1
  Cu+  Cu77  1  0.41725920  0.83159631  0.68607720  1
  Cu+  Cu78  1  0.91583312  0.33317287  0.67230676  1
  Cu+  Cu79  1  0.91627414  0.83247423  0.67352670  1
  Cu+  Cu80  1  0.41619903  0.08334862  0.67546793  1
  Cu+  Cu81  1  0.41690558  0.58416027  0.68316389  1
  Cu+  Cu82  1  0.91357810  0.08616247  0.67807684  1
  Cu+  Cu83  1  0.91737393  0.58792304  0.66965814  1
  Cu+  Cu84  1  0.00049355  0.24932559  0.00760101  1
  Cu+  Cu85  1  0.00388977  0.74864545  0.00819515  1
  Cu+  Cu86  1  0.50177533  0.25027726  0.00863324  1
  Cu+  Cu87  1  0.50182565  0.75132121  0.01183408  1
  Cu+  Cu88  1  0.25129345  0.49925087  0.00872623  1
  Cu+  Cu89  1  0.25223209  0.99727369  0.01059836  1
  Cu+  Cu90  1  0.74750825  0.49653999  0.00374577  1
  Cu+  Cu91  1  0.74833777  0.99746682  0.01437103  1
  Cu+  Cu92  1  0.24907319  0.25110236  0.01010396  1
  Cu+  Cu93  1  0.25058779  0.75189018  0.01615327  1
  Cu+  Cu94  1  0.74695321  0.25052141  0.00704520  1
  Cu+  Cu95  1  0.75108756  0.75296320  0.00649603  1
  Cu+  Cu96  1  0.33449529  0.41830461  0.34235628  1
  Cu+  Cu97  1  0.33400634  0.91550421  0.35236071  1
  Cu+  Cu98  1  0.83663200  0.41855768  0.33815625  1
  Cu+  Cu99  1  0.83363903  0.91580924  0.34069005  1
  Cu+  Cu100  1  0.08333799  0.16729418  0.34054088  1
  Cu+  Cu101  1  0.08183194  0.66477266  0.34060648  1
  Cu+  Cu102  1  0.58240469  0.16154198  0.34882529  1
  Cu+  Cu103  1  0.58096243  0.66144028  0.34044851  1
  Cu+  Cu104  1  0.08385028  0.42154820  0.34113111  1
  Cu+  Cu105  1  0.08069551  0.92007187  0.34205850  1
  Cu+  Cu106  1  0.58094400  0.41752617  0.33654979  1
  Cu+  Cu107  1  0.58108313  0.91490806  0.35107930  1
  Cu+  Cu108  1  0.00193029  -0.00201314  0.11310472  1
  Cu+  Cu109  1  -0.00193436  0.49568594  0.11244444  1
  Cu+  Cu110  1  0.50208151  0.00470978  0.12120299  1
  Cu+  Cu111  1  0.50350285  0.50043506  0.11274333  1
  Cu+  Cu112  1  0.33528580  0.17134756  0.44526081  1
  Cu+  Cu113  1  0.33236872  0.66217156  0.45308485  1
  Cu+  Cu114  1  0.83831856  0.16907749  0.44649561  1
  Cu+  Cu115  1  0.83206130  0.66368778  0.44151171  1
  Cu+  Cu116  1  0.16615376  0.33237449  0.77747279  1
  Cu+  Cu117  1  0.16379508  0.83507232  0.78252996  1
  Cu+  Cu118  1  0.67170337  0.33556659  0.77693606  1
  Cu+  Cu119  1  0.67134972  0.83127175  0.78102445  1
  Te2-  Te120  1  -0.00242318  0.00338308  0.38619208  1
  Te2-  Te121  1  -0.00068641  0.50111951  0.38529211  1
  Te2-  Te122  1  0.49902216  -0.00252959  0.39715257  1
  Te2-  Te123  1  0.49924370  0.49765887  0.38508970  1
  Te2-  Te124  1  0.33016668  0.16129618  0.71999434  1
  Te2-  Te125  1  0.33551348  0.66666150  0.73023656  1
  Te2-  Te126  1  0.83213977  0.17110185  0.72108350  1
  Te2-  Te127  1  0.83480539  0.66790252  0.71630285  1
  Te2-  Te128  1  0.16489698  0.33433926  0.05188133  1
  Te2-  Te129  1  0.16620645  0.83412833  0.05670352  1
  Te2-  Te130  1  0.66641690  0.33399958  0.05104951  1
  Te2-  Te131  1  0.66643330  0.83062335  0.05522994  1
  Te2-  Te132  1  0.48769738  0.23962648  0.88305932  1
  Te2-  Te133  1  0.49207925  0.74535286  0.88565333  1
  Te2-  Te134  1  0.99325650  0.25050357  0.88168099  1
  Te2-  Te135  1  0.99875094  0.74702588  0.88219164  1
  Te2-  Te136  1  0.25420113  0.00397172  0.88448766  1
  Te2-  Te137  1  0.25653990  0.50740539  0.88261512  1
  Te2-  Te138  1  0.75179807  0.01016402  0.88684605  1
  Te2-  Te139  1  0.74776944  0.50225128  0.87780113  1
  Te2-  Te140  1  0.24895379  0.24222373  0.88238668  1
  Te2-  Te141  1  0.25708291  0.74390423  0.88837397  1
  Te2-  Te142  1  0.75204312  0.24727119  0.88106476  1
  Te2-  Te143  1  0.75478424  0.75344897  0.88021028  1
  Te2-  Te144  1  0.32061398  0.41405985  0.21683764  1
  Te2-  Te145  1  0.32602184  0.91421065  0.22350628  1
  Te2-  Te146  1  0.82954464  0.41411748  0.21263473  1
  Te2-  Te147  1  0.82469095  0.90835553  0.21510258  1
  Te2-  Te148  1  0.08169594  0.17510365  0.21483290  1
  Te2-  Te149  1  0.08461191  0.67660937  0.21534054  1
  Te2-  Te150  1  0.58580645  0.16569003  0.22082007  1
  Te2-  Te151  1  0.58413294  0.67077292  0.21477418  1
  Te2-  Te152  1  0.08861907  0.41764971  0.21505406  1
  Te2-  Te153  1  0.08645290  0.91917648  0.21491444  1
  Te2-  Te154  1  0.58098380  0.41281776  0.21072377  1
  Te2-  Te155  1  0.58247869  0.90724247  0.22253558  1
  Te2-  Te156  1  0.15847369  0.08129941  0.54882470  1
  Te2-  Te157  1  0.16415533  0.58260252  0.55531632  1
  Te2-  Te158  1  0.65629234  0.07850088  0.55102388  1
  Te2-  Te159  1  0.66275759  0.58137629  0.54502404  1
  Te2-  Te160  1  0.41942262  0.33537805  0.54902193  1
  Te2-  Te161  1  0.42209917  0.84315374  0.55706892  1
  Te2-  Te162  1  0.91779985  0.33769824  0.54655382  1
  Te2-  Te163  1  0.91951196  0.84596583  0.54817515  1
  Te2-  Te164  1  0.42009131  0.07760255  0.54965283  1
  Te2-  Te165  1  0.41959098  0.58231929  0.55487750  1
  Te2-  Te166  1  0.91782419  0.08112653  0.55087535  1
  Te2-  Te167  1  0.92272030  0.58642622  0.54376837  1
  Te2-  Te168  1  0.00173399  0.00111033  0.88300816  1
  Te2-  Te169  1  -0.00046625  0.49899959  0.88044943  1
  Te2-  Te170  1  0.50219389  0.00172787  0.88283059  1
  Te2-  Te171  1  0.50186795  0.49917978  0.88148400  1
  Te2-  Te172  1  0.33354100  0.16769555  0.21735304  1
  Te2-  Te173  1  0.33257377  0.66485331  0.21658319  1
  Te2-  Te174  1  0.83609602  0.16761201  0.21678531  1
  Te2-  Te175  1  0.83335059  0.66562657  0.21229289  1
  Te2-  Te176  1  0.16663226  0.33212661  0.55000024  1
  Te2-  Te177  1  0.16534575  0.83297852  0.54958166  1
  Te2-  Te178  1  0.66881198  0.33576428  0.54598767  1
  Te2-  Te179  1  0.66968093  0.83334833  0.54941253  1
  Te2-  Te180  1  0.32635585  0.41017242  0.70722378  1
  Te2-  Te181  1  0.32601319  0.91391788  0.71198509  1
  Te2-  Te182  1  0.83042566  0.41777797  0.70803394  1
  Te2-  Te183  1  0.82791965  0.91399460  0.71066608  1
  Te2-  Te184  1  0.08665716  0.17264478  0.70906818  1
  Te2-  Te185  1  0.08615092  0.67518629  0.70992404  1
  Te2-  Te186  1  0.58587913  0.17291538  0.71049169  1
  Te2-  Te187  1  0.59014233  0.67104564  0.70973179  1
  Te2-  Te188  1  0.08591846  0.41301741  0.70768512  1
  Te2-  Te189  1  0.08439518  0.91398737  0.71311190  1
  Te2-  Te190  1  0.58916723  0.41388660  0.70714589  1
  Te2-  Te191  1  0.59077446  0.91556466  0.71173606  1
  Te2-  Te192  1  0.16216689  0.07904359  0.04371476  1
  Te2-  Te193  1  0.16023397  0.57811793  0.04350258  1
  Te2-  Te194  1  0.66005404  0.08132662  0.04756077  1
  Te2-  Te195  1  0.66267483  0.58184938  0.04163048  1
  Te2-  Te196  1  0.42053254  0.33938070  0.04306025  1
  Te2-  Te197  1  0.42289226  0.84184760  0.04797521  1
  Te2-  Te198  1  0.91724543  0.33567951  0.04411588  1
  Te2-  Te199  1  0.92155235  0.83801639  0.04231140  1
  Te2-  Te200  1  0.42066394  0.08177459  0.04936091  1
  Te2-  Te201  1  0.42003271  0.58071416  0.04501081  1
  Te2-  Te202  1  0.92146707  0.08027295  0.04312584  1
  Te2-  Te203  1  0.91777022  0.57794729  0.04160986  1
  Te2-  Te204  1  0.49413883  0.24774138  0.37436510  1
  Te2-  Te205  1  0.49246523  0.74210785  0.38061629  1
  Te2-  Te206  1  0.99706567  0.25065961  0.37806688  1
  Te2-  Te207  1  0.99340770  0.74746554  0.37398580  1
  Te2-  Te208  1  0.25274525  0.00847856  0.37502205  1
  Te2-  Te209  1  0.25256861  0.50563774  0.38181528  1
  Te2-  Te210  1  0.75476992  0.00629215  0.37705799  1
  Te2-  Te211  1  0.75142948  0.50394295  0.37323958  1
  Te2-  Te212  1  0.25230713  0.24835519  0.37780155  1
  Te2-  Te213  1  0.24988709  0.74323197  0.38083061  1
  Te2-  Te214  1  0.75621877  0.24845636  0.37470857  1
  Te2-  Te215  1  0.75148587  0.74601432  0.37561432  1
