# generated using pymatgen
data_Ti(CuTe)4
_symmetry_space_group_name_H-M   'P 1'
_cell_length_a   16.89313771
_cell_length_b   16.88805402
_cell_length_c   20.70894155
_cell_angle_alpha   89.98420462
_cell_angle_beta   89.94302751
_cell_angle_gamma   120.00136981
_symmetry_Int_Tables_number   1
_chemical_formula_structural   Ti(CuTe)4
_chemical_formula_sum   'Ti24 Cu96 Te96'
_cell_volume   5116.48945496
_cell_formula_units_Z   24
loop_
 _symmetry_equiv_pos_site_id
 _symmetry_equiv_pos_as_xyz
  1  'x, y, z'
loop_
 _atom_type_symbol
 _atom_type_oxidation_number
  Ti4+  4.0
  Cu+  1.0
  Te2-  -2.0
loop_
 _atom_site_type_symbol
 _atom_site_label
 _atom_site_symmetry_multiplicity
 _atom_site_fract_x
 _atom_site_fract_y
 _atom_site_fract_z
 _atom_site_occupancy
  Ti4+  Ti0  1  0.00034146  -0.00115951  0.25743086  1
  Ti4+  Ti1  1  0.00008095  0.49901584  0.25935376  1
  Ti4+  Ti2  1  0.50309691  0.00026947  0.25307846  1
  Ti4+  Ti3  1  0.49965300  0.49897586  0.25862868  1
  Ti4+  Ti4  1  0.33406289  0.17019583  0.58929266  1
  Ti4+  Ti5  1  0.33032911  0.66582924  0.59194403  1
  Ti4+  Ti6  1  0.83512486  0.16760201  0.59209949  1
  Ti4+  Ti7  1  0.83244067  0.66962112  0.59009271  1
  Ti4+  Ti8  1  0.16461575  0.33296807  0.93056424  1
  Ti4+  Ti9  1  0.16730522  0.83254166  0.92100666  1
  Ti4+  Ti10  1  0.66871401  0.33434393  0.92281295  1
  Ti4+  Ti11  1  0.66730712  0.83080237  0.92408539  1
  Ti4+  Ti12  1  -0.00054833  0.00106523  0.75617832  1
  Ti4+  Ti13  1  -0.00128274  0.49960617  0.75572719  1
  Ti4+  Ti14  1  0.49821339  0.00010519  0.75323486  1
  Ti4+  Ti15  1  0.50051857  0.50135063  0.75837947  1
  Ti4+  Ti16  1  0.33449310  0.16614310  0.08718913  1
  Ti4+  Ti17  1  0.33386508  0.66672752  0.08840381  1
  Ti4+  Ti18  1  0.83153119  0.16501556  0.08775826  1
  Ti4+  Ti19  1  0.83310184  0.66534790  0.08935480  1
  Ti4+  Ti20  1  0.16491701  0.33332887  0.42207437  1
  Ti4+  Ti21  1  0.16748608  0.83340979  0.42023193  1
  Ti4+  Ti22  1  0.66482505  0.33268638  0.42268389  1
  Ti4+  Ti23  1  0.66840087  0.83318322  0.42289099  1
  Cu+  Cu24  1  0.52400694  0.76082281  0.13865721  1
  Cu+  Cu25  1  0.52516366  0.26156264  0.13759800  1
  Cu+  Cu26  1  0.00740165  0.25336083  0.15048315  1
  Cu+  Cu27  1  0.24751623  0.25248040  0.15212850  1
  Cu+  Cu28  1  0.90747089  0.31192089  0.81049289  1
  Cu+  Cu29  1  0.34325644  0.42613718  0.48143433  1
  Cu+  Cu30  1  0.57656367  0.43059585  0.47707500  1
  Cu+  Cu31  1  0.69251854  0.59595385  0.80690640  1
  Cu+  Cu32  1  0.07140329  0.42750668  0.47777790  1
  Cu+  Cu33  1  0.24603843  0.49111066  0.15156205  1
  Cu+  Cu34  1  0.18442173  0.58944527  0.81040127  1
  Cu+  Cu35  1  0.85889990  0.93162605  0.47354370  1
  Cu+  Cu36  1  0.16060413  0.07881641  0.16889377  1
  Cu+  Cu37  1  0.16019411  0.57805332  0.17126786  1
  Cu+  Cu38  1  0.66048568  0.07870249  0.16655914  1
  Cu+  Cu39  1  0.66419757  0.57967378  0.17140430  1
  Cu+  Cu40  1  0.42195094  0.33542516  0.17014045  1
  Cu+  Cu41  1  0.42420215  0.83625539  0.16740172  1
  Cu+  Cu42  1  0.91878368  0.33628558  0.17155887  1
  Cu+  Cu43  1  0.91641003  0.83378728  0.17161377  1
  Cu+  Cu44  1  0.42457350  0.08632426  0.16661625  1
  Cu+  Cu45  1  0.42051585  0.58349856  0.17032783  1
  Cu+  Cu46  1  0.91737970  0.07911162  0.17007479  1
  Cu+  Cu47  1  0.91803861  0.58216842  0.17278475  1
  Cu+  Cu48  1  0.49653385  0.25520823  0.50252260  1
  Cu+  Cu49  1  0.49754668  0.74796331  0.50511465  1
  Cu+  Cu50  1  0.99345778  0.25167010  0.50390857  1
  Cu+  Cu51  1  0.99796772  0.75028063  0.50257519  1
  Cu+  Cu52  1  0.25086569  0.00340236  0.50246871  1
  Cu+  Cu53  1  0.24835864  0.50586709  0.50447809  1
  Cu+  Cu54  1  0.75698144  0.00191169  0.50544043  1
  Cu+  Cu55  1  0.74670408  0.50388360  0.50510741  1
  Cu+  Cu56  1  0.25519692  0.25163234  0.50253486  1
  Cu+  Cu57  1  0.24910592  0.74795423  0.50373839  1
  Cu+  Cu58  1  0.75154362  0.24990575  0.50603490  1
  Cu+  Cu59  1  0.75548324  0.75357662  0.50329981  1
  Cu+  Cu60  1  0.32960888  0.41532274  0.84388634  1
  Cu+  Cu61  1  0.32905056  0.91428266  0.83358937  1
  Cu+  Cu62  1  0.82844849  0.41040744  0.83549686  1
  Cu+  Cu63  1  0.83009745  0.91330197  0.83745589  1
  Cu+  Cu64  1  0.08335304  0.16828080  0.84226564  1
  Cu+  Cu65  1  0.08862356  0.67007355  0.83555924  1
  Cu+  Cu66  1  0.58273668  0.16835889  0.83591877  1
  Cu+  Cu67  1  0.58966133  0.66858504  0.83886386  1
  Cu+  Cu68  1  0.08317842  0.41386161  0.84103725  1
  Cu+  Cu69  1  0.08284086  0.91393615  0.83629963  1
  Cu+  Cu70  1  0.58998383  0.42139914  0.83856860  1
  Cu+  Cu71  1  0.58130960  0.91328298  0.83779686  1
  Cu+  Cu72  1  0.17040076  0.08839510  0.67359410  1
  Cu+  Cu73  1  0.16733230  0.58344044  0.67996444  1
  Cu+  Cu74  1  0.66924003  0.08465799  0.67459415  1
  Cu+  Cu75  1  0.66895019  0.58687421  0.67861175  1
  Cu+  Cu76  1  0.41438914  0.33380153  0.67671527  1
  Cu+  Cu77  1  0.41275086  0.83079334  0.67467116  1
  Cu+  Cu78  1  0.91487506  0.33079049  0.68123408  1
  Cu+  Cu79  1  0.91496360  0.83507268  0.67475093  1
  Cu+  Cu80  1  0.41519108  0.08662424  0.67140131  1
  Cu+  Cu81  1  0.41173515  0.58205531  0.67776823  1
  Cu+  Cu82  1  0.91812399  0.08680573  0.67668336  1
  Cu+  Cu83  1  0.91268174  0.58478707  0.67295266  1
  Cu+  Cu84  1  0.00096826  0.25058558  0.01715833  1
  Cu+  Cu85  1  0.00392328  0.75098094  0.00565443  1
  Cu+  Cu86  1  0.50489412  0.25262871  0.00900566  1
  Cu+  Cu87  1  0.50410023  0.75023275  0.01007975  1
  Cu+  Cu88  1  0.24576002  0.49685828  0.01772393  1
  Cu+  Cu89  1  0.24858232  0.99630159  0.00361613  1
  Cu+  Cu90  1  0.75059229  0.49911001  0.00792951  1
  Cu+  Cu91  1  0.74646285  0.99550834  0.00706705  1
  Cu+  Cu92  1  0.24717413  0.25068285  0.01850228  1
  Cu+  Cu93  1  0.24844915  0.75051499  0.00542472  1
  Cu+  Cu94  1  0.74753800  0.24855375  0.00753195  1
  Cu+  Cu95  1  0.74849103  0.74764832  0.00919370  1
  Cu+  Cu96  1  0.33401021  0.41650549  0.34891449  1
  Cu+  Cu97  1  0.33813773  0.91756424  0.33580949  1
  Cu+  Cu98  1  0.83527308  0.41570962  0.34230795  1
  Cu+  Cu99  1  0.83763785  0.91767011  0.34507043  1
  Cu+  Cu100  1  0.07960017  0.16354253  0.34335348  1
  Cu+  Cu101  1  0.08407295  0.66373071  0.34217523  1
  Cu+  Cu102  1  0.58236387  0.16343118  0.33949353  1
  Cu+  Cu103  1  0.58263721  0.66561481  0.34276215  1
  Cu+  Cu104  1  0.07969560  0.41639469  0.34864511  1
  Cu+  Cu105  1  0.08327357  0.91654841  0.33957991  1
  Cu+  Cu106  1  0.57982879  0.41530632  0.34696691  1
  Cu+  Cu107  1  0.58319545  0.91620428  0.33974383  1
  Cu+  Cu108  1  -0.00306876  -0.00606298  0.11291907  1
  Cu+  Cu109  1  -0.00383936  0.50013314  0.11542803  1
  Cu+  Cu110  1  0.49502805  -0.00324826  0.10768764  1
  Cu+  Cu111  1  0.50168914  0.50027068  0.11462363  1
  Cu+  Cu112  1  0.33200399  0.16231906  0.44528511  1
  Cu+  Cu113  1  0.33699746  0.67405026  0.44841731  1
  Cu+  Cu114  1  0.82493125  0.16311768  0.44929986  1
  Cu+  Cu115  1  0.83540871  0.66560663  0.44724720  1
  Cu+  Cu116  1  0.16848390  0.33079292  0.78801032  1
  Cu+  Cu117  1  0.16404838  0.83466964  0.77709102  1
  Cu+  Cu118  1  0.66147242  0.33060536  0.77952184  1
  Cu+  Cu119  1  0.66475456  0.83574303  0.78169341  1
  Te2-  Te120  1  0.00417124  -0.00001764  0.38741455  1
  Te2-  Te121  1  -0.00213032  0.50117750  0.38961326  1
  Te2-  Te122  1  0.50095051  -0.00116064  0.38207671  1
  Te2-  Te123  1  0.50060715  0.50263708  0.39035642  1
  Te2-  Te124  1  0.33430036  0.16859497  0.71784502  1
  Te2-  Te125  1  0.33348125  0.66772293  0.72239956  1
  Te2-  Te126  1  0.83193724  0.16408110  0.72261033  1
  Te2-  Te127  1  0.83623509  0.67089560  0.72038701  1
  Te2-  Te128  1  0.16515177  0.33292418  0.06457670  1
  Te2-  Te129  1  0.16787141  0.83354114  0.05020936  1
  Te2-  Te130  1  0.67075995  0.33528272  0.05341376  1
  Te2-  Te131  1  0.67004850  0.83288196  0.05476095  1
  Te2-  Te132  1  0.49850968  0.25184899  0.88178540  1
  Te2-  Te133  1  0.49647001  0.74449988  0.88310825  1
  Te2-  Te134  1  0.99249559  0.24500553  0.88874668  1
  Te2-  Te135  1  0.99575979  0.74519663  0.87973109  1
  Te2-  Te136  1  0.25168905  0.00406947  0.87838047  1
  Te2-  Te137  1  0.25190869  0.50538225  0.88939071  1
  Te2-  Te138  1  0.75034621  0.00168773  0.88139619  1
  Te2-  Te139  1  0.75962299  0.50808312  0.88220152  1
  Te2-  Te140  1  0.25000038  0.24822970  0.89010544  1
  Te2-  Te141  1  0.25761733  0.74763807  0.88040330  1
  Te2-  Te142  1  0.75042494  0.24222677  0.88191058  1
  Te2-  Te143  1  0.75800868  0.74706686  0.88375393  1
  Te2-  Te144  1  0.32532918  0.41159762  0.22003437  1
  Te2-  Te145  1  0.33324418  0.91578504  0.20928791  1
  Te2-  Te146  1  0.82949912  0.41325372  0.21624332  1
  Te2-  Te147  1  0.82905140  0.91397450  0.21774009  1
  Te2-  Te148  1  0.08767134  0.17560594  0.21785028  1
  Te2-  Te149  1  0.08653281  0.66980887  0.21624087  1
  Te2-  Te150  1  0.59228564  0.17573742  0.21399845  1
  Te2-  Te151  1  0.58785857  0.67113357  0.21658732  1
  Te2-  Te152  1  0.08814500  0.40986419  0.22147498  1
  Te2-  Te153  1  0.08556471  0.91345765  0.21384238  1
  Te2-  Te154  1  0.58723678  0.41341545  0.21919969  1
  Te2-  Te155  1  0.59218598  0.91386500  0.21442165  1
  Te2-  Te156  1  0.16359074  0.08515263  0.54725976  1
  Te2-  Te157  1  0.15665542  0.58140475  0.55238814  1
  Te2-  Te158  1  0.66564036  0.08038972  0.54815966  1
  Te2-  Te159  1  0.65906417  0.58640412  0.55137492  1
  Te2-  Te160  1  0.42299991  0.34958483  0.55117309  1
  Te2-  Te161  1  0.41704247  0.83590269  0.54851964  1
  Te2-  Te162  1  0.91795077  0.34230654  0.55391581  1
  Te2-  Te163  1  0.92366709  0.84317349  0.54899969  1
  Te2-  Te164  1  0.42002499  0.08664736  0.54543373  1
  Te2-  Te165  1  0.41886572  0.58120522  0.55172777  1
  Te2-  Te166  1  0.92654117  0.08565375  0.55063321  1
  Te2-  Te167  1  0.91504321  0.58188323  0.54709981  1
  Te2-  Te168  1  -0.00099444  -0.00222795  0.88240810  1
  Te2-  Te169  1  -0.00225692  0.50064789  0.88291871  1
  Te2-  Te170  1  0.49749098  -0.00094527  0.87948667  1
  Te2-  Te171  1  0.49973652  0.49954558  0.88509674  1
  Te2-  Te172  1  0.33220827  0.16308703  0.21487105  1
  Te2-  Te173  1  0.33242404  0.66716906  0.21595098  1
  Te2-  Te174  1  0.83015940  0.16353693  0.21478701  1
  Te2-  Te175  1  0.83288749  0.66553614  0.21563954  1
  Te2-  Te176  1  0.16510843  0.33315129  0.54919927  1
  Te2-  Te177  1  0.16659822  0.83490186  0.54638870  1
  Te2-  Te178  1  0.66549870  0.33354575  0.54963083  1
  Te2-  Te179  1  0.66596612  0.83267695  0.54979621  1
  Te2-  Te180  1  0.32700322  0.41419044  0.71685384  1
  Te2-  Te181  1  0.32701504  0.91594056  0.70762346  1
  Te2-  Te182  1  0.82588868  0.41552250  0.70941631  1
  Te2-  Te183  1  0.82745593  0.91622076  0.71149690  1
  Te2-  Te184  1  0.08737376  0.17390878  0.71491848  1
  Te2-  Te185  1  0.08250080  0.67209757  0.70880687  1
  Te2-  Te186  1  0.58512363  0.17176962  0.70906686  1
  Te2-  Te187  1  0.58306879  0.67310804  0.71205982  1
  Te2-  Te188  1  0.08683603  0.41203051  0.71345202  1
  Te2-  Te189  1  0.08562452  0.91718922  0.70937696  1
  Te2-  Te190  1  0.58492501  0.41456634  0.71113702  1
  Te2-  Te191  1  0.58372726  0.91359520  0.71045050  1
  Te2-  Te192  1  0.16057583  0.07693373  0.04266800  1
  Te2-  Te193  1  0.15928646  0.58252157  0.04492978  1
  Te2-  Te194  1  0.65962566  0.07848577  0.04141874  1
  Te2-  Te195  1  0.66122910  0.57849784  0.04517217  1
  Te2-  Te196  1  0.42128884  0.34105043  0.04289380  1
  Te2-  Te197  1  0.41863678  0.83776431  0.04026625  1
  Te2-  Te198  1  0.91702342  0.33962572  0.04453927  1
  Te2-  Te199  1  0.91909369  0.83589114  0.04432355  1
  Te2-  Te200  1  0.41871986  0.07945150  0.03932886  1
  Te2-  Te201  1  0.41960156  0.57801355  0.04317076  1
  Te2-  Te202  1  0.91661173  0.07640515  0.04340390  1
  Te2-  Te203  1  0.92023574  0.58175470  0.04527868  1
  Te2-  Te204  1  0.49282123  0.24332263  0.37599144  1
  Te2-  Te205  1  0.49593456  0.74789337  0.37848832  1
  Te2-  Te206  1  0.99028414  0.24357276  0.37805579  1
  Te2-  Te207  1  0.99582489  0.74671422  0.37619687  1
  Te2-  Te208  1  0.25395013  0.00375787  0.37472908  1
  Te2-  Te209  1  0.25310296  0.50856874  0.37726220  1
  Te2-  Te210  1  0.75264809  0.00505823  0.37764303  1
  Te2-  Te211  1  0.75300416  0.50482604  0.37724823  1
  Te2-  Te212  1  0.24998699  0.24388460  0.37641035  1
  Te2-  Te213  1  0.25438873  0.74847630  0.37661930  1
  Te2-  Te214  1  0.75100588  0.24659338  0.37908065  1
  Te2-  Te215  1  0.75262075  0.74486161  0.37683917  1
