# generated using pymatgen
data_Ti(CuTe)4
_symmetry_space_group_name_H-M   'P 1'
_cell_length_a   16.85412691
_cell_length_b   16.85541530
_cell_length_c   20.65806142
_cell_angle_alpha   90.02034564
_cell_angle_beta   89.99036140
_cell_angle_gamma   119.99642652
_symmetry_Int_Tables_number   1
_chemical_formula_structural   Ti(CuTe)4
_chemical_formula_sum   'Ti24 Cu96 Te96'
_cell_volume   5082.54840363
_cell_formula_units_Z   24
loop_
 _symmetry_equiv_pos_site_id
 _symmetry_equiv_pos_as_xyz
  1  'x, y, z'
loop_
 _atom_type_symbol
 _atom_type_oxidation_number
  Ti4+  4.0
  Cu+  1.0
  Te2-  -2.0
loop_
 _atom_site_type_symbol
 _atom_site_label
 _atom_site_symmetry_multiplicity
 _atom_site_fract_x
 _atom_site_fract_y
 _atom_site_fract_z
 _atom_site_occupancy
  Ti4+  Ti0  1  0.00214741  0.00371779  0.25758185  1
  Ti4+  Ti1  1  0.00074997  0.50133614  0.26030452  1
  Ti4+  Ti2  1  0.49666157  -0.00110238  0.25746675  1
  Ti4+  Ti3  1  0.50254989  0.49907886  0.25770378  1
  Ti4+  Ti4  1  0.33346952  0.16632580  0.59143113  1
  Ti4+  Ti5  1  0.33347536  0.66497045  0.58813528  1
  Ti4+  Ti6  1  0.83055062  0.16492865  0.58617345  1
  Ti4+  Ti7  1  0.83238410  0.66843623  0.59184648  1
  Ti4+  Ti8  1  0.16544071  0.33235212  0.92615471  1
  Ti4+  Ti9  1  0.16774856  0.83289252  0.92693281  1
  Ti4+  Ti10  1  0.66707709  0.33400692  0.92719327  1
  Ti4+  Ti11  1  0.66828402  0.83246373  0.92337212  1
  Ti4+  Ti12  1  -0.00160884  -0.00042889  0.75456010  1
  Ti4+  Ti13  1  -0.00054266  0.50014273  0.75874776  1
  Ti4+  Ti14  1  0.49966158  -0.00029140  0.75706912  1
  Ti4+  Ti15  1  0.50155103  0.50138743  0.75468881  1
  Ti4+  Ti16  1  0.33385554  0.16708697  0.08732031  1
  Ti4+  Ti17  1  0.33325926  0.66915905  0.09081602  1
  Ti4+  Ti18  1  0.83587931  0.16702487  0.09137069  1
  Ti4+  Ti19  1  0.83120145  0.66437565  0.09251348  1
  Ti4+  Ti20  1  0.16691030  0.33548570  0.41963802  1
  Ti4+  Ti21  1  0.16696225  0.83418813  0.42071171  1
  Ti4+  Ti22  1  0.66541858  0.33175609  0.42018996  1
  Ti4+  Ti23  1  0.66771164  0.83309269  0.42029816  1
  Cu+  Cu24  1  0.02820592  0.26689199  0.14257431  1
  Cu+  Cu25  1  0.83859723  0.42108854  0.48234413  1
  Cu+  Cu26  1  0.73916750  0.47255314  0.14391895  1
  Cu+  Cu27  1  0.57177776  0.91885101  0.47331038  1
  Cu+  Cu28  1  0.56865329  0.14668334  0.47392261  1
  Cu+  Cu29  1  0.07628390  0.42251235  0.47906476  1
  Cu+  Cu30  1  0.57459782  0.64325968  0.47231803  1
  Cu+  Cu31  1  0.85674619  0.92530250  0.47148936  1
  Cu+  Cu32  1  0.07606912  0.65774157  0.48133761  1
  Cu+  Cu33  1  0.91357425  0.81581715  0.81072126  1
  Cu+  Cu34  1  0.23319044  0.76134862  0.14283804  1
  Cu+  Cu35  1  0.68629199  0.58819422  0.81039977  1
  Cu+  Cu36  1  0.16504253  0.08250435  0.16933151  1
  Cu+  Cu37  1  0.16528258  0.58792673  0.17342994  1
  Cu+  Cu38  1  0.66327047  0.08069190  0.17346617  1
  Cu+  Cu39  1  0.66400839  0.57601787  0.17310729  1
  Cu+  Cu40  1  0.41821714  0.33571989  0.16950933  1
  Cu+  Cu41  1  0.41188597  0.83628256  0.17137952  1
  Cu+  Cu42  1  0.92182989  0.33509535  0.17379737  1
  Cu+  Cu43  1  0.91621931  0.83682027  0.17410722  1
  Cu+  Cu44  1  0.41969174  0.08426694  0.16982306  1
  Cu+  Cu45  1  0.42181933  0.58576763  0.17280709  1
  Cu+  Cu46  1  0.92396681  0.08809961  0.17205458  1
  Cu+  Cu47  1  0.91365784  0.57921909  0.17456202  1
  Cu+  Cu48  1  0.49337419  0.24434072  0.50262155  1
  Cu+  Cu49  1  0.49576268  0.74341325  0.49967659  1
  Cu+  Cu50  1  0.99512078  0.24809156  0.49885844  1
  Cu+  Cu51  1  0.99664156  0.75118331  0.50360492  1
  Cu+  Cu52  1  0.25162369  0.00470329  0.50312632  1
  Cu+  Cu53  1  0.25119427  0.50468018  0.49981319  1
  Cu+  Cu54  1  0.75208591  0.00279717  0.49748610  1
  Cu+  Cu55  1  0.75081773  0.50661267  0.50216655  1
  Cu+  Cu56  1  0.25141344  0.24929086  0.50394573  1
  Cu+  Cu57  1  0.25090016  0.74669570  0.49938561  1
  Cu+  Cu58  1  0.74767736  0.24418443  0.49778175  1
  Cu+  Cu59  1  0.75196810  0.74901644  0.50298163  1
  Cu+  Cu60  1  0.32978453  0.41450167  0.83835131  1
  Cu+  Cu61  1  0.33198865  0.91296639  0.84110357  1
  Cu+  Cu62  1  0.83071324  0.41600979  0.84124896  1
  Cu+  Cu63  1  0.82923284  0.91131785  0.83450661  1
  Cu+  Cu64  1  0.08273920  0.17063601  0.83830753  1
  Cu+  Cu65  1  0.08841909  0.66968330  0.84144519  1
  Cu+  Cu66  1  0.58510907  0.16835019  0.84061302  1
  Cu+  Cu67  1  0.59015158  0.67064022  0.83460556  1
  Cu+  Cu68  1  0.08211460  0.41253564  0.84120077  1
  Cu+  Cu69  1  0.08536771  0.91450212  0.83913581  1
  Cu+  Cu70  1  0.58734789  0.41639464  0.83911676  1
  Cu+  Cu71  1  0.58502689  0.91487056  0.83782842  1
  Cu+  Cu72  1  0.16868282  0.08650172  0.67444103  1
  Cu+  Cu73  1  0.16579266  0.58213976  0.67639694  1
  Cu+  Cu74  1  0.66538981  0.08355136  0.67313298  1
  Cu+  Cu75  1  0.66845229  0.58597360  0.68048764  1
  Cu+  Cu76  1  0.41592146  0.33076102  0.67429152  1
  Cu+  Cu77  1  0.41494478  0.83104427  0.67306072  1
  Cu+  Cu78  1  0.91383311  0.33341811  0.67525682  1
  Cu+  Cu79  1  0.91422024  0.83260007  0.68106838  1
  Cu+  Cu80  1  0.41506128  0.08375779  0.67662003  1
  Cu+  Cu81  1  0.41449705  0.58247772  0.67271317  1
  Cu+  Cu82  1  0.91616676  0.08590682  0.67127797  1
  Cu+  Cu83  1  0.91812977  0.58424344  0.67885109  1
  Cu+  Cu84  1  0.00499705  0.25199650  0.01398211  1
  Cu+  Cu85  1  0.00007268  0.75017646  0.01138428  1
  Cu+  Cu86  1  0.50285343  0.25250271  0.00865077  1
  Cu+  Cu87  1  0.50379525  0.75150685  0.00546426  1
  Cu+  Cu88  1  0.24943377  0.49962477  0.00894319  1
  Cu+  Cu89  1  0.25079784  0.99833918  0.00842064  1
  Cu+  Cu90  1  0.74703135  0.49598211  0.01600984  1
  Cu+  Cu91  1  0.74917081  0.99694470  0.00615433  1
  Cu+  Cu92  1  0.24807839  0.25052723  0.00730795  1
  Cu+  Cu93  1  0.24877496  0.75339484  0.01470551  1
  Cu+  Cu94  1  0.74975126  0.25005743  0.01042166  1
  Cu+  Cu95  1  0.74888745  0.75007561  0.01026445  1
  Cu+  Cu96  1  0.33804515  0.41897584  0.33915200  1
  Cu+  Cu97  1  0.33220116  0.91750543  0.33969323  1
  Cu+  Cu98  1  0.83472939  0.41863618  0.34886933  1
  Cu+  Cu99  1  0.84018412  0.92093522  0.34341425  1
  Cu+  Cu100  1  0.08361317  0.16714772  0.34044183  1
  Cu+  Cu101  1  0.08134710  0.66652731  0.34852708  1
  Cu+  Cu102  1  0.57953386  0.16177487  0.34426993  1
  Cu+  Cu103  1  0.58446020  0.66126110  0.34370777  1
  Cu+  Cu104  1  0.08417087  0.42060741  0.34726310  1
  Cu+  Cu105  1  0.08360967  0.92012218  0.33961389  1
  Cu+  Cu106  1  0.58341085  0.41652357  0.34128144  1
  Cu+  Cu107  1  0.58027870  0.91750578  0.34330477  1
  Cu+  Cu108  1  0.00043534  -0.00108679  0.11489956  1
  Cu+  Cu109  1  0.00013408  0.49944101  0.11753513  1
  Cu+  Cu110  1  0.50184402  0.00069342  0.11475758  1
  Cu+  Cu111  1  0.49598044  0.49934086  0.11500147  1
  Cu+  Cu112  1  0.32951291  0.16761678  0.44643279  1
  Cu+  Cu113  1  0.33533469  0.66866582  0.44037886  1
  Cu+  Cu114  1  0.83401342  0.16534469  0.43888781  1
  Cu+  Cu115  1  0.83445538  0.66949056  0.44604341  1
  Cu+  Cu116  1  0.16724292  0.33544115  0.78337034  1
  Cu+  Cu117  1  0.16988985  0.83535353  0.78398523  1
  Cu+  Cu118  1  0.66556015  0.32887764  0.78396871  1
  Cu+  Cu119  1  0.66380693  0.83599890  0.77790491  1
  Te2-  Te120  1  0.00592649  0.00441180  0.38885541  1
  Te2-  Te121  1  -0.00007286  0.50136712  0.39403783  1
  Te2-  Te122  1  0.49401896  -0.00380374  0.39018368  1
  Te2-  Te123  1  0.49962956  0.49541374  0.38902016  1
  Te2-  Te124  1  0.33280836  0.16664442  0.72065007  1
  Te2-  Te125  1  0.33251406  0.66562391  0.71663608  1
  Te2-  Te126  1  0.83142906  0.16643429  0.71458180  1
  Te2-  Te127  1  0.83523453  0.66576942  0.72367889  1
  Te2-  Te128  1  0.17217780  0.33683452  0.05736706  1
  Te2-  Te129  1  0.16404353  0.83587646  0.05759525  1
  Te2-  Te130  1  0.66506844  0.32827665  0.05812192  1
  Te2-  Te131  1  0.66687562  0.83342695  0.05231185  1
  Te2-  Te132  1  0.49637578  0.24928269  0.88242716  1
  Te2-  Te133  1  0.49774694  0.74555145  0.87969916  1
  Te2-  Te134  1  0.99240279  0.24538691  0.88707053  1
  Te2-  Te135  1  0.99453381  0.74386980  0.88537746  1
  Te2-  Te136  1  0.25252229  0.00353285  0.88225562  1
  Te2-  Te137  1  0.25151205  0.50365916  0.88293278  1
  Te2-  Te138  1  0.75412409  0.00321055  0.88029512  1
  Te2-  Te139  1  0.75639080  0.50810814  0.88847225  1
  Te2-  Te140  1  0.25077837  0.24665584  0.88154243  1
  Te2-  Te141  1  0.25461431  0.74666387  0.88816320  1
  Te2-  Te142  1  0.75281699  0.24807674  0.88468962  1
  Te2-  Te143  1  0.75763787  0.74375093  0.88373752  1
  Te2-  Te144  1  0.33165176  0.41650917  0.21378664  1
  Te2-  Te145  1  0.32364757  0.91755131  0.21484101  1
  Te2-  Te146  1  0.82827406  0.40972917  0.22070024  1
  Te2-  Te147  1  0.83018852  0.91932291  0.21710537  1
  Te2-  Te148  1  0.09372017  0.17749023  0.21530003  1
  Te2-  Te149  1  0.08138404  0.67374263  0.22039151  1
  Te2-  Te150  1  0.58527102  0.17084180  0.21772929  1
  Te2-  Te151  1  0.59044977  0.67099813  0.21734879  1
  Te2-  Te152  1  0.09179132  0.42023615  0.21934629  1
  Te2-  Te153  1  0.08543867  0.91566994  0.21446210  1
  Te2-  Te154  1  0.58422966  0.40644067  0.21637309  1
  Te2-  Te155  1  0.58033825  0.91139375  0.21655331  1
  Te2-  Te156  1  0.16167955  0.08162735  0.54861954  1
  Te2-  Te157  1  0.15625458  0.57845651  0.55005261  1
  Te2-  Te158  1  0.65536919  0.07634058  0.54656564  1
  Te2-  Te159  1  0.65979526  0.57927332  0.55171581  1
  Te2-  Te160  1  0.42043082  0.33761239  0.54804072  1
  Te2-  Te161  1  0.41682290  0.83677338  0.54638077  1
  Te2-  Te162  1  0.91756340  0.34097789  0.54859995  1
  Te2-  Te163  1  0.92142506  0.84102813  0.55219204  1
  Te2-  Te164  1  0.41744524  0.07548519  0.55043473  1
  Te2-  Te165  1  0.41701414  0.57538586  0.54660216  1
  Te2-  Te166  1  0.92064009  0.08208753  0.54522525  1
  Te2-  Te167  1  0.91977303  0.58015990  0.55223299  1
  Te2-  Te168  1  -0.00115300  -0.00027352  0.88158042  1
  Te2-  Te169  1  0.00034127  0.49979196  0.88501795  1
  Te2-  Te170  1  0.50176026  -0.00070522  0.88342100  1
  Te2-  Te171  1  0.49986472  0.50095896  0.88166257  1
  Te2-  Te172  1  0.33364809  0.16728249  0.21393081  1
  Te2-  Te173  1  0.33537620  0.66812117  0.21794904  1
  Te2-  Te174  1  0.83244408  0.16542350  0.21843016  1
  Te2-  Te175  1  0.83296454  0.66819963  0.21959618  1
  Te2-  Te176  1  0.16518229  0.33355735  0.54699274  1
  Te2-  Te177  1  0.16829493  0.83447552  0.54817899  1
  Te2-  Te178  1  0.66577246  0.33326493  0.54817686  1
  Te2-  Te179  1  0.66571863  0.83423102  0.54870951  1
  Te2-  Te180  1  0.32895764  0.41386986  0.71122222  1
  Te2-  Te181  1  0.32799503  0.91284874  0.71284142  1
  Te2-  Te182  1  0.82657420  0.41451485  0.71383819  1
  Te2-  Te183  1  0.82522109  0.91674156  0.70766451  1
  Te2-  Te184  1  0.08427879  0.17217649  0.71125974  1
  Te2-  Te185  1  0.08767264  0.67310730  0.71415152  1
  Te2-  Te186  1  0.58528510  0.17156056  0.71254963  1
  Te2-  Te187  1  0.58424515  0.67459897  0.70772052  1
  Te2-  Te188  1  0.08327837  0.41240856  0.71317479  1
  Te2-  Te189  1  0.08818051  0.91564164  0.71094009  1
  Te2-  Te190  1  0.58647129  0.41243531  0.71110358  1
  Te2-  Te191  1  0.58431775  0.91421258  0.70952786  1
  Te2-  Te192  1  0.16137361  0.08020758  0.04280508  1
  Te2-  Te193  1  0.16028981  0.58008828  0.04614172  1
  Te2-  Te194  1  0.66413976  0.08040602  0.04640128  1
  Te2-  Te195  1  0.65870494  0.58069282  0.04618186  1
  Te2-  Te196  1  0.41908602  0.33946843  0.04279413  1
  Te2-  Te197  1  0.42284826  0.84028352  0.04397962  1
  Te2-  Te198  1  0.91954223  0.33975931  0.04643942  1
  Te2-  Te199  1  0.91757751  0.83670075  0.04733065  1
  Te2-  Te200  1  0.42131762  0.08163534  0.04331686  1
  Te2-  Te201  1  0.41927194  0.58354191  0.04564486  1
  Te2-  Te202  1  0.91852917  0.07826552  0.04478205  1
  Te2-  Te203  1  0.92048932  0.58055284  0.04718748  1
  Te2-  Te204  1  0.49167563  0.24636692  0.37566851  1
  Te2-  Te205  1  0.49466022  0.74507169  0.37208662  1
  Te2-  Te206  1  0.99357038  0.24720761  0.37205111  1
  Te2-  Te207  1  0.99302831  0.75103851  0.37612314  1
  Te2-  Te208  1  0.25262449  0.00678814  0.37650000  1
  Te2-  Te209  1  0.25743292  0.50851695  0.37293252  1
  Te2-  Te210  1  0.75264742  0.00628105  0.37070921  1
  Te2-  Te211  1  0.75207657  0.50794578  0.37589092  1
  Te2-  Te212  1  0.25344666  0.24964425  0.37651252  1
  Te2-  Te213  1  0.25455751  0.74809273  0.37282028  1
  Te2-  Te214  1  0.75266426  0.24484271  0.37127920  1
  Te2-  Te215  1  0.75676090  0.74836778  0.37506644  1
