# generated using pymatgen
data_Ti(CuTe)4
_symmetry_space_group_name_H-M   'P 1'
_cell_length_a   16.87722277
_cell_length_b   16.87647454
_cell_length_c   20.68734044
_cell_angle_alpha   90.00152224
_cell_angle_beta   89.99812057
_cell_angle_gamma   120.00109644
_symmetry_Int_Tables_number   1
_chemical_formula_structural   Ti(CuTe)4
_chemical_formula_sum   'Ti24 Cu96 Te96'
_cell_volume   5102.85474462
_cell_formula_units_Z   24
loop_
 _symmetry_equiv_pos_site_id
 _symmetry_equiv_pos_as_xyz
  1  'x, y, z'
loop_
 _atom_type_symbol
 _atom_type_oxidation_number
  Ti4+  4.0
  Cu+  1.0
  Te2-  -2.0
loop_
 _atom_site_type_symbol
 _atom_site_label
 _atom_site_symmetry_multiplicity
 _atom_site_fract_x
 _atom_site_fract_y
 _atom_site_fract_z
 _atom_site_occupancy
  Ti4+  Ti0  1  -0.00059772  -0.00016308  0.26384334  1
  Ti4+  Ti1  1  0.00150178  0.49912575  0.25460289  1
  Ti4+  Ti2  1  0.50360529  0.00177431  0.25478236  1
  Ti4+  Ti3  1  0.49787227  0.49723217  0.25597459  1
  Ti4+  Ti4  1  0.33279222  0.16562130  0.59339909  1
  Ti4+  Ti5  1  0.33458290  0.66708545  0.59111714  1
  Ti4+  Ti6  1  0.83304021  0.16595380  0.59322305  1
  Ti4+  Ti7  1  0.83242592  0.66575316  0.58971523  1
  Ti4+  Ti8  1  0.16505940  0.33415261  0.92386915  1
  Ti4+  Ti9  1  0.16605997  0.83813482  0.92217210  1
  Ti4+  Ti10  1  0.66790231  0.33258335  0.92433581  1
  Ti4+  Ti11  1  0.66432632  0.83214056  0.92745990  1
  Ti4+  Ti12  1  0.00115361  -0.00050163  0.75629070  1
  Ti4+  Ti13  1  -0.00132842  0.49730029  0.75501831  1
  Ti4+  Ti14  1  0.49987982  0.00070662  0.75563282  1
  Ti4+  Ti15  1  0.49870457  0.50147466  0.75678553  1
  Ti4+  Ti16  1  0.33396746  0.16798084  0.09008414  1
  Ti4+  Ti17  1  0.33204200  0.66500618  0.08566985  1
  Ti4+  Ti18  1  0.83205791  0.16638748  0.08773484  1
  Ti4+  Ti19  1  0.83337702  0.66760476  0.08763350  1
  Ti4+  Ti20  1  0.16701520  0.33335230  0.42291643  1
  Ti4+  Ti21  1  0.16756076  0.83351047  0.41993716  1
  Ti4+  Ti22  1  0.66716653  0.33287050  0.42375138  1
  Ti4+  Ti23  1  0.66611388  0.83219698  0.42114607  1
  Cu+  Cu24  1  0.90378671  0.30662010  0.80783294  1
  Cu+  Cu25  1  0.52054033  0.26291462  0.14128990  1
  Cu+  Cu26  1  0.41291189  0.09786323  0.81010517  1
  Cu+  Cu27  1  0.84112185  0.92042901  0.48331989  1
  Cu+  Cu28  1  0.74819861  0.98485955  0.14508486  1
  Cu+  Cu29  1  0.18477736  0.09742390  0.81051349  1
  Cu+  Cu30  1  0.07739671  0.15594102  0.48321830  1
  Cu+  Cu31  1  0.74626806  0.26125866  0.14216829  1
  Cu+  Cu32  1  0.40295537  0.59892194  0.80831037  1
  Cu+  Cu33  1  0.07980630  0.92127282  0.48265152  1
  Cu+  Cu34  1  0.23828007  0.47435248  0.13771410  1
  Cu+  Cu35  1  0.51236329  0.75177349  0.14386203  1
  Cu+  Cu36  1  0.16373520  0.08315182  0.17719436  1
  Cu+  Cu37  1  0.16395391  0.57522997  0.16679845  1
  Cu+  Cu38  1  0.66356312  0.08134246  0.16603583  1
  Cu+  Cu39  1  0.66383946  0.58009309  0.16761701  1
  Cu+  Cu40  1  0.42044163  0.33673637  0.16969335  1
  Cu+  Cu41  1  0.42158862  0.83698464  0.16675528  1
  Cu+  Cu42  1  0.91971139  0.34043233  0.16756666  1
  Cu+  Cu43  1  0.91822781  0.83543991  0.17429688  1
  Cu+  Cu44  1  0.42318430  0.08724602  0.16937314  1
  Cu+  Cu45  1  0.41390888  0.57629597  0.16774430  1
  Cu+  Cu46  1  0.91890791  0.08041993  0.17513530  1
  Cu+  Cu47  1  0.91944797  0.58348049  0.16775694  1
  Cu+  Cu48  1  0.49781109  0.24637732  0.50772613  1
  Cu+  Cu49  1  0.49537945  0.74514320  0.50439961  1
  Cu+  Cu50  1  0.99680282  0.24916891  0.50603472  1
  Cu+  Cu51  1  0.99589982  0.74735608  0.50085185  1
  Cu+  Cu52  1  0.25336825  0.00391778  0.50443113  1
  Cu+  Cu53  1  0.25560933  0.50519066  0.50556572  1
  Cu+  Cu54  1  0.75072114  0.00319801  0.50464850  1
  Cu+  Cu55  1  0.75045936  0.50283405  0.50474294  1
  Cu+  Cu56  1  0.25056203  0.24680197  0.50515832  1
  Cu+  Cu57  1  0.25417195  0.74934805  0.50317358  1
  Cu+  Cu58  1  0.75322838  0.25016000  0.50796394  1
  Cu+  Cu59  1  0.75154346  0.74629090  0.50202760  1
  Cu+  Cu60  1  0.33117757  0.42285830  0.83745905  1
  Cu+  Cu61  1  0.33027665  0.92209297  0.83529963  1
  Cu+  Cu62  1  0.83169609  0.40915841  0.83720843  1
  Cu+  Cu63  1  0.83065000  0.91590287  0.84133789  1
  Cu+  Cu64  1  0.08679133  0.17058454  0.83778086  1
  Cu+  Cu65  1  0.08180311  0.67109895  0.83679454  1
  Cu+  Cu66  1  0.58537264  0.17185887  0.83793663  1
  Cu+  Cu67  1  0.57790012  0.66847811  0.83996015  1
  Cu+  Cu68  1  0.07863355  0.41040153  0.83703170  1
  Cu+  Cu69  1  0.08962415  0.92039415  0.83538583  1
  Cu+  Cu70  1  0.58438917  0.41557034  0.83797179  1
  Cu+  Cu71  1  0.58633535  0.91525892  0.84031949  1
  Cu+  Cu72  1  0.16832449  0.08250277  0.68248888  1
  Cu+  Cu73  1  0.16884167  0.58352561  0.67273841  1
  Cu+  Cu74  1  0.66745065  0.08297588  0.67580772  1
  Cu+  Cu75  1  0.66828700  0.58524308  0.67389463  1
  Cu+  Cu76  1  0.41552410  0.33291244  0.67513535  1
  Cu+  Cu77  1  0.41814851  0.83139955  0.67377554  1
  Cu+  Cu78  1  0.91449589  0.32698077  0.68002460  1
  Cu+  Cu79  1  0.91404313  0.82947003  0.67649811  1
  Cu+  Cu80  1  0.41515044  0.08476185  0.68074580  1
  Cu+  Cu81  1  0.41518955  0.58727291  0.67936756  1
  Cu+  Cu82  1  0.91558820  0.08208595  0.67877973  1
  Cu+  Cu83  1  0.91372807  0.58312984  0.67190981  1
  Cu+  Cu84  1  -0.00114451  0.24813286  0.00910918  1
  Cu+  Cu85  1  0.00152146  0.75573001  0.00516445  1
  Cu+  Cu86  1  0.50237805  0.25116860  0.01341882  1
  Cu+  Cu87  1  0.50103935  0.75057412  0.01432529  1
  Cu+  Cu88  1  0.24542579  0.49643159  0.00999543  1
  Cu+  Cu89  1  0.24595979  1.00022686  0.00982152  1
  Cu+  Cu90  1  0.75099533  0.49965626  0.00477763  1
  Cu+  Cu91  1  0.74835264  0.99560508  0.01563612  1
  Cu+  Cu92  1  0.24791304  0.25011972  0.00907437  1
  Cu+  Cu93  1  0.24568341  0.75402842  0.00336751  1
  Cu+  Cu94  1  0.74899865  0.25056777  0.01254766  1
  Cu+  Cu95  1  0.74956747  0.75136841  0.00840690  1
  Cu+  Cu96  1  0.33392671  0.41672030  0.34036116  1
  Cu+  Cu97  1  0.33782704  0.91883125  0.33750280  1
  Cu+  Cu98  1  0.83638087  0.41741179  0.34004028  1
  Cu+  Cu99  1  0.83406584  0.91664841  0.35100989  1
  Cu+  Cu100  1  0.08087012  0.16418726  0.35108390  1
  Cu+  Cu101  1  0.08501484  0.66409171  0.33655863  1
  Cu+  Cu102  1  0.58564561  0.16661997  0.34238108  1
  Cu+  Cu103  1  0.57918592  0.66249533  0.33991781  1
  Cu+  Cu104  1  0.08415750  0.41883662  0.33994503  1
  Cu+  Cu105  1  0.08389137  0.91870514  0.35002075  1
  Cu+  Cu106  1  0.58052588  0.41497584  0.34208238  1
  Cu+  Cu107  1  0.58294648  0.91618831  0.34107897  1
  Cu+  Cu108  1  0.00323614  -0.00132765  0.12104813  1
  Cu+  Cu109  1  0.00218650  0.50759023  0.10970126  1
  Cu+  Cu110  1  0.49434587  -0.00237927  0.10975046  1
  Cu+  Cu111  1  0.50262324  0.50129012  0.11007320  1
  Cu+  Cu112  1  0.33815444  0.16948852  0.44938675  1
  Cu+  Cu113  1  0.33251653  0.66698185  0.44692485  1
  Cu+  Cu114  1  0.83127817  0.16864315  0.44976256  1
  Cu+  Cu115  1  0.83270638  0.66181651  0.44435111  1
  Cu+  Cu116  1  0.16827214  0.33482568  0.78029228  1
  Cu+  Cu117  1  0.16694166  0.82823233  0.77799766  1
  Cu+  Cu118  1  0.66923909  0.33988629  0.78048823  1
  Cu+  Cu119  1  0.66984013  0.83252593  0.78517601  1
  Te2-  Te120  1  -0.00061977  -0.00095421  0.39727378  1
  Te2-  Te121  1  0.00140547  0.50077519  0.38334656  1
  Te2-  Te122  1  0.50183162  0.00052427  0.38323482  1
  Te2-  Te123  1  0.49826425  0.49816921  0.38459224  1
  Te2-  Te124  1  0.33488389  0.17055667  0.72524940  1
  Te2-  Te125  1  0.33074589  0.66902984  0.72216033  1
  Te2-  Te126  1  0.83058468  0.16099037  0.72387747  1
  Te2-  Te127  1  0.83227239  0.66473622  0.71881793  1
  Te2-  Te128  1  0.16333285  0.32982719  0.05394983  1
  Te2-  Te129  1  0.16493134  0.83537486  0.05129902  1
  Te2-  Te130  1  0.66951376  0.33734660  0.05602469  1
  Te2-  Te131  1  0.66633076  0.82979877  0.05970536  1
  Te2-  Te132  1  0.49434402  0.25033104  0.88572274  1
  Te2-  Te133  1  0.49056823  0.74958349  0.88660515  1
  Te2-  Te134  1  0.99150592  0.24150385  0.88342251  1
  Te2-  Te135  1  0.99526951  0.75292916  0.87936965  1
  Te2-  Te136  1  0.25665092  0.01609604  0.88399590  1
  Te2-  Te137  1  0.24628323  0.50693400  0.88270707  1
  Te2-  Te138  1  0.75212337  0.00369271  0.88778126  1
  Te2-  Te139  1  0.75373251  0.50135254  0.87896979  1
  Te2-  Te140  1  0.25737075  0.25397568  0.88300998  1
  Te2-  Te141  1  0.25124365  0.75314415  0.87755404  1
  Te2-  Te142  1  0.75063377  0.24145442  0.88516397  1
  Te2-  Te143  1  0.74802098  0.74653525  0.88258846  1
  Te2-  Te144  1  0.32443772  0.40795365  0.21463999  1
  Te2-  Te145  1  0.33387823  0.91751369  0.21116035  1
  Te2-  Te146  1  0.82727334  0.41682516  0.21415496  1
  Te2-  Te147  1  0.82715183  0.91050086  0.22236945  1
  Te2-  Te148  1  0.08413276  0.17056360  0.22313521  1
  Te2-  Te149  1  0.08849346  0.66896063  0.21020747  1
  Te2-  Te150  1  0.59194497  0.17826833  0.21606390  1
  Te2-  Te151  1  0.58620886  0.66949650  0.21364941  1
  Te2-  Te152  1  0.08505418  0.40777350  0.21443393  1
  Te2-  Te153  1  0.08488071  0.91548761  0.22159826  1
  Te2-  Te154  1  0.58947100  0.41498695  0.21578714  1
  Te2-  Te155  1  0.59012887  0.91203530  0.21499281  1
  Te2-  Te156  1  0.15741599  0.07759294  0.55431444  1
  Te2-  Te157  1  0.16349285  0.58159486  0.54704547  1
  Te2-  Te158  1  0.66261330  0.08132264  0.54989923  1
  Te2-  Te159  1  0.66089053  0.58082827  0.54802489  1
  Te2-  Te160  1  0.41746506  0.33527014  0.54947574  1
  Te2-  Te161  1  0.42140512  0.83859152  0.54798208  1
  Te2-  Te162  1  0.91990857  0.33743032  0.55284721  1
  Te2-  Te163  1  0.92118235  0.84221750  0.55045301  1
  Te2-  Te164  1  0.41787734  0.07977240  0.55314203  1
  Te2-  Te165  1  0.42106736  0.58045385  0.55221783  1
  Te2-  Te166  1  0.92095640  0.07812034  0.55279511  1
  Te2-  Te167  1  0.91877005  0.58123307  0.54614429  1
  Te2-  Te168  1  0.00072947  0.00065284  0.88333533  1
  Te2-  Te169  1  0.00053444  0.50251087  0.88202360  1
  Te2-  Te170  1  0.49960176  0.00071422  0.88257348  1
  Te2-  Te171  1  0.49974808  0.49940557  0.88393824  1
  Te2-  Te172  1  0.33487419  0.16744694  0.21715880  1
  Te2-  Te173  1  0.33370715  0.66721930  0.21339384  1
  Te2-  Te174  1  0.83381634  0.16878005  0.21540251  1
  Te2-  Te175  1  0.83272472  0.66436101  0.21423438  1
  Te2-  Te176  1  0.16806389  0.33505683  0.55019402  1
  Te2-  Te177  1  0.16657915  0.83157933  0.54741661  1
  Te2-  Te178  1  0.66752074  0.33423966  0.55023481  1
  Te2-  Te179  1  0.66581210  0.83150635  0.54844359  1
  Te2-  Te180  1  0.32675415  0.41399029  0.71012672  1
  Te2-  Te181  1  0.32776807  0.91177507  0.70850101  1
  Te2-  Te182  1  0.82678538  0.41326073  0.70910235  1
  Te2-  Te183  1  0.82790940  0.91247790  0.71396666  1
  Te2-  Te184  1  0.08605560  0.17354547  0.71101407  1
  Te2-  Te185  1  0.08343491  0.66839184  0.70919886  1
  Te2-  Te186  1  0.58835121  0.17429180  0.71096897  1
  Te2-  Te187  1  0.58740930  0.67367383  0.71213718  1
  Te2-  Te188  1  0.08790803  0.41377050  0.70988530  1
  Te2-  Te189  1  0.08469700  0.90971804  0.70969354  1
  Te2-  Te190  1  0.58491540  0.41556215  0.71124375  1
  Te2-  Te191  1  0.58633475  0.91365366  0.71371359  1
  Te2-  Te192  1  0.16022059  0.08216652  0.04904164  1
  Te2-  Te193  1  0.16002785  0.58387368  0.03940825  1
  Te2-  Te194  1  0.65717360  0.07806687  0.04041384  1
  Te2-  Te195  1  0.66160931  0.58003253  0.04123705  1
  Te2-  Te196  1  0.41844589  0.34031942  0.04295813  1
  Te2-  Te197  1  0.41537927  0.83853046  0.04017216  1
  Te2-  Te198  1  0.92134738  0.34066763  0.04161828  1
  Te2-  Te199  1  0.91898451  0.84099827  0.04669319  1
  Te2-  Te200  1  0.41683592  0.07898142  0.04248352  1
  Te2-  Te201  1  0.41822549  0.57685508  0.03962280  1
  Te2-  Te202  1  0.92059753  0.07934731  0.04723761  1
  Te2-  Te203  1  0.92070293  0.58461479  0.04053818  1
  Te2-  Te204  1  0.49529865  0.24583164  0.37968854  1
  Te2-  Te205  1  0.49395597  0.74635991  0.37723577  1
  Te2-  Te206  1  0.99328288  0.24963865  0.37907893  1
  Te2-  Te207  1  0.99475304  0.74399825  0.37385495  1
  Te2-  Te208  1  0.25766317  0.00776603  0.37699657  1
  Te2-  Te209  1  0.25318833  0.50488870  0.37819508  1
  Te2-  Te210  1  0.75202044  0.00737250  0.37790733  1
  Te2-  Te211  1  0.75160459  0.50302771  0.37721054  1
  Te2-  Te212  1  0.25449299  0.24728284  0.37806120  1
  Te2-  Te213  1  0.25428418  0.74900531  0.37537636  1
  Te2-  Te214  1  0.75484570  0.24883776  0.37983810  1
  Te2-  Te215  1  0.74972092  0.74241650  0.37553136  1
