# generated using pymatgen
data_Ti(CuTe)4
_symmetry_space_group_name_H-M   'P 1'
_cell_length_a   16.85318772
_cell_length_b   16.85558592
_cell_length_c   20.66001891
_cell_angle_alpha   90.03590881
_cell_angle_beta   89.99462026
_cell_angle_gamma   119.98428065
_symmetry_Int_Tables_number   1
_chemical_formula_structural   Ti(CuTe)4
_chemical_formula_sum   'Ti24 Cu96 Te96'
_cell_volume   5083.41924715
_cell_formula_units_Z   24
loop_
 _symmetry_equiv_pos_site_id
 _symmetry_equiv_pos_as_xyz
  1  'x, y, z'
loop_
 _atom_type_symbol
 _atom_type_oxidation_number
  Ti4+  4.0
  Cu+  1.0
  Te2-  -2.0
loop_
 _atom_site_type_symbol
 _atom_site_label
 _atom_site_symmetry_multiplicity
 _atom_site_fract_x
 _atom_site_fract_y
 _atom_site_fract_z
 _atom_site_occupancy
  Ti4+  Ti0  1  -0.00177449  0.00076548  0.25502880  1
  Ti4+  Ti1  1  -0.00223358  0.49906247  0.25608378  1
  Ti4+  Ti2  1  0.49626725  -0.00333275  0.25947979  1
  Ti4+  Ti3  1  0.49502332  0.49905369  0.26041941  1
  Ti4+  Ti4  1  0.33279414  0.16495458  0.58998473  1
  Ti4+  Ti5  1  0.33555006  0.66625248  0.59394112  1
  Ti4+  Ti6  1  0.83292154  0.16724515  0.58956756  1
  Ti4+  Ti7  1  0.83507772  0.67144011  0.58902372  1
  Ti4+  Ti8  1  0.16953687  0.33265706  0.92413876  1
  Ti4+  Ti9  1  0.17045315  0.83073577  0.92694422  1
  Ti4+  Ti10  1  0.66598785  0.33339159  0.92278615  1
  Ti4+  Ti11  1  0.66843572  0.83397109  0.92643135  1
  Ti4+  Ti12  1  0.00087538  0.00150046  0.75762352  1
  Ti4+  Ti13  1  0.00280333  0.50305837  0.75401952  1
  Ti4+  Ti14  1  0.50004252  0.00019378  0.75656466  1
  Ti4+  Ti15  1  0.49890474  0.49776882  0.75598974  1
  Ti4+  Ti16  1  0.33354998  0.16819897  0.09078055  1
  Ti4+  Ti17  1  0.33359947  0.66761762  0.09030331  1
  Ti4+  Ti18  1  0.83336717  0.16504784  0.08800313  1
  Ti4+  Ti19  1  0.83520627  0.66719511  0.08770518  1
  Ti4+  Ti20  1  0.16724135  0.33419038  0.42269160  1
  Ti4+  Ti21  1  0.16575685  0.83523942  0.42360644  1
  Ti4+  Ti22  1  0.66526496  0.33183647  0.41919316  1
  Ti4+  Ti23  1  0.66562920  0.83291900  0.42085179  1
  Cu+  Cu24  1  0.18914869  0.58946627  0.80909552  1
  Cu+  Cu25  1  0.07035900  0.93269751  0.47005400  1
  Cu+  Cu26  1  0.41441357  0.81730882  0.81385720  1
  Cu+  Cu27  1  0.23586085  0.26352405  0.14147053  1
  Cu+  Cu28  1  0.23710507  0.75537767  0.14629112  1
  Cu+  Cu29  1  0.40304394  0.30425690  0.80665932  1
  Cu+  Cu30  1  0.34673498  0.91831421  0.48217011  1
  Cu+  Cu31  1  0.57814978  0.65092705  0.47775283  1
  Cu+  Cu32  1  0.23814803  0.98447326  0.14381842  1
  Cu+  Cu33  1  0.35175187  0.42253718  0.47941339  1
  Cu+  Cu34  1  0.73357653  0.97388191  0.14053684  1
  Cu+  Cu35  1  0.57671086  0.14769187  0.47471286  1
  Cu+  Cu36  1  0.16359635  0.08547911  0.17021253  1
  Cu+  Cu37  1  0.16091859  0.58190723  0.17048170  1
  Cu+  Cu38  1  0.66460942  0.07905505  0.17251089  1
  Cu+  Cu39  1  0.66619842  0.58653902  0.17355142  1
  Cu+  Cu40  1  0.40983817  0.33800488  0.17229731  1
  Cu+  Cu41  1  0.41254646  0.83693288  0.17084245  1
  Cu+  Cu42  1  0.91749537  0.33625697  0.16937741  1
  Cu+  Cu43  1  0.91892953  0.83637925  0.16824286  1
  Cu+  Cu44  1  0.41316036  0.07756712  0.17289539  1
  Cu+  Cu45  1  0.41601973  0.58081222  0.17447613  1
  Cu+  Cu46  1  0.91136239  0.07629921  0.16754415  1
  Cu+  Cu47  1  0.91610288  0.57936780  0.16861912  1
  Cu+  Cu48  1  0.49804663  0.24620749  0.50065358  1
  Cu+  Cu49  1  0.49783789  0.74707376  0.50435621  1
  Cu+  Cu50  1  0.99638130  0.24847184  0.50364814  1
  Cu+  Cu51  1  0.99762119  0.75766301  0.50276065  1
  Cu+  Cu52  1  0.24977542  0.00216019  0.50228910  1
  Cu+  Cu53  1  0.25459748  0.50167083  0.50608303  1
  Cu+  Cu54  1  0.75366513  0.00571196  0.50182213  1
  Cu+  Cu55  1  0.75346689  0.50460948  0.50082323  1
  Cu+  Cu56  1  0.25291839  0.24905271  0.50335517  1
  Cu+  Cu57  1  0.25309641  0.74689227  0.50874991  1
  Cu+  Cu58  1  0.74978850  0.24634198  0.50170647  1
  Cu+  Cu59  1  0.75272534  0.74900900  0.50155839  1
  Cu+  Cu60  1  0.33079265  0.40797698  0.83673544  1
  Cu+  Cu61  1  0.33097675  0.91050999  0.83913132  1
  Cu+  Cu62  1  0.83061775  0.41730854  0.83565619  1
  Cu+  Cu63  1  0.83279342  0.91860912  0.84127636  1
  Cu+  Cu64  1  0.08806223  0.16973273  0.83851317  1
  Cu+  Cu65  1  0.09247799  0.66923462  0.83642439  1
  Cu+  Cu66  1  0.58688194  0.17248952  0.83676050  1
  Cu+  Cu67  1  0.58760498  0.66982460  0.83933927  1
  Cu+  Cu68  1  0.08771707  0.41810005  0.83742471  1
  Cu+  Cu69  1  0.08722336  0.91748552  0.84174202  1
  Cu+  Cu70  1  0.57892521  0.40968830  0.83642799  1
  Cu+  Cu71  1  0.58613909  0.91477477  0.84083150  1
  Cu+  Cu72  1  0.16608983  0.08333759  0.67479937  1
  Cu+  Cu73  1  0.17166056  0.58721667  0.68027010  1
  Cu+  Cu74  1  0.66908793  0.08670951  0.67437302  1
  Cu+  Cu75  1  0.66939930  0.58703130  0.67391961  1
  Cu+  Cu76  1  0.41442634  0.32922705  0.67871098  1
  Cu+  Cu77  1  0.41659206  0.83302882  0.68330893  1
  Cu+  Cu78  1  0.91437926  0.33192297  0.67145728  1
  Cu+  Cu79  1  0.91665878  0.83482441  0.67535926  1
  Cu+  Cu80  1  0.41642220  0.08301888  0.67651402  1
  Cu+  Cu81  1  0.41754740  0.58249823  0.67947479  1
  Cu+  Cu82  1  0.91573047  0.08650762  0.67362365  1
  Cu+  Cu83  1  0.91729846  0.58875735  0.67082372  1
  Cu+  Cu84  1  0.00406217  0.25176928  0.00619205  1
  Cu+  Cu85  1  0.00369437  0.74911347  0.00717586  1
  Cu+  Cu86  1  0.50344553  0.25378519  0.00903308  1
  Cu+  Cu87  1  0.50262193  0.75071108  0.01155359  1
  Cu+  Cu88  1  0.25378431  0.49966319  0.00837745  1
  Cu+  Cu89  1  0.25314943  0.99625971  0.01447211  1
  Cu+  Cu90  1  0.74759943  0.49750581  0.00471744  1
  Cu+  Cu91  1  0.74738410  0.99519445  0.01259070  1
  Cu+  Cu92  1  0.25094182  0.25261442  0.01345363  1
  Cu+  Cu93  1  0.25195617  0.75104174  0.01701866  1
  Cu+  Cu94  1  0.74960445  0.25261299  0.00500938  1
  Cu+  Cu95  1  0.75302276  0.75266477  0.00796602  1
  Cu+  Cu96  1  0.33378369  0.41855969  0.34927495  1
  Cu+  Cu97  1  0.33252059  0.91557627  0.35146945  1
  Cu+  Cu98  1  0.83481520  0.41777685  0.33785067  1
  Cu+  Cu99  1  0.83248071  0.91760594  0.33921093  1
  Cu+  Cu100  1  0.08241785  0.16690929  0.33866993  1
  Cu+  Cu101  1  0.08118114  0.66391043  0.34168308  1
  Cu+  Cu102  1  0.57856656  0.16082403  0.34515589  1
  Cu+  Cu103  1  0.57868780  0.66294964  0.34806818  1
  Cu+  Cu104  1  0.08062257  0.41907800  0.33913219  1
  Cu+  Cu105  1  0.08057064  0.92010867  0.34380662  1
  Cu+  Cu106  1  0.58091262  0.41737767  0.33940920  1
  Cu+  Cu107  1  0.58232575  0.91643067  0.34181445  1
  Cu+  Cu108  1  -0.00038368  0.00047485  0.11012280  1
  Cu+  Cu109  1  -0.00303787  0.49706460  0.11104001  1
  Cu+  Cu110  1  0.50491359  0.00531498  0.11634173  1
  Cu+  Cu111  1  0.50663671  0.50295299  0.11864296  1
  Cu+  Cu112  1  0.33329488  0.16806414  0.44435376  1
  Cu+  Cu113  1  0.33079370  0.66489536  0.45001479  1
  Cu+  Cu114  1  0.83596003  0.16969150  0.44419453  1
  Cu+  Cu115  1  0.83367631  0.66464590  0.44372045  1
  Cu+  Cu116  1  0.16124956  0.33120242  0.78011467  1
  Cu+  Cu117  1  0.16226891  0.83428655  0.78378787  1
  Cu+  Cu118  1  0.67091025  0.33831988  0.77837392  1
  Cu+  Cu119  1  0.67086867  0.83464935  0.78397348  1
  Te2-  Te120  1  -0.00366162  0.00352908  0.38529599  1
  Te2-  Te121  1  -0.00236781  0.49950604  0.38558477  1
  Te2-  Te122  1  0.49937860  -0.00422946  0.39185663  1
  Te2-  Te123  1  0.50012861  0.49717573  0.39311199  1
  Te2-  Te124  1  0.33027676  0.16173048  0.71996270  1
  Te2-  Te125  1  0.33747032  0.66628565  0.72597119  1
  Te2-  Te126  1  0.83377350  0.16891733  0.71885733  1
  Te2-  Te127  1  0.83430632  0.66917298  0.71799619  1
  Te2-  Te128  1  0.16647629  0.33587092  0.05470525  1
  Te2-  Te129  1  0.16473743  0.83077049  0.05930563  1
  Te2-  Te130  1  0.66824355  0.33443451  0.05217486  1
  Te2-  Te131  1  0.66668322  0.82891225  0.05715257  1
  Te2-  Te132  1  0.49036952  0.24130376  0.88329323  1
  Te2-  Te133  1  0.49452477  0.74299033  0.88564615  1
  Te2-  Te134  1  0.99947443  0.25028128  0.88036696  1
  Te2-  Te135  1  1.00129761  0.74643048  0.88111375  1
  Te2-  Te136  1  0.25575906  0.00179673  0.88697382  1
  Te2-  Te137  1  0.25995247  0.50521274  0.88225575  1
  Te2-  Te138  1  0.75229346  0.00595954  0.88580178  1
  Te2-  Te139  1  0.74842486  0.50396640  0.87854273  1
  Te2-  Te140  1  0.25351355  0.24151602  0.88626791  1
  Te2-  Te141  1  0.25847624  0.74252274  0.88818868  1
  Te2-  Te142  1  0.75412730  0.24959524  0.87954172  1
  Te2-  Te143  1  0.75503455  0.74946057  0.88243363  1
  Te2-  Te144  1  0.32065197  0.41521834  0.22159281  1
  Te2-  Te145  1  0.31950234  0.91026149  0.22243074  1
  Te2-  Te146  1  0.82605446  0.41232734  0.21242743  1
  Te2-  Te147  1  0.82454551  0.90870474  0.21398208  1
  Te2-  Te148  1  0.08016101  0.17315640  0.21290598  1
  Te2-  Te149  1  0.08183465  0.67349738  0.21612198  1
  Te2-  Te150  1  0.58193401  0.16592421  0.21736182  1
  Te2-  Te151  1  0.58268900  0.67053952  0.22063567  1
  Te2-  Te152  1  0.08522358  0.41471661  0.21352243  1
  Te2-  Te153  1  0.08471854  0.91371033  0.21690704  1
  Te2-  Te154  1  0.57977267  0.41504287  0.21353990  1
  Te2-  Te155  1  0.57983974  0.90783034  0.21630594  1
  Te2-  Te156  1  0.16013794  0.08197106  0.54862697  1
  Te2-  Te157  1  0.16533337  0.57996237  0.55299096  1
  Te2-  Te158  1  0.65850156  0.07638976  0.54866613  1
  Te2-  Te159  1  0.66125807  0.57867784  0.54820462  1
  Te2-  Te160  1  0.42353422  0.33775085  0.55095029  1
  Te2-  Te161  1  0.42458113  0.83963915  0.55486713  1
  Te2-  Te162  1  0.91732667  0.33829199  0.54549186  1
  Te2-  Te163  1  0.91832993  0.84625357  0.54890098  1
  Te2-  Te164  1  0.42073285  0.07725503  0.54986684  1
  Te2-  Te165  1  0.42352929  0.57851681  0.55324481  1
  Te2-  Te166  1  0.91964377  0.08143756  0.54786974  1
  Te2-  Te167  1  0.92211153  0.58807792  0.54467790  1
  Te2-  Te168  1  0.00219626  0.00139872  0.88477587  1
  Te2-  Te169  1  -0.00060984  0.49964893  0.88134823  1
  Te2-  Te170  1  0.50222972  0.00252419  0.88354215  1
  Te2-  Te171  1  0.50082070  0.50011080  0.88296534  1
  Te2-  Te172  1  0.33299616  0.16828821  0.21843016  1
  Te2-  Te173  1  0.33054849  0.66677946  0.21750587  1
  Te2-  Te174  1  0.83413810  0.16753998  0.21528870  1
  Te2-  Te175  1  0.83532108  0.66754001  0.21464322  1
  Te2-  Te176  1  0.16534983  0.33130241  0.54995665  1
  Te2-  Te177  1  0.16707447  0.83319604  0.55134348  1
  Te2-  Te178  1  0.66844254  0.33537356  0.54645734  1
  Te2-  Te179  1  0.66919605  0.83592463  0.54796581  1
  Te2-  Te180  1  0.32464612  0.41175604  0.71021600  1
  Te2-  Te181  1  0.32513447  0.91396805  0.71227282  1
  Te2-  Te182  1  0.83148434  0.41880423  0.70834313  1
  Te2-  Te183  1  0.82957714  0.91745561  0.71351351  1
  Te2-  Te184  1  0.08567464  0.17231998  0.71119874  1
  Te2-  Te185  1  0.08695192  0.67599586  0.70908243  1
  Te2-  Te186  1  0.58594646  0.17282326  0.71084611  1
  Te2-  Te187  1  0.58707987  0.67232362  0.71320998  1
  Te2-  Te188  1  0.08492261  0.41291385  0.70876200  1
  Te2-  Te189  1  0.08602446  0.91500875  0.71333630  1
  Te2-  Te190  1  0.58808053  0.41569199  0.70860036  1
  Te2-  Te191  1  0.59025089  0.91690520  0.71272615  1
  Te2-  Te192  1  0.16122063  0.07864913  0.04226701  1
  Te2-  Te193  1  0.16083103  0.57702034  0.04310459  1
  Te2-  Te194  1  0.66129513  0.08281936  0.04382802  1
  Te2-  Te195  1  0.66326845  0.58256349  0.04516862  1
  Te2-  Te196  1  0.42228873  0.34153873  0.04564274  1
  Te2-  Te197  1  0.42448020  0.84245167  0.04496995  1
  Te2-  Te198  1  0.91900314  0.33664523  0.04232949  1
  Te2-  Te199  1  0.92327861  0.83938507  0.04193434  1
  Te2-  Te200  1  0.42400028  0.08448701  0.04619727  1
  Te2-  Te201  1  0.42129537  0.58126932  0.04813849  1
  Te2-  Te202  1  0.92180728  0.08155621  0.04064711  1
  Te2-  Te203  1  0.91834423  0.57884112  0.04168660  1
  Te2-  Te204  1  0.49158203  0.24722028  0.37372237  1
  Te2-  Te205  1  0.49028981  0.74723265  0.37781185  1
  Te2-  Te206  1  0.99620366  0.24968961  0.37645109  1
  Te2-  Te207  1  0.99430404  0.74775987  0.37566304  1
  Te2-  Te208  1  0.25230642  0.00894189  0.37521775  1
  Te2-  Te209  1  0.24949894  0.50731228  0.37859330  1
  Te2-  Te210  1  0.75188762  0.00594005  0.37561907  1
  Te2-  Te211  1  0.75101014  0.50398304  0.37411909  1
  Te2-  Te212  1  0.25077250  0.24487672  0.37586931  1
  Te2-  Te213  1  0.24899704  0.74351905  0.38067666  1
  Te2-  Te214  1  0.75293813  0.24710000  0.37369883  1
  Te2-  Te215  1  0.75355560  0.74776670  0.37463093  1
