# generated using pymatgen
data_Ti(CuTe)4
_symmetry_space_group_name_H-M   'P 1'
_cell_length_a   16.88904588
_cell_length_b   16.88791338
_cell_length_c   20.71424194
_cell_angle_alpha   90.06995541
_cell_angle_beta   89.91448280
_cell_angle_gamma   119.97599274
_symmetry_Int_Tables_number   1
_chemical_formula_structural   Ti(CuTe)4
_chemical_formula_sum   'Ti24 Cu96 Te96'
_cell_volume   5117.82281486
_cell_formula_units_Z   24
loop_
 _symmetry_equiv_pos_site_id
 _symmetry_equiv_pos_as_xyz
  1  'x, y, z'
loop_
 _atom_type_symbol
 _atom_type_oxidation_number
  Ti4+  4.0
  Cu+  1.0
  Te2-  -2.0
loop_
 _atom_site_type_symbol
 _atom_site_label
 _atom_site_symmetry_multiplicity
 _atom_site_fract_x
 _atom_site_fract_y
 _atom_site_fract_z
 _atom_site_occupancy
  Ti4+  Ti0  1  0.00187252  0.00193914  0.25721438  1
  Ti4+  Ti1  1  0.00235848  0.50258249  0.25667912  1
  Ti4+  Ti2  1  0.50335935  0.00006851  0.25955101  1
  Ti4+  Ti3  1  0.50000965  0.50002893  0.25753700  1
  Ti4+  Ti4  1  0.33461092  0.16526252  0.59051926  1
  Ti4+  Ti5  1  0.33328353  0.66638500  0.59136778  1
  Ti4+  Ti6  1  0.83602095  0.16523123  0.59468948  1
  Ti4+  Ti7  1  0.83341130  0.66755371  0.58689945  1
  Ti4+  Ti8  1  0.16480077  0.33248742  0.92550703  1
  Ti4+  Ti9  1  0.16625164  0.83387070  0.92366419  1
  Ti4+  Ti10  1  0.66456461  0.33086361  0.92068875  1
  Ti4+  Ti11  1  0.66201703  0.83157964  0.92762028  1
  Ti4+  Ti12  1  -0.00007704  -0.00018908  0.75684112  1
  Ti4+  Ti13  1  -0.00076842  0.49895856  0.75514232  1
  Ti4+  Ti14  1  0.49818085  -0.00104173  0.75293961  1
  Ti4+  Ti15  1  0.50007934  0.50040099  0.75535366  1
  Ti4+  Ti16  1  0.33214865  0.16634297  0.08858513  1
  Ti4+  Ti17  1  0.33209996  0.66704912  0.08955506  1
  Ti4+  Ti18  1  0.83238267  0.16718626  0.08902843  1
  Ti4+  Ti19  1  0.83313630  0.66723916  0.08836112  1
  Ti4+  Ti20  1  0.16626511  0.33444007  0.42335676  1
  Ti4+  Ti21  1  0.16829330  0.83463563  0.42155662  1
  Ti4+  Ti22  1  0.66703833  0.33422150  0.42121642  1
  Ti4+  Ti23  1  0.66816008  0.83383830  0.42316554  1
  Cu+  Cu24  1  0.74649077  0.98624970  0.14513830  1
  Cu+  Cu25  1  0.07502835  0.64698199  0.47433753  1
  Cu+  Cu26  1  0.02441739  0.76314389  0.14076800  1
  Cu+  Cu27  1  0.85811689  0.93006735  0.47321405  1
  Cu+  Cu28  1  0.40422435  0.09080197  0.80684761  1
  Cu+  Cu29  1  0.02259679  0.26230390  0.14141580  1
  Cu+  Cu30  1  0.91130078  0.31563964  0.81071199  1
  Cu+  Cu31  1  0.67455768  0.08282836  0.81280708  1
  Cu+  Cu32  1  0.57169675  0.64445071  0.47342338  1
  Cu+  Cu33  1  0.51422457  0.75438921  0.14703163  1
  Cu+  Cu34  1  0.35626100  0.92663198  0.47523513  1
  Cu+  Cu35  1  0.40424391  0.81227702  0.80807454  1
  Cu+  Cu36  1  0.16415229  0.08468200  0.16950169  1
  Cu+  Cu37  1  0.16126706  0.58206087  0.16990606  1
  Cu+  Cu38  1  0.66296702  0.07789428  0.17114120  1
  Cu+  Cu39  1  0.66197060  0.58070989  0.17021160  1
  Cu+  Cu40  1  0.41722512  0.33555581  0.17097098  1
  Cu+  Cu41  1  0.42184659  0.83691455  0.17246327  1
  Cu+  Cu42  1  0.92288422  0.33757684  0.16978317  1
  Cu+  Cu43  1  0.92181675  0.83612917  0.17024994  1
  Cu+  Cu44  1  0.41805947  0.08273707  0.17337496  1
  Cu+  Cu45  1  0.41999413  0.58278336  0.17189277  1
  Cu+  Cu46  1  0.92003648  0.08461159  0.17053717  1
  Cu+  Cu47  1  0.92255831  0.58812808  0.17051891  1
  Cu+  Cu48  1  0.49787527  0.24743127  0.50323071  1
  Cu+  Cu49  1  0.49708080  0.74481938  0.50481826  1
  Cu+  Cu50  1  0.99844596  0.24910897  0.50678398  1
  Cu+  Cu51  1  0.99597434  0.74576880  0.50059974  1
  Cu+  Cu52  1  0.25798749  0.00386484  0.50365378  1
  Cu+  Cu53  1  0.25120565  0.50285226  0.50430518  1
  Cu+  Cu54  1  0.75828945  0.00368657  0.50698708  1
  Cu+  Cu55  1  0.75128760  0.50429940  0.50046729  1
  Cu+  Cu56  1  0.24944208  0.24722260  0.50568852  1
  Cu+  Cu57  1  0.25245061  0.75039705  0.50444265  1
  Cu+  Cu58  1  0.75154912  0.24930544  0.50799589  1
  Cu+  Cu59  1  0.75231348  0.75033038  0.50118941  1
  Cu+  Cu60  1  0.33053614  0.41600150  0.83889308  1
  Cu+  Cu61  1  0.32663979  0.91314713  0.83400310  1
  Cu+  Cu62  1  0.83014932  0.41052649  0.83451286  1
  Cu+  Cu63  1  0.83090483  0.91676047  0.84054612  1
  Cu+  Cu64  1  0.08428002  0.16904561  0.83866003  1
  Cu+  Cu65  1  0.08244555  0.66986883  0.83776591  1
  Cu+  Cu66  1  0.58352786  0.17157447  0.83143582  1
  Cu+  Cu67  1  0.57901696  0.66699475  0.83991031  1
  Cu+  Cu68  1  0.08185725  0.41169021  0.83931744  1
  Cu+  Cu69  1  0.08289587  0.91444572  0.83810030  1
  Cu+  Cu70  1  0.58348871  0.41455623  0.83497480  1
  Cu+  Cu71  1  0.58094991  0.90883293  0.83767000  1
  Cu+  Cu72  1  0.16963778  0.08295367  0.67432782  1
  Cu+  Cu73  1  0.16759260  0.58532409  0.67597696  1
  Cu+  Cu74  1  0.67101379  0.08394122  0.68072395  1
  Cu+  Cu75  1  0.66834981  0.58729982  0.67248553  1
  Cu+  Cu76  1  0.41571882  0.33092640  0.67373577  1
  Cu+  Cu77  1  0.41444771  0.82961616  0.67883810  1
  Cu+  Cu78  1  0.91540928  0.32869571  0.68147800  1
  Cu+  Cu79  1  0.91453838  0.83178200  0.67275920  1
  Cu+  Cu80  1  0.41451135  0.08346225  0.67769059  1
  Cu+  Cu81  1  0.41675203  0.58482301  0.67695229  1
  Cu+  Cu82  1  0.91771726  0.08287712  0.67780167  1
  Cu+  Cu83  1  0.91611381  0.58570394  0.67200900  1
  Cu+  Cu84  1  0.00157635  0.25218499  0.01329048  1
  Cu+  Cu85  1  0.00271361  0.75257251  0.01221730  1
  Cu+  Cu86  1  0.50014775  0.24920157  0.00595735  1
  Cu+  Cu87  1  0.49937361  0.75178976  0.01593019  1
  Cu+  Cu88  1  0.24527813  0.49744099  0.00851846  1
  Cu+  Cu89  1  0.24884091  0.99936175  0.00749860  1
  Cu+  Cu90  1  0.74706317  0.49648258  0.00432758  1
  Cu+  Cu91  1  0.74351589  0.99644439  0.01548193  1
  Cu+  Cu92  1  0.24732699  0.25057909  0.00887663  1
  Cu+  Cu93  1  0.24775891  0.75093799  0.00799660  1
  Cu+  Cu94  1  0.74622129  0.24998912  0.00699056  1
  Cu+  Cu95  1  0.74588091  0.74940495  0.00983008  1
  Cu+  Cu96  1  0.33510620  0.41913361  0.34103623  1
  Cu+  Cu97  1  0.34033842  0.92064871  0.34642653  1
  Cu+  Cu98  1  0.83683588  0.41882525  0.33928272  1
  Cu+  Cu99  1  0.83832417  0.92127289  0.34488845  1
  Cu+  Cu100  1  0.08111429  0.16814494  0.34279386  1
  Cu+  Cu101  1  0.08258192  0.66611429  0.34507743  1
  Cu+  Cu102  1  0.58449145  0.16559078  0.34193485  1
  Cu+  Cu103  1  0.57997759  0.66353006  0.34554297  1
  Cu+  Cu104  1  0.08269364  0.41818814  0.34272686  1
  Cu+  Cu105  1  0.08491930  0.92045775  0.34134930  1
  Cu+  Cu106  1  0.58170266  0.41752653  0.34076343  1
  Cu+  Cu107  1  0.58506371  0.91841081  0.34513450  1
  Cu+  Cu108  1  -0.00077417  -0.00066363  0.11325041  1
  Cu+  Cu109  1  -0.00604857  0.49872482  0.11274438  1
  Cu+  Cu110  1  0.49617536  0.00183343  0.11649220  1
  Cu+  Cu111  1  0.49846244  0.49687617  0.11380446  1
  Cu+  Cu112  1  0.33327982  0.17045482  0.44798066  1
  Cu+  Cu113  1  0.33270204  0.66577828  0.44793392  1
  Cu+  Cu114  1  0.83287335  0.17029544  0.45247889  1
  Cu+  Cu115  1  0.83321960  0.66630842  0.44163495  1
  Cu+  Cu116  1  0.16943036  0.33352165  0.78301401  1
  Cu+  Cu117  1  0.15953007  0.83035747  0.77946124  1
  Cu+  Cu118  1  0.66846707  0.34003167  0.77611738  1
  Cu+  Cu119  1  0.67079793  0.82860476  0.78503437  1
  Te2-  Te120  1  0.00495412  0.00400706  0.38750289  1
  Te2-  Te121  1  -0.00045907  0.49951671  0.38701086  1
  Te2-  Te122  1  0.50600929  0.00315885  0.39015992  1
  Te2-  Te123  1  0.49805289  0.49701853  0.38816146  1
  Te2-  Te124  1  0.33262496  0.16771809  0.72107629  1
  Te2-  Te125  1  0.33123329  0.66358225  0.72186404  1
  Te2-  Te126  1  0.83531632  0.16313056  0.72681721  1
  Te2-  Te127  1  0.83291034  0.66706682  0.71556129  1
  Te2-  Te128  1  0.16817228  0.33474695  0.05617518  1
  Te2-  Te129  1  0.16953970  0.83608756  0.05420327  1
  Te2-  Te130  1  0.66465400  0.33307785  0.04943360  1
  Te2-  Te131  1  0.66538501  0.83076500  0.05977149  1
  Te2-  Te132  1  0.49142042  0.24675923  0.88007793  1
  Te2-  Te133  1  0.48840430  0.74338523  0.88774343  1
  Te2-  Te134  1  0.99080341  0.24216442  0.88623745  1
  Te2-  Te135  1  0.99450812  0.74806421  0.88493164  1
  Te2-  Te136  1  0.25103956  0.00671765  0.88168587  1
  Te2-  Te137  1  0.24928241  0.50344549  0.88282157  1
  Te2-  Te138  1  0.75040601  0.00418930  0.88735467  1
  Te2-  Te139  1  0.75208206  0.50107895  0.87825903  1
  Te2-  Te140  1  0.25146967  0.24805805  0.88314760  1
  Te2-  Te141  1  0.25039346  0.74439310  0.88225647  1
  Te2-  Te142  1  0.75216625  0.24122364  0.88142792  1
  Te2-  Te143  1  0.74773181  0.74763598  0.88367341  1
  Te2-  Te144  1  0.32899806  0.41560133  0.21527379  1
  Te2-  Te145  1  0.33265297  0.91472611  0.21903819  1
  Te2-  Te146  1  0.83302788  0.41732170  0.21292711  1
  Te2-  Te147  1  0.82982668  0.91294969  0.21732329  1
  Te2-  Te148  1  0.08821351  0.17505474  0.21678070  1
  Te2-  Te149  1  0.09119627  0.67707212  0.21782468  1
  Te2-  Te150  1  0.58762858  0.16987738  0.21596865  1
  Te2-  Te151  1  0.58991719  0.67433717  0.21875253  1
  Te2-  Te152  1  0.09090574  0.41655444  0.21689634  1
  Te2-  Te153  1  0.09117756  0.91798569  0.21557454  1
  Te2-  Te154  1  0.58504903  0.41381077  0.21503852  1
  Te2-  Te155  1  0.59121398  0.91057643  0.21942307  1
  Te2-  Te156  1  0.16374714  0.07814054  0.54835924  1
  Te2-  Te157  1  0.16061699  0.57966138  0.54987146  1
  Te2-  Te158  1  0.66589306  0.07999022  0.55240723  1
  Te2-  Te159  1  0.65996613  0.57987040  0.54664202  1
  Te2-  Te160  1  0.41856842  0.33596340  0.54791857  1
  Te2-  Te161  1  0.42287831  0.83895957  0.55126961  1
  Te2-  Te162  1  0.91918563  0.33611027  0.55418413  1
  Te2-  Te163  1  0.92289023  0.84072855  0.54682002  1
  Te2-  Te164  1  0.42545451  0.08110858  0.55097691  1
  Te2-  Te165  1  0.41769395  0.57700417  0.55097586  1
  Te2-  Te166  1  0.92650364  0.08185045  0.55203937  1
  Te2-  Te167  1  0.91804620  0.57748062  0.54659261  1
  Te2-  Te168  1  -0.00028339  -0.00020969  0.88334234  1
  Te2-  Te169  1  -0.00162819  0.50004314  0.88207941  1
  Te2-  Te170  1  0.49835794  0.00057780  0.88104453  1
  Te2-  Te171  1  0.49918329  0.49796674  0.88180409  1
  Te2-  Te172  1  0.33300644  0.16712925  0.21495090  1
  Te2-  Te173  1  0.33191445  0.66611595  0.21634144  1
  Te2-  Te174  1  0.83325563  0.16855539  0.21649068  1
  Te2-  Te175  1  0.83186536  0.66653849  0.21514277  1
  Te2-  Te176  1  0.16773295  0.33429536  0.54982302  1
  Te2-  Te177  1  0.16470905  0.83366112  0.54871335  1
  Te2-  Te178  1  0.66723557  0.33562575  0.54751254  1
  Te2-  Te179  1  0.66665242  0.83313160  0.55034742  1
  Te2-  Te180  1  0.32877650  0.41395138  0.71187398  1
  Te2-  Te181  1  0.32343786  0.91125621  0.70753347  1
  Te2-  Te182  1  0.82789715  0.41536096  0.70768308  1
  Te2-  Te183  1  0.82792600  0.91335319  0.71347622  1
  Te2-  Te184  1  0.08797327  0.17147748  0.71256280  1
  Te2-  Te185  1  0.08409669  0.67136277  0.71131146  1
  Te2-  Te186  1  0.58742475  0.17391133  0.70577682  1
  Te2-  Te187  1  0.58583571  0.67286214  0.71291049  1
  Te2-  Te188  1  0.08851687  0.41450026  0.71183325  1
  Te2-  Te189  1  0.08396978  0.91332035  0.71124621  1
  Te2-  Te190  1  0.58602457  0.41641917  0.70822937  1
  Te2-  Te191  1  0.58677442  0.91129283  0.71077012  1
  Te2-  Te192  1  0.16031049  0.08085679  0.04376112  1
  Te2-  Te193  1  0.15952818  0.58121616  0.04471563  1
  Te2-  Te194  1  0.65748834  0.08210638  0.04501264  1
  Te2-  Te195  1  0.66072778  0.57930085  0.04418825  1
  Te2-  Te196  1  0.41793316  0.33715475  0.04405476  1
  Te2-  Te197  1  0.41653137  0.84104057  0.04569087  1
  Te2-  Te198  1  0.91606984  0.33956107  0.04280634  1
  Te2-  Te199  1  0.91685742  0.83992467  0.04323502  1
  Te2-  Te200  1  0.41810184  0.08067768  0.04534546  1
  Te2-  Te201  1  0.41619917  0.57808277  0.04458359  1
  Te2-  Te202  1  0.91754839  0.07864599  0.04291665  1
  Te2-  Te203  1  0.91674878  0.57941836  0.04257010  1
  Te2-  Te204  1  0.49536074  0.24729743  0.37714749  1
  Te2-  Te205  1  0.49387677  0.74873750  0.37858230  1
  Te2-  Te206  1  0.99360476  0.24916551  0.38055717  1
  Te2-  Te207  1  0.99504549  0.75089249  0.37456527  1
  Te2-  Te208  1  0.25468514  0.00815078  0.37701154  1
  Te2-  Te209  1  0.25272828  0.50596220  0.37821856  1
  Te2-  Te210  1  0.75463734  0.00850732  0.38014892  1
  Te2-  Te211  1  0.75247901  0.50497259  0.37455264  1
  Te2-  Te212  1  0.25177609  0.24899105  0.37848677  1
  Te2-  Te213  1  0.25520404  0.74773263  0.37664563  1
  Te2-  Te214  1  0.75450190  0.24937948  0.37968202  1
  Te2-  Te215  1  0.75385240  0.74792152  0.37402144  1
