# generated using pymatgen
data_Ti(CuTe)4
_symmetry_space_group_name_H-M   'P 1'
_cell_length_a   16.86642955
_cell_length_b   16.86764569
_cell_length_c   20.67836266
_cell_angle_alpha   89.98925811
_cell_angle_beta   90.02304757
_cell_angle_gamma   120.00317326
_symmetry_Int_Tables_number   1
_chemical_formula_structural   Ti(CuTe)4
_chemical_formula_sum   'Ti24 Cu96 Te96'
_cell_volume   5094.60459674
_cell_formula_units_Z   24
loop_
 _symmetry_equiv_pos_site_id
 _symmetry_equiv_pos_as_xyz
  1  'x, y, z'
loop_
 _atom_type_symbol
 _atom_type_oxidation_number
  Ti4+  4.0
  Cu+  1.0
  Te2-  -2.0
loop_
 _atom_site_type_symbol
 _atom_site_label
 _atom_site_symmetry_multiplicity
 _atom_site_fract_x
 _atom_site_fract_y
 _atom_site_fract_z
 _atom_site_occupancy
  Ti4+  Ti0  1  0.00217358  0.00343482  0.25799480  1
  Ti4+  Ti1  1  0.00466825  0.50339047  0.25593415  1
  Ti4+  Ti2  1  0.49974287  -0.00272739  0.25660439  1
  Ti4+  Ti3  1  0.50251097  0.50112477  0.26089678  1
  Ti4+  Ti4  1  0.33371306  0.16521265  0.58855982  1
  Ti4+  Ti5  1  0.33308945  0.66479575  0.59613443  1
  Ti4+  Ti6  1  0.83103471  0.16185449  0.58848964  1
  Ti4+  Ti7  1  0.83153325  0.66525269  0.59313946  1
  Ti4+  Ti8  1  0.16764390  0.33690072  0.92403899  1
  Ti4+  Ti9  1  0.16305781  0.83429404  0.92262483  1
  Ti4+  Ti10  1  0.66253699  0.33243055  0.92174817  1
  Ti4+  Ti11  1  0.66629317  0.83325360  0.92851736  1
  Ti4+  Ti12  1  -0.00016758  -0.00147029  0.75689782  1
  Ti4+  Ti13  1  -0.00014198  0.49870415  0.75268996  1
  Ti4+  Ti14  1  0.49902636  0.00033244  0.75720088  1
  Ti4+  Ti15  1  0.49942524  0.49974952  0.75467416  1
  Ti4+  Ti16  1  0.33329602  0.16707797  0.09020471  1
  Ti4+  Ti17  1  0.33217071  0.66855685  0.08785837  1
  Ti4+  Ti18  1  0.83574911  0.16768143  0.08717719  1
  Ti4+  Ti19  1  0.83218548  0.66603769  0.08996853  1
  Ti4+  Ti20  1  0.16719269  0.33282616  0.42256914  1
  Ti4+  Ti21  1  0.16788588  0.83335999  0.42465478  1
  Ti4+  Ti22  1  0.66662737  0.33271286  0.42093900  1
  Ti4+  Ti23  1  0.66839536  0.83466358  0.42373731  1
  Cu+  Cu24  1  0.57359991  0.42702595  0.47590325  1
  Cu+  Cu25  1  0.89979706  0.81389941  0.80845590  1
  Cu+  Cu26  1  0.56953054  0.14092930  0.47060679  1
  Cu+  Cu27  1  0.90485431  0.58784481  0.80783707  1
  Cu+  Cu28  1  0.41266663  0.59685763  0.81182204  1
  Cu+  Cu29  1  0.02752336  0.26351965  0.13941700  1
  Cu+  Cu30  1  0.07136596  0.14100232  0.47354570  1
  Cu+  Cu31  1  0.39996529  0.09531551  0.80475028  1
  Cu+  Cu32  1  0.17969207  0.59413948  0.81169617  1
  Cu+  Cu33  1  0.23832413  0.76483634  0.13683679  1
  Cu+  Cu34  1  0.74899526  0.98710230  0.14509041  1
  Cu+  Cu35  1  0.51359323  0.75312333  0.14579482  1
  Cu+  Cu36  1  0.16551331  0.08439676  0.17196668  1
  Cu+  Cu37  1  0.16302375  0.58851876  0.16740461  1
  Cu+  Cu38  1  0.66428590  0.07877770  0.16881514  1
  Cu+  Cu39  1  0.66482001  0.58114586  0.17377039  1
  Cu+  Cu40  1  0.42008982  0.33602860  0.17515562  1
  Cu+  Cu41  1  0.41711192  0.83628826  0.16741257  1
  Cu+  Cu42  1  0.92678217  0.33786699  0.16807224  1
  Cu+  Cu43  1  0.91936997  0.83549723  0.17225297  1
  Cu+  Cu44  1  0.41830271  0.08104144  0.17135032  1
  Cu+  Cu45  1  0.42136723  0.58250134  0.17273984  1
  Cu+  Cu46  1  0.92424783  0.08577220  0.16945956  1
  Cu+  Cu47  1  0.92040404  0.58402426  0.17017760  1
  Cu+  Cu48  1  0.49809067  0.24710046  0.50170974  1
  Cu+  Cu49  1  0.49907284  0.74675116  0.50922688  1
  Cu+  Cu50  1  0.99711862  0.24220911  0.50253756  1
  Cu+  Cu51  1  0.99829260  0.74924260  0.50862933  1
  Cu+  Cu52  1  0.25323462  0.00227153  0.50349293  1
  Cu+  Cu53  1  0.25267939  0.50332504  0.50899513  1
  Cu+  Cu54  1  0.75218870  0.00423418  0.50248694  1
  Cu+  Cu55  1  0.74871164  0.50394032  0.50461773  1
  Cu+  Cu56  1  0.24688908  0.24335288  0.50210124  1
  Cu+  Cu57  1  0.24970511  0.74551469  0.50983520  1
  Cu+  Cu58  1  0.74505166  0.24086052  0.50114575  1
  Cu+  Cu59  1  0.75322057  0.75048379  0.50648517  1
  Cu+  Cu60  1  0.33149510  0.41980329  0.83576987  1
  Cu+  Cu61  1  0.32996001  0.92144803  0.83704900  1
  Cu+  Cu62  1  0.82706271  0.41484183  0.83382462  1
  Cu+  Cu63  1  0.83108988  0.91466893  0.84230211  1
  Cu+  Cu64  1  0.08410964  0.17119656  0.83912082  1
  Cu+  Cu65  1  0.08221411  0.67073387  0.83408312  1
  Cu+  Cu66  1  0.57626898  0.16836819  0.83641939  1
  Cu+  Cu67  1  0.58310741  0.66989509  0.83911250  1
  Cu+  Cu68  1  0.08862658  0.41714804  0.83477824  1
  Cu+  Cu69  1  0.07903700  0.91171460  0.83525787  1
  Cu+  Cu70  1  0.58381150  0.41218308  0.83398583  1
  Cu+  Cu71  1  0.58592664  0.91663024  0.84201597  1
  Cu+  Cu72  1  0.16725031  0.08375376  0.67407127  1
  Cu+  Cu73  1  0.17028691  0.58099960  0.68211960  1
  Cu+  Cu74  1  0.66821864  0.08161819  0.67407335  1
  Cu+  Cu75  1  0.66577383  0.58278923  0.67589627  1
  Cu+  Cu76  1  0.41704228  0.33175674  0.67196330  1
  Cu+  Cu77  1  0.41773395  0.83100775  0.67751746  1
  Cu+  Cu78  1  0.91420371  0.32569331  0.66902839  1
  Cu+  Cu79  1  0.91490143  0.82881527  0.68103077  1
  Cu+  Cu80  1  0.41594282  0.08480555  0.67718537  1
  Cu+  Cu81  1  0.41440678  0.58423212  0.68233755  1
  Cu+  Cu82  1  0.91598681  0.08269408  0.67409636  1
  Cu+  Cu83  1  0.91387509  0.58295455  0.67795216  1
  Cu+  Cu84  1  0.00544473  0.25489308  0.01019254  1
  Cu+  Cu85  1  -0.00266757  0.74930040  0.00931019  1
  Cu+  Cu86  1  0.49972405  0.24973540  0.00726809  1
  Cu+  Cu87  1  0.50097543  0.75133719  0.01649565  1
  Cu+  Cu88  1  0.24971998  0.50154058  0.00981542  1
  Cu+  Cu89  1  0.24852235  1.00121943  0.00793203  1
  Cu+  Cu90  1  0.74686793  0.49708310  0.00680322  1
  Cu+  Cu91  1  0.74937278  0.99782648  0.01495154  1
  Cu+  Cu92  1  0.25046616  0.25311099  0.00732763  1
  Cu+  Cu93  1  0.24526083  0.75181405  0.01019519  1
  Cu+  Cu94  1  0.74681563  0.25223677  0.00332052  1
  Cu+  Cu95  1  0.74704387  0.74869125  0.01270740  1
  Cu+  Cu96  1  0.33816638  0.42138783  0.34368018  1
  Cu+  Cu97  1  0.33308636  0.91338918  0.34238804  1
  Cu+  Cu98  1  0.83947035  0.42001154  0.33804595  1
  Cu+  Cu99  1  0.83554311  0.92004432  0.34281153  1
  Cu+  Cu100  1  0.08255812  0.16556153  0.34532003  1
  Cu+  Cu101  1  0.08409902  0.66664169  0.34221164  1
  Cu+  Cu102  1  0.58264565  0.16072947  0.34243960  1
  Cu+  Cu103  1  0.58548284  0.66639335  0.34515611  1
  Cu+  Cu104  1  0.08707376  0.42227964  0.33969073  1
  Cu+  Cu105  1  0.08426638  0.91847308  0.34236799  1
  Cu+  Cu106  1  0.58418034  0.42014335  0.34722677  1
  Cu+  Cu107  1  0.58278385  0.91425556  0.34322683  1
  Cu+  Cu108  1  0.00305341  -0.00318335  0.11446279  1
  Cu+  Cu109  1  -0.00675962  0.49756658  0.11123486  1
  Cu+  Cu110  1  0.50138773  0.00474031  0.11176017  1
  Cu+  Cu111  1  0.49969016  0.49616985  0.11827404  1
  Cu+  Cu112  1  0.33416084  0.16721607  0.44352017  1
  Cu+  Cu113  1  0.33617870  0.66958824  0.45438025  1
  Cu+  Cu114  1  0.83680590  0.17216134  0.44345311  1
  Cu+  Cu115  1  0.83728608  0.66936062  0.45079546  1
  Cu+  Cu116  1  0.16718963  0.32849053  0.77985029  1
  Cu+  Cu117  1  0.16792758  0.83433949  0.77731551  1
  Cu+  Cu118  1  0.66706275  0.32957059  0.77616107  1
  Cu+  Cu119  1  0.66841165  0.83616617  0.78540372  1
  Te2-  Te120  1  0.00001890  -0.00135197  0.38805829  1
  Te2-  Te121  1  0.00237214  0.50146014  0.38505209  1
  Te2-  Te122  1  0.49807897  -0.00523294  0.38678454  1
  Te2-  Te123  1  0.50104423  0.50272553  0.39160131  1
  Te2-  Te124  1  0.33166672  0.16812723  0.71858845  1
  Te2-  Te125  1  0.33472441  0.66952360  0.72861931  1
  Te2-  Te126  1  0.83272261  0.16387325  0.71778783  1
  Te2-  Te127  1  0.82855184  0.66270459  0.72536644  1
  Te2-  Te128  1  0.17134792  0.33737395  0.05447725  1
  Te2-  Te129  1  0.16267195  0.83629533  0.05255221  1
  Te2-  Te130  1  0.66461301  0.33249821  0.05083969  1
  Te2-  Te131  1  0.66723979  0.83239770  0.06050998  1
  Te2-  Te132  1  0.48726331  0.24781707  0.88162636  1
  Te2-  Te133  1  0.49341766  0.74982768  0.88848323  1
  Te2-  Te134  1  0.99631064  0.25150838  0.88288883  1
  Te2-  Te135  1  0.98724147  0.74388439  0.88290535  1
  Te2-  Te136  1  0.24648578  0.00734568  0.88177988  1
  Te2-  Te137  1  0.25612714  0.51351752  0.88382160  1
  Te2-  Te138  1  0.75320687  0.00397637  0.88725922  1
  Te2-  Te139  1  0.74915585  0.50650747  0.88099539  1
  Te2-  Te140  1  0.25341402  0.25216523  0.88121777  1
  Te2-  Te141  1  0.25326085  0.75228310  0.88270230  1
  Te2-  Te142  1  0.74701142  0.24666529  0.87746430  1
  Te2-  Te143  1  0.74867575  0.74307860  0.88653545  1
  Te2-  Te144  1  0.33133466  0.41633886  0.21781362  1
  Te2-  Te145  1  0.32624789  0.91328882  0.21605022  1
  Te2-  Te146  1  0.83425009  0.41468209  0.21188767  1
  Te2-  Te147  1  0.82939836  0.91376212  0.21670168  1
  Te2-  Te148  1  0.09169624  0.17731330  0.21777025  1
  Te2-  Te149  1  0.08694294  0.67840170  0.21612927  1
  Te2-  Te150  1  0.58662076  0.16801138  0.21513881  1
  Te2-  Te151  1  0.59134648  0.67466162  0.21920833  1
  Te2-  Te152  1  0.09610632  0.42124395  0.21366285  1
  Te2-  Te153  1  0.08674728  0.91690149  0.21632318  1
  Te2-  Te154  1  0.58784595  0.41488425  0.21980125  1
  Te2-  Te155  1  0.58777088  0.90981855  0.21656871  1
  Te2-  Te156  1  0.15970768  0.07532011  0.54852750  1
  Te2-  Te157  1  0.16151651  0.57827400  0.55479715  1
  Te2-  Te158  1  0.65594162  0.07339389  0.54831097  1
  Te2-  Te159  1  0.65846912  0.58281702  0.55040456  1
  Te2-  Te160  1  0.41616471  0.33722641  0.54612139  1
  Te2-  Te161  1  0.41881120  0.83512335  0.55192686  1
  Te2-  Te162  1  0.91554721  0.33141820  0.54303812  1
  Te2-  Te163  1  0.91873061  0.83708790  0.55397946  1
  Te2-  Te164  1  0.41951300  0.07751677  0.54955035  1
  Te2-  Te165  1  0.41928335  0.57965931  0.55502325  1
  Te2-  Te166  1  0.91757671  0.07347274  0.54856121  1
  Te2-  Te167  1  0.91616258  0.57961850  0.55048143  1
  Te2-  Te168  1  0.00183937  0.00271333  0.88422519  1
  Te2-  Te169  1  -0.00204062  0.49870039  0.88039054  1
  Te2-  Te170  1  0.49901252  0.00076512  0.88424972  1
  Te2-  Te171  1  0.50045034  0.49843626  0.88176821  1
  Te2-  Te172  1  0.33471954  0.16607943  0.21676378  1
  Te2-  Te173  1  0.33377330  0.66663698  0.21533743  1
  Te2-  Te174  1  0.83492549  0.16824274  0.21477029  1
  Te2-  Te175  1  0.83520481  0.66660539  0.21643114  1
  Te2-  Te176  1  0.16576697  0.33115255  0.54948411  1
  Te2-  Te177  1  0.16784528  0.83370799  0.55123058  1
  Te2-  Te178  1  0.66775785  0.33292919  0.54841435  1
  Te2-  Te179  1  0.66888993  0.83548843  0.55016747  1
  Te2-  Te180  1  0.32634169  0.41059281  0.70899036  1
  Te2-  Te181  1  0.32737843  0.91228080  0.70968776  1
  Te2-  Te182  1  0.82776590  0.40945917  0.70617775  1
  Te2-  Te183  1  0.82648913  0.91348745  0.71373586  1
  Te2-  Te184  1  0.08491411  0.17006095  0.71148396  1
  Te2-  Te185  1  0.08714848  0.67315206  0.70676620  1
  Te2-  Te186  1  0.58754707  0.17119382  0.70886961  1
  Te2-  Te187  1  0.58789657  0.67470343  0.71207288  1
  Te2-  Te188  1  0.08295530  0.40767602  0.70871693  1
  Te2-  Te189  1  0.08817644  0.91411708  0.70929877  1
  Te2-  Te190  1  0.58557846  0.41265214  0.70890318  1
  Te2-  Te191  1  0.58645265  0.91389817  0.71527114  1
  Te2-  Te192  1  0.16135571  0.08349270  0.04492494  1
  Te2-  Te193  1  0.15804891  0.58009423  0.04171152  1
  Te2-  Te194  1  0.66174427  0.08349499  0.04212089  1
  Te2-  Te195  1  0.65909673  0.57826286  0.04705577  1
  Te2-  Te196  1  0.41964226  0.33883678  0.04689311  1
  Te2-  Te197  1  0.41827046  0.84282161  0.04082117  1
  Te2-  Te198  1  0.91680118  0.33914010  0.04033833  1
  Te2-  Te199  1  0.91781290  0.83906147  0.04538726  1
  Te2-  Te200  1  0.41793405  0.08035677  0.04416714  1
  Te2-  Te201  1  0.41890820  0.57915307  0.04560462  1
  Te2-  Te202  1  0.92364347  0.08163616  0.04180351  1
  Te2-  Te203  1  0.91683254  0.57958698  0.04323304  1
  Te2-  Te204  1  0.49406856  0.24511391  0.37364093  1
  Te2-  Te205  1  0.49492371  0.74553513  0.38163129  1
  Te2-  Te206  1  0.99601918  0.25151698  0.37476832  1
  Te2-  Te207  1  0.99631695  0.74878159  0.38055078  1
  Te2-  Te208  1  0.25426168  0.00492761  0.37756878  1
  Te2-  Te209  1  0.25467793  0.50685462  0.38195639  1
  Te2-  Te210  1  0.75307137  0.00728155  0.37716255  1
  Te2-  Te211  1  0.75717159  0.50660598  0.37747610  1
  Te2-  Te212  1  0.25593320  0.24956612  0.37534722  1
  Te2-  Te213  1  0.25258758  0.74531196  0.38209873  1
  Te2-  Te214  1  0.75493807  0.24941859  0.37358811  1
  Te2-  Te215  1  0.75607451  0.74964661  0.37992102  1
