# generated using pymatgen
data_Ti(CuTe)4
_symmetry_space_group_name_H-M   'P 1'
_cell_length_a   16.88804992
_cell_length_b   16.88566356
_cell_length_c   20.70681940
_cell_angle_alpha   89.95175756
_cell_angle_beta   90.04533618
_cell_angle_gamma   120.01140020
_symmetry_Int_Tables_number   1
_chemical_formula_structural   Ti(CuTe)4
_chemical_formula_sum   'Ti24 Cu96 Te96'
_cell_volume   5113.18572952
_cell_formula_units_Z   24
loop_
 _symmetry_equiv_pos_site_id
 _symmetry_equiv_pos_as_xyz
  1  'x, y, z'
loop_
 _atom_type_symbol
 _atom_type_oxidation_number
  Ti4+  4.0
  Cu+  1.0
  Te2-  -2.0
loop_
 _atom_site_type_symbol
 _atom_site_label
 _atom_site_symmetry_multiplicity
 _atom_site_fract_x
 _atom_site_fract_y
 _atom_site_fract_z
 _atom_site_occupancy
  Ti4+  Ti0  1  -0.00417417  -0.00390773  0.25822153  1
  Ti4+  Ti1  1  0.00198119  0.49944182  0.26075754  1
  Ti4+  Ti2  1  0.50113749  0.00006079  0.25267570  1
  Ti4+  Ti3  1  0.49686791  0.49641494  0.25678596  1
  Ti4+  Ti4  1  0.33203854  0.16775785  0.58881532  1
  Ti4+  Ti5  1  0.33458489  0.66915394  0.58988374  1
  Ti4+  Ti6  1  0.83454802  0.17170562  0.59432606  1
  Ti4+  Ti7  1  0.83232218  0.66787206  0.59057329  1
  Ti4+  Ti8  1  0.16368266  0.33139337  0.92502394  1
  Ti4+  Ti9  1  0.16705186  0.83275136  0.92442894  1
  Ti4+  Ti10  1  0.66931150  0.33643339  0.92735988  1
  Ti4+  Ti11  1  0.66944317  0.83223615  0.92288641  1
  Ti4+  Ti12  1  -0.00060648  0.00085318  0.75445243  1
  Ti4+  Ti13  1  0.00035012  0.50081861  0.75656813  1
  Ti4+  Ti14  1  0.49971897  0.00099163  0.75537335  1
  Ti4+  Ti15  1  0.50167252  0.50130084  0.75689281  1
  Ti4+  Ti16  1  0.33572472  0.16785411  0.08657853  1
  Ti4+  Ti17  1  0.33255181  0.66531955  0.08726980  1
  Ti4+  Ti18  1  0.83302384  0.16371004  0.08930847  1
  Ti4+  Ti19  1  0.83431657  0.66647674  0.09088935  1
  Ti4+  Ti20  1  0.16599001  0.33276353  0.42188733  1
  Ti4+  Ti21  1  0.16666143  0.83383631  0.42047406  1
  Ti4+  Ti22  1  0.66611461  0.33247395  0.42291244  1
  Ti4+  Ti23  1  0.66568529  0.83183219  0.42233286  1
  Cu+  Cu24  1  0.74889827  0.25910749  0.14712148  1
  Cu+  Cu25  1  0.69369044  0.59543174  0.80709809  1
  Cu+  Cu26  1  0.57086738  0.42816038  0.47381466  1
  Cu+  Cu27  1  0.07886240  0.42906290  0.47929783  1
  Cu+  Cu28  1  0.23779420  0.75765453  0.13981290  1
  Cu+  Cu29  1  0.23651280  0.47544884  0.13953507  1
  Cu+  Cu30  1  0.84743658  0.42771392  0.48080119  1
  Cu+  Cu31  1  0.90533798  0.08948027  0.80969270  1
  Cu+  Cu32  1  0.51872227  0.26236010  0.14234470  1
  Cu+  Cu33  1  0.73843052  0.97301409  0.13854000  1
  Cu+  Cu34  1  0.07162145  0.92923099  0.47358718  1
  Cu+  Cu35  1  0.90711197  0.31984675  0.81600111  1
  Cu+  Cu36  1  0.16385338  0.08080988  0.17190609  1
  Cu+  Cu37  1  0.16596443  0.58016316  0.17137736  1
  Cu+  Cu38  1  0.66446326  0.07895733  0.16670445  1
  Cu+  Cu39  1  0.66347291  0.58119469  0.17198378  1
  Cu+  Cu40  1  0.42148133  0.33750246  0.16916910  1
  Cu+  Cu41  1  0.41569099  0.83671335  0.16546353  1
  Cu+  Cu42  1  0.92030167  0.33778415  0.17414067  1
  Cu+  Cu43  1  0.91681911  0.83446171  0.17277584  1
  Cu+  Cu44  1  0.42395852  0.08610727  0.16511809  1
  Cu+  Cu45  1  0.41061329  0.57466748  0.16898358  1
  Cu+  Cu46  1  0.91152260  0.07270430  0.17136651  1
  Cu+  Cu47  1  0.91709140  0.58032472  0.17363940  1
  Cu+  Cu48  1  0.49598200  0.25274950  0.50319473  1
  Cu+  Cu49  1  0.49703201  0.74984708  0.50397925  1
  Cu+  Cu50  1  0.99776261  0.25434223  0.50568971  1
  Cu+  Cu51  1  0.99855511  0.75402078  0.50275103  1
  Cu+  Cu52  1  0.24735746  0.00285890  0.50185301  1
  Cu+  Cu53  1  0.25125136  0.50553350  0.50397638  1
  Cu+  Cu54  1  0.75049616  0.00220423  0.50776715  1
  Cu+  Cu55  1  0.74814719  0.50309119  0.50456936  1
  Cu+  Cu56  1  0.25227245  0.24739095  0.50175758  1
  Cu+  Cu57  1  0.25451502  0.75042698  0.50224264  1
  Cu+  Cu58  1  0.75712947  0.25364265  0.50557221  1
  Cu+  Cu59  1  0.74827704  0.74617861  0.50361858  1
  Cu+  Cu60  1  0.33011135  0.41627256  0.83980985  1
  Cu+  Cu61  1  0.33016052  0.91369182  0.83826468  1
  Cu+  Cu62  1  0.82826536  0.41345764  0.83924068  1
  Cu+  Cu63  1  0.82939974  0.91624576  0.83587880  1
  Cu+  Cu64  1  0.08013271  0.16868828  0.83688745  1
  Cu+  Cu65  1  0.08606366  0.67114588  0.83895606  1
  Cu+  Cu66  1  0.58358498  0.16929618  0.83991507  1
  Cu+  Cu67  1  0.59246446  0.66820696  0.83710287  1
  Cu+  Cu68  1  0.08233848  0.41192445  0.83828164  1
  Cu+  Cu69  1  0.08398045  0.91291736  0.83748778  1
  Cu+  Cu70  1  0.58970097  0.42210315  0.84020045  1
  Cu+  Cu71  1  0.58511448  0.91605831  0.83683959  1
  Cu+  Cu72  1  0.16829514  0.08378123  0.67418315  1
  Cu+  Cu73  1  0.17094484  0.58665251  0.67519971  1
  Cu+  Cu74  1  0.66846831  0.08797465  0.67637029  1
  Cu+  Cu75  1  0.66987528  0.58351420  0.67920933  1
  Cu+  Cu76  1  0.41519222  0.33198152  0.67483523  1
  Cu+  Cu77  1  0.41599523  0.83270620  0.67355901  1
  Cu+  Cu78  1  0.91763391  0.33485311  0.68416482  1
  Cu+  Cu79  1  0.91590085  0.83434021  0.67454763  1
  Cu+  Cu80  1  0.41368111  0.08511233  0.67203311  1
  Cu+  Cu81  1  0.41482024  0.58588157  0.67325845  1
  Cu+  Cu82  1  0.91590980  0.08861431  0.68060004  1
  Cu+  Cu83  1  0.91684417  0.58582495  0.67570770  1
  Cu+  Cu84  1  0.00051743  0.24867733  0.01120564  1
  Cu+  Cu85  1  0.00398978  0.75089353  0.00947430  1
  Cu+  Cu86  1  0.50582132  0.25481348  0.01282930  1
  Cu+  Cu87  1  0.50378421  0.74932807  0.00405419  1
  Cu+  Cu88  1  0.24600654  0.49402324  0.01153319  1
  Cu+  Cu89  1  0.24978391  0.99745918  0.00632421  1
  Cu+  Cu90  1  0.75213087  0.50052009  0.01101347  1
  Cu+  Cu91  1  0.75063330  0.99477039  0.01125847  1
  Cu+  Cu92  1  0.24893983  0.25057553  0.00727089  1
  Cu+  Cu93  1  0.24819026  0.75104799  0.01081900  1
  Cu+  Cu94  1  0.75077360  0.25202396  0.01613801  1
  Cu+  Cu95  1  0.75276687  0.75097569  0.00832134  1
  Cu+  Cu96  1  0.33259118  0.41312647  0.34050201  1
  Cu+  Cu97  1  0.33529333  0.91713357  0.33665958  1
  Cu+  Cu98  1  0.83594999  0.41517408  0.35071128  1
  Cu+  Cu99  1  0.83151037  0.91381940  0.34312436  1
  Cu+  Cu100  1  0.07928410  0.16094357  0.34114489  1
  Cu+  Cu101  1  0.08520343  0.66503694  0.34311235  1
  Cu+  Cu102  1  0.58391216  0.16361278  0.34014376  1
  Cu+  Cu103  1  0.58002579  0.66182264  0.33997244  1
  Cu+  Cu104  1  0.08189494  0.41665907  0.34868585  1
  Cu+  Cu105  1  0.07985620  0.91716701  0.34489000  1
  Cu+  Cu106  1  0.57976400  0.41543032  0.34581814  1
  Cu+  Cu107  1  0.58357949  0.91747047  0.33871230  1
  Cu+  Cu108  1  0.00478804  -0.00025993  0.11562232  1
  Cu+  Cu109  1  0.00087790  0.50153748  0.11746963  1
  Cu+  Cu110  1  0.49862294  -0.00259099  0.10666624  1
  Cu+  Cu111  1  0.50256177  0.50498006  0.11328663  1
  Cu+  Cu112  1  0.33470526  0.16383809  0.44441447  1
  Cu+  Cu113  1  0.33650419  0.66832193  0.44563850  1
  Cu+  Cu114  1  0.83205613  0.16160107  0.45139319  1
  Cu+  Cu115  1  0.83447550  0.66737312  0.44704361  1
  Cu+  Cu116  1  0.17134936  0.33423020  0.78174401  1
  Cu+  Cu117  1  0.16783946  0.83503079  0.78108553  1
  Cu+  Cu118  1  0.66114203  0.33054086  0.78428852  1
  Cu+  Cu119  1  0.66114514  0.83116760  0.77989654  1
  Te2-  Te120  1  -0.00474678  -0.00145274  0.38885069  1
  Te2-  Te121  1  0.00241710  0.50281396  0.39258557  1
  Te2-  Te122  1  0.49940821  -0.00164648  0.38111902  1
  Te2-  Te123  1  0.49603047  0.49879390  0.38724311  1
  Te2-  Te124  1  0.33261764  0.16726830  0.71774612  1
  Te2-  Te125  1  0.33505339  0.66917358  0.71910453  1
  Te2-  Te126  1  0.83047406  0.16849420  0.72630055  1
  Te2-  Te127  1  0.83725830  0.67031343  0.72075834  1
  Te2-  Te128  1  0.16436005  0.32820803  0.05582076  1
  Te2-  Te129  1  0.16729906  0.83542623  0.05571152  1
  Te2-  Te130  1  0.67085306  0.33792635  0.05943200  1
  Te2-  Te131  1  0.66550132  0.82761504  0.05332362  1
  Te2-  Te132  1  0.49994611  0.25352639  0.88515630  1
  Te2-  Te133  1  0.50014931  0.74620354  0.87820634  1
  Te2-  Te134  1  0.98652170  0.24277207  0.88563322  1
  Te2-  Te135  1  0.99457109  0.74634825  0.88387065  1
  Te2-  Te136  1  0.25191185  0.00396996  0.88092734  1
  Te2-  Te137  1  0.24865279  0.50260073  0.88472982  1
  Te2-  Te138  1  0.75165092  0.00642368  0.88455355  1
  Te2-  Te139  1  0.75920720  0.50979329  0.88512538  1
  Te2-  Te140  1  0.24840815  0.24643030  0.88125019  1
  Te2-  Te141  1  0.25281919  0.74628934  0.88412681  1
  Te2-  Te142  1  0.75073079  0.24462514  0.88771186  1
  Te2-  Te143  1  0.76135750  0.75032326  0.88249166  1
  Te2-  Te144  1  0.32326907  0.40583004  0.21488386  1
  Te2-  Te145  1  0.32828618  0.91827078  0.21096260  1
  Te2-  Te146  1  0.82814001  0.41446832  0.22240700  1
  Te2-  Te147  1  0.82066242  0.90504439  0.21763450  1
  Te2-  Te148  1  0.08038426  0.16671631  0.21510912  1
  Te2-  Te149  1  0.08601512  0.67101566  0.21685569  1
  Te2-  Te150  1  0.59142516  0.17700785  0.21452698  1
  Te2-  Te151  1  0.57934811  0.66629253  0.21367154  1
  Te2-  Te152  1  0.08641524  0.41105281  0.22057192  1
  Te2-  Te153  1  0.08426097  0.91310420  0.21782802  1
  Te2-  Te154  1  0.58928061  0.41447426  0.21868247  1
  Te2-  Te155  1  0.58369535  0.90981850  0.21247771  1
  Te2-  Te156  1  0.15729615  0.08190610  0.54858655  1
  Te2-  Te157  1  0.15957404  0.58462326  0.54968404  1
  Te2-  Te158  1  0.66506469  0.08648957  0.55030817  1
  Te2-  Te159  1  0.65831363  0.58064457  0.55190706  1
  Te2-  Te160  1  0.41760888  0.34308128  0.54906763  1
  Te2-  Te161  1  0.42059293  0.84105740  0.54790594  1
  Te2-  Te162  1  0.92427628  0.34875387  0.55553801  1
  Te2-  Te163  1  0.91596374  0.84066680  0.54860262  1
  Te2-  Te164  1  0.41710256  0.08285611  0.54558510  1
  Te2-  Te165  1  0.41843996  0.58153240  0.54750854  1
  Te2-  Te166  1  0.91946324  0.08695993  0.55265004  1
  Te2-  Te167  1  0.92166728  0.58524124  0.54935379  1
  Te2-  Te168  1  -0.00025451  -0.00160655  0.88135863  1
  Te2-  Te169  1  0.00010350  0.50052252  0.88338167  1
  Te2-  Te170  1  0.49962212  -0.00087315  0.88169111  1
  Te2-  Te171  1  0.49860939  0.50014167  0.88378935  1
  Te2-  Te172  1  0.33461167  0.16598310  0.21356282  1
  Te2-  Te173  1  0.33640480  0.66926889  0.21479587  1
  Te2-  Te174  1  0.83345378  0.16541060  0.21678383  1
  Te2-  Te175  1  0.83230699  0.66504858  0.21718962  1
  Te2-  Te176  1  0.16900681  0.33456368  0.54864086  1
  Te2-  Te177  1  0.16833881  0.83411631  0.54732247  1
  Te2-  Te178  1  0.66521750  0.33257745  0.55041536  1
  Te2-  Te179  1  0.66540765  0.83257620  0.54868025  1
  Te2-  Te180  1  0.33029903  0.41676003  0.71248816  1
  Te2-  Te181  1  0.32877763  0.91543597  0.71106917  1
  Te2-  Te182  1  0.82598998  0.41642311  0.71254679  1
  Te2-  Te183  1  0.82574204  0.91447578  0.70931216  1
  Te2-  Te184  1  0.08880720  0.17442463  0.71017565  1
  Te2-  Te185  1  0.08704363  0.67289800  0.71247200  1
  Te2-  Te186  1  0.58348590  0.17304534  0.71241475  1
  Te2-  Te187  1  0.58534217  0.67226417  0.70973122  1
  Te2-  Te188  1  0.09050874  0.41732004  0.71194583  1
  Te2-  Te189  1  0.08553296  0.91430860  0.71095279  1
  Te2-  Te190  1  0.58478492  0.41196360  0.71246624  1
  Te2-  Te191  1  0.58645497  0.91663641  0.71015922  1
  Te2-  Te192  1  0.16307916  0.08040425  0.04441927  1
  Te2-  Te193  1  0.15832318  0.57850743  0.04352055  1
  Te2-  Te194  1  0.66051147  0.07788766  0.04010845  1
  Te2-  Te195  1  0.66291389  0.58131309  0.04533042  1
  Te2-  Te196  1  0.41942392  0.34155993  0.04252300  1
  Te2-  Te197  1  0.42174920  0.83713094  0.03895739  1
  Te2-  Te198  1  0.92267441  0.33973080  0.04728222  1
  Te2-  Te199  1  0.92148334  0.83818529  0.04659973  1
  Te2-  Te200  1  0.42054542  0.08051109  0.03898497  1
  Te2-  Te201  1  0.41943668  0.57986539  0.04156361  1
  Te2-  Te202  1  0.92177727  0.07857002  0.04489333  1
  Te2-  Te203  1  0.92147941  0.58132291  0.04732599  1
  Te2-  Te204  1  0.49398783  0.24330972  0.37605784  1
  Te2-  Te205  1  0.49545111  0.74749845  0.37656438  1
  Te2-  Te206  1  0.99201154  0.24362614  0.37869004  1
  Te2-  Te207  1  0.99325656  0.74417266  0.37593099  1
  Te2-  Te208  1  0.25354723  0.00517489  0.37407788  1
  Te2-  Te209  1  0.25527666  0.50587250  0.37652912  1
  Te2-  Te210  1  0.75169119  0.00386696  0.37978725  1
  Te2-  Te211  1  0.75271726  0.50613113  0.37688015  1
  Te2-  Te212  1  0.24957867  0.24382110  0.37651982  1
  Te2-  Te213  1  0.25495844  0.74891405  0.37632855  1
  Te2-  Te214  1  0.75172234  0.24301296  0.37925977  1
  Te2-  Te215  1  0.74939655  0.74349079  0.37771858  1
