# generated using pymatgen
data_Ti(CuTe)4
_symmetry_space_group_name_H-M   'P 1'
_cell_length_a   16.86471357
_cell_length_b   16.86475413
_cell_length_c   20.67557287
_cell_angle_alpha   89.99916295
_cell_angle_beta   90.00050756
_cell_angle_gamma   119.99963536
_symmetry_Int_Tables_number   1
_chemical_formula_structural   Ti(CuTe)4
_chemical_formula_sum   'Ti24 Cu96 Te96'
_cell_volume   5092.70784612
_cell_formula_units_Z   24
loop_
 _symmetry_equiv_pos_site_id
 _symmetry_equiv_pos_as_xyz
  1  'x, y, z'
loop_
 _atom_type_symbol
 _atom_type_oxidation_number
  Ti4+  4.0
  Cu+  1.0
  Te2-  -2.0
loop_
 _atom_site_type_symbol
 _atom_site_label
 _atom_site_symmetry_multiplicity
 _atom_site_fract_x
 _atom_site_fract_y
 _atom_site_fract_z
 _atom_site_occupancy
  Ti4+  Ti0  1  -0.00339380  -0.00191218  0.25727665  1
  Ti4+  Ti1  1  -0.00140614  0.49911437  0.25721109  1
  Ti4+  Ti2  1  0.49643282  -0.00376961  0.25940541  1
  Ti4+  Ti3  1  0.49961833  0.49877477  0.26035604  1
  Ti4+  Ti4  1  0.32923057  0.16366157  0.59082577  1
  Ti4+  Ti5  1  0.33421285  0.66655847  0.58878967  1
  Ti4+  Ti6  1  0.83393817  0.16687837  0.58899551  1
  Ti4+  Ti7  1  0.83264359  0.66577537  0.59124096  1
  Ti4+  Ti8  1  0.17167644  0.33698175  0.92340792  1
  Ti4+  Ti9  1  0.16973237  0.83726421  0.92766693  1
  Ti4+  Ti10  1  0.67040334  0.33478822  0.92387137  1
  Ti4+  Ti11  1  0.66624173  0.83577266  0.92506575  1
  Ti4+  Ti12  1  0.00260761  0.00093674  0.75660896  1
  Ti4+  Ti13  1  -0.00040950  0.49971675  0.75467879  1
  Ti4+  Ti14  1  0.50277541  0.00055972  0.75776806  1
  Ti4+  Ti15  1  0.49657592  0.50004282  0.75499061  1
  Ti4+  Ti16  1  0.33403715  0.16763928  0.09024392  1
  Ti4+  Ti17  1  0.33400409  0.66865588  0.09128726  1
  Ti4+  Ti18  1  0.83410224  0.16537999  0.09050920  1
  Ti4+  Ti19  1  0.83421802  0.66815546  0.08695188  1
  Ti4+  Ti20  1  0.16445236  0.33146992  0.42064313  1
  Ti4+  Ti21  1  0.16717168  0.83373354  0.42258595  1
  Ti4+  Ti22  1  0.66589871  0.33225116  0.42020034  1
  Ti4+  Ti23  1  0.66507262  0.83158308  0.42118594  1
  Cu+  Cu24  1  0.69665342  0.09869549  0.80812814  1
  Cu+  Cu25  1  0.34454150  0.41796762  0.47820915  1
  Cu+  Cu26  1  0.73413242  0.97200141  0.14230223  1
  Cu+  Cu27  1  0.57749055  0.92621254  0.47694227  1
  Cu+  Cu28  1  0.34847845  0.92785661  0.47976446  1
  Cu+  Cu29  1  0.23695525  0.75574631  0.14546810  1
  Cu+  Cu30  1  0.57762951  0.64845345  0.47676765  1
  Cu+  Cu31  1  0.23618483  0.98231686  0.14458503  1
  Cu+  Cu32  1  0.07345952  0.42850037  0.47209388  1
  Cu+  Cu33  1  0.40395500  0.59991124  0.80637438  1
  Cu+  Cu34  1  0.07004514  0.14179934  0.47108982  1
  Cu+  Cu35  1  0.19640803  0.09797590  0.80851926  1
  Cu+  Cu36  1  0.16215744  0.08122563  0.17231386  1
  Cu+  Cu37  1  0.16244066  0.58252484  0.17282450  1
  Cu+  Cu38  1  0.66440779  0.07581924  0.17304009  1
  Cu+  Cu39  1  0.66551168  0.58353212  0.17188029  1
  Cu+  Cu40  1  0.41773969  0.33733870  0.17339638  1
  Cu+  Cu41  1  0.41344430  0.83600246  0.17252124  1
  Cu+  Cu42  1  0.91992681  0.33644432  0.17226622  1
  Cu+  Cu43  1  0.91658183  0.83671139  0.16789268  1
  Cu+  Cu44  1  0.41126413  0.07702312  0.17153929  1
  Cu+  Cu45  1  0.41853522  0.58037634  0.17505773  1
  Cu+  Cu46  1  0.91201421  0.07655572  0.17175460  1
  Cu+  Cu47  1  0.91553589  0.58004107  0.16847787  1
  Cu+  Cu48  1  0.49748093  0.24734638  0.50182204  1
  Cu+  Cu49  1  0.49751988  0.74790235  0.50104580  1
  Cu+  Cu50  1  0.99701386  0.24793037  0.50004618  1
  Cu+  Cu51  1  0.99652181  0.74882425  0.50537297  1
  Cu+  Cu52  1  0.25108138  0.00365334  0.50440306  1
  Cu+  Cu53  1  0.25104644  0.50322706  0.50039764  1
  Cu+  Cu54  1  0.75047347  0.00525776  0.50171045  1
  Cu+  Cu55  1  0.75236957  0.50192823  0.50283600  1
  Cu+  Cu56  1  0.24593687  0.24164102  0.50206564  1
  Cu+  Cu57  1  0.25472966  0.75167696  0.50184745  1
  Cu+  Cu58  1  0.74966718  0.24714924  0.50110882  1
  Cu+  Cu59  1  0.75087020  0.74460072  0.50372993  1
  Cu+  Cu60  1  0.32941997  0.42188546  0.83482729  1
  Cu+  Cu61  1  0.33096137  0.91599612  0.84181991  1
  Cu+  Cu62  1  0.82988367  0.41613569  0.83623942  1
  Cu+  Cu63  1  0.83158750  0.91781683  0.83868561  1
  Cu+  Cu64  1  0.09293043  0.17005752  0.83721039  1
  Cu+  Cu65  1  0.08735759  0.66890081  0.84044972  1
  Cu+  Cu66  1  0.59236924  0.17077564  0.83833163  1
  Cu+  Cu67  1  0.57821350  0.66910562  0.83786898  1
  Cu+  Cu68  1  0.08698219  0.41726735  0.83613382  1
  Cu+  Cu69  1  0.09231273  0.92344828  0.83964507  1
  Cu+  Cu70  1  0.58477552  0.41556160  0.83792341  1
  Cu+  Cu71  1  0.59162409  0.92156209  0.83840050  1
  Cu+  Cu72  1  0.16888641  0.08301166  0.67892061  1
  Cu+  Cu73  1  0.16689062  0.58354066  0.67317267  1
  Cu+  Cu74  1  0.67007264  0.08348537  0.67947781  1
  Cu+  Cu75  1  0.66799562  0.58374637  0.67508130  1
  Cu+  Cu76  1  0.41250512  0.33054818  0.67484822  1
  Cu+  Cu77  1  0.41772471  0.83372941  0.67793350  1
  Cu+  Cu78  1  0.91606762  0.33286211  0.67251420  1
  Cu+  Cu79  1  0.91427933  0.82915493  0.67520211  1
  Cu+  Cu80  1  0.41440080  0.07984496  0.67755554  1
  Cu+  Cu81  1  0.41437848  0.58326747  0.67849815  1
  Cu+  Cu82  1  0.91589249  0.08264871  0.67319483  1
  Cu+  Cu83  1  0.91563156  0.58510953  0.67442578  1
  Cu+  Cu84  1  0.00725802  0.25323557  0.00591210  1
  Cu+  Cu85  1  0.00259653  0.75344111  0.00778846  1
  Cu+  Cu86  1  0.50661368  0.25444072  0.00755633  1
  Cu+  Cu87  1  0.50092132  0.75159257  0.01008432  1
  Cu+  Cu88  1  0.25292420  0.50072567  0.00931244  1
  Cu+  Cu89  1  0.25004000  1.00063626  0.01547134  1
  Cu+  Cu90  1  0.74965082  0.49873186  0.00617813  1
  Cu+  Cu91  1  0.74984847  0.99781444  0.01404076  1
  Cu+  Cu92  1  0.25377042  0.25528030  0.00723578  1
  Cu+  Cu93  1  0.25039310  0.75404892  0.01592461  1
  Cu+  Cu94  1  0.75220607  0.25274871  0.00908133  1
  Cu+  Cu95  1  0.74888165  0.75161054  0.00657613  1
  Cu+  Cu96  1  0.33548548  0.41624709  0.34719514  1
  Cu+  Cu97  1  0.33366681  0.91709199  0.35034347  1
  Cu+  Cu98  1  0.83384055  0.41566940  0.33894275  1
  Cu+  Cu99  1  0.83238144  0.91612542  0.34175888  1
  Cu+  Cu100  1  0.07818054  0.15984456  0.34256890  1
  Cu+  Cu101  1  0.08103975  0.66407919  0.34141253  1
  Cu+  Cu102  1  0.58079437  0.16313069  0.33919257  1
  Cu+  Cu103  1  0.58118119  0.66084885  0.34696001  1
  Cu+  Cu104  1  0.07968539  0.41889438  0.34360563  1
  Cu+  Cu105  1  0.08197148  0.91761160  0.34191923  1
  Cu+  Cu106  1  0.58227053  0.41640527  0.34083981  1
  Cu+  Cu107  1  0.58007313  0.91600968  0.34738821  1
  Cu+  Cu108  1  0.00083590  0.00230620  0.11291689  1
  Cu+  Cu109  1  -0.00294697  0.49821216  0.11353204  1
  Cu+  Cu110  1  0.50432417  0.00702342  0.11607658  1
  Cu+  Cu111  1  0.50347701  0.50123854  0.11779920  1
  Cu+  Cu112  1  0.33604719  0.16825389  0.44573052  1
  Cu+  Cu113  1  0.33128442  0.66591598  0.44363832  1
  Cu+  Cu114  1  0.83329413  0.16907753  0.44341827  1
  Cu+  Cu115  1  0.83624352  0.66432312  0.44678108  1
  Cu+  Cu116  1  0.15987539  0.33032840  0.77834619  1
  Cu+  Cu117  1  0.16184565  0.82901445  0.78541944  1
  Cu+  Cu118  1  0.66445450  0.33484562  0.77969753  1
  Cu+  Cu119  1  0.66963152  0.83109958  0.78163184  1
  Te2-  Te120  1  -0.00409039  -0.00502262  0.38818496  1
  Te2-  Te121  1  -0.00356040  0.50068148  0.38818302  1
  Te2-  Te122  1  0.50021031  0.00183341  0.39156543  1
  Te2-  Te123  1  0.50002057  0.49571898  0.39299418  1
  Te2-  Te124  1  0.33578331  0.16665446  0.72099434  1
  Te2-  Te125  1  0.33113302  0.66764576  0.71871566  1
  Te2-  Te126  1  0.83803842  0.16877471  0.71920662  1
  Te2-  Te127  1  0.83190629  0.66523554  0.72040077  1
  Te2-  Te128  1  0.17038471  0.33574313  0.05245064  1
  Te2-  Te129  1  0.16422116  0.83429147  0.05979531  1
  Te2-  Te130  1  0.67033655  0.33542660  0.05308178  1
  Te2-  Te131  1  0.66519882  0.83059526  0.05549735  1
  Te2-  Te132  1  0.49924231  0.24727523  0.88143721  1
  Te2-  Te133  1  0.49285600  0.75294273  0.88377250  1
  Te2-  Te134  1  1.00163895  0.24866871  0.87967831  1
  Te2-  Te135  1  1.00112903  0.75329309  0.88176002  1
  Te2-  Te136  1  0.25996898  0.01153557  0.88787190  1
  Te2-  Te137  1  0.25319295  0.51188852  0.88328197  1
  Te2-  Te138  1  0.75896346  0.01053544  0.88646015  1
  Te2-  Te139  1  0.75290119  0.50623383  0.88055574  1
  Te2-  Te140  1  0.26272121  0.25440242  0.88136775  1
  Te2-  Te141  1  0.25385938  0.74983575  0.88847348  1
  Te2-  Te142  1  0.76138422  0.25060479  0.88321680  1
  Te2-  Te143  1  0.74828398  0.74846950  0.88052157  1
  Te2-  Te144  1  0.32750409  0.41308826  0.21988693  1
  Te2-  Te145  1  0.32016264  0.91026588  0.22177566  1
  Te2-  Te146  1  0.82784603  0.41308727  0.21341058  1
  Te2-  Te147  1  0.82244785  0.90733724  0.21619704  1
  Te2-  Te148  1  0.08131172  0.16856399  0.21573542  1
  Te2-  Te149  1  0.08162660  0.67307489  0.21596743  1
  Te2-  Te150  1  0.58139273  0.16421892  0.21339131  1
  Te2-  Te151  1  0.58591958  0.67030751  0.21968862  1
  Te2-  Te152  1  0.08678551  0.41521645  0.21700126  1
  Te2-  Te153  1  0.08186125  0.90988199  0.21628447  1
  Te2-  Te154  1  0.58609548  0.41504726  0.21549682  1
  Te2-  Te155  1  0.58023552  0.90682626  0.21966970  1
  Te2-  Te156  1  0.15574327  0.07446941  0.55117503  1
  Te2-  Te157  1  0.16187947  0.58363361  0.54721239  1
  Te2-  Te158  1  0.65958691  0.08189932  0.55145862  1
  Te2-  Te159  1  0.65842617  0.57498910  0.54938928  1
  Te2-  Te160  1  0.41796817  0.33571319  0.54842592  1
  Te2-  Te161  1  0.42292920  0.84285185  0.55099180  1
  Te2-  Te162  1  0.91811264  0.33920887  0.54620032  1
  Te2-  Te163  1  0.91755454  0.83767647  0.54929106  1
  Te2-  Te164  1  0.42099379  0.08180245  0.55127909  1
  Te2-  Te165  1  0.42059225  0.57790197  0.55024365  1
  Te2-  Te166  1  0.91764476  0.07782661  0.54716694  1
  Te2-  Te167  1  0.91931716  0.58092317  0.54851653  1
  Te2-  Te168  1  0.00114684  0.00169785  0.88364404  1
  Te2-  Te169  1  -0.00006690  0.49912162  0.88124054  1
  Te2-  Te170  1  0.50228216  0.00174976  0.88454951  1
  Te2-  Te171  1  0.49919676  0.49974555  0.88179952  1
  Te2-  Te172  1  0.33218186  0.16739504  0.21748960  1
  Te2-  Te173  1  0.33250830  0.66523139  0.21832088  1
  Te2-  Te174  1  0.83342539  0.16705132  0.21755850  1
  Te2-  Te175  1  0.83443720  0.66742039  0.21368305  1
  Te2-  Te176  1  0.16643480  0.33338458  0.54910274  1
  Te2-  Te177  1  0.16650038  0.83271796  0.54977450  1
  Te2-  Te178  1  0.66640398  0.33254419  0.54690178  1
  Te2-  Te179  1  0.66808093  0.83378092  0.54887379  1
  Te2-  Te180  1  0.32285382  0.41072393  0.70869789  1
  Te2-  Te181  1  0.32779926  0.91225329  0.71591467  1
  Te2-  Te182  1  0.82741572  0.41407139  0.70991698  1
  Te2-  Te183  1  0.82985508  0.91446763  0.71224505  1
  Te2-  Te184  1  0.08564086  0.17245653  0.70908913  1
  Te2-  Te185  1  0.08623210  0.67216023  0.71213335  1
  Te2-  Te186  1  0.58584266  0.17235227  0.71090999  1
  Te2-  Te187  1  0.58689696  0.67300189  0.70999916  1
  Te2-  Te188  1  0.08595025  0.41414028  0.70885612  1
  Te2-  Te189  1  0.08504600  0.91084545  0.71191813  1
  Te2-  Te190  1  0.58279654  0.41364331  0.71097142  1
  Te2-  Te191  1  0.58758317  0.91180292  0.71197325  1
  Te2-  Te192  1  0.16159340  0.08529019  0.04438872  1
  Te2-  Te193  1  0.16160099  0.58012338  0.04547513  1
  Te2-  Te194  1  0.66181325  0.08241964  0.04512241  1
  Te2-  Te195  1  0.66193516  0.58138305  0.04417833  1
  Te2-  Te196  1  0.42244726  0.33984016  0.04660587  1
  Te2-  Te197  1  0.42281302  0.84300845  0.04668703  1
  Te2-  Te198  1  0.92211210  0.33723858  0.04554077  1
  Te2-  Te199  1  0.91950699  0.84113448  0.04210300  1
  Te2-  Te200  1  0.42322366  0.08413397  0.04462462  1
  Te2-  Te201  1  0.42112606  0.58264467  0.04830498  1
  Te2-  Te202  1  0.92336894  0.08321157  0.04398586  1
  Te2-  Te203  1  0.92045061  0.58214153  0.04210826  1
  Te2-  Te204  1  0.49325124  0.24559267  0.37534630  1
  Te2-  Te205  1  0.49034749  0.74313785  0.37474198  1
  Te2-  Te206  1  0.99159629  0.24583398  0.37283601  1
  Te2-  Te207  1  0.99511016  0.74770865  0.37849195  1
  Te2-  Te208  1  0.25117135  0.00790417  0.37752170  1
  Te2-  Te209  1  0.25194182  0.50588390  0.37390663  1
  Te2-  Te210  1  0.75268266  0.00597535  0.37551598  1
  Te2-  Te211  1  0.75274781  0.50469213  0.37618119  1
  Te2-  Te212  1  0.25036609  0.24298488  0.37469036  1
  Te2-  Te213  1  0.25064989  0.74373385  0.37568944  1
  Te2-  Te214  1  0.75099618  0.24539071  0.37462163  1
  Te2-  Te215  1  0.75381646  0.74620871  0.37712550  1
