# generated using pymatgen
data_Ti(CuTe)4
_symmetry_space_group_name_H-M   'P 1'
_cell_length_a   16.85401297
_cell_length_b   16.85321515
_cell_length_c   20.65507294
_cell_angle_alpha   90.01605783
_cell_angle_beta   89.99199075
_cell_angle_gamma   119.99807941
_symmetry_Int_Tables_number   1
_chemical_formula_structural   Ti(CuTe)4
_chemical_formula_sum   'Ti24 Cu96 Te96'
_cell_volume   5081.03095899
_cell_formula_units_Z   24
loop_
 _symmetry_equiv_pos_site_id
 _symmetry_equiv_pos_as_xyz
  1  'x, y, z'
loop_
 _atom_type_symbol
 _atom_type_oxidation_number
  Ti4+  4.0
  Cu+  1.0
  Te2-  -2.0
loop_
 _atom_site_type_symbol
 _atom_site_label
 _atom_site_symmetry_multiplicity
 _atom_site_fract_x
 _atom_site_fract_y
 _atom_site_fract_z
 _atom_site_occupancy
  Ti4+  Ti0  1  0.00086965  0.00016725  0.26085172  1
  Ti4+  Ti1  1  0.00193601  0.50155312  0.25820235  1
  Ti4+  Ti2  1  0.50177443  0.00413544  0.25836809  1
  Ti4+  Ti3  1  0.49844488  0.50069564  0.25864477  1
  Ti4+  Ti4  1  0.33517363  0.16679215  0.59538912  1
  Ti4+  Ti5  1  0.32958378  0.66524021  0.59032606  1
  Ti4+  Ti6  1  0.83003965  0.16562820  0.58903744  1
  Ti4+  Ti7  1  0.83562239  0.66962957  0.58852809  1
  Ti4+  Ti8  1  0.16537228  0.33233380  0.92303656  1
  Ti4+  Ti9  1  0.16530076  0.82952116  0.92155507  1
  Ti4+  Ti10  1  0.66607296  0.33166852  0.92670948  1
  Ti4+  Ti11  1  0.66755072  0.83058987  0.92281807  1
  Ti4+  Ti12  1  -0.00149794  -0.00145446  0.75395954  1
  Ti4+  Ti13  1  0.00068804  0.50095939  0.75561413  1
  Ti4+  Ti14  1  0.49928971  -0.00006393  0.75416428  1
  Ti4+  Ti15  1  0.49920214  0.49950099  0.75220168  1
  Ti4+  Ti16  1  0.33437351  0.16624246  0.09041922  1
  Ti4+  Ti17  1  0.33287331  0.66624314  0.09042178  1
  Ti4+  Ti18  1  0.83199043  0.16621765  0.08811452  1
  Ti4+  Ti19  1  0.83398192  0.66661219  0.08994885  1
  Ti4+  Ti20  1  0.16743989  0.33479281  0.42286882  1
  Ti4+  Ti21  1  0.16586369  0.83267215  0.42288523  1
  Ti4+  Ti22  1  0.66540384  0.33152497  0.42466634  1
  Ti4+  Ti23  1  0.66909975  0.83668804  0.42072753  1
  Cu+  Cu24  1  0.08139134  0.93060519  0.47951583  1
  Cu+  Cu25  1  0.74488076  0.26588547  0.14297314  1
  Cu+  Cu26  1  0.41040144  0.32018115  0.81321254  1
  Cu+  Cu27  1  0.41247589  0.08766025  0.81716808  1
  Cu+  Cu28  1  0.07060383  0.64248169  0.47380174  1
  Cu+  Cu29  1  0.18695896  0.58952008  0.80783481  1
  Cu+  Cu30  1  0.90352930  0.80513157  0.80528767  1
  Cu+  Cu31  1  0.41139208  0.81374408  0.80629541  1
  Cu+  Cu32  1  0.51873357  0.26420505  0.14688930  1
  Cu+  Cu33  1  0.85514950  0.93194401  0.47578424  1
  Cu+  Cu34  1  0.56506379  0.13762348  0.47601667  1
  Cu+  Cu35  1  0.17381609  0.08467795  0.81623852  1
  Cu+  Cu36  1  0.16369095  0.08029864  0.17385478  1
  Cu+  Cu37  1  0.16449607  0.58418917  0.17298972  1
  Cu+  Cu38  1  0.66445806  0.08814304  0.16919841  1
  Cu+  Cu39  1  0.66451634  0.58458096  0.17171761  1
  Cu+  Cu40  1  0.41937785  0.33860622  0.17232177  1
  Cu+  Cu41  1  0.41737314  0.83596829  0.17335381  1
  Cu+  Cu42  1  0.91819730  0.33745653  0.17040154  1
  Cu+  Cu43  1  0.91958287  0.83646228  0.17480025  1
  Cu+  Cu44  1  0.42391732  0.08679735  0.17115359  1
  Cu+  Cu45  1  0.41611323  0.58166553  0.17288862  1
  Cu+  Cu46  1  0.91743249  0.08117628  0.17231683  1
  Cu+  Cu47  1  0.92253645  0.58627963  0.17194391  1
  Cu+  Cu48  1  0.49867771  0.24508841  0.50878980  1
  Cu+  Cu49  1  0.49772672  0.75177012  0.50382415  1
  Cu+  Cu50  1  0.99824770  0.25168637  0.50292612  1
  Cu+  Cu51  1  0.99730697  0.74892143  0.50150048  1
  Cu+  Cu52  1  0.25340178  0.00600061  0.50658874  1
  Cu+  Cu53  1  0.24846372  0.50256320  0.50412558  1
  Cu+  Cu54  1  0.75393264  0.00555748  0.50108515  1
  Cu+  Cu55  1  0.75057541  0.50267543  0.50449293  1
  Cu+  Cu56  1  0.25228779  0.25205560  0.50803769  1
  Cu+  Cu57  1  0.24605140  0.74221984  0.50377086  1
  Cu+  Cu58  1  0.74329182  0.24244513  0.50388765  1
  Cu+  Cu59  1  0.75535238  0.75505186  0.50189304  1
  Cu+  Cu60  1  0.32741247  0.41225349  0.83249541  1
  Cu+  Cu61  1  0.32986723  0.91045937  0.83253758  1
  Cu+  Cu62  1  0.83119932  0.41242345  0.83947411  1
  Cu+  Cu63  1  0.82883494  0.90635668  0.83376737  1
  Cu+  Cu64  1  0.08500659  0.17146359  0.83468994  1
  Cu+  Cu65  1  0.08887526  0.66882453  0.83418390  1
  Cu+  Cu66  1  0.58722399  0.17416634  0.83760092  1
  Cu+  Cu67  1  0.58678940  0.67054044  0.83316408  1
  Cu+  Cu68  1  0.08541863  0.41583173  0.83677980  1
  Cu+  Cu69  1  0.07886354  0.90820104  0.83430961  1
  Cu+  Cu70  1  0.58441148  0.41464356  0.83672369  1
  Cu+  Cu71  1  0.58447648  0.91240731  0.83500471  1
  Cu+  Cu72  1  0.16909624  0.08643067  0.68322964  1
  Cu+  Cu73  1  0.16752659  0.58487694  0.67906457  1
  Cu+  Cu74  1  0.66737948  0.08486059  0.67390841  1
  Cu+  Cu75  1  0.66935154  0.58746190  0.67124927  1
  Cu+  Cu76  1  0.41723898  0.33110998  0.68099679  1
  Cu+  Cu77  1  0.41282587  0.82909004  0.67673729  1
  Cu+  Cu78  1  0.91175643  0.33005986  0.67121770  1
  Cu+  Cu79  1  0.91452533  0.83084135  0.67770135  1
  Cu+  Cu80  1  0.41921600  0.08743612  0.68408496  1
  Cu+  Cu81  1  0.41600125  0.58394970  0.67108112  1
  Cu+  Cu82  1  0.91304792  0.08434850  0.67341847  1
  Cu+  Cu83  1  0.91514527  0.58357609  0.67369628  1
  Cu+  Cu84  1  0.00132160  0.24846682  0.00669278  1
  Cu+  Cu85  1  0.00091179  0.75017761  0.00693190  1
  Cu+  Cu86  1  0.50005503  0.24825280  0.01645935  1
  Cu+  Cu87  1  0.50214644  0.75052653  0.00797161  1
  Cu+  Cu88  1  0.24756862  0.49730313  0.00860137  1
  Cu+  Cu89  1  0.24793903  0.99703508  0.00883271  1
  Cu+  Cu90  1  0.75003855  0.49835717  0.00995370  1
  Cu+  Cu91  1  0.74991079  0.99591171  0.00515101  1
  Cu+  Cu92  1  0.24743969  0.24776274  0.01005194  1
  Cu+  Cu93  1  0.24960658  0.74968613  0.00900322  1
  Cu+  Cu94  1  0.74614403  0.24904789  0.01391013  1
  Cu+  Cu95  1  0.75159010  0.75130625  0.00851392  1
  Cu+  Cu96  1  0.33585922  0.41829265  0.34177991  1
  Cu+  Cu97  1  0.33497629  0.91946305  0.34181150  1
  Cu+  Cu98  1  0.83509722  0.41847228  0.34214571  1
  Cu+  Cu99  1  0.83861358  0.91956369  0.34667395  1
  Cu+  Cu100  1  0.08570758  0.16716363  0.34216793  1
  Cu+  Cu101  1  0.08329607  0.66245799  0.34566646  1
  Cu+  Cu102  1  0.58065022  0.16451187  0.34883366  1
  Cu+  Cu103  1  0.58013571  0.66459661  0.34084188  1
  Cu+  Cu104  1  0.08399350  0.41906928  0.33989719  1
  Cu+  Cu105  1  0.08346906  0.91889964  0.34881806  1
  Cu+  Cu106  1  0.58063795  0.41770091  0.34403455  1
  Cu+  Cu107  1  0.58373924  0.92102289  0.34013633  1
  Cu+  Cu108  1  -0.00172017  -0.00128512  0.11885440  1
  Cu+  Cu109  1  0.00194276  0.50085573  0.11457689  1
  Cu+  Cu110  1  0.49928319  -0.00567575  0.11510637  1
  Cu+  Cu111  1  0.50127461  0.50502297  0.11468577  1
  Cu+  Cu112  1  0.33592969  0.17369869  0.45309801  1
  Cu+  Cu113  1  0.33740842  0.66591071  0.44787732  1
  Cu+  Cu114  1  0.83720637  0.17268590  0.44438225  1
  Cu+  Cu115  1  0.82884302  0.66423785  0.44530673  1
  Cu+  Cu116  1  0.16396225  0.33480096  0.77538441  1
  Cu+  Cu117  1  0.16486091  0.83258644  0.77450272  1
  Cu+  Cu118  1  0.67207591  0.34097196  0.78165946  1
  Cu+  Cu119  1  0.66734153  0.83537037  0.77643833  1
  Te2-  Te120  1  0.00443244  0.00564566  0.39400970  1
  Te2-  Te121  1  -0.00149838  0.49582957  0.38912585  1
  Te2-  Te122  1  0.49741793  -0.00348609  0.38918659  1
  Te2-  Te123  1  0.49961143  0.50144697  0.38796695  1
  Te2-  Te124  1  0.33397583  0.16723269  0.72923648  1
  Te2-  Te125  1  0.33439183  0.66339609  0.72295673  1
  Te2-  Te126  1  0.83180182  0.16689385  0.71823085  1
  Te2-  Te127  1  0.83130169  0.66324652  0.71901067  1
  Te2-  Te128  1  0.16562765  0.33189125  0.05160160  1
  Te2-  Te129  1  0.16575203  0.83138581  0.04985148  1
  Te2-  Te130  1  0.66710190  0.33606976  0.05905101  1
  Te2-  Te131  1  0.66722359  0.83224756  0.05166805  1
  Te2-  Te132  1  0.48966377  0.24477558  0.88761235  1
  Te2-  Te133  1  0.49342138  0.74284360  0.88177104  1
  Te2-  Te134  1  0.99469435  0.24711216  0.88040515  1
  Te2-  Te135  1  0.99249112  0.74034582  0.88092639  1
  Te2-  Te136  1  0.25224183  0.00451821  0.88235633  1
  Te2-  Te137  1  0.25645807  0.50538740  0.88202554  1
  Te2-  Te138  1  0.75321671  0.00032710  0.87824211  1
  Te2-  Te139  1  0.75083666  0.50130926  0.88333033  1
  Te2-  Te140  1  0.25370568  0.24329788  0.88384679  1
  Te2-  Te141  1  0.25701765  0.74456104  0.88278930  1
  Te2-  Te142  1  0.75088526  0.24512264  0.88669849  1
  Te2-  Te143  1  0.75188056  0.73976269  0.88229016  1
  Te2-  Te144  1  0.32674850  0.41278196  0.21589656  1
  Te2-  Te145  1  0.33109505  0.91912352  0.21618230  1
  Te2-  Te146  1  0.82862819  0.41844029  0.21646569  1
  Te2-  Te147  1  0.82947730  0.91478576  0.21959231  1
  Te2-  Te148  1  0.08567861  0.17047093  0.21644737  1
  Te2-  Te149  1  0.08832947  0.67443663  0.21952445  1
  Te2-  Te150  1  0.59132250  0.18181191  0.22069116  1
  Te2-  Te151  1  0.58452050  0.67228150  0.21530877  1
  Te2-  Te152  1  0.08538721  0.41444286  0.21405842  1
  Te2-  Te153  1  0.08732701  0.91454423  0.22166373  1
  Te2-  Te154  1  0.58994641  0.41750099  0.21819498  1
  Te2-  Te155  1  0.58755485  0.92003800  0.21426046  1
  Te2-  Te156  1  0.16251677  0.08434464  0.55518514  1
  Te2-  Te157  1  0.15476163  0.57479346  0.55199209  1
  Te2-  Te158  1  0.65551824  0.07285684  0.54835211  1
  Te2-  Te159  1  0.66508201  0.58637059  0.54584542  1
  Te2-  Te160  1  0.42131966  0.33668835  0.55333065  1
  Te2-  Te161  1  0.41391694  0.83617468  0.54967936  1
  Te2-  Te162  1  0.91335008  0.33610334  0.54558456  1
  Te2-  Te163  1  0.92438875  0.84588437  0.55032281  1
  Te2-  Te164  1  0.41756440  0.07570579  0.55569458  1
  Te2-  Te165  1  0.41742800  0.58290229  0.54589610  1
  Te2-  Te166  1  0.92310978  0.08444125  0.54847279  1
  Te2-  Te167  1  0.91829693  0.57908855  0.54826404  1
  Te2-  Te168  1  -0.00108165  -0.00070834  0.88172245  1
  Te2-  Te169  1  0.00046187  0.50001909  0.88282403  1
  Te2-  Te170  1  0.50092467  0.00019707  0.88208006  1
  Te2-  Te171  1  0.49878111  0.50006786  0.87956450  1
  Te2-  Te172  1  0.33417127  0.16738178  0.21746810  1
  Te2-  Te173  1  0.33334860  0.66774925  0.21715760  1
  Te2-  Te174  1  0.83394797  0.16753169  0.21532509  1
  Te2-  Te175  1  0.83362139  0.66668449  0.21658417  1
  Te2-  Te176  1  0.16558327  0.33487356  0.54981889  1
  Te2-  Te177  1  0.16612114  0.83319317  0.55064357  1
  Te2-  Te178  1  0.66819846  0.33519227  0.55177557  1
  Te2-  Te179  1  0.66653748  0.83529952  0.54798438  1
  Te2-  Te180  1  0.32546570  0.41391802  0.70579212  1
  Te2-  Te181  1  0.32464982  0.91305459  0.70606081  1
  Te2-  Te182  1  0.82895232  0.41472696  0.71177290  1
  Te2-  Te183  1  0.82600443  0.91482545  0.70713596  1
  Te2-  Te184  1  0.08254231  0.17286047  0.70826594  1
  Te2-  Te185  1  0.08410751  0.67349098  0.70777197  1
  Te2-  Te186  1  0.59101344  0.17625579  0.71151651  1
  Te2-  Te187  1  0.58537399  0.67237916  0.70730815  1
  Te2-  Te188  1  0.08175418  0.41121650  0.70834053  1
  Te2-  Te189  1  0.08706708  0.91295921  0.70678069  1
  Te2-  Te190  1  0.59084973  0.41724556  0.70884696  1
  Te2-  Te191  1  0.58579639  0.91420333  0.70775302  1
  Te2-  Te192  1  0.16117455  0.07864943  0.04706439  1
  Te2-  Te193  1  0.16120692  0.58048291  0.04549804  1
  Te2-  Te194  1  0.65919818  0.07567818  0.04227439  1
  Te2-  Te195  1  0.66189039  0.58080473  0.04478542  1
  Te2-  Te196  1  0.41778663  0.33978379  0.04490823  1
  Te2-  Te197  1  0.41922514  0.83729806  0.04515413  1
  Te2-  Te198  1  0.92073951  0.33883764  0.04274409  1
  Te2-  Te199  1  0.92096835  0.83892876  0.04696060  1
  Te2-  Te200  1  0.41742204  0.07541458  0.04438115  1
  Te2-  Te201  1  0.41800840  0.58038002  0.04506121  1
  Te2-  Te202  1  0.91828216  0.07961213  0.04542295  1
  Te2-  Te203  1  0.92047297  0.58087349  0.04503305  1
  Te2-  Te204  1  0.49216840  0.24845418  0.38079664  1
  Te2-  Te205  1  0.49680201  0.75111038  0.37696185  1
  Te2-  Te206  1  0.99661067  0.24894254  0.37598560  1
  Te2-  Te207  1  0.99229388  0.74510952  0.37520913  1
  Te2-  Te208  1  0.25584073  0.00822350  0.38016738  1
  Te2-  Te209  1  0.25297016  0.50611671  0.37738843  1
  Te2-  Te210  1  0.75408345  0.00956956  0.37443791  1
  Te2-  Te211  1  0.75077981  0.50310158  0.37816308  1
  Te2-  Te212  1  0.25456508  0.24901211  0.38065127  1
  Te2-  Te213  1  0.25568955  0.74937840  0.37757952  1
  Te2-  Te214  1  0.75425409  0.24876760  0.37660995  1
  Te2-  Te215  1  0.75118550  0.74599160  0.37517508  1
