# generated using pymatgen
data_Ti(CuTe)4
_symmetry_space_group_name_H-M   'P 1'
_cell_length_a   16.86348425
_cell_length_b   16.86368084
_cell_length_c   20.67251041
_cell_angle_alpha   90.03757765
_cell_angle_beta   89.96040790
_cell_angle_gamma   119.98501414
_symmetry_Int_Tables_number   1
_chemical_formula_structural   Ti(CuTe)4
_chemical_formula_sum   'Ti24 Cu96 Te96'
_cell_volume   5092.00670380
_cell_formula_units_Z   24
loop_
 _symmetry_equiv_pos_site_id
 _symmetry_equiv_pos_as_xyz
  1  'x, y, z'
loop_
 _atom_type_symbol
 _atom_type_oxidation_number
  Ti4+  4.0
  Cu+  1.0
  Te2-  -2.0
loop_
 _atom_site_type_symbol
 _atom_site_label
 _atom_site_symmetry_multiplicity
 _atom_site_fract_x
 _atom_site_fract_y
 _atom_site_fract_z
 _atom_site_occupancy
  Ti4+  Ti0  1  0.00112382  0.00083608  0.25838864  1
  Ti4+  Ti1  1  0.00061343  0.50027122  0.26016663  1
  Ti4+  Ti2  1  0.50097027  -0.00051139  0.25935318  1
  Ti4+  Ti3  1  0.50128254  0.50242326  0.26084336  1
  Ti4+  Ti4  1  0.33471935  0.16582994  0.59091144  1
  Ti4+  Ti5  1  0.33288543  0.66869723  0.59377034  1
  Ti4+  Ti6  1  0.83420554  0.17090688  0.58929561  1
  Ti4+  Ti7  1  0.82939895  0.66710666  0.59205394  1
  Ti4+  Ti8  1  0.16691429  0.33118658  0.92036531  1
  Ti4+  Ti9  1  0.16615396  0.83199552  0.92309816  1
  Ti4+  Ti10  1  0.66750500  0.33160138  0.92345691  1
  Ti4+  Ti11  1  0.66598435  0.83005408  0.92407309  1
  Ti4+  Ti12  1  0.00012042  0.00066064  0.75230408  1
  Ti4+  Ti13  1  -0.00180080  0.49958779  0.75295989  1
  Ti4+  Ti14  1  0.49855423  -0.00040319  0.75434136  1
  Ti4+  Ti15  1  0.49916503  0.50070280  0.75207461  1
  Ti4+  Ti16  1  0.33194414  0.16558979  0.08994664  1
  Ti4+  Ti17  1  0.33489626  0.66648481  0.09107751  1
  Ti4+  Ti18  1  0.83379844  0.16619689  0.08832754  1
  Ti4+  Ti19  1  0.83269382  0.66601202  0.08948760  1
  Ti4+  Ti20  1  0.16477863  0.33514584  0.42404736  1
  Ti4+  Ti21  1  0.16936519  0.83595082  0.42413438  1
  Ti4+  Ti22  1  0.66647066  0.33417159  0.42174399  1
  Ti4+  Ti23  1  0.66599718  0.83108664  0.42468634  1
  Cu+  Cu24  1  0.90366919  0.30758535  0.80478876  1
  Cu+  Cu25  1  0.07239992  0.43497487  0.47613603  1
  Cu+  Cu26  1  0.41418731  0.31809335  0.80806828  1
  Cu+  Cu27  1  0.91205766  0.81488443  0.80586212  1
  Cu+  Cu28  1  0.36059282  0.92885347  0.47437519  1
  Cu+  Cu29  1  0.67857562  0.58561795  0.81126845  1
  Cu+  Cu30  1  0.17401711  0.58528919  0.81393104  1
  Cu+  Cu31  1  0.18513481  0.08766285  0.80527723  1
  Cu+  Cu32  1  0.41430350  0.58609103  0.81651605  1
  Cu+  Cu33  1  0.52586465  0.76336480  0.14422042  1
  Cu+  Cu34  1  0.41055598  0.81948251  0.81353047  1
  Cu+  Cu35  1  0.56735616  0.64093503  0.47809495  1
  Cu+  Cu36  1  0.16164232  0.08110629  0.17188432  1
  Cu+  Cu37  1  0.16263387  0.57985003  0.17446524  1
  Cu+  Cu38  1  0.66419210  0.08265129  0.17129769  1
  Cu+  Cu39  1  0.66387605  0.58386952  0.17291164  1
  Cu+  Cu40  1  0.41693902  0.33526298  0.17419873  1
  Cu+  Cu41  1  0.42229176  0.83666919  0.17332437  1
  Cu+  Cu42  1  0.92106435  0.33660722  0.17281274  1
  Cu+  Cu43  1  0.91938104  0.83743726  0.17195921  1
  Cu+  Cu44  1  0.41529678  0.07952096  0.17402349  1
  Cu+  Cu45  1  0.42424927  0.58727229  0.17365362  1
  Cu+  Cu46  1  0.91936577  0.08196765  0.17140328  1
  Cu+  Cu47  1  0.91867347  0.58260724  0.17351203  1
  Cu+  Cu48  1  0.49711214  0.25010230  0.50375619  1
  Cu+  Cu49  1  0.49766396  0.74629407  0.50708895  1
  Cu+  Cu50  1  0.99693554  0.25738219  0.50399621  1
  Cu+  Cu51  1  0.99674088  0.75358267  0.50695218  1
  Cu+  Cu52  1  0.25676953  0.00302157  0.50471218  1
  Cu+  Cu53  1  0.24595522  0.50287715  0.50711678  1
  Cu+  Cu54  1  0.75202572  0.00404881  0.50544181  1
  Cu+  Cu55  1  0.74778217  0.50321549  0.50455772  1
  Cu+  Cu56  1  0.25013398  0.24748562  0.50698063  1
  Cu+  Cu57  1  0.25550557  0.75502713  0.50664061  1
  Cu+  Cu58  1  0.75248404  0.25109373  0.50296197  1
  Cu+  Cu59  1  0.74482518  0.74380709  0.50684371  1
  Cu+  Cu60  1  0.32704620  0.40987070  0.82996925  1
  Cu+  Cu61  1  0.32823276  0.91174333  0.83406169  1
  Cu+  Cu62  1  0.82947541  0.40915086  0.83406718  1
  Cu+  Cu63  1  0.83122964  0.91081087  0.83399653  1
  Cu+  Cu64  1  0.09017641  0.17046914  0.83091232  1
  Cu+  Cu65  1  0.08588877  0.67182291  0.83316954  1
  Cu+  Cu66  1  0.58629738  0.16986846  0.83576165  1
  Cu+  Cu67  1  0.58979919  0.67550581  0.83192183  1
  Cu+  Cu68  1  0.07999646  0.40988330  0.83238830  1
  Cu+  Cu69  1  0.08497890  0.91441069  0.83495536  1
  Cu+  Cu70  1  0.58720739  0.41211715  0.83460946  1
  Cu+  Cu71  1  0.58356771  0.91439662  0.83648581  1
  Cu+  Cu72  1  0.17077250  0.08541670  0.67616415  1
  Cu+  Cu73  1  0.16721449  0.58741556  0.68128228  1
  Cu+  Cu74  1  0.66902078  0.08660846  0.67216273  1
  Cu+  Cu75  1  0.66661666  0.58676535  0.68075749  1
  Cu+  Cu76  1  0.41401538  0.33002119  0.67771041  1
  Cu+  Cu77  1  0.41580411  0.83260215  0.68092369  1
  Cu+  Cu78  1  0.91406882  0.33151072  0.67700484  1
  Cu+  Cu79  1  0.91069649  0.82990068  0.67750338  1
  Cu+  Cu80  1  0.41664748  0.08374742  0.67392306  1
  Cu+  Cu81  1  0.41434455  0.58536805  0.68186393  1
  Cu+  Cu82  1  0.91613571  0.08808095  0.67042499  1
  Cu+  Cu83  1  0.91255816  0.58489973  0.67287281  1
  Cu+  Cu84  1  0.00058059  0.24939696  0.00506937  1
  Cu+  Cu85  1  0.00068710  0.75007501  0.00807623  1
  Cu+  Cu86  1  0.50142689  0.25026294  0.00912989  1
  Cu+  Cu87  1  0.50069800  0.74909330  0.01517982  1
  Cu+  Cu88  1  0.24942149  0.49837802  0.00850222  1
  Cu+  Cu89  1  0.24802992  0.99755338  0.00780234  1
  Cu+  Cu90  1  0.74845069  0.49702892  0.00803301  1
  Cu+  Cu91  1  0.74816766  0.99667020  0.00765864  1
  Cu+  Cu92  1  0.25046608  0.24939036  0.00763361  1
  Cu+  Cu93  1  0.24851923  0.74810339  0.01083282  1
  Cu+  Cu94  1  0.75134534  0.25075937  0.00876112  1
  Cu+  Cu95  1  0.74840308  0.74695872  0.00969421  1
  Cu+  Cu96  1  0.33507782  0.41937756  0.34355808  1
  Cu+  Cu97  1  0.33900894  0.91896451  0.34600343  1
  Cu+  Cu98  1  0.83537650  0.41861467  0.34188904  1
  Cu+  Cu99  1  0.83843290  0.91738494  0.34168583  1
  Cu+  Cu100  1  0.08150710  0.16402121  0.34154315  1
  Cu+  Cu101  1  0.08303007  0.66640292  0.34323215  1
  Cu+  Cu102  1  0.58171714  0.16508142  0.34192554  1
  Cu+  Cu103  1  0.58205686  0.66339837  0.34930035  1
  Cu+  Cu104  1  0.08070540  0.42035862  0.34736669  1
  Cu+  Cu105  1  0.08343950  0.92025194  0.34127456  1
  Cu+  Cu106  1  0.58234721  0.41880176  0.34272207  1
  Cu+  Cu107  1  0.58283522  0.91582370  0.34370013  1
  Cu+  Cu108  1  -0.00144013  -0.00051066  0.11393855  1
  Cu+  Cu109  1  -0.00236894  0.49933845  0.11743709  1
  Cu+  Cu110  1  0.50063198  0.00348495  0.11623862  1
  Cu+  Cu111  1  0.49866050  0.49570380  0.11781655  1
  Cu+  Cu112  1  0.33183696  0.16822662  0.44810898  1
  Cu+  Cu113  1  0.33297987  0.66694513  0.45088064  1
  Cu+  Cu114  1  0.83160278  0.16378538  0.44639207  1
  Cu+  Cu115  1  0.83683890  0.66736882  0.44975995  1
  Cu+  Cu116  1  0.16314642  0.33203074  0.77247697  1
  Cu+  Cu117  1  0.16594039  0.83493963  0.77512341  1
  Cu+  Cu118  1  0.66728256  0.33116385  0.77613214  1
  Cu+  Cu119  1  0.67114821  0.84298692  0.77800889  1
  Te2-  Te120  1  0.00139540  0.00104333  0.38812014  1
  Te2-  Te121  1  -0.00226615  0.50378159  0.39107848  1
  Te2-  Te122  1  0.50532591  0.00200446  0.39013093  1
  Te2-  Te123  1  0.49775746  0.49683193  0.39178554  1
  Te2-  Te124  1  0.33539426  0.16498035  0.72345720  1
  Te2-  Te125  1  0.33201245  0.66770913  0.72742792  1
  Te2-  Te126  1  0.83166910  0.16504551  0.71996519  1
  Te2-  Te127  1  0.83187521  0.66521658  0.72470445  1
  Te2-  Te128  1  0.16614637  0.33155433  0.04847038  1
  Te2-  Te129  1  0.16601980  0.83226050  0.05137197  1
  Te2-  Te130  1  0.66699211  0.33200203  0.05189579  1
  Te2-  Te131  1  0.66868106  0.83239651  0.05412325  1
  Te2-  Te132  1  0.49370267  0.24369193  0.88271686  1
  Te2-  Te133  1  0.49037129  0.74337594  0.88626490  1
  Te2-  Te134  1  0.99401933  0.24155787  0.87869071  1
  Te2-  Te135  1  0.99334501  0.74414476  0.88191960  1
  Te2-  Te136  1  0.25490696  0.00450993  0.88140487  1
  Te2-  Te137  1  0.25348472  0.50627507  0.88162894  1
  Te2-  Te138  1  0.75124485  -0.00099930  0.88094967  1
  Te2-  Te139  1  0.75675574  0.50454024  0.88157656  1
  Te2-  Te140  1  0.25658709  0.24423950  0.88118669  1
  Te2-  Te141  1  0.25368623  0.74302865  0.88408990  1
  Te2-  Te142  1  0.75233186  0.24204236  0.88244539  1
  Te2-  Te143  1  0.75497186  0.74303586  0.88326874  1
  Te2-  Te144  1  0.33111465  0.41834880  0.21734271  1
  Te2-  Te145  1  0.32971180  0.91198869  0.21870143  1
  Te2-  Te146  1  0.82997998  0.41415206  0.21591385  1
  Te2-  Te147  1  0.82928725  0.91460907  0.21586223  1
  Te2-  Te148  1  0.08632513  0.17282844  0.21575463  1
  Te2-  Te149  1  0.08659482  0.67178496  0.21741123  1
  Te2-  Te150  1  0.58428310  0.17011523  0.21585318  1
  Te2-  Te151  1  0.59212456  0.67702936  0.22130758  1
  Te2-  Te152  1  0.08689361  0.41393611  0.22020924  1
  Te2-  Te153  1  0.08662882  0.91417804  0.21572974  1
  Te2-  Te154  1  0.58563251  0.41629961  0.21686091  1
  Te2-  Te155  1  0.59197476  0.91632202  0.21784497  1
  Te2-  Te156  1  0.16423438  0.07898117  0.54913853  1
  Te2-  Te157  1  0.16121862  0.58804998  0.55321056  1
  Te2-  Te158  1  0.66301830  0.08366778  0.54683841  1
  Te2-  Te159  1  0.65513702  0.57550693  0.55321730  1
  Te2-  Te160  1  0.41808461  0.33710395  0.55039693  1
  Te2-  Te161  1  0.42451638  0.84041449  0.55318829  1
  Te2-  Te162  1  0.91746948  0.34586052  0.55029447  1
  Te2-  Te163  1  0.91335749  0.83778111  0.55070715  1
  Te2-  Te164  1  0.42595360  0.08351605  0.54886911  1
  Te2-  Te165  1  0.41317275  0.57706254  0.55346383  1
  Te2-  Te166  1  0.92129557  0.08747714  0.54521969  1
  Te2-  Te167  1  0.91608138  0.58390516  0.54754253  1
  Te2-  Te168  1  0.00058402  0.00118065  0.88013564  1
  Te2-  Te169  1  -0.00003493  0.50009242  0.88088184  1
  Te2-  Te170  1  0.49875784  -0.00051202  0.88173226  1
  Te2-  Te171  1  0.50049294  0.49991957  0.88072621  1
  Te2-  Te172  1  0.33121220  0.16566297  0.21620573  1
  Te2-  Te173  1  0.33321365  0.66648059  0.21775643  1
  Te2-  Te174  1  0.83413125  0.16656785  0.21454896  1
  Te2-  Te175  1  0.83432295  0.66800356  0.21563087  1
  Te2-  Te176  1  0.16529525  0.33262343  0.55109079  1
  Te2-  Te177  1  0.16537495  0.83496930  0.55135279  1
  Te2-  Te178  1  0.66613362  0.33399594  0.54820279  1
  Te2-  Te179  1  0.66736896  0.83615632  0.55174217  1
  Te2-  Te180  1  0.32358306  0.41206265  0.70431263  1
  Te2-  Te181  1  0.32494857  0.91426524  0.70762185  1
  Te2-  Te182  1  0.82539569  0.41513676  0.70750392  1
  Te2-  Te183  1  0.82706559  0.91834792  0.70696006  1
  Te2-  Te184  1  0.08580843  0.17320939  0.70482319  1
  Te2-  Te185  1  0.08199250  0.67443805  0.70749756  1
  Te2-  Te186  1  0.58600724  0.17202044  0.70992733  1
  Te2-  Te187  1  0.58641500  0.67868049  0.70670398  1
  Te2-  Te188  1  0.08667270  0.41424721  0.70503066  1
  Te2-  Te189  1  0.08478840  0.91219883  0.70592143  1
  Te2-  Te190  1  0.58640756  0.41272440  0.70689041  1
  Te2-  Te191  1  0.58858018  0.91700213  0.70862531  1
  Te2-  Te192  1  0.16025739  0.07964303  0.04443299  1
  Te2-  Te193  1  0.16168620  0.57902603  0.04757855  1
  Te2-  Te194  1  0.66117654  0.07976604  0.04431674  1
  Te2-  Te195  1  0.65955068  0.57775293  0.04592440  1
  Te2-  Te196  1  0.41935433  0.33784852  0.04606614  1
  Te2-  Te197  1  0.41862564  0.83958285  0.04589587  1
  Te2-  Te198  1  0.92132183  0.33875155  0.04494565  1
  Te2-  Te199  1  0.91893326  0.83812282  0.04444648  1
  Te2-  Te200  1  0.41800041  0.07980747  0.04590591  1
  Te2-  Te201  1  0.41845901  0.57685827  0.04598836  1
  Te2-  Te202  1  0.91886953  0.07964282  0.04335142  1
  Te2-  Te203  1  0.91875114  0.58009247  0.04557745  1
  Te2-  Te204  1  0.49389912  0.24784126  0.37736524  1
  Te2-  Te205  1  0.49255419  0.74679502  0.37988975  1
  Te2-  Te206  1  0.99349832  0.24678823  0.37695006  1
  Te2-  Te207  1  0.99744778  0.75094124  0.37966935  1
  Te2-  Te208  1  0.25374604  0.00736928  0.37728519  1
  Te2-  Te209  1  0.25358931  0.50803459  0.37962044  1
  Te2-  Te210  1  0.75314801  0.00235505  0.37866746  1
  Te2-  Te211  1  0.75272381  0.50675973  0.37791958  1
  Te2-  Te212  1  0.25099747  0.24914462  0.37969724  1
  Te2-  Te213  1  0.25305038  0.74663811  0.37942115  1
  Te2-  Te214  1  0.75273903  0.24801693  0.37679242  1
  Te2-  Te215  1  0.75545901  0.74794438  0.37967513  1
