# generated using pymatgen
data_Ti(CuTe)4
_symmetry_space_group_name_H-M   'P 1'
_cell_length_a   16.86729378
_cell_length_b   16.86935085
_cell_length_c   20.68059592
_cell_angle_alpha   90.06649639
_cell_angle_beta   89.94627737
_cell_angle_gamma   119.98601420
_symmetry_Int_Tables_number   1
_chemical_formula_structural   Ti(CuTe)4
_chemical_formula_sum   'Ti24 Cu96 Te96'
_cell_volume   5096.80853298
_cell_formula_units_Z   24
loop_
 _symmetry_equiv_pos_site_id
 _symmetry_equiv_pos_as_xyz
  1  'x, y, z'
loop_
 _atom_type_symbol
 _atom_type_oxidation_number
  Ti4+  4.0
  Cu+  1.0
  Te2-  -2.0
loop_
 _atom_site_type_symbol
 _atom_site_label
 _atom_site_symmetry_multiplicity
 _atom_site_fract_x
 _atom_site_fract_y
 _atom_site_fract_z
 _atom_site_occupancy
  Ti4+  Ti0  1  0.00256199  -0.00088669  0.26146736  1
  Ti4+  Ti1  1  -0.00020723  0.49819521  0.25693796  1
  Ti4+  Ti2  1  0.49986064  -0.00165452  0.25429379  1
  Ti4+  Ti3  1  0.49962642  0.50232339  0.26045778  1
  Ti4+  Ti4  1  0.32867737  0.16497323  0.59043471  1
  Ti4+  Ti5  1  0.33354284  0.66455325  0.59133779  1
  Ti4+  Ti6  1  0.83137166  0.16736724  0.59055887  1
  Ti4+  Ti7  1  0.83176725  0.66742393  0.59335665  1
  Ti4+  Ti8  1  0.16780650  0.33488188  0.92503927  1
  Ti4+  Ti9  1  0.16974033  0.83632134  0.92338498  1
  Ti4+  Ti10  1  0.66850353  0.33304025  0.92188374  1
  Ti4+  Ti11  1  0.66975998  0.83162106  0.92623863  1
  Ti4+  Ti12  1  0.00045857  0.00115846  0.75621572  1
  Ti4+  Ti13  1  -0.00098378  0.49929374  0.75390629  1
  Ti4+  Ti14  1  0.49792655  0.00015350  0.75424702  1
  Ti4+  Ti15  1  0.50024089  0.50184562  0.75674628  1
  Ti4+  Ti16  1  0.33149981  0.16482064  0.09105032  1
  Ti4+  Ti17  1  0.33503966  0.66709989  0.08786279  1
  Ti4+  Ti18  1  0.83467886  0.16868259  0.08760707  1
  Ti4+  Ti19  1  0.83470824  0.66818908  0.09039875  1
  Ti4+  Ti20  1  0.16629043  0.33340904  0.42097833  1
  Ti4+  Ti21  1  0.16567627  0.83423979  0.42373290  1
  Ti4+  Ti22  1  0.66605595  0.33384357  0.42153683  1
  Ti4+  Ti23  1  0.66611174  0.83235393  0.42236857  1
  Cu+  Cu24  1  0.52389148  0.75925249  0.14091731  1
  Cu+  Cu25  1  0.57826744  0.64898511  0.47732681  1
  Cu+  Cu26  1  0.34494180  0.41849104  0.47878778  1
  Cu+  Cu27  1  0.91579554  0.81943015  0.81084179  1
  Cu+  Cu28  1  0.90832755  0.31011444  0.80551605  1
  Cu+  Cu29  1  0.06721966  0.92177004  0.47787841  1
  Cu+  Cu30  1  0.06928577  0.15135415  0.47743120  1
  Cu+  Cu31  1  0.19156318  0.09717561  0.80817075  1
  Cu+  Cu32  1  0.18990672  0.59347698  0.80662450  1
  Cu+  Cu33  1  0.24179297  0.47900708  0.14271226  1
  Cu+  Cu34  1  0.23503204  0.97180229  0.14155581  1
  Cu+  Cu35  1  0.68579004  0.59026368  0.81085947  1
  Cu+  Cu36  1  0.16390800  0.07612049  0.17495681  1
  Cu+  Cu37  1  0.16213531  0.57645526  0.16933908  1
  Cu+  Cu38  1  0.66414263  0.08233450  0.16775254  1
  Cu+  Cu39  1  0.66557708  0.58455336  0.17335826  1
  Cu+  Cu40  1  0.41617306  0.33584357  0.17399500  1
  Cu+  Cu41  1  0.42512352  0.83854691  0.16652675  1
  Cu+  Cu42  1  0.91860919  0.33853531  0.16920502  1
  Cu+  Cu43  1  0.92166183  0.83665171  0.17419744  1
  Cu+  Cu44  1  0.41186884  0.07615049  0.16979154  1
  Cu+  Cu45  1  0.41956162  0.58315720  0.17222348  1
  Cu+  Cu46  1  0.91929391  0.08508143  0.17471885  1
  Cu+  Cu47  1  0.91827761  0.58237681  0.17170912  1
  Cu+  Cu48  1  0.49640188  0.24719109  0.50295183  1
  Cu+  Cu49  1  0.49767287  0.74476947  0.50308706  1
  Cu+  Cu50  1  0.99252888  0.24690756  0.50359519  1
  Cu+  Cu51  1  0.99695078  0.75177098  0.50705178  1
  Cu+  Cu52  1  0.24366889  0.00115368  0.50364479  1
  Cu+  Cu53  1  0.25437048  0.50540607  0.50265032  1
  Cu+  Cu54  1  0.74900235  0.00333560  0.50348745  1
  Cu+  Cu55  1  0.74836137  0.50212253  0.50510286  1
  Cu+  Cu56  1  0.24843818  0.24422736  0.50151155  1
  Cu+  Cu57  1  0.25003184  0.74716296  0.50633754  1
  Cu+  Cu58  1  0.75068027  0.24980359  0.50427542  1
  Cu+  Cu59  1  0.74995345  0.74687529  0.50558407  1
  Cu+  Cu60  1  0.32957251  0.41646352  0.83886257  1
  Cu+  Cu61  1  0.32967621  0.91759429  0.83582926  1
  Cu+  Cu62  1  0.82821670  0.40930586  0.83277729  1
  Cu+  Cu63  1  0.83077506  0.91079082  0.83724255  1
  Cu+  Cu64  1  0.09094289  0.17112120  0.83673838  1
  Cu+  Cu65  1  0.09007429  0.66941527  0.83424731  1
  Cu+  Cu66  1  0.58549860  0.17063573  0.83477313  1
  Cu+  Cu67  1  0.59046013  0.67017859  0.83923179  1
  Cu+  Cu68  1  0.08423217  0.41679537  0.83707394  1
  Cu+  Cu69  1  0.08976081  0.91978755  0.83716291  1
  Cu+  Cu70  1  0.58640745  0.41727101  0.83681065  1
  Cu+  Cu71  1  0.58367978  0.91537765  0.83993293  1
  Cu+  Cu72  1  0.16668199  0.08623241  0.68064304  1
  Cu+  Cu73  1  0.17058514  0.58551372  0.67746657  1
  Cu+  Cu74  1  0.66598600  0.08407450  0.67306363  1
  Cu+  Cu75  1  0.66799889  0.58695700  0.68234329  1
  Cu+  Cu76  1  0.41120382  0.33183342  0.67562505  1
  Cu+  Cu77  1  0.41397618  0.83137361  0.67354921  1
  Cu+  Cu78  1  0.91280007  0.32913389  0.67641935  1
  Cu+  Cu79  1  0.91388068  0.83224233  0.68211678  1
  Cu+  Cu80  1  0.41142918  0.08256061  0.67242493  1
  Cu+  Cu81  1  0.41568932  0.58377391  0.67721471  1
  Cu+  Cu82  1  0.91429912  0.08529822  0.67550864  1
  Cu+  Cu83  1  0.91484294  0.58466832  0.67414215  1
  Cu+  Cu84  1  0.00246149  0.25252415  0.00820451  1
  Cu+  Cu85  1  0.00218262  0.75298807  0.00754010  1
  Cu+  Cu86  1  0.50353534  0.25440076  0.00662096  1
  Cu+  Cu87  1  0.50612623  0.75152684  0.01226655  1
  Cu+  Cu88  1  0.24834799  0.49847901  0.01349544  1
  Cu+  Cu89  1  0.24642570  0.99822933  0.01324443  1
  Cu+  Cu90  1  0.74881159  0.49872702  0.00672597  1
  Cu+  Cu91  1  0.75188583  0.99800007  0.00837151  1
  Cu+  Cu92  1  0.24926686  0.25025054  0.01097313  1
  Cu+  Cu93  1  0.25136125  0.75222237  0.00710561  1
  Cu+  Cu94  1  0.75115991  0.25239674  0.00553031  1
  Cu+  Cu95  1  0.75278295  0.75076575  0.01306932  1
  Cu+  Cu96  1  0.33514106  0.42209057  0.34877480  1
  Cu+  Cu97  1  0.33570199  0.91646245  0.33917515  1
  Cu+  Cu98  1  0.83556902  0.41892961  0.34021765  1
  Cu+  Cu99  1  0.83470816  0.91649040  0.34328665  1
  Cu+  Cu100  1  0.08317589  0.16407199  0.34743092  1
  Cu+  Cu101  1  0.08095609  0.66184940  0.34014478  1
  Cu+  Cu102  1  0.58175879  0.16413793  0.33683127  1
  Cu+  Cu103  1  0.58162331  0.66541018  0.34861409  1
  Cu+  Cu104  1  0.08033440  0.41696545  0.34053727  1
  Cu+  Cu105  1  0.08332362  0.91860941  0.35003988  1
  Cu+  Cu106  1  0.58259836  0.41868507  0.34219960  1
  Cu+  Cu107  1  0.58329311  0.91850643  0.33928572  1
  Cu+  Cu108  1  -0.00332268  0.00176138  0.11965860  1
  Cu+  Cu109  1  -0.00276045  0.50216677  0.11253222  1
  Cu+  Cu110  1  0.50363897  0.00731779  0.10942207  1
  Cu+  Cu111  1  0.50283457  0.49734296  0.11726510  1
  Cu+  Cu112  1  0.33807956  0.16411970  0.44588163  1
  Cu+  Cu113  1  0.33414439  0.67330119  0.44757630  1
  Cu+  Cu114  1  0.82714370  0.16582369  0.44677420  1
  Cu+  Cu115  1  0.83577419  0.66375780  0.44959501  1
  Cu+  Cu116  1  0.16534962  0.33447529  0.78055937  1
  Cu+  Cu117  1  0.16576190  0.83128809  0.77789564  1
  Cu+  Cu118  1  0.66130406  0.33126299  0.77596225  1
  Cu+  Cu119  1  0.66326401  0.83674322  0.78354010  1
  Te2-  Te120  1  -0.00314530  -0.00134246  0.39350818  1
  Te2-  Te121  1  -0.00126092  0.49886574  0.38645629  1
  Te2-  Te122  1  0.50034958  0.00038641  0.38309953  1
  Te2-  Te123  1  0.50090668  0.49920291  0.39248260  1
  Te2-  Te124  1  0.33398225  0.16796139  0.72085227  1
  Te2-  Te125  1  0.33610833  0.66858991  0.72191179  1
  Te2-  Te126  1  0.82910726  0.16356654  0.72127428  1
  Te2-  Te127  1  0.83473955  0.66614618  0.72522784  1
  Te2-  Te128  1  0.16600653  0.33178266  0.05531329  1
  Te2-  Te129  1  0.16594877  0.83068408  0.05357038  1
  Te2-  Te130  1  0.66822941  0.33401342  0.05063081  1
  Te2-  Te131  1  0.67218017  0.83501812  0.05662279  1
  Te2-  Te132  1  0.49731414  0.24969556  0.88043738  1
  Te2-  Te133  1  0.49917705  0.74643228  0.88475826  1
  Te2-  Te134  1  0.99606579  0.24487195  0.88182368  1
  Te2-  Te135  1  0.99815355  0.74605494  0.88128071  1
  Te2-  Te136  1  0.25707980  0.01035630  0.88524593  1
  Te2-  Te137  1  0.25454007  0.50811624  0.88526327  1
  Te2-  Te138  1  0.75377649  0.00130421  0.88223689  1
  Te2-  Te139  1  0.75840531  0.50627987  0.88079591  1
  Te2-  Te140  1  0.25779343  0.25038706  0.88510826  1
  Te2-  Te141  1  0.25770934  0.75088425  0.88132531  1
  Te2-  Te142  1  0.75243276  0.24263017  0.87984701  1
  Te2-  Te143  1  0.75943174  0.74414927  0.88654747  1
  Te2-  Te144  1  0.32666536  0.41347079  0.22030505  1
  Te2-  Te145  1  0.32577525  0.90598838  0.21332823  1
  Te2-  Te146  1  0.82822089  0.41452947  0.21438380  1
  Te2-  Te147  1  0.83271659  0.91590794  0.21751876  1
  Te2-  Te148  1  0.08786577  0.16914074  0.21960867  1
  Te2-  Te149  1  0.08699014  0.66926387  0.21416027  1
  Te2-  Te150  1  0.58208820  0.16859408  0.21074611  1
  Te2-  Te151  1  0.58936793  0.67511830  0.22032224  1
  Te2-  Te152  1  0.08452257  0.40813622  0.21503607  1
  Te2-  Te153  1  0.08636713  0.90826217  0.22230267  1
  Te2-  Te154  1  0.58416557  0.41681159  0.21679565  1
  Te2-  Te155  1  0.59225528  0.91592923  0.21373811  1
  Te2-  Te156  1  0.15253387  0.07816928  0.55247430  1
  Te2-  Te157  1  0.16227719  0.57908612  0.55035608  1
  Te2-  Te158  1  0.66037772  0.08160592  0.54740359  1
  Te2-  Te159  1  0.65862764  0.57786027  0.55428501  1
  Te2-  Te160  1  0.41920730  0.33752649  0.54952822  1
  Te2-  Te161  1  0.41937762  0.83464904  0.54757194  1
  Te2-  Te162  1  0.91844227  0.33882696  0.54930007  1
  Te2-  Te163  1  0.91502007  0.84064306  0.55423652  1
  Te2-  Te164  1  0.41236096  0.07903965  0.54654627  1
  Te2-  Te165  1  0.42197918  0.57618779  0.55104765  1
  Te2-  Te166  1  0.91508549  0.07676929  0.55001463  1
  Te2-  Te167  1  0.91686725  0.58317512  0.54848450  1
  Te2-  Te168  1  0.00081255  0.00127734  0.88380035  1
  Te2-  Te169  1  -0.00226283  0.50065483  0.88138579  1
  Te2-  Te170  1  0.49987128  0.00172959  0.88080824  1
  Te2-  Te171  1  0.50009062  0.49968804  0.88372377  1
  Te2-  Te172  1  0.33453427  0.16647385  0.21800359  1
  Te2-  Te173  1  0.33268944  0.66841004  0.21503631  1
  Te2-  Te174  1  0.83244681  0.16900907  0.21414930  1
  Te2-  Te175  1  0.83467567  0.66676507  0.21705575  1
  Te2-  Te176  1  0.16521646  0.33357655  0.54855077  1
  Te2-  Te177  1  0.16669083  0.83279058  0.55102480  1
  Te2-  Te178  1  0.66442667  0.33237745  0.54832893  1
  Te2-  Te179  1  0.66603476  0.83474726  0.54954344  1
  Te2-  Te180  1  0.32642841  0.41489000  0.71310863  1
  Te2-  Te181  1  0.32564510  0.91325667  0.70932818  1
  Te2-  Te182  1  0.82573721  0.41470636  0.70696498  1
  Te2-  Te183  1  0.82578809  0.91607752  0.71149374  1
  Te2-  Te184  1  0.08343137  0.17465549  0.71038522  1
  Te2-  Te185  1  0.08483269  0.67241052  0.70746234  1
  Te2-  Te186  1  0.58238380  0.17110691  0.70782650  1
  Te2-  Te187  1  0.58535410  0.67607470  0.71250692  1
  Te2-  Te188  1  0.08565527  0.41281381  0.70860098  1
  Te2-  Te189  1  0.08693114  0.91346359  0.70915695  1
  Te2-  Te190  1  0.58233611  0.41252900  0.70895369  1
  Te2-  Te191  1  0.58409502  0.91430345  0.71136551  1
  Te2-  Te192  1  0.15792499  0.08091764  0.04738934  1
  Te2-  Te193  1  0.16093441  0.58327566  0.04261989  1
  Te2-  Te194  1  0.66376232  0.08154604  0.04104551  1
  Te2-  Te195  1  0.66195666  0.58034094  0.04649744  1
  Te2-  Te196  1  0.41876199  0.33765093  0.04720942  1
  Te2-  Te197  1  0.42127676  0.84024432  0.04079776  1
  Te2-  Te198  1  0.92060986  0.34095410  0.04267940  1
  Te2-  Te199  1  0.92307252  0.84168603  0.04741809  1
  Te2-  Te200  1  0.42040444  0.08368165  0.04198255  1
  Te2-  Te201  1  0.42163995  0.57895497  0.04431560  1
  Te2-  Te202  1  0.92149550  0.08246400  0.04614870  1
  Te2-  Te203  1  0.91911837  0.58251260  0.04378010  1
  Te2-  Te204  1  0.49515965  0.24748239  0.37547858  1
  Te2-  Te205  1  0.49306918  0.74957225  0.37638150  1
  Te2-  Te206  1  0.99266298  0.24717069  0.37658928  1
  Te2-  Te207  1  0.99347071  0.74438654  0.37848482  1
  Te2-  Te208  1  0.25638013  0.00651317  0.37662419  1
  Te2-  Te209  1  0.24936187  0.50815968  0.37693841  1
  Te2-  Te210  1  0.75224861  0.00455464  0.37732469  1
  Te2-  Te211  1  0.75260180  0.50620187  0.37791145  1
  Te2-  Te212  1  0.25617924  0.24792936  0.37502257  1
  Te2-  Te213  1  0.25025410  0.74777155  0.37870060  1
  Te2-  Te214  1  0.75115112  0.24809323  0.37647102  1
  Te2-  Te215  1  0.75509988  0.74676764  0.37859005  1
