# generated using pymatgen
data_Ti(CuTe)4
_symmetry_space_group_name_H-M   'P 1'
_cell_length_a   16.86580925
_cell_length_b   16.86580966
_cell_length_c   20.67394835
_cell_angle_alpha   90.01353767
_cell_angle_beta   89.97759666
_cell_angle_gamma   119.99305069
_symmetry_Int_Tables_number   1
_chemical_formula_structural   Ti(CuTe)4
_chemical_formula_sum   'Ti24 Cu96 Te96'
_cell_volume   5093.29477025
_cell_formula_units_Z   24
loop_
 _symmetry_equiv_pos_site_id
 _symmetry_equiv_pos_as_xyz
  1  'x, y, z'
loop_
 _atom_type_symbol
 _atom_type_oxidation_number
  Ti4+  4.0
  Cu+  1.0
  Te2-  -2.0
loop_
 _atom_site_type_symbol
 _atom_site_label
 _atom_site_symmetry_multiplicity
 _atom_site_fract_x
 _atom_site_fract_y
 _atom_site_fract_z
 _atom_site_occupancy
  Ti4+  Ti0  1  0.00187082  -0.00040053  0.25554743  1
  Ti4+  Ti1  1  0.00153388  0.49782195  0.25902752  1
  Ti4+  Ti2  1  0.49724122  -0.00326771  0.25838540  1
  Ti4+  Ti3  1  0.50192908  0.50098732  0.25778651  1
  Ti4+  Ti4  1  0.32993259  0.16929989  0.58807443  1
  Ti4+  Ti5  1  0.33239457  0.66711218  0.59425039  1
  Ti4+  Ti6  1  0.83163093  0.16540957  0.59079680  1
  Ti4+  Ti7  1  0.83237869  0.66764334  0.59144364  1
  Ti4+  Ti8  1  0.16735371  0.33371827  0.92587508  1
  Ti4+  Ti9  1  0.16870573  0.83203343  0.92305136  1
  Ti4+  Ti10  1  0.66786549  0.33274415  0.92157296  1
  Ti4+  Ti11  1  0.66730105  0.83579576  0.92985652  1
  Ti4+  Ti12  1  -0.00133487  0.00033106  0.75775553  1
  Ti4+  Ti13  1  0.00002720  0.49989485  0.75330747  1
  Ti4+  Ti14  1  0.50033820  0.00178550  0.75540406  1
  Ti4+  Ti15  1  0.49814460  0.50033834  0.75604101  1
  Ti4+  Ti16  1  0.33209831  0.16419617  0.08864266  1
  Ti4+  Ti17  1  0.33402047  0.66753064  0.08956036  1
  Ti4+  Ti18  1  0.83649044  0.16931042  0.08923702  1
  Ti4+  Ti19  1  0.83266485  0.66666270  0.08620012  1
  Ti4+  Ti20  1  0.16708279  0.33218351  0.42126082  1
  Ti4+  Ti21  1  0.16572928  0.83201410  0.42289329  1
  Ti4+  Ti22  1  0.66673547  0.33282629  0.41971665  1
  Ti4+  Ti23  1  0.66585158  0.83474152  0.42445024  1
  Cu+  Cu24  1  0.02823576  0.26410234  0.14138075  1
  Cu+  Cu25  1  0.51114889  0.75508776  0.15014796  1
  Cu+  Cu26  1  0.41689232  0.82290143  0.81507022  1
  Cu+  Cu27  1  0.35417231  0.43044743  0.47326042  1
  Cu+  Cu28  1  0.18342682  0.58664231  0.81028065  1
  Cu+  Cu29  1  0.06996624  0.14466627  0.47115419  1
  Cu+  Cu30  1  0.69067861  0.09291080  0.80925108  1
  Cu+  Cu31  1  0.07403580  0.42657996  0.47690119  1
  Cu+  Cu32  1  0.23610440  0.97131686  0.13757855  1
  Cu+  Cu33  1  0.56706146  0.92950369  0.47765123  1
  Cu+  Cu34  1  0.74467669  0.75519565  0.14663518  1
  Cu+  Cu35  1  0.74739660  0.99313808  0.15020548  1
  Cu+  Cu36  1  0.16421765  0.07631412  0.16852209  1
  Cu+  Cu37  1  0.16296616  0.57943593  0.17236428  1
  Cu+  Cu38  1  0.66179190  0.08027699  0.17067899  1
  Cu+  Cu39  1  0.66335368  0.58203674  0.16833423  1
  Cu+  Cu40  1  0.41827372  0.33627545  0.17173855  1
  Cu+  Cu41  1  0.42017482  0.83802423  0.17008236  1
  Cu+  Cu42  1  0.92613390  0.33710896  0.17120486  1
  Cu+  Cu43  1  0.91902938  0.83642943  0.16590648  1
  Cu+  Cu44  1  0.40993128  0.07516763  0.17090862  1
  Cu+  Cu45  1  0.41953225  0.58133401  0.17154497  1
  Cu+  Cu46  1  0.92418993  0.08714313  0.16912032  1
  Cu+  Cu47  1  0.91738691  0.58090584  0.17054175  1
  Cu+  Cu48  1  0.49665200  0.25194698  0.50110996  1
  Cu+  Cu49  1  0.49772842  0.75546343  0.50705126  1
  Cu+  Cu50  1  0.99590741  0.24665013  0.50199003  1
  Cu+  Cu51  1  0.99557537  0.74996960  0.50544438  1
  Cu+  Cu52  1  0.24741517  0.00288364  0.50321382  1
  Cu+  Cu53  1  0.25110348  0.50284537  0.50510703  1
  Cu+  Cu54  1  0.74504248  0.00240743  0.50445544  1
  Cu+  Cu55  1  0.74987817  0.50344351  0.50356333  1
  Cu+  Cu56  1  0.25095375  0.24767891  0.49935631  1
  Cu+  Cu57  1  0.24952331  0.74792707  0.50739438  1
  Cu+  Cu58  1  0.74880783  0.24677285  0.50244620  1
  Cu+  Cu59  1  0.75267100  0.74926598  0.50640936  1
  Cu+  Cu60  1  0.32969394  0.41450140  0.83804986  1
  Cu+  Cu61  1  0.32912571  0.91225666  0.83601508  1
  Cu+  Cu62  1  0.82861089  0.41368998  0.83427396  1
  Cu+  Cu63  1  0.83127830  0.91611437  0.84231184  1
  Cu+  Cu64  1  0.08251161  0.16932513  0.84063936  1
  Cu+  Cu65  1  0.08920948  0.66881346  0.83418217  1
  Cu+  Cu66  1  0.59146977  0.17178043  0.83477035  1
  Cu+  Cu67  1  0.58351799  0.66771941  0.84136818  1
  Cu+  Cu68  1  0.08562863  0.41461434  0.83833886  1
  Cu+  Cu69  1  0.08758963  0.91817239  0.83904871  1
  Cu+  Cu70  1  0.58340219  0.41455983  0.83652538  1
  Cu+  Cu71  1  0.58967195  0.91803882  0.84095801  1
  Cu+  Cu72  1  0.16600004  0.08673490  0.67314902  1
  Cu+  Cu73  1  0.16836833  0.58292444  0.68149179  1
  Cu+  Cu74  1  0.66797686  0.08456696  0.68068171  1
  Cu+  Cu75  1  0.66873235  0.58672865  0.67430731  1
  Cu+  Cu76  1  0.41234371  0.33345635  0.67214824  1
  Cu+  Cu77  1  0.41403009  0.83294335  0.68448207  1
  Cu+  Cu78  1  0.91519739  0.33119218  0.67394012  1
  Cu+  Cu79  1  0.91379929  0.83068416  0.67612649  1
  Cu+  Cu80  1  0.41327626  0.08776596  0.67162130  1
  Cu+  Cu81  1  0.41629332  0.58481437  0.67648177  1
  Cu+  Cu82  1  0.91346721  0.08137222  0.67465201  1
  Cu+  Cu83  1  0.91306040  0.58503299  0.67328009  1
  Cu+  Cu84  1  0.00700340  0.25628269  0.01283069  1
  Cu+  Cu85  1  0.00114635  0.74894831  0.00389723  1
  Cu+  Cu86  1  0.50366786  0.25141040  0.00421138  1
  Cu+  Cu87  1  0.50180302  0.75264716  0.01754979  1
  Cu+  Cu88  1  0.24912993  0.49929754  0.01016379  1
  Cu+  Cu89  1  0.24800578  0.99386651  0.00998964  1
  Cu+  Cu90  1  0.74804279  0.49678960  0.00415892  1
  Cu+  Cu91  1  0.75016676  1.00112403  0.01738461  1
  Cu+  Cu92  1  0.24960701  0.25050582  0.00745745  1
  Cu+  Cu93  1  0.24955327  0.74881601  0.00924319  1
  Cu+  Cu94  1  0.75081336  0.25378518  0.00659528  1
  Cu+  Cu95  1  0.74774799  0.75153973  0.01580750  1
  Cu+  Cu96  1  0.33911517  0.41978922  0.34464059  1
  Cu+  Cu97  1  0.33235828  0.91328722  0.34292136  1
  Cu+  Cu98  1  0.83645250  0.41514968  0.34024457  1
  Cu+  Cu99  1  0.83393376  0.91761380  0.34274636  1
  Cu+  Cu100  1  0.08348535  0.16329534  0.34264001  1
  Cu+  Cu101  1  0.08248710  0.66249308  0.34246619  1
  Cu+  Cu102  1  0.58162995  0.16310547  0.33946956  1
  Cu+  Cu103  1  0.58386813  0.66693665  0.34522778  1
  Cu+  Cu104  1  0.08231217  0.41646465  0.34743975  1
  Cu+  Cu105  1  0.08257208  0.91504583  0.34045710  1
  Cu+  Cu106  1  0.58441287  0.41848238  0.33911799  1
  Cu+  Cu107  1  0.58130987  0.91746950  0.34925579  1
  Cu+  Cu108  1  0.00160498  -0.00006268  0.10943396  1
  Cu+  Cu109  1  -0.00198501  0.50243128  0.11528231  1
  Cu+  Cu110  1  0.50090012  0.00601545  0.11342415  1
  Cu+  Cu111  1  0.49864408  0.49480299  0.11310727  1
  Cu+  Cu112  1  0.33690817  0.16246478  0.44370861  1
  Cu+  Cu113  1  0.33410188  0.66762472  0.45091626  1
  Cu+  Cu114  1  0.83214099  0.16657359  0.44604683  1
  Cu+  Cu115  1  0.83384406  0.66477007  0.44792271  1
  Cu+  Cu116  1  0.16632405  0.32944344  0.78236329  1
  Cu+  Cu117  1  0.16077759  0.83318259  0.77954709  1
  Cu+  Cu118  1  0.66435053  0.33664787  0.77729754  1
  Cu+  Cu119  1  0.66903869  0.82962020  0.78666836  1
  Te2-  Te120  1  -0.00064547  -0.00326282  0.38555284  1
  Te2-  Te121  1  -0.00122006  0.49905989  0.38983423  1
  Te2-  Te122  1  0.49659502  0.00044731  0.38871925  1
  Te2-  Te123  1  0.50499097  0.50201996  0.38834225  1
  Te2-  Te124  1  0.33075447  0.16922390  0.71694876  1
  Te2-  Te125  1  0.33478478  0.66610465  0.72582481  1
  Te2-  Te126  1  0.83550178  0.16738475  0.72109876  1
  Te2-  Te127  1  0.83191733  0.66656556  0.72090124  1
  Te2-  Te128  1  0.17291076  0.33599188  0.05671871  1
  Te2-  Te129  1  0.16335999  0.82724405  0.05353434  1
  Te2-  Te130  1  0.66671289  0.33377246  0.05097465  1
  Te2-  Te131  1  0.66735830  0.83577391  0.06291419  1
  Te2-  Te132  1  0.49669271  0.24549526  0.87844255  1
  Te2-  Te133  1  0.49556359  0.74676596  0.88877899  1
  Te2-  Te134  1  0.99551898  0.24934856  0.88574082  1
  Te2-  Te135  1  0.99918631  0.74719392  0.87808969  1
  Te2-  Te136  1  0.25520661  0.00388366  0.88321476  1
  Te2-  Te137  1  0.25637892  0.50719630  0.88438310  1
  Te2-  Te138  1  0.75707837  0.00843699  0.88885324  1
  Te2-  Te139  1  0.75229126  0.50426129  0.87848963  1
  Te2-  Te140  1  0.25155406  0.24731786  0.88172006  1
  Te2-  Te141  1  0.25710476  0.74365792  0.88334013  1
  Te2-  Te142  1  0.75950113  0.24882578  0.88118413  1
  Te2-  Te143  1  0.75043311  0.74873725  0.88783626  1
  Te2-  Te144  1  0.33035080  0.41547776  0.21743234  1
  Te2-  Te145  1  0.32377948  0.90654598  0.21697366  1
  Te2-  Te146  1  0.83170693  0.41196141  0.21404461  1
  Te2-  Te147  1  0.82715108  0.91395110  0.21634921  1
  Te2-  Te148  1  0.09253669  0.17250153  0.21553825  1
  Te2-  Te149  1  0.08484719  0.66884080  0.21638491  1
  Te2-  Te150  1  0.58003761  0.16613125  0.21343863  1
  Te2-  Te151  1  0.58994794  0.67726650  0.21905618  1
  Te2-  Te152  1  0.09326505  0.41427006  0.21996796  1
  Te2-  Te153  1  0.08348570  0.90793938  0.21456163  1
  Te2-  Te154  1  0.58712150  0.41592494  0.21343508  1
  Te2-  Te155  1  0.58849082  0.91177872  0.22105895  1
  Te2-  Te156  1  0.15582960  0.07916898  0.54717085  1
  Te2-  Te157  1  0.15967584  0.58049734  0.55352214  1
  Te2-  Te158  1  0.65729148  0.08222319  0.55270424  1
  Te2-  Te159  1  0.66052786  0.58159055  0.54852285  1
  Te2-  Te160  1  0.42007837  0.34297644  0.54632798  1
  Te2-  Te161  1  0.41540571  0.84094306  0.55581992  1
  Te2-  Te162  1  0.91659751  0.33777608  0.54780594  1
  Te2-  Te163  1  0.91917871  0.84047822  0.55041023  1
  Te2-  Te164  1  0.41604508  0.08415969  0.54563756  1
  Te2-  Te165  1  0.42211522  0.58546568  0.55031099  1
  Te2-  Te166  1  0.91472177  0.07638291  0.54827745  1
  Te2-  Te167  1  0.91760192  0.58152545  0.54748958  1
  Te2-  Te168  1  0.00152801  0.00029337  0.88435486  1
  Te2-  Te169  1  -0.00127482  0.49954750  0.88026726  1
  Te2-  Te170  1  0.50018598  0.00204093  0.88293321  1
  Te2-  Te171  1  0.49878079  0.49748387  0.88269581  1
  Te2-  Te172  1  0.33291531  0.16682437  0.21569967  1
  Te2-  Te173  1  0.33376660  0.66683213  0.21675460  1
  Te2-  Te174  1  0.83270824  0.16655432  0.21712927  1
  Te2-  Te175  1  0.83387091  0.66677180  0.21389080  1
  Te2-  Te176  1  0.16533778  0.33192244  0.54945125  1
  Te2-  Te177  1  0.16474347  0.83458576  0.54931704  1
  Te2-  Te178  1  0.66522232  0.33378186  0.54623440  1
  Te2-  Te179  1  0.66743031  0.83389625  0.55123888  1
  Te2-  Te180  1  0.32556864  0.41486265  0.71129626  1
  Te2-  Te181  1  0.32626399  0.91868063  0.71009280  1
  Te2-  Te182  1  0.82770078  0.41431277  0.70836102  1
  Te2-  Te183  1  0.82629316  0.91282402  0.71473849  1
  Te2-  Te184  1  0.08279200  0.17160371  0.71260792  1
  Te2-  Te185  1  0.08410188  0.67295520  0.70762579  1
  Te2-  Te186  1  0.58317738  0.17361244  0.70804678  1
  Te2-  Te187  1  0.58608977  0.67330280  0.71374084  1
  Te2-  Te188  1  0.08462587  0.40987075  0.71061369  1
  Te2-  Te189  1  0.08495556  0.91667611  0.71123229  1
  Te2-  Te190  1  0.58301863  0.41549350  0.70899723  1
  Te2-  Te191  1  0.58723660  0.91257168  0.71300392  1
  Te2-  Te192  1  0.16063602  0.07974330  0.04125724  1
  Te2-  Te193  1  0.16071724  0.57975982  0.04620493  1
  Te2-  Te194  1  0.66199404  0.08497823  0.04397828  1
  Te2-  Te195  1  0.65907806  0.57759606  0.04146865  1
  Te2-  Te196  1  0.41931130  0.33600334  0.04396217  1
  Te2-  Te197  1  0.41888668  0.84230492  0.04425877  1
  Te2-  Te198  1  0.92032449  0.34172288  0.04419300  1
  Te2-  Te199  1  0.92223699  0.83996038  0.03955019  1
  Te2-  Te200  1  0.42056501  0.08149784  0.04253802  1
  Te2-  Te201  1  0.41958570  0.57925154  0.04471589  1
  Te2-  Te202  1  0.92369200  0.08286296  0.04187358  1
  Te2-  Te203  1  0.91768467  0.57997062  0.04263297  1
  Te2-  Te204  1  0.49537964  0.24784222  0.37397507  1
  Te2-  Te205  1  0.49239882  0.74531884  0.37976619  1
  Te2-  Te206  1  0.99250072  0.24360502  0.37446048  1
  Te2-  Te207  1  0.99436308  0.74557193  0.37788118  1
  Te2-  Te208  1  0.25169573  0.00340272  0.37622032  1
  Te2-  Te209  1  0.25512515  0.50743900  0.37735945  1
  Te2-  Te210  1  0.75410270  0.00718759  0.37749581  1
  Te2-  Te211  1  0.75440861  0.50470991  0.37582266  1
  Te2-  Te212  1  0.25543656  0.24679777  0.37303153  1
  Te2-  Te213  1  0.25166881  0.74442564  0.38075808  1
  Te2-  Te214  1  0.75150674  0.24483440  0.37583645  1
  Te2-  Te215  1  0.75342283  0.74898010  0.38014807  1
