# generated using pymatgen
data_Ti(CuTe)4
_symmetry_space_group_name_H-M   'P 1'
_cell_length_a   16.87591544
_cell_length_b   16.87297364
_cell_length_c   20.68584122
_cell_angle_alpha   89.94871391
_cell_angle_beta   90.02169700
_cell_angle_gamma   120.01156294
_symmetry_Int_Tables_number   1
_chemical_formula_structural   Ti(CuTe)4
_chemical_formula_sum   'Ti24 Cu96 Te96'
_cell_volume   5100.49114249
_cell_formula_units_Z   24
loop_
 _symmetry_equiv_pos_site_id
 _symmetry_equiv_pos_as_xyz
  1  'x, y, z'
loop_
 _atom_type_symbol
 _atom_type_oxidation_number
  Ti4+  4.0
  Cu+  1.0
  Te2-  -2.0
loop_
 _atom_site_type_symbol
 _atom_site_label
 _atom_site_symmetry_multiplicity
 _atom_site_fract_x
 _atom_site_fract_y
 _atom_site_fract_z
 _atom_site_occupancy
  Ti4+  Ti0  1  0.00186985  -0.00394894  0.25719316  1
  Ti4+  Ti1  1  -0.00316268  0.49525724  0.25989476  1
  Ti4+  Ti2  1  0.50036879  -0.00249807  0.25780829  1
  Ti4+  Ti3  1  0.50016133  0.49910622  0.25745696  1
  Ti4+  Ti4  1  0.33191576  0.16704587  0.59165263  1
  Ti4+  Ti5  1  0.33176889  0.66627220  0.59010161  1
  Ti4+  Ti6  1  0.83384121  0.17014753  0.59250103  1
  Ti4+  Ti7  1  0.83118186  0.66617698  0.58988458  1
  Ti4+  Ti8  1  0.17036365  0.33621074  0.92278004  1
  Ti4+  Ti9  1  0.16754842  0.83768017  0.92719513  1
  Ti4+  Ti10  1  0.66904477  0.33534933  0.92815125  1
  Ti4+  Ti11  1  0.66588172  0.83680123  0.91958447  1
  Ti4+  Ti12  1  0.00208634  0.00019208  0.75480443  1
  Ti4+  Ti13  1  -0.00219154  0.49908964  0.75812348  1
  Ti4+  Ti14  1  0.50192188  0.00101391  0.75413192  1
  Ti4+  Ti15  1  0.49798192  0.50100016  0.75580046  1
  Ti4+  Ti16  1  0.33359899  0.16514327  0.08814841  1
  Ti4+  Ti17  1  0.33361941  0.66663452  0.08914888  1
  Ti4+  Ti18  1  0.83368108  0.16773863  0.09046227  1
  Ti4+  Ti19  1  0.83327795  0.66676919  0.08708756  1
  Ti4+  Ti20  1  0.16582403  0.33159375  0.42170162  1
  Ti4+  Ti21  1  0.16486372  0.83202800  0.42247501  1
  Ti4+  Ti22  1  0.66592146  0.33231069  0.42268989  1
  Ti4+  Ti23  1  0.66698456  0.83164172  0.42203122  1
  Cu+  Cu24  1  0.01410063  0.74857307  0.14282081  1
  Cu+  Cu25  1  0.56984548  0.42857631  0.47317408  1
  Cu+  Cu26  1  0.68643834  0.09968055  0.80851569  1
  Cu+  Cu27  1  0.40254667  0.59894212  0.80363337  1
  Cu+  Cu28  1  0.24563951  0.98065636  0.14453152  1
  Cu+  Cu29  1  0.19296880  0.09646250  0.80911705  1
  Cu+  Cu30  1  0.84516307  0.42636381  0.47973709  1
  Cu+  Cu31  1  0.73698215  0.25467606  0.14530203  1
  Cu+  Cu32  1  0.07879583  0.42875411  0.47655684  1
  Cu+  Cu33  1  0.07057110  0.92999300  0.47506703  1
  Cu+  Cu34  1  0.91721122  0.09780074  0.80847712  1
  Cu+  Cu35  1  0.73882219  0.48360822  0.14516639  1
  Cu+  Cu36  1  0.16443386  0.07585731  0.16904895  1
  Cu+  Cu37  1  0.16481862  0.57630793  0.17267004  1
  Cu+  Cu38  1  0.66412064  0.08227614  0.17196399  1
  Cu+  Cu39  1  0.66087125  0.57860293  0.16873415  1
  Cu+  Cu40  1  0.41809952  0.33549650  0.17080970  1
  Cu+  Cu41  1  0.42047342  0.83465287  0.17070092  1
  Cu+  Cu42  1  0.91400292  0.33328589  0.17331323  1
  Cu+  Cu43  1  0.92333163  0.83647193  0.16723476  1
  Cu+  Cu44  1  0.41736612  0.07699811  0.16977773  1
  Cu+  Cu45  1  0.41792606  0.58099879  0.17130372  1
  Cu+  Cu46  1  0.91859747  0.07978899  0.17206360  1
  Cu+  Cu47  1  0.91487900  0.57597795  0.16999811  1
  Cu+  Cu48  1  0.49675632  0.25334251  0.50420651  1
  Cu+  Cu49  1  0.49710786  0.74823006  0.50515659  1
  Cu+  Cu50  1  0.99771757  0.25271555  0.50364699  1
  Cu+  Cu51  1  0.99710424  0.75322430  0.50252296  1
  Cu+  Cu52  1  0.24555905  0.00121532  0.50537739  1
  Cu+  Cu53  1  0.25033123  0.50332557  0.50401299  1
  Cu+  Cu54  1  0.74919360  0.00196377  0.50680990  1
  Cu+  Cu55  1  0.74804378  0.50315136  0.50295438  1
  Cu+  Cu56  1  0.25150590  0.24608639  0.50392757  1
  Cu+  Cu57  1  0.25138120  0.74731624  0.50376846  1
  Cu+  Cu58  1  0.75495522  0.24990348  0.50409959  1
  Cu+  Cu59  1  0.75104715  0.74671483  0.50245193  1
  Cu+  Cu60  1  0.33161370  0.42284532  0.83559935  1
  Cu+  Cu61  1  0.33144881  0.91874929  0.83805742  1
  Cu+  Cu62  1  0.83010819  0.41673026  0.84169626  1
  Cu+  Cu63  1  0.83014177  0.91938994  0.83295778  1
  Cu+  Cu64  1  0.09054428  0.17090528  0.83647859  1
  Cu+  Cu65  1  0.08086872  0.66823626  0.84213182  1
  Cu+  Cu66  1  0.58782452  0.17057630  0.83950895  1
  Cu+  Cu67  1  0.57829718  0.67073263  0.83500167  1
  Cu+  Cu68  1  0.08630306  0.41708874  0.83732663  1
  Cu+  Cu69  1  0.09184084  0.92020758  0.83882770  1
  Cu+  Cu70  1  0.58793806  0.41923531  0.84170152  1
  Cu+  Cu71  1  0.59105011  0.92101376  0.83131860  1
  Cu+  Cu72  1  0.17011639  0.08122344  0.68076078  1
  Cu+  Cu73  1  0.16427327  0.58277558  0.67556396  1
  Cu+  Cu74  1  0.67014094  0.08613395  0.67893251  1
  Cu+  Cu75  1  0.66687172  0.58141464  0.67434172  1
  Cu+  Cu76  1  0.41678060  0.33167617  0.67650446  1
  Cu+  Cu77  1  0.41440411  0.83217470  0.67308509  1
  Cu+  Cu78  1  0.91482931  0.33538472  0.67827421  1
  Cu+  Cu79  1  0.91753866  0.82948487  0.67484762  1
  Cu+  Cu80  1  0.41564971  0.08413413  0.67317071  1
  Cu+  Cu81  1  0.41110544  0.58448458  0.67592187  1
  Cu+  Cu82  1  0.91449681  0.08465966  0.67842368  1
  Cu+  Cu83  1  0.91212443  0.58208328  0.67492937  1
  Cu+  Cu84  1  0.00475383  0.25183240  0.00861185  1
  Cu+  Cu85  1  0.00306312  0.75566885  0.01365033  1
  Cu+  Cu86  1  0.50294940  0.25130977  0.00941411  1
  Cu+  Cu87  1  0.50109104  0.75204850  0.00420093  1
  Cu+  Cu88  1  0.25100401  0.50009134  0.00802831  1
  Cu+  Cu89  1  0.24857781  0.99921694  0.01495229  1
  Cu+  Cu90  1  0.74949082  0.49876304  0.01536228  1
  Cu+  Cu91  1  0.75067995  1.00060583  0.00707685  1
  Cu+  Cu92  1  0.25166554  0.25316477  0.00649946  1
  Cu+  Cu93  1  0.24805792  0.75036270  0.00904346  1
  Cu+  Cu94  1  0.75172258  0.25381622  0.01653533  1
  Cu+  Cu95  1  0.74635817  0.75233507  0.00201967  1
  Cu+  Cu96  1  0.33430579  0.41462823  0.34059982  1
  Cu+  Cu97  1  0.33557999  0.91529371  0.34271898  1
  Cu+  Cu98  1  0.83268142  0.41264422  0.35086968  1
  Cu+  Cu99  1  0.83586712  0.91577309  0.34017724  1
  Cu+  Cu100  1  0.08481183  0.16240331  0.34011533  1
  Cu+  Cu101  1  0.08187199  0.66254579  0.34289575  1
  Cu+  Cu102  1  0.58063143  0.16060657  0.34292730  1
  Cu+  Cu103  1  0.58278081  0.66299183  0.33997113  1
  Cu+  Cu104  1  0.07886884  0.41363240  0.34744612  1
  Cu+  Cu105  1  0.08227475  0.91566861  0.34681867  1
  Cu+  Cu106  1  0.58019135  0.41642903  0.34533254  1
  Cu+  Cu107  1  0.58350095  0.91691148  0.34023713  1
  Cu+  Cu108  1  -0.00037419  0.00379568  0.11273324  1
  Cu+  Cu109  1  0.00441901  0.49922645  0.11639799  1
  Cu+  Cu110  1  0.50220031  -0.00300831  0.11269892  1
  Cu+  Cu111  1  0.49633385  0.50037752  0.11323373  1
  Cu+  Cu112  1  0.33493060  0.16258398  0.44817293  1
  Cu+  Cu113  1  0.33659263  0.66762227  0.44662488  1
  Cu+  Cu114  1  0.83423320  0.16020942  0.44927051  1
  Cu+  Cu115  1  0.83412639  0.66699006  0.44408425  1
  Cu+  Cu116  1  0.16629935  0.33360989  0.77755251  1
  Cu+  Cu117  1  0.16767036  0.82756396  0.78515927  1
  Cu+  Cu118  1  0.66325967  0.33394275  0.78514067  1
  Cu+  Cu119  1  0.66802806  0.83042977  0.77424391  1
  Te2-  Te120  1  -0.00091783  -0.00055731  0.38757026  1
  Te2-  Te121  1  -0.00072967  0.49980560  0.39180235  1
  Te2-  Te122  1  0.49977421  -0.00346959  0.38698184  1
  Te2-  Te123  1  0.49739786  0.50016944  0.38805877  1
  Te2-  Te124  1  0.33700840  0.16776547  0.72220021  1
  Te2-  Te125  1  0.32888253  0.66872319  0.72031580  1
  Te2-  Te126  1  0.83572203  0.17104844  0.72433319  1
  Te2-  Te127  1  0.83087476  0.66526167  0.71873798  1
  Te2-  Te128  1  0.16964685  0.33521596  0.05143684  1
  Te2-  Te129  1  0.16811881  0.83270682  0.05925374  1
  Te2-  Te130  1  0.66497481  0.33305697  0.06042547  1
  Te2-  Te131  1  0.66570098  0.83494771  0.04833848  1
  Te2-  Te132  1  0.49941686  0.24979545  0.88359643  1
  Te2-  Te133  1  0.49231527  0.75425300  0.87851820  1
  Te2-  Te134  1  0.99729259  0.25006110  0.88244433  1
  Te2-  Te135  1  0.99699674  0.75309079  0.88608157  1
  Te2-  Te136  1  0.25927261  0.01161214  0.88705488  1
  Te2-  Te137  1  0.25246203  0.51069537  0.88241713  1
  Te2-  Te138  1  0.75778948  0.01434440  0.88101161  1
  Te2-  Te139  1  0.75418345  0.50690071  0.88812134  1
  Te2-  Te140  1  0.26063998  0.25377193  0.88048791  1
  Te2-  Te141  1  0.25074974  0.75111172  0.88310019  1
  Te2-  Te142  1  0.75736236  0.25054953  0.88829460  1
  Te2-  Te143  1  0.74905972  0.75013266  0.87607492  1
  Te2-  Te144  1  0.32879713  0.41294370  0.21500845  1
  Te2-  Te145  1  0.32681257  0.90736059  0.21686190  1
  Te2-  Te146  1  0.82146073  0.40932647  0.22156969  1
  Te2-  Te147  1  0.83122952  0.91107211  0.21430862  1
  Te2-  Te148  1  0.08762270  0.16672547  0.21430739  1
  Te2-  Te149  1  0.08648026  0.66697541  0.21683310  1
  Te2-  Te150  1  0.58262942  0.17146960  0.21726189  1
  Te2-  Te151  1  0.58624398  0.67006699  0.21431392  1
  Te2-  Te152  1  0.08140554  0.40965713  0.21981858  1
  Te2-  Te153  1  0.08928780  0.90721122  0.21815456  1
  Te2-  Te154  1  0.58407621  0.40911258  0.21795351  1
  Te2-  Te155  1  0.58773695  0.91431272  0.21442875  1
  Te2-  Te156  1  0.15723153  0.08114438  0.55300068  1
  Te2-  Te157  1  0.15758730  0.58171255  0.54997667  1
  Te2-  Te158  1  0.66292772  0.08418236  0.55167834  1
  Te2-  Te159  1  0.65742748  0.58054479  0.54865713  1
  Te2-  Te160  1  0.41712839  0.34140994  0.55077549  1
  Te2-  Te161  1  0.41807967  0.83776085  0.54758506  1
  Te2-  Te162  1  0.92235065  0.34624112  0.55200590  1
  Te2-  Te163  1  0.91689215  0.84043088  0.54913684  1
  Te2-  Te164  1  0.41676515  0.08308213  0.54697883  1
  Te2-  Te165  1  0.41688234  0.58005663  0.54901410  1
  Te2-  Te166  1  0.91875914  0.08513555  0.55047153  1
  Te2-  Te167  1  0.92098307  0.58389980  0.54853414  1
  Te2-  Te168  1  -0.00066538  -0.00017321  0.88218209  1
  Te2-  Te169  1  0.00038313  0.49955161  0.88475318  1
  Te2-  Te170  1  0.50145982  -0.00021658  0.88139321  1
  Te2-  Te171  1  0.50086281  0.50282778  0.88272946  1
  Te2-  Te172  1  0.33387004  0.16467881  0.21508771  1
  Te2-  Te173  1  0.33426327  0.66507241  0.21581734  1
  Te2-  Te174  1  0.83353826  0.16288610  0.21758174  1
  Te2-  Te175  1  0.83210841  0.66582541  0.21472733  1
  Te2-  Te176  1  0.16716349  0.33287592  0.54874523  1
  Te2-  Te177  1  0.16615682  0.83160589  0.54928216  1
  Te2-  Te178  1  0.66653171  0.33267136  0.55018511  1
  Te2-  Te179  1  0.66658573  0.83203197  0.54852643  1
  Te2-  Te180  1  0.32590813  0.41228646  0.70903108  1
  Te2-  Te181  1  0.32855949  0.91522718  0.71154516  1
  Te2-  Te182  1  0.82450411  0.41397078  0.71495620  1
  Te2-  Te183  1  0.82939890  0.91245624  0.70693726  1
  Te2-  Te184  1  0.08746964  0.17342362  0.70821750  1
  Te2-  Te185  1  0.08206347  0.67011400  0.71382604  1
  Te2-  Te186  1  0.58572536  0.17450753  0.71104221  1
  Te2-  Te187  1  0.58463504  0.67104406  0.70715832  1
  Te2-  Te188  1  0.08501229  0.41392332  0.71171053  1
  Te2-  Te189  1  0.08600745  0.90955556  0.71232304  1
  Te2-  Te190  1  0.58531381  0.41427881  0.71437443  1
  Te2-  Te191  1  0.58547141  0.91234112  0.70580893  1
  Te2-  Te192  1  0.16028647  0.08353435  0.04251233  1
  Te2-  Te193  1  0.16133442  0.58008217  0.04531992  1
  Te2-  Te194  1  0.66115853  0.08002025  0.04416451  1
  Te2-  Te195  1  0.66028989  0.58358133  0.04179062  1
  Te2-  Te196  1  0.42043470  0.33845701  0.04473922  1
  Te2-  Te197  1  0.41868510  0.83833407  0.04393519  1
  Te2-  Te198  1  0.92457622  0.34118070  0.04613081  1
  Te2-  Te199  1  0.91509402  0.84020841  0.04146535  1
  Te2-  Te200  1  0.42270248  0.08064481  0.04297615  1
  Te2-  Te201  1  0.42072250  0.58284561  0.04361357  1
  Te2-  Te202  1  0.91948051  0.08236630  0.04475284  1
  Te2-  Te203  1  0.92334111  0.58160154  0.04280313  1
  Te2-  Te204  1  0.49357190  0.24415383  0.37712512  1
  Te2-  Te205  1  0.49581880  0.74645624  0.37733936  1
  Te2-  Te206  1  0.99289207  0.24089898  0.37656838  1
  Te2-  Te207  1  0.99216763  0.74281297  0.37558710  1
  Te2-  Te208  1  0.25461921  0.00459654  0.37752975  1
  Te2-  Te209  1  0.25308222  0.50422514  0.37629941  1
  Te2-  Te210  1  0.75320294  0.00319565  0.37834042  1
  Te2-  Te211  1  0.75248459  0.50632691  0.37528282  1
  Te2-  Te212  1  0.25321433  0.24563029  0.37840968  1
  Te2-  Te213  1  0.25137383  0.74527629  0.37820801  1
  Te2-  Te214  1  0.74973208  0.24072619  0.37858908  1
  Te2-  Te215  1  0.75274289  0.74567498  0.37632056  1
