# generated using pymatgen
data_Ti(CuTe)4
_symmetry_space_group_name_H-M   'P 1'
_cell_length_a   16.86428691
_cell_length_b   16.86778017
_cell_length_c   20.67874162
_cell_angle_alpha   90.07720601
_cell_angle_beta   89.96008370
_cell_angle_gamma   119.97959076
_symmetry_Int_Tables_number   1
_chemical_formula_structural   Ti(CuTe)4
_chemical_formula_sum   'Ti24 Cu96 Te96'
_cell_volume   5095.29739609
_cell_formula_units_Z   24
loop_
 _symmetry_equiv_pos_site_id
 _symmetry_equiv_pos_as_xyz
  1  'x, y, z'
loop_
 _atom_type_symbol
 _atom_type_oxidation_number
  Ti4+  4.0
  Cu+  1.0
  Te2-  -2.0
loop_
 _atom_site_type_symbol
 _atom_site_label
 _atom_site_symmetry_multiplicity
 _atom_site_fract_x
 _atom_site_fract_y
 _atom_site_fract_z
 _atom_site_occupancy
  Ti4+  Ti0  1  -0.00174538  -0.00380720  0.25480435  1
  Ti4+  Ti1  1  0.00086912  0.49789584  0.26114957  1
  Ti4+  Ti2  1  0.50023674  -0.00057438  0.25429268  1
  Ti4+  Ti3  1  0.49915032  0.49560309  0.25868122  1
  Ti4+  Ti4  1  0.33212690  0.16621319  0.59063505  1
  Ti4+  Ti5  1  0.33077660  0.66348319  0.58955758  1
  Ti4+  Ti6  1  0.83257700  0.16714305  0.59282315  1
  Ti4+  Ti7  1  0.83132625  0.66626874  0.59249480  1
  Ti4+  Ti8  1  0.16578612  0.33707299  0.92560848  1
  Ti4+  Ti9  1  0.17016914  0.83474503  0.92325967  1
  Ti4+  Ti10  1  0.66994440  0.33770854  0.92704023  1
  Ti4+  Ti11  1  0.66939444  0.83431656  0.92349816  1
  Ti4+  Ti12  1  -0.00119661  0.00100713  0.75451075  1
  Ti4+  Ti13  1  0.00095555  0.50026660  0.75673233  1
  Ti4+  Ti14  1  0.49805807  0.00034197  0.75535573  1
  Ti4+  Ti15  1  0.50239577  0.50322892  0.75835132  1
  Ti4+  Ti16  1  0.33425368  0.16820028  0.08628103  1
  Ti4+  Ti17  1  0.33286273  0.66591955  0.09117014  1
  Ti4+  Ti18  1  0.83286497  0.16700871  0.08863466  1
  Ti4+  Ti19  1  0.83496612  0.66880150  0.08909448  1
  Ti4+  Ti20  1  0.16624848  0.33362988  0.42026793  1
  Ti4+  Ti21  1  0.16575048  0.83173434  0.42174171  1
  Ti4+  Ti22  1  0.66645176  0.33380784  0.42297694  1
  Ti4+  Ti23  1  0.66557453  0.83144363  0.42235989  1
  Cu+  Cu24  1  0.19089886  0.59481302  0.80730464  1
  Cu+  Cu25  1  0.69578708  0.59707606  0.80972599  1
  Cu+  Cu26  1  0.07203947  0.41962839  0.47993639  1
  Cu+  Cu27  1  0.90600455  0.31358868  0.80973469  1
  Cu+  Cu28  1  0.23729045  0.47288055  0.14444805  1
  Cu+  Cu29  1  0.73700424  0.97330576  0.13760472  1
  Cu+  Cu30  1  0.57603789  0.64485517  0.47418169  1
  Cu+  Cu31  1  0.06740102  0.64645045  0.47685003  1
  Cu+  Cu32  1  0.23917678  0.97636079  0.13770783  1
  Cu+  Cu33  1  0.34527863  0.41954013  0.47781041  1
  Cu+  Cu34  1  0.51485573  0.25397183  0.14222956  1
  Cu+  Cu35  1  0.74781167  0.48492821  0.14512481  1
  Cu+  Cu36  1  0.16304793  0.07590031  0.16713796  1
  Cu+  Cu37  1  0.16571825  0.57690347  0.17525107  1
  Cu+  Cu38  1  0.66479807  0.07707351  0.16739398  1
  Cu+  Cu39  1  0.66571949  0.57957370  0.17078247  1
  Cu+  Cu40  1  0.42239003  0.33808595  0.16808774  1
  Cu+  Cu41  1  0.42008378  0.83809766  0.16887701  1
  Cu+  Cu42  1  0.92052553  0.33766473  0.17276930  1
  Cu+  Cu43  1  0.92046689  0.83956574  0.16781796  1
  Cu+  Cu44  1  0.41637917  0.07958355  0.16660782  1
  Cu+  Cu45  1  0.41246934  0.57692465  0.17394419  1
  Cu+  Cu46  1  0.91148607  0.07625728  0.16913282  1
  Cu+  Cu47  1  0.91892139  0.58304544  0.17470601  1
  Cu+  Cu48  1  0.49606172  0.24736250  0.50417537  1
  Cu+  Cu49  1  0.49779011  0.74442136  0.50206780  1
  Cu+  Cu50  1  0.99305044  0.24800886  0.50374971  1
  Cu+  Cu51  1  0.99642072  0.74708231  0.50574345  1
  Cu+  Cu52  1  0.25111738  0.00395823  0.50387329  1
  Cu+  Cu53  1  0.25067751  0.50457102  0.49970209  1
  Cu+  Cu54  1  0.75067515  0.00367011  0.50573950  1
  Cu+  Cu55  1  0.74879566  0.50339735  0.50534392  1
  Cu+  Cu56  1  0.25313648  0.24698371  0.50187242  1
  Cu+  Cu57  1  0.24641449  0.74499730  0.50240584  1
  Cu+  Cu58  1  0.74998477  0.24923898  0.50591974  1
  Cu+  Cu59  1  0.74756222  0.74595791  0.50586108  1
  Cu+  Cu60  1  0.33146781  0.42074583  0.84029469  1
  Cu+  Cu61  1  0.32963541  0.91579760  0.83666560  1
  Cu+  Cu62  1  0.83106733  0.41454766  0.83880279  1
  Cu+  Cu63  1  0.82979919  0.91707778  0.83662563  1
  Cu+  Cu64  1  0.08396426  0.17052925  0.83751235  1
  Cu+  Cu65  1  0.09255619  0.67214399  0.83662505  1
  Cu+  Cu66  1  0.58318472  0.17024642  0.83984813  1
  Cu+  Cu67  1  0.59258688  0.67165548  0.83796163  1
  Cu+  Cu68  1  0.08658258  0.41788983  0.83770667  1
  Cu+  Cu69  1  0.08510843  0.91719050  0.83791867  1
  Cu+  Cu70  1  0.59098933  0.42410886  0.84203527  1
  Cu+  Cu71  1  0.58416988  0.91672937  0.83820317  1
  Cu+  Cu72  1  0.16909422  0.08588010  0.67286319  1
  Cu+  Cu73  1  0.16710660  0.58331126  0.68026280  1
  Cu+  Cu74  1  0.66692168  0.08565121  0.67566626  1
  Cu+  Cu75  1  0.66948540  0.58613822  0.68200147  1
  Cu+  Cu76  1  0.41433932  0.33102644  0.67627863  1
  Cu+  Cu77  1  0.41290208  0.83011644  0.67259785  1
  Cu+  Cu78  1  0.91366043  0.33037217  0.68141451  1
  Cu+  Cu79  1  0.91371791  0.83212730  0.67450603  1
  Cu+  Cu80  1  0.41360732  0.08410493  0.67386681  1
  Cu+  Cu81  1  0.41544419  0.58239213  0.67659902  1
  Cu+  Cu82  1  0.91501211  0.08603604  0.67471162  1
  Cu+  Cu83  1  0.91559318  0.58412658  0.67718468  1
  Cu+  Cu84  1  0.00091296  0.25534716  0.00889145  1
  Cu+  Cu85  1  0.00456563  0.75375982  0.00577467  1
  Cu+  Cu86  1  0.50528659  0.25882335  0.01329976  1
  Cu+  Cu87  1  0.50276227  0.75091485  0.00619706  1
  Cu+  Cu88  1  0.24648947  0.49765529  0.01545444  1
  Cu+  Cu89  1  0.24874400  0.99745893  0.00892709  1
  Cu+  Cu90  1  0.75134809  0.50126088  0.01549798  1
  Cu+  Cu91  1  0.74726129  0.99602487  0.00942937  1
  Cu+  Cu92  1  0.24886900  0.25457320  0.00713844  1
  Cu+  Cu93  1  0.25076636  0.75128315  0.00846144  1
  Cu+  Cu94  1  0.75250469  0.25458345  0.01023833  1
  Cu+  Cu95  1  0.75272615  0.75344352  0.00806803  1
  Cu+  Cu96  1  0.33386578  0.41542928  0.34707173  1
  Cu+  Cu97  1  0.33574718  0.91944443  0.33904653  1
  Cu+  Cu98  1  0.83307493  0.41792631  0.34496226  1
  Cu+  Cu99  1  0.83408711  0.91663586  0.34030123  1
  Cu+  Cu100  1  0.07890841  0.16085892  0.33664774  1
  Cu+  Cu101  1  0.08215947  0.66196355  0.34721600  1
  Cu+  Cu102  1  0.58340446  0.16499510  0.33869387  1
  Cu+  Cu103  1  0.58019105  0.66073377  0.34529393  1
  Cu+  Cu104  1  0.08254346  0.41657579  0.34972121  1
  Cu+  Cu105  1  0.08232143  0.91711865  0.33971472  1
  Cu+  Cu106  1  0.58468141  0.41548098  0.34371063  1
  Cu+  Cu107  1  0.58428093  0.91904136  0.34012162  1
  Cu+  Cu108  1  0.00313470  0.00800326  0.10989276  1
  Cu+  Cu109  1  0.00293429  0.50561452  0.11863978  1
  Cu+  Cu110  1  0.50111226  0.00188765  0.10792667  1
  Cu+  Cu111  1  0.50353078  0.50837627  0.11554545  1
  Cu+  Cu112  1  0.33491663  0.16365617  0.44547874  1
  Cu+  Cu113  1  0.33771510  0.67477851  0.44470420  1
  Cu+  Cu114  1  0.82736720  0.16298089  0.44881395  1
  Cu+  Cu115  1  0.83519630  0.67065978  0.44858579  1
  Cu+  Cu116  1  0.16942168  0.33141817  0.78210761  1
  Cu+  Cu117  1  0.16553218  0.83727757  0.78003465  1
  Cu+  Cu118  1  0.66088494  0.33109262  0.78485764  1
  Cu+  Cu119  1  0.66330173  0.83597817  0.78019484  1
  Te2-  Te120  1  -0.00131277  -0.00205359  0.38388760  1
  Te2-  Te121  1  -0.00341817  0.49682548  0.39327307  1
  Te2-  Te122  1  0.50035226  0.00026131  0.38290930  1
  Te2-  Te123  1  0.50000893  0.49519678  0.39045617  1
  Te2-  Te124  1  0.33219246  0.16652307  0.71988226  1
  Te2-  Te125  1  0.33486450  0.66688843  0.71972092  1
  Te2-  Te126  1  0.83012467  0.16391420  0.72352857  1
  Te2-  Te127  1  0.83706673  0.66945720  0.72284689  1
  Te2-  Te128  1  0.16361553  0.33104773  0.05645713  1
  Te2-  Te129  1  0.16720156  0.83180896  0.05374664  1
  Te2-  Te130  1  0.67022501  0.33526411  0.05923407  1
  Te2-  Te131  1  0.66558212  0.82993601  0.05386837  1
  Te2-  Te132  1  0.49980922  0.25506905  0.88561006  1
  Te2-  Te133  1  0.49892321  0.74746536  0.88051600  1
  Te2-  Te134  1  0.99312407  0.24751295  0.88310789  1
  Te2-  Te135  1  0.99953103  0.74787083  0.88020497  1
  Te2-  Te136  1  0.25305586  0.00608193  0.88189221  1
  Te2-  Te137  1  0.25536804  0.51090157  0.88713183  1
  Te2-  Te138  1  0.75204707  0.00561974  0.88252511  1
  Te2-  Te139  1  0.76132305  0.51071763  0.88757890  1
  Te2-  Te140  1  0.25149747  0.25223964  0.88175938  1
  Te2-  Te141  1  0.26014661  0.74977134  0.88286393  1
  Te2-  Te142  1  0.75117177  0.24629665  0.88474324  1
  Te2-  Te143  1  0.76127555  0.75151464  0.88279378  1
  Te2-  Te144  1  0.32585907  0.40632157  0.21893281  1
  Te2-  Te145  1  0.32645903  0.91125354  0.21325834  1
  Te2-  Te146  1  0.82824063  0.41148842  0.21938003  1
  Te2-  Te147  1  0.82341388  0.90735747  0.21466911  1
  Te2-  Te148  1  0.08254331  0.16574450  0.21037288  1
  Te2-  Te149  1  0.08662378  0.66767611  0.21942993  1
  Te2-  Te150  1  0.58943210  0.17121862  0.21235390  1
  Te2-  Te151  1  0.58300426  0.66523622  0.21721939  1
  Te2-  Te152  1  0.08487276  0.40794106  0.22176843  1
  Te2-  Te153  1  0.08532565  0.90823020  0.21424409  1
  Te2-  Te154  1  0.58932722  0.41023839  0.21774124  1
  Te2-  Te155  1  0.58553243  0.90994045  0.21463355  1
  Te2-  Te156  1  0.16051414  0.08110923  0.54723958  1
  Te2-  Te157  1  0.15496382  0.57679654  0.55187370  1
  Te2-  Te158  1  0.66146382  0.08194553  0.54988161  1
  Te2-  Te159  1  0.65724371  0.57694055  0.55403289  1
  Te2-  Te160  1  0.42182407  0.34026551  0.54997880  1
  Te2-  Te161  1  0.41602342  0.83244286  0.54608901  1
  Te2-  Te162  1  0.91681902  0.34088508  0.55333909  1
  Te2-  Te163  1  0.91648618  0.83591866  0.54833443  1
  Te2-  Te164  1  0.41809978  0.08017736  0.54813168  1
  Te2-  Te165  1  0.41917621  0.57610079  0.54996731  1
  Te2-  Te166  1  0.91867072  0.08210670  0.54906737  1
  Te2-  Te167  1  0.91514457  0.57653813  0.55153979  1
  Te2-  Te168  1  -0.00005760  0.00156030  0.88127808  1
  Te2-  Te169  1  0.00187274  0.50321189  0.88408638  1
  Te2-  Te170  1  0.49876931  0.00039712  0.88224513  1
  Te2-  Te171  1  0.50069791  0.50387898  0.88531173  1
  Te2-  Te172  1  0.33283178  0.16622079  0.21383320  1
  Te2-  Te173  1  0.33582867  0.66954463  0.21806265  1
  Te2-  Te174  1  0.83314109  0.16640216  0.21551929  1
  Te2-  Te175  1  0.83494471  0.66999875  0.21628850  1
  Te2-  Te176  1  0.16618690  0.33281341  0.54789199  1
  Te2-  Te177  1  0.16706816  0.83478293  0.54887225  1
  Te2-  Te178  1  0.66451644  0.33331707  0.54969403  1
  Te2-  Te179  1  0.66572173  0.83472232  0.54955355  1
  Te2-  Te180  1  0.32927772  0.41472320  0.71404499  1
  Te2-  Te181  1  0.32651108  0.91353669  0.70994026  1
  Te2-  Te182  1  0.82614691  0.41516642  0.71295959  1
  Te2-  Te183  1  0.82631986  0.91516223  0.71025388  1
  Te2-  Te184  1  0.08567451  0.17273475  0.71051343  1
  Te2-  Te185  1  0.08547057  0.67367088  0.71017506  1
  Te2-  Te186  1  0.58367036  0.17249247  0.71254206  1
  Te2-  Te187  1  0.58545612  0.67514315  0.71085223  1
  Te2-  Te188  1  0.08668536  0.41142563  0.71062227  1
  Te2-  Te189  1  0.08483113  0.91562827  0.71011187  1
  Te2-  Te190  1  0.58463574  0.41317847  0.71387398  1
  Te2-  Te191  1  0.58326464  0.91442386  0.71022704  1
  Te2-  Te192  1  0.16217367  0.08355873  0.03983405  1
  Te2-  Te193  1  0.15985241  0.58270912  0.04727179  1
  Te2-  Te194  1  0.66112314  0.08260313  0.04071912  1
  Te2-  Te195  1  0.66139198  0.58394845  0.04379579  1
  Te2-  Te196  1  0.41811538  0.34354053  0.04296029  1
  Te2-  Te197  1  0.42039725  0.83754021  0.04375639  1
  Te2-  Te198  1  0.92059393  0.34244839  0.04749070  1
  Te2-  Te199  1  0.92244958  0.84098318  0.04299385  1
  Te2-  Te200  1  0.42219588  0.08344308  0.03860763  1
  Te2-  Te201  1  0.42023379  0.58181254  0.04523318  1
  Te2-  Te202  1  0.92007838  0.08323144  0.04117940  1
  Te2-  Te203  1  0.92442011  0.58489940  0.04600314  1
  Te2-  Te204  1  0.49470819  0.24536826  0.37725425  1
  Te2-  Te205  1  0.49431361  0.74812324  0.37459491  1
  Te2-  Te206  1  0.99217331  0.24283405  0.37673224  1
  Te2-  Te207  1  0.99319838  0.74687975  0.37713165  1
  Te2-  Te208  1  0.25145892  0.00364807  0.37701142  1
  Te2-  Te209  1  0.25582269  0.50996274  0.37404248  1
  Te2-  Te210  1  0.75230171  0.00383432  0.37865420  1
  Te2-  Te211  1  0.75359083  0.50798810  0.37956888  1
  Te2-  Te212  1  0.24827315  0.24225383  0.37509661  1
  Te2-  Te213  1  0.25545091  0.74932598  0.37512361  1
  Te2-  Te214  1  0.75207334  0.24714740  0.37897154  1
  Te2-  Te215  1  0.75301503  0.74635669  0.37745815  1
