# generated using pymatgen
data_Ti(CuTe)4
_symmetry_space_group_name_H-M   'P 1'
_cell_length_a   16.89621255
_cell_length_b   16.89527450
_cell_length_c   20.72046033
_cell_angle_alpha   90.01429275
_cell_angle_beta   89.96949327
_cell_angle_gamma   119.99210718
_symmetry_Int_Tables_number   1
_chemical_formula_structural   Ti(CuTe)4
_chemical_formula_sum   'Ti24 Cu96 Te96'
_cell_volume   5122.93825432
_cell_formula_units_Z   24
loop_
 _symmetry_equiv_pos_site_id
 _symmetry_equiv_pos_as_xyz
  1  'x, y, z'
loop_
 _atom_type_symbol
 _atom_type_oxidation_number
  Ti4+  4.0
  Cu+  1.0
  Te2-  -2.0
loop_
 _atom_site_type_symbol
 _atom_site_label
 _atom_site_symmetry_multiplicity
 _atom_site_fract_x
 _atom_site_fract_y
 _atom_site_fract_z
 _atom_site_occupancy
  Ti4+  Ti0  1  -0.00009269  0.00064398  0.25601497  1
  Ti4+  Ti1  1  -0.00442927  0.49796085  0.26022622  1
  Ti4+  Ti2  1  0.49720880  -0.00145310  0.25469667  1
  Ti4+  Ti3  1  0.49995699  0.50334955  0.25940507  1
  Ti4+  Ti4  1  0.33530844  0.17188774  0.58969651  1
  Ti4+  Ti5  1  0.33299854  0.66842442  0.59202607  1
  Ti4+  Ti6  1  0.83180208  0.16666798  0.59324642  1
  Ti4+  Ti7  1  0.83487029  0.66673773  0.58948484  1
  Ti4+  Ti8  1  0.16972075  0.33336876  0.92299204  1
  Ti4+  Ti9  1  0.16811009  0.83066973  0.92620321  1
  Ti4+  Ti10  1  0.66657436  0.32998284  0.92407783  1
  Ti4+  Ti11  1  0.66885994  0.83202419  0.92384737  1
  Ti4+  Ti12  1  -0.00039274  0.00004328  0.75383241  1
  Ti4+  Ti13  1  0.00189226  0.50191468  0.75637607  1
  Ti4+  Ti14  1  0.50081629  0.00167163  0.75586969  1
  Ti4+  Ti15  1  0.49896930  0.49848679  0.75573287  1
  Ti4+  Ti16  1  0.33205572  0.16478243  0.08830901  1
  Ti4+  Ti17  1  0.33546623  0.66615345  0.08914741  1
  Ti4+  Ti18  1  0.83233223  0.16722502  0.08888086  1
  Ti4+  Ti19  1  0.83382729  0.66505446  0.08846372  1
  Ti4+  Ti20  1  0.16667046  0.33490927  0.42182391  1
  Ti4+  Ti21  1  0.16571228  0.83298962  0.42234021  1
  Ti4+  Ti22  1  0.66433974  0.33300742  0.42131108  1
  Ti4+  Ti23  1  0.66603714  0.83468724  0.42180988  1
  Cu+  Cu24  1  0.07766225  0.64799880  0.47589559  1
  Cu+  Cu25  1  0.84277273  0.41807780  0.48148384  1
  Cu+  Cu26  1  0.23835443  0.75109579  0.14482217  1
  Cu+  Cu27  1  0.23495974  0.98124100  0.14172705  1
  Cu+  Cu28  1  0.91487264  0.31975248  0.81127915  1
  Cu+  Cu29  1  0.35153213  0.43198824  0.47557919  1
  Cu+  Cu30  1  0.19204824  0.59525249  0.80935437  1
  Cu+  Cu31  1  0.57953286  0.42956563  0.47603054  1
  Cu+  Cu32  1  0.40646692  0.30801281  0.80807147  1
  Cu+  Cu33  1  0.73620369  0.26236389  0.14251787  1
  Cu+  Cu34  1  0.68410761  0.08604690  0.81057329  1
  Cu+  Cu35  1  0.52539553  0.76160145  0.13865154  1
  Cu+  Cu36  1  0.16063468  0.07863754  0.17018397  1
  Cu+  Cu37  1  0.16085115  0.58061168  0.17327268  1
  Cu+  Cu38  1  0.66223081  0.08614633  0.16833156  1
  Cu+  Cu39  1  0.66396414  0.58156728  0.17155561  1
  Cu+  Cu40  1  0.41549607  0.33703494  0.17386475  1
  Cu+  Cu41  1  0.41854719  0.83458792  0.16767349  1
  Cu+  Cu42  1  0.90968891  0.33450623  0.17267336  1
  Cu+  Cu43  1  0.91682779  0.83630012  0.16906556  1
  Cu+  Cu44  1  0.41142087  0.07647922  0.16830247  1
  Cu+  Cu45  1  0.42294618  0.58632061  0.17187743  1
  Cu+  Cu46  1  0.91922144  0.08363171  0.17116784  1
  Cu+  Cu47  1  0.91641433  0.57964684  0.17211141  1
  Cu+  Cu48  1  0.49481650  0.25418953  0.50221794  1
  Cu+  Cu49  1  0.49746708  0.75292414  0.50451638  1
  Cu+  Cu50  1  0.99636307  0.24978379  0.50522176  1
  Cu+  Cu51  1  0.99893044  0.74480811  0.50267043  1
  Cu+  Cu52  1  0.25291760  0.00529863  0.50462315  1
  Cu+  Cu53  1  0.25314210  0.50613910  0.50440729  1
  Cu+  Cu54  1  0.74728168  0.00242433  0.50572756  1
  Cu+  Cu55  1  0.75432687  0.50662053  0.50217904  1
  Cu+  Cu56  1  0.25724411  0.25665308  0.50210709  1
  Cu+  Cu57  1  0.24808073  0.74652804  0.50607153  1
  Cu+  Cu58  1  0.75208606  0.24616473  0.50600065  1
  Cu+  Cu59  1  0.75313945  0.75194605  0.50300832  1
  Cu+  Cu60  1  0.33112703  0.40957270  0.83594054  1
  Cu+  Cu61  1  0.32982767  0.91324284  0.83920769  1
  Cu+  Cu62  1  0.83072080  0.41060328  0.83761120  1
  Cu+  Cu63  1  0.83065893  0.91149478  0.83541762  1
  Cu+  Cu64  1  0.08559566  0.16870555  0.83490455  1
  Cu+  Cu65  1  0.09255053  0.67034548  0.83869144  1
  Cu+  Cu66  1  0.59074226  0.16955791  0.83659476  1
  Cu+  Cu67  1  0.58497648  0.66814277  0.83872445  1
  Cu+  Cu68  1  0.08976261  0.41859520  0.83710644  1
  Cu+  Cu69  1  0.08444517  0.91510545  0.83838523  1
  Cu+  Cu70  1  0.58062500  0.41020458  0.83796289  1
  Cu+  Cu71  1  0.58701013  0.91421801  0.83894524  1
  Cu+  Cu72  1  0.16831112  0.08628546  0.67198815  1
  Cu+  Cu73  1  0.17102438  0.58829218  0.68046816  1
  Cu+  Cu74  1  0.66918177  0.08625133  0.68084905  1
  Cu+  Cu75  1  0.67000634  0.58559427  0.67444652  1
  Cu+  Cu76  1  0.41593430  0.33301580  0.67919642  1
  Cu+  Cu77  1  0.41425638  0.83404181  0.67492365  1
  Cu+  Cu78  1  0.91384898  0.33159701  0.68163863  1
  Cu+  Cu79  1  0.91757490  0.83217164  0.67226151  1
  Cu+  Cu80  1  0.41565464  0.08705210  0.67405123  1
  Cu+  Cu81  1  0.41523658  0.58548603  0.67622658  1
  Cu+  Cu82  1  0.91361082  0.08286677  0.67490035  1
  Cu+  Cu83  1  0.91694870  0.58691117  0.67622794  1
  Cu+  Cu84  1  0.00488290  0.25354219  0.00822752  1
  Cu+  Cu85  1  0.00193110  0.74738315  0.00786749  1
  Cu+  Cu86  1  0.50101305  0.25021512  0.00840890  1
  Cu+  Cu87  1  0.50692977  0.75002862  0.01101320  1
  Cu+  Cu88  1  0.25142281  0.49704055  0.00730881  1
  Cu+  Cu89  1  0.24714171  0.99437684  0.01317608  1
  Cu+  Cu90  1  0.75008101  0.49646510  0.00753582  1
  Cu+  Cu91  1  0.75058062  0.99737095  0.00772626  1
  Cu+  Cu92  1  0.25045176  0.25061486  0.00788122  1
  Cu+  Cu93  1  0.24945705  0.74831163  0.01454670  1
  Cu+  Cu94  1  0.74976862  0.25094950  0.01374287  1
  Cu+  Cu95  1  0.74949724  0.74768976  0.00733582  1
  Cu+  Cu96  1  0.33580617  0.42090742  0.34610334  1
  Cu+  Cu97  1  0.33259567  0.91603996  0.34105397  1
  Cu+  Cu98  1  0.83174021  0.41491331  0.34948872  1
  Cu+  Cu99  1  0.83635411  0.92112107  0.33964227  1
  Cu+  Cu100  1  0.08122125  0.16404198  0.33946004  1
  Cu+  Cu101  1  0.07987976  0.66228636  0.34789602  1
  Cu+  Cu102  1  0.57934596  0.16268605  0.34030364  1
  Cu+  Cu103  1  0.58258592  0.66830953  0.34240536  1
  Cu+  Cu104  1  0.07938598  0.41595938  0.34173942  1
  Cu+  Cu105  1  0.08200064  0.91954630  0.34080418  1
  Cu+  Cu106  1  0.57784599  0.41709721  0.34679630  1
  Cu+  Cu107  1  0.58179663  0.91795838  0.33913746  1
  Cu+  Cu108  1  -0.00471493  -0.00125065  0.11242130  1
  Cu+  Cu109  1  0.00033161  0.49815453  0.11671961  1
  Cu+  Cu110  1  0.50025606  -0.00023569  0.11046563  1
  Cu+  Cu111  1  0.50088380  0.49670525  0.11620155  1
  Cu+  Cu112  1  0.32773004  0.16364696  0.44579108  1
  Cu+  Cu113  1  0.33512787  0.67039605  0.44864200  1
  Cu+  Cu114  1  0.83488054  0.16301091  0.44968792  1
  Cu+  Cu115  1  0.83500195  0.67351617  0.44597707  1
  Cu+  Cu116  1  0.16553711  0.33107036  0.77874878  1
  Cu+  Cu117  1  0.16632537  0.83687045  0.78284516  1
  Cu+  Cu118  1  0.66790557  0.33640969  0.78073839  1
  Cu+  Cu119  1  0.66587917  0.82983267  0.78036947  1
  Te2-  Te120  1  -0.00029589  0.00110180  0.38518799  1
  Te2-  Te121  1  -0.00196675  0.49604217  0.39230211  1
  Te2-  Te122  1  0.49765346  -0.00186420  0.38319086  1
  Te2-  Te123  1  0.50114308  0.50574111  0.39158372  1
  Te2-  Te124  1  0.33113380  0.16582456  0.71979095  1
  Te2-  Te125  1  0.33748640  0.67113965  0.72252698  1
  Te2-  Te126  1  0.83473935  0.16574515  0.72550705  1
  Te2-  Te127  1  0.83428921  0.66888331  0.71826112  1
  Te2-  Te128  1  0.16901973  0.33337538  0.05190781  1
  Te2-  Te129  1  0.16356210  0.82844059  0.05837175  1
  Te2-  Te130  1  0.66483932  0.33335527  0.05421526  1
  Te2-  Te131  1  0.67293119  0.83424264  0.05438703  1
  Te2-  Te132  1  0.49375960  0.24026939  0.88258688  1
  Te2-  Te133  1  0.49687034  0.74706282  0.88429666  1
  Te2-  Te134  1  0.99697108  0.24672555  0.88221136  1
  Te2-  Te135  1  0.99874771  0.74550380  0.88181269  1
  Te2-  Te136  1  0.25150890  0.00162689  0.88571326  1
  Te2-  Te137  1  0.25961804  0.50639763  0.88162323  1
  Te2-  Te138  1  0.75837286  0.00543394  0.88231001  1
  Te2-  Te139  1  0.75065798  0.49929900  0.88118771  1
  Te2-  Te140  1  0.25177285  0.24146552  0.88218870  1
  Te2-  Te141  1  0.25944534  0.74755369  0.88705537  1
  Te2-  Te142  1  0.75725133  0.24329533  0.88625369  1
  Te2-  Te143  1  0.75291567  0.74488095  0.88169710  1
  Te2-  Te144  1  0.32917101  0.41885134  0.21870495  1
  Te2-  Te145  1  0.32095831  0.90817861  0.21521009  1
  Te2-  Te146  1  0.82177358  0.41423805  0.22093247  1
  Te2-  Te147  1  0.82842103  0.91553785  0.21383937  1
  Te2-  Te148  1  0.08722591  0.17250483  0.21404215  1
  Te2-  Te149  1  0.08200425  0.67123020  0.22031832  1
  Te2-  Te150  1  0.57907323  0.17196573  0.21454099  1
  Te2-  Te151  1  0.59126316  0.67651787  0.21674290  1
  Te2-  Te152  1  0.07935570  0.41250919  0.21585698  1
  Te2-  Te153  1  0.08293676  0.90879024  0.21557791  1
  Te2-  Te154  1  0.58301222  0.41514073  0.21931481  1
  Te2-  Te155  1  0.58798813  0.91721695  0.21314823  1
  Te2-  Te156  1  0.16563802  0.08771313  0.54594156  1
  Te2-  Te157  1  0.15915638  0.57743680  0.55317101  1
  Te2-  Te158  1  0.66019246  0.08145698  0.55360544  1
  Te2-  Te159  1  0.66225485  0.58418983  0.54862710  1
  Te2-  Te160  1  0.42415716  0.34958758  0.55197027  1
  Te2-  Te161  1  0.41578319  0.83869667  0.54920026  1
  Te2-  Te162  1  0.92126528  0.34026597  0.55390722  1
  Te2-  Te163  1  0.92180021  0.83627624  0.54622758  1
  Te2-  Te164  1  0.42145231  0.08701356  0.54809233  1
  Te2-  Te165  1  0.42292559  0.58561576  0.55020404  1
  Te2-  Te166  1  0.91635119  0.08152762  0.54884186  1
  Te2-  Te167  1  0.92246099  0.57684035  0.55057360  1
  Te2-  Te168  1  -0.00016194  -0.00044464  0.88020020  1
  Te2-  Te169  1  0.00072654  0.49978989  0.88366978  1
  Te2-  Te170  1  0.50079561  -0.00072657  0.88259665  1
  Te2-  Te171  1  0.50004879  0.49872723  0.88245533  1
  Te2-  Te172  1  0.33118877  0.16600496  0.21507276  1
  Te2-  Te173  1  0.33175417  0.66582689  0.21659226  1
  Te2-  Te174  1  0.83059844  0.16456817  0.21554191  1
  Te2-  Te175  1  0.83326696  0.66729252  0.21470136  1
  Te2-  Te176  1  0.16658181  0.33536497  0.54864083  1
  Te2-  Te177  1  0.16764136  0.83656832  0.54914656  1
  Te2-  Te178  1  0.66643910  0.33407152  0.54867526  1
  Te2-  Te179  1  0.66656580  0.83389731  0.54830220  1
  Te2-  Te180  1  0.32627522  0.41560734  0.70968618  1
  Te2-  Te181  1  0.32839369  0.91722649  0.71278891  1
  Te2-  Te182  1  0.82795533  0.41737178  0.71126667  1
  Te2-  Te183  1  0.82779543  0.91247309  0.70932856  1
  Te2-  Te184  1  0.08446150  0.17191579  0.70873740  1
  Te2-  Te185  1  0.08649522  0.67555240  0.71211737  1
  Te2-  Te186  1  0.58521231  0.17482841  0.71058871  1
  Te2-  Te187  1  0.58530072  0.67051204  0.71197513  1
  Te2-  Te188  1  0.08763726  0.41471249  0.70946501  1
  Te2-  Te189  1  0.08720621  0.91635755  0.71054705  1
  Te2-  Te190  1  0.58828737  0.41577805  0.71040095  1
  Te2-  Te191  1  0.58474525  0.91286458  0.71126681  1
  Te2-  Te192  1  0.15954084  0.07998327  0.04311113  1
  Te2-  Te193  1  0.16160550  0.57638015  0.04552184  1
  Te2-  Te194  1  0.66066201  0.07765174  0.04172049  1
  Te2-  Te195  1  0.66198188  0.57834802  0.04496567  1
  Te2-  Te196  1  0.41916700  0.33750027  0.04638782  1
  Te2-  Te197  1  0.42275156  0.83892472  0.04105499  1
  Te2-  Te198  1  0.92196011  0.34009342  0.04514224  1
  Te2-  Te199  1  0.91992658  0.83631723  0.04287478  1
  Te2-  Te200  1  0.42013166  0.07992196  0.04213115  1
  Te2-  Te201  1  0.42070206  0.57824974  0.04510884  1
  Te2-  Te202  1  0.92013931  0.08327007  0.04445342  1
  Te2-  Te203  1  0.91954438  0.57795325  0.04568270  1
  Te2-  Te204  1  0.49098911  0.24444759  0.37617401  1
  Te2-  Te205  1  0.49408826  0.74932165  0.37785878  1
  Te2-  Te206  1  0.99423745  0.24655962  0.37861637  1
  Te2-  Te207  1  0.99360209  0.74921636  0.37614567  1
  Te2-  Te208  1  0.25125665  0.00430715  0.37752117  1
  Te2-  Te209  1  0.24988870  0.50803491  0.37731102  1
  Te2-  Te210  1  0.75112567  0.00555934  0.37817457  1
  Te2-  Te211  1  0.75113227  0.50787846  0.37560538  1
  Te2-  Te212  1  0.25135838  0.24770667  0.37546942  1
  Te2-  Te213  1  0.25257292  0.74674156  0.37820662  1
  Te2-  Te214  1  0.74839074  0.24230890  0.37893866  1
  Te2-  Te215  1  0.75323253  0.75086559  0.37646740  1
