# generated using pymatgen
data_Ti(CuTe)4
_symmetry_space_group_name_H-M   'P 1'
_cell_length_a   16.88842180
_cell_length_b   16.88488751
_cell_length_c   20.70613618
_cell_angle_alpha   89.96639071
_cell_angle_beta   90.01145787
_cell_angle_gamma   120.00287568
_symmetry_Int_Tables_number   1
_chemical_formula_structural   Ti(CuTe)4
_chemical_formula_sum   'Ti24 Cu96 Te96'
_cell_volume   5113.33532334
_cell_formula_units_Z   24
loop_
 _symmetry_equiv_pos_site_id
 _symmetry_equiv_pos_as_xyz
  1  'x, y, z'
loop_
 _atom_type_symbol
 _atom_type_oxidation_number
  Ti4+  4.0
  Cu+  1.0
  Te2-  -2.0
loop_
 _atom_site_type_symbol
 _atom_site_label
 _atom_site_symmetry_multiplicity
 _atom_site_fract_x
 _atom_site_fract_y
 _atom_site_fract_z
 _atom_site_occupancy
  Ti4+  Ti0  1  0.00259249  0.00373545  0.25712018  1
  Ti4+  Ti1  1  0.00124147  0.50026612  0.25740581  1
  Ti4+  Ti2  1  0.50128281  0.00289602  0.25687565  1
  Ti4+  Ti3  1  0.50091956  0.50086273  0.25992803  1
  Ti4+  Ti4  1  0.33506987  0.17157324  0.59611778  1
  Ti4+  Ti5  1  0.33094609  0.66862494  0.58934713  1
  Ti4+  Ti6  1  0.83186454  0.16486946  0.58979537  1
  Ti4+  Ti7  1  0.83393785  0.66716156  0.58832046  1
  Ti4+  Ti8  1  0.16818259  0.33222143  0.92584228  1
  Ti4+  Ti9  1  0.16307790  0.83015326  0.92256566  1
  Ti4+  Ti10  1  0.66623529  0.33073377  0.92786513  1
  Ti4+  Ti11  1  0.66325718  0.82684439  0.92064519  1
  Ti4+  Ti12  1  -0.00046227  -0.00257775  0.75453708  1
  Ti4+  Ti13  1  -0.00081928  0.49850356  0.75647200  1
  Ti4+  Ti14  1  0.50010476  0.00062560  0.75503325  1
  Ti4+  Ti15  1  0.49982564  0.50206625  0.75540514  1
  Ti4+  Ti16  1  0.33313558  0.16551673  0.08817712  1
  Ti4+  Ti17  1  0.33312102  0.66614685  0.08931741  1
  Ti4+  Ti18  1  0.83360799  0.16480642  0.08665682  1
  Ti4+  Ti19  1  0.83277488  0.66550078  0.08994412  1
  Ti4+  Ti20  1  0.16778941  0.33365537  0.42422608  1
  Ti4+  Ti21  1  0.16631311  0.83155459  0.42187601  1
  Ti4+  Ti22  1  0.66566194  0.33481480  0.42335137  1
  Ti4+  Ti23  1  0.66909718  0.83722411  0.42045772  1
  Cu+  Cu24  1  0.90332703  0.80617501  0.80427372  1
  Cu+  Cu25  1  0.85737631  0.93051845  0.47280545  1
  Cu+  Cu26  1  0.06964593  0.64053861  0.47294444  1
  Cu+  Cu27  1  0.24748694  0.26150722  0.14541356  1
  Cu+  Cu28  1  0.40075918  0.59311954  0.80363100  1
  Cu+  Cu29  1  0.41425348  0.32156601  0.81514763  1
  Cu+  Cu30  1  0.51533823  0.26171245  0.14466707  1
  Cu+  Cu31  1  0.56994815  0.42910556  0.47744798  1
  Cu+  Cu32  1  0.01639552  0.26147902  0.14276228  1
  Cu+  Cu33  1  0.17890718  0.08548713  0.81325276  1
  Cu+  Cu34  1  0.74736986  0.25898616  0.14513426  1
  Cu+  Cu35  1  0.57240046  0.92931647  0.47238302  1
  Cu+  Cu36  1  0.16256050  0.08570246  0.16868088  1
  Cu+  Cu37  1  0.16574687  0.58440952  0.17089784  1
  Cu+  Cu38  1  0.66229116  0.08373398  0.16829658  1
  Cu+  Cu39  1  0.66584844  0.58156553  0.17337880  1
  Cu+  Cu40  1  0.42111798  0.34023050  0.17207978  1
  Cu+  Cu41  1  0.41845414  0.83686319  0.17138938  1
  Cu+  Cu42  1  0.92170096  0.34042065  0.16907000  1
  Cu+  Cu43  1  0.91728827  0.83668355  0.17231985  1
  Cu+  Cu44  1  0.42306281  0.08553437  0.16868984  1
  Cu+  Cu45  1  0.41693300  0.58277800  0.17294253  1
  Cu+  Cu46  1  0.92386669  0.08588374  0.16827548  1
  Cu+  Cu47  1  0.92040967  0.58486851  0.17167100  1
  Cu+  Cu48  1  0.49772306  0.25688757  0.50774865  1
  Cu+  Cu49  1  0.49741434  0.75486089  0.50286516  1
  Cu+  Cu50  1  0.99750452  0.24935994  0.50496291  1
  Cu+  Cu51  1  0.99733407  0.74365233  0.50196993  1
  Cu+  Cu52  1  0.25044562  0.00225610  0.50851320  1
  Cu+  Cu53  1  0.25180531  0.50359267  0.50503181  1
  Cu+  Cu54  1  0.75166440  0.00435985  0.50163200  1
  Cu+  Cu55  1  0.74656123  0.50369838  0.50286526  1
  Cu+  Cu56  1  0.25297912  0.25029280  0.50917693  1
  Cu+  Cu57  1  0.24564618  0.74306908  0.50165845  1
  Cu+  Cu58  1  0.75056883  0.24818657  0.50420347  1
  Cu+  Cu59  1  0.75840869  0.75573495  0.50136792  1
  Cu+  Cu60  1  0.33062097  0.41559079  0.83697773  1
  Cu+  Cu61  1  0.33063988  0.91401358  0.83606318  1
  Cu+  Cu62  1  0.83139937  0.41284630  0.84112923  1
  Cu+  Cu63  1  0.82874430  0.90481874  0.83478016  1
  Cu+  Cu64  1  0.08771133  0.16829907  0.83847397  1
  Cu+  Cu65  1  0.08186208  0.66689997  0.83699222  1
  Cu+  Cu66  1  0.58506770  0.16803467  0.84008792  1
  Cu+  Cu67  1  0.57896642  0.66912761  0.83404620  1
  Cu+  Cu68  1  0.08307656  0.41273452  0.83904918  1
  Cu+  Cu69  1  0.08142031  0.90913862  0.83510493  1
  Cu+  Cu70  1  0.58552248  0.41204878  0.84007909  1
  Cu+  Cu71  1  0.58213748  0.91185900  0.83525979  1
  Cu+  Cu72  1  0.17108365  0.08737664  0.68304873  1
  Cu+  Cu73  1  0.16572593  0.58213807  0.67519313  1
  Cu+  Cu74  1  0.66784674  0.08399629  0.67415080  1
  Cu+  Cu75  1  0.66791797  0.58555809  0.67357130  1
  Cu+  Cu76  1  0.41640828  0.33456205  0.68394614  1
  Cu+  Cu77  1  0.41477234  0.83388759  0.67217694  1
  Cu+  Cu78  1  0.91393757  0.32848560  0.67520987  1
  Cu+  Cu79  1  0.91645174  0.83003350  0.67561690  1
  Cu+  Cu80  1  0.41827631  0.08981844  0.67731112  1
  Cu+  Cu81  1  0.41503267  0.58961101  0.67649753  1
  Cu+  Cu82  1  0.91386673  0.08326500  0.67345504  1
  Cu+  Cu83  1  0.91461831  0.58094206  0.67415567  1
  Cu+  Cu84  1  0.00309895  0.24704347  0.01325304  1
  Cu+  Cu85  1  -0.00073491  0.74995364  0.00713595  1
  Cu+  Cu86  1  0.50221528  0.24817261  0.01518737  1
  Cu+  Cu87  1  0.49939533  0.74767865  0.00648768  1
  Cu+  Cu88  1  0.24992848  0.49807141  0.01004409  1
  Cu+  Cu89  1  0.24551217  0.99334367  0.00742198  1
  Cu+  Cu90  1  0.74829762  0.49514921  0.01066243  1
  Cu+  Cu91  1  0.74666304  0.99076662  0.00341014  1
  Cu+  Cu92  1  0.24970277  0.24925958  0.01509445  1
  Cu+  Cu93  1  0.24752208  0.75022024  0.00632112  1
  Cu+  Cu94  1  0.74743893  0.24726862  0.01457961  1
  Cu+  Cu95  1  0.74658180  0.74649978  0.00557090  1
  Cu+  Cu96  1  0.33589590  0.41545654  0.34479749  1
  Cu+  Cu97  1  0.33573636  0.91882890  0.34056650  1
  Cu+  Cu98  1  0.83540126  0.41724978  0.34147553  1
  Cu+  Cu99  1  0.83980183  0.92224761  0.34386993  1
  Cu+  Cu100  1  0.08580814  0.16768078  0.34391847  1
  Cu+  Cu101  1  0.08225055  0.66257257  0.34508193  1
  Cu+  Cu102  1  0.58250673  0.16727597  0.34333293  1
  Cu+  Cu103  1  0.58404933  0.66585453  0.34146623  1
  Cu+  Cu104  1  0.08413102  0.41739661  0.34162259  1
  Cu+  Cu105  1  0.08417417  0.91914407  0.34002823  1
  Cu+  Cu106  1  0.58019732  0.41799530  0.34854423  1
  Cu+  Cu107  1  0.58291832  0.92133458  0.34336480  1
  Cu+  Cu108  1  -0.00258724  -0.00544465  0.11265748  1
  Cu+  Cu109  1  0.00342468  0.50562838  0.11365484  1
  Cu+  Cu110  1  0.49775101  -0.00482454  0.11217891  1
  Cu+  Cu111  1  0.50460788  0.50877346  0.11766013  1
  Cu+  Cu112  1  0.33233867  0.16199433  0.45401856  1
  Cu+  Cu113  1  0.33567758  0.66651172  0.44579154  1
  Cu+  Cu114  1  0.83570945  0.17188974  0.44643683  1
  Cu+  Cu115  1  0.83400373  0.66787463  0.44423587  1
  Cu+  Cu116  1  0.16276353  0.33168006  0.78208760  1
  Cu+  Cu117  1  0.16920796  0.82921082  0.77915134  1
  Cu+  Cu118  1  0.67004663  0.33401076  0.78520284  1
  Cu+  Cu119  1  0.66795639  0.83770958  0.77668265  1
  Te2-  Te120  1  0.00548821  0.00301489  0.38760321  1
  Te2-  Te121  1  -0.00127780  0.49564357  0.38783783  1
  Te2-  Te122  1  0.49863450  0.00289611  0.38722164  1
  Te2-  Te123  1  0.49933405  0.50385087  0.39066461  1
  Te2-  Te124  1  0.33615630  0.16912062  0.72861078  1
  Te2-  Te125  1  0.32979723  0.67064423  0.71981575  1
  Te2-  Te126  1  0.83158099  0.16412953  0.71891338  1
  Te2-  Te127  1  0.83192604  0.66287803  0.71829199  1
  Te2-  Te128  1  0.16899594  0.33495576  0.05770864  1
  Te2-  Te129  1  0.16329130  0.82958237  0.05165046  1
  Te2-  Te130  1  0.66792971  0.33316349  0.06026267  1
  Te2-  Te131  1  0.66401801  0.82817912  0.04956538  1
  Te2-  Te132  1  0.49276032  0.24231061  0.88776018  1
  Te2-  Te133  1  0.48795478  0.74478153  0.88104560  1
  Te2-  Te134  1  0.99820855  0.24512767  0.88557768  1
  Te2-  Te135  1  0.98882555  0.74133869  0.88159658  1
  Te2-  Te136  1  0.25301122  0.00389410  0.88192276  1
  Te2-  Te137  1  0.25122590  0.50432514  0.88365266  1
  Te2-  Te138  1  0.75179630  -0.00250471  0.87739864  1
  Te2-  Te139  1  0.75148699  0.50139563  0.88464763  1
  Te2-  Te140  1  0.25690324  0.24519056  0.88677812  1
  Te2-  Te141  1  0.25013597  0.74618634  0.88039926  1
  Te2-  Te142  1  0.75152594  0.24516120  0.88716149  1
  Te2-  Te143  1  0.74668733  0.73590362  0.87999736  1
  Te2-  Te144  1  0.32764296  0.41532645  0.21888055  1
  Te2-  Te145  1  0.33096972  0.91871736  0.21447259  1
  Te2-  Te146  1  0.82824076  0.41639806  0.21569570  1
  Te2-  Te147  1  0.83178174  0.91991598  0.21650765  1
  Te2-  Te148  1  0.09107952  0.18121199  0.21790320  1
  Te2-  Te149  1  0.08679711  0.67163280  0.21804272  1
  Te2-  Te150  1  0.59040877  0.18007960  0.21744426  1
  Te2-  Te151  1  0.58595344  0.67084265  0.21561416  1
  Te2-  Te152  1  0.09071577  0.41657510  0.21577228  1
  Te2-  Te153  1  0.08750608  0.91859088  0.21393257  1
  Te2-  Te154  1  0.58860232  0.41483681  0.22104677  1
  Te2-  Te155  1  0.58705735  0.91794178  0.21603426  1
  Te2-  Te156  1  0.16399910  0.08334974  0.55540261  1
  Te2-  Te157  1  0.15661858  0.57559087  0.54942464  1
  Te2-  Te158  1  0.65804737  0.08059534  0.54843342  1
  Te2-  Te159  1  0.66086768  0.58739630  0.54781705  1
  Te2-  Te160  1  0.41911482  0.34590176  0.55632857  1
  Te2-  Te161  1  0.41414328  0.84144478  0.54660052  1
  Te2-  Te162  1  0.91751368  0.33689487  0.54939314  1
  Te2-  Te163  1  0.92603063  0.84034641  0.54853359  1
  Te2-  Te164  1  0.42046063  0.08780221  0.55101011  1
  Te2-  Te165  1  0.41990580  0.58668938  0.54948626  1
  Te2-  Te166  1  0.92183696  0.08096122  0.54808631  1
  Te2-  Te167  1  0.91450233  0.57472674  0.54805175  1
  Te2-  Te168  1  -0.00158939  -0.00320543  0.88196123  1
  Te2-  Te169  1  0.00034360  0.49848322  0.88280783  1
  Te2-  Te170  1  0.49927176  -0.00298725  0.88122265  1
  Te2-  Te171  1  0.50148533  0.49982123  0.88292432  1
  Te2-  Te172  1  0.33340601  0.16644964  0.21562931  1
  Te2-  Te173  1  0.33406562  0.66886222  0.21570832  1
  Te2-  Te174  1  0.83391620  0.16736832  0.21422118  1
  Te2-  Te175  1  0.83498912  0.66832660  0.21628661  1
  Te2-  Te176  1  0.16628805  0.33467262  0.55042608  1
  Te2-  Te177  1  0.16585938  0.83198353  0.54889182  1
  Te2-  Te178  1  0.66834604  0.33512100  0.55010425  1
  Te2-  Te179  1  0.66737750  0.83428016  0.54773745  1
  Te2-  Te180  1  0.32526471  0.41712650  0.71025446  1
  Te2-  Te181  1  0.32879210  0.91752705  0.70957027  1
  Te2-  Te182  1  0.82764647  0.41195092  0.71354701  1
  Te2-  Te183  1  0.82754581  0.91308365  0.70771526  1
  Te2-  Te184  1  0.08316409  0.17222003  0.71172864  1
  Te2-  Te185  1  0.08372693  0.66983946  0.71051181  1
  Te2-  Te186  1  0.58801928  0.17381629  0.71352675  1
  Te2-  Te187  1  0.58740524  0.67474264  0.70816344  1
  Te2-  Te188  1  0.08410030  0.41220850  0.71218172  1
  Te2-  Te189  1  0.08844313  0.91276318  0.70812341  1
  Te2-  Te190  1  0.58938403  0.41680607  0.71263662  1
  Te2-  Te191  1  0.58395887  0.91373136  0.70870966  1
  Te2-  Te192  1  0.15906043  0.07626226  0.04262962  1
  Te2-  Te193  1  0.16178956  0.58059644  0.04425611  1
  Te2-  Te194  1  0.66011299  0.07377318  0.04198072  1
  Te2-  Te195  1  0.66109181  0.57797484  0.04629776  1
  Te2-  Te196  1  0.42245962  0.34142032  0.04459236  1
  Te2-  Te197  1  0.41769888  0.83615386  0.04378093  1
  Te2-  Te198  1  0.92164396  0.33947645  0.04154210  1
  Te2-  Te199  1  0.91578617  0.83566343  0.04456927  1
  Te2-  Te200  1  0.41590936  0.07481222  0.04265185  1
  Te2-  Te201  1  0.41894866  0.57952141  0.04607336  1
  Te2-  Te202  1  0.91614449  0.07401546  0.04185530  1
  Te2-  Te203  1  0.91880279  0.58023320  0.04510351  1
  Te2-  Te204  1  0.49175824  0.24577889  0.38035985  1
  Te2-  Te205  1  0.49605121  0.74866389  0.37560346  1
  Te2-  Te206  1  0.99631263  0.24828502  0.37849731  1
  Te2-  Te207  1  0.99474170  0.74853817  0.37509710  1
  Te2-  Te208  1  0.25267935  0.00463990  0.38058774  1
  Te2-  Te209  1  0.25386329  0.50485907  0.37861843  1
  Te2-  Te210  1  0.75542774  0.01057481  0.37438134  1
  Te2-  Te211  1  0.75433537  0.50661978  0.37625807  1
  Te2-  Te212  1  0.25444091  0.24677889  0.38280588  1
  Te2-  Te213  1  0.25529536  0.74844345  0.37539162  1
  Te2-  Te214  1  0.75196225  0.24848635  0.37809483  1
  Te2-  Te215  1  0.75447850  0.74931766  0.37485583  1
