# generated using pymatgen
data_Ti(CuTe)4
_symmetry_space_group_name_H-M   'P 1'
_cell_length_a   16.89095703
_cell_length_b   16.89301470
_cell_length_c   20.71136953
_cell_angle_alpha   90.05921293
_cell_angle_beta   89.97259791
_cell_angle_gamma   119.99363137
_symmetry_Int_Tables_number   1
_chemical_formula_structural   Ti(CuTe)4
_chemical_formula_sum   'Ti24 Cu96 Te96'
_cell_volume   5118.33256614
_cell_formula_units_Z   24
loop_
 _symmetry_equiv_pos_site_id
 _symmetry_equiv_pos_as_xyz
  1  'x, y, z'
loop_
 _atom_type_symbol
 _atom_type_oxidation_number
  Ti4+  4.0
  Cu+  1.0
  Te2-  -2.0
loop_
 _atom_site_type_symbol
 _atom_site_label
 _atom_site_symmetry_multiplicity
 _atom_site_fract_x
 _atom_site_fract_y
 _atom_site_fract_z
 _atom_site_occupancy
  Ti4+  Ti0  1  -0.00029875  -0.00152740  0.25834937  1
  Ti4+  Ti1  1  -0.00500350  0.49689587  0.25906201  1
  Ti4+  Ti2  1  0.49585288  -0.00231171  0.25700125  1
  Ti4+  Ti3  1  0.49654874  0.49691781  0.25577742  1
  Ti4+  Ti4  1  0.33585935  0.16699643  0.59245875  1
  Ti4+  Ti5  1  0.33186137  0.66724460  0.58982956  1
  Ti4+  Ti6  1  0.83529928  0.16560048  0.58893062  1
  Ti4+  Ti7  1  0.83587431  0.66820115  0.59532506  1
  Ti4+  Ti8  1  0.17074384  0.33678965  0.92520812  1
  Ti4+  Ti9  1  0.16762509  0.83270033  0.92537856  1
  Ti4+  Ti10  1  0.66765619  0.33457066  0.92281127  1
  Ti4+  Ti11  1  0.66934939  0.83578456  0.92173028  1
  Ti4+  Ti12  1  0.00078866  0.00131780  0.75503796  1
  Ti4+  Ti13  1  0.00315967  0.50214996  0.75583030  1
  Ti4+  Ti14  1  0.50142423  0.00129360  0.75427557  1
  Ti4+  Ti15  1  0.49954304  0.49942253  0.75372476  1
  Ti4+  Ti16  1  0.33307458  0.16570711  0.08771142  1
  Ti4+  Ti17  1  0.33453564  0.66792465  0.08856984  1
  Ti4+  Ti18  1  0.83454760  0.16866800  0.08788411  1
  Ti4+  Ti19  1  0.83212778  0.66566452  0.09037839  1
  Ti4+  Ti20  1  0.16490403  0.33312999  0.42217694  1
  Ti4+  Ti21  1  0.16576065  0.83131363  0.42339351  1
  Ti4+  Ti22  1  0.66317652  0.33252102  0.42353331  1
  Ti4+  Ti23  1  0.66814661  0.83427254  0.42161312  1
  Cu+  Cu24  1  0.19327095  0.59698369  0.80691841  1
  Cu+  Cu25  1  0.23930813  0.25123476  0.14562599  1
  Cu+  Cu26  1  0.73501210  0.47292159  0.14098970  1
  Cu+  Cu27  1  0.35492746  0.92811729  0.47406240  1
  Cu+  Cu28  1  0.23573227  0.48355513  0.14321671  1
  Cu+  Cu29  1  0.85951164  0.92771400  0.47500204  1
  Cu+  Cu30  1  0.23601371  0.97617010  0.14185825  1
  Cu+  Cu31  1  0.91363062  0.82379674  0.81435191  1
  Cu+  Cu32  1  0.06968143  0.64268349  0.47525970  1
  Cu+  Cu33  1  0.91573569  0.58953404  0.81681086  1
  Cu+  Cu34  1  0.67502806  0.58758059  0.81432496  1
  Cu+  Cu35  1  0.40523797  0.31211116  0.80890076  1
  Cu+  Cu36  1  0.16069122  0.07672602  0.17017623  1
  Cu+  Cu37  1  0.16185879  0.58110241  0.17330580  1
  Cu+  Cu38  1  0.66335638  0.08344225  0.17048607  1
  Cu+  Cu39  1  0.66265997  0.57556249  0.17050821  1
  Cu+  Cu40  1  0.41545386  0.33847794  0.16766964  1
  Cu+  Cu41  1  0.41621287  0.83752469  0.17016094  1
  Cu+  Cu42  1  0.91552964  0.33646321  0.16991682  1
  Cu+  Cu43  1  0.91610395  0.83565450  0.17283706  1
  Cu+  Cu44  1  0.41048677  0.07447521  0.16978598  1
  Cu+  Cu45  1  0.41271727  0.57824168  0.16898436  1
  Cu+  Cu46  1  0.91513246  0.08067542  0.17067829  1
  Cu+  Cu47  1  0.91084972  0.57694600  0.17309080  1
  Cu+  Cu48  1  0.49614201  0.24955919  0.50598197  1
  Cu+  Cu49  1  0.49748832  0.74971726  0.50298591  1
  Cu+  Cu50  1  0.99590810  0.24739916  0.50295098  1
  Cu+  Cu51  1  0.99635687  0.74380715  0.50677833  1
  Cu+  Cu52  1  0.25733630  0.00395899  0.50512455  1
  Cu+  Cu53  1  0.24804608  0.50289803  0.50417927  1
  Cu+  Cu54  1  0.75855813  0.00277007  0.50187640  1
  Cu+  Cu55  1  0.75073471  0.50211315  0.50808195  1
  Cu+  Cu56  1  0.25198320  0.25093997  0.50698505  1
  Cu+  Cu57  1  0.24938467  0.74704303  0.50301815  1
  Cu+  Cu58  1  0.74964593  0.24772889  0.50474594  1
  Cu+  Cu59  1  0.75665187  0.75463169  0.50678695  1
  Cu+  Cu60  1  0.32921493  0.41197443  0.83666956  1
  Cu+  Cu61  1  0.33284612  0.91771901  0.83852456  1
  Cu+  Cu62  1  0.83041799  0.41682457  0.83607606  1
  Cu+  Cu63  1  0.83006171  0.91433783  0.83482570  1
  Cu+  Cu64  1  0.08781802  0.17196594  0.83764880  1
  Cu+  Cu65  1  0.09073929  0.67187162  0.83702046  1
  Cu+  Cu66  1  0.58775904  0.17053044  0.83563835  1
  Cu+  Cu67  1  0.58815945  0.67393014  0.83427355  1
  Cu+  Cu68  1  0.09332624  0.42374672  0.83756852  1
  Cu+  Cu69  1  0.08556192  0.91587755  0.83835064  1
  Cu+  Cu70  1  0.58376473  0.41295434  0.83470568  1
  Cu+  Cu71  1  0.58679413  0.91737875  0.83601234  1
  Cu+  Cu72  1  0.17180745  0.08739979  0.67441392  1
  Cu+  Cu73  1  0.16996844  0.58609845  0.67858639  1
  Cu+  Cu74  1  0.67162411  0.08488184  0.67101840  1
  Cu+  Cu75  1  0.67040016  0.58673673  0.68152784  1
  Cu+  Cu76  1  0.41428344  0.32977194  0.68000022  1
  Cu+  Cu77  1  0.41434836  0.83302004  0.67390865  1
  Cu+  Cu78  1  0.91643117  0.32892109  0.67247848  1
  Cu+  Cu79  1  0.91750698  0.83249278  0.68214430  1
  Cu+  Cu80  1  0.41822625  0.08579607  0.67582552  1
  Cu+  Cu81  1  0.41318727  0.58332400  0.67275846  1
  Cu+  Cu82  1  0.91791515  0.08563796  0.67393316  1
  Cu+  Cu83  1  0.91732929  0.58517737  0.68377281  1
  Cu+  Cu84  1  0.00415224  0.25393439  0.00781389  1
  Cu+  Cu85  1  0.00172025  0.75178416  0.01168498  1
  Cu+  Cu86  1  0.50252185  0.25089403  0.00706724  1
  Cu+  Cu87  1  0.50684333  0.75630862  0.00558027  1
  Cu+  Cu88  1  0.25164510  0.50009091  0.01308489  1
  Cu+  Cu89  1  0.24827252  0.99591149  0.01271761  1
  Cu+  Cu90  1  0.74881868  0.49818125  0.01256626  1
  Cu+  Cu91  1  0.75150742  1.00068950  0.00458263  1
  Cu+  Cu92  1  0.25142270  0.25257049  0.01472885  1
  Cu+  Cu93  1  0.25132984  0.75157503  0.00922153  1
  Cu+  Cu94  1  0.75250635  0.25333067  0.00686727  1
  Cu+  Cu95  1  0.75111571  0.75377901  0.00865981  1
  Cu+  Cu96  1  0.33237475  0.41708551  0.34189738  1
  Cu+  Cu97  1  0.33323340  0.91557881  0.34557136  1
  Cu+  Cu98  1  0.82987692  0.41694146  0.34354647  1
  Cu+  Cu99  1  0.83704490  0.91746957  0.34626556  1
  Cu+  Cu100  1  0.08221717  0.16449081  0.34216153  1
  Cu+  Cu101  1  0.07672940  0.65967410  0.34619040  1
  Cu+  Cu102  1  0.57586739  0.16259846  0.34058231  1
  Cu+  Cu103  1  0.58126724  0.66266183  0.33898674  1
  Cu+  Cu104  1  0.08020939  0.41694910  0.34313222  1
  Cu+  Cu105  1  0.08181647  0.91524041  0.34305648  1
  Cu+  Cu106  1  0.57943271  0.41652489  0.34192456  1
  Cu+  Cu107  1  0.58090749  0.91712165  0.33989244  1
  Cu+  Cu108  1  -0.00559917  -0.00102052  0.11464502  1
  Cu+  Cu109  1  0.00047386  0.50243326  0.11610103  1
  Cu+  Cu110  1  0.50376055  0.00240855  0.11338425  1
  Cu+  Cu111  1  0.50253040  0.50590321  0.11229284  1
  Cu+  Cu112  1  0.32977573  0.16782692  0.45018407  1
  Cu+  Cu113  1  0.33658283  0.66580766  0.44616772  1
  Cu+  Cu114  1  0.82883927  0.16714674  0.44607173  1
  Cu+  Cu115  1  0.82748120  0.66359955  0.45187544  1
  Cu+  Cu116  1  0.16254114  0.33183950  0.78054396  1
  Cu+  Cu117  1  0.17098495  0.83901356  0.78206164  1
  Cu+  Cu118  1  0.66876468  0.33200497  0.77767236  1
  Cu+  Cu119  1  0.66532231  0.83642742  0.77684568  1
  Te2-  Te120  1  0.00382349  0.00081050  0.38876319  1
  Te2-  Te121  1  -0.00627965  0.49402300  0.38963780  1
  Te2-  Te122  1  0.50019184  -0.00056529  0.38736679  1
  Te2-  Te123  1  0.49731566  0.49932161  0.38446095  1
  Te2-  Te124  1  0.33355230  0.16410598  0.72339490  1
  Te2-  Te125  1  0.33695811  0.66958702  0.72053200  1
  Te2-  Te126  1  0.83432984  0.16597492  0.71822144  1
  Te2-  Te127  1  0.83468328  0.66762535  0.72847476  1
  Te2-  Te128  1  0.16624023  0.33388687  0.05706444  1
  Te2-  Te129  1  0.16589880  0.82960430  0.05565115  1
  Te2-  Te130  1  0.66601353  0.33048896  0.05291175  1
  Te2-  Te131  1  0.67011090  0.83762924  0.05052856  1
  Te2-  Te132  1  0.49484414  0.24518196  0.88121303  1
  Te2-  Te133  1  0.49806079  0.74940469  0.87982226  1
  Te2-  Te134  1  1.00148526  0.25440131  0.88136287  1
  Te2-  Te135  1  0.99202883  0.74522405  0.88543621  1
  Te2-  Te136  1  0.25127007  0.00321046  0.88525325  1
  Te2-  Te137  1  0.26103185  0.51021894  0.88533057  1
  Te2-  Te138  1  0.75534286  0.00621985  0.87890023  1
  Te2-  Te139  1  0.75459966  0.51054200  0.88494308  1
  Te2-  Te140  1  0.25341129  0.24531791  0.88656239  1
  Te2-  Te141  1  0.25782417  0.74986153  0.88345243  1
  Te2-  Te142  1  0.75485727  0.25117215  0.88099764  1
  Te2-  Te143  1  0.75709726  0.74528119  0.88320969  1
  Te2-  Te144  1  0.31901278  0.40961287  0.21613943  1
  Te2-  Te145  1  0.32085088  0.90726283  0.21852161  1
  Te2-  Te146  1  0.82122776  0.40785309  0.21763854  1
  Te2-  Te147  1  0.82846738  0.91432956  0.21872120  1
  Te2-  Te148  1  0.08319733  0.17067707  0.21597115  1
  Te2-  Te149  1  0.07981416  0.66715578  0.21846709  1
  Te2-  Te150  1  0.57878013  0.16809937  0.21426433  1
  Te2-  Te151  1  0.58254726  0.66622466  0.21239250  1
  Te2-  Te152  1  0.08134511  0.40998720  0.21727972  1
  Te2-  Te153  1  0.08338108  0.90829937  0.21732334  1
  Te2-  Te154  1  0.58035012  0.40660386  0.21601676  1
  Te2-  Te155  1  0.58372977  0.91465408  0.21408239  1
  Te2-  Te156  1  0.16553101  0.08102058  0.54853240  1
  Te2-  Te157  1  0.15775600  0.57866948  0.55160942  1
  Te2-  Te158  1  0.66477504  0.07808445  0.54533496  1
  Te2-  Te159  1  0.66679819  0.58633219  0.55315764  1
  Te2-  Te160  1  0.41925680  0.33886740  0.55290941  1
  Te2-  Te161  1  0.41992960  0.83980338  0.54800737  1
  Te2-  Te162  1  0.91870993  0.33739311  0.54712720  1
  Te2-  Te163  1  0.92583077  0.84057867  0.55375863  1
  Te2-  Te164  1  0.42570004  0.08273494  0.55042509  1
  Te2-  Te165  1  0.41671126  0.58150980  0.54702619  1
  Te2-  Te166  1  0.92664943  0.08147217  0.54872030  1
  Te2-  Te167  1  0.91805508  0.57694945  0.55516712  1
  Te2-  Te168  1  0.00046076  0.00212358  0.88213040  1
  Te2-  Te169  1  0.00069798  0.50076494  0.88360518  1
  Te2-  Te170  1  0.50295204  0.00203536  0.88051958  1
  Te2-  Te171  1  0.50108732  0.50238860  0.88124009  1
  Te2-  Te172  1  0.33257657  0.16737256  0.21501199  1
  Te2-  Te173  1  0.33308262  0.66764510  0.21548653  1
  Te2-  Te174  1  0.83183142  0.16675175  0.21420183  1
  Te2-  Te175  1  0.83053753  0.66621078  0.21705569  1
  Te2-  Te176  1  0.16517913  0.33386520  0.54858924  1
  Te2-  Te177  1  0.16742393  0.83432671  0.55054946  1
  Te2-  Te178  1  0.66584357  0.33236925  0.54991336  1
  Te2-  Te179  1  0.66621497  0.83435812  0.54853480  1
  Te2-  Te180  1  0.32554870  0.41425589  0.71036363  1
  Te2-  Te181  1  0.32881594  0.91607149  0.71177206  1
  Te2-  Te182  1  0.82992007  0.41202796  0.70964284  1
  Te2-  Te183  1  0.82780193  0.91580034  0.70856408  1
  Te2-  Te184  1  0.08777078  0.17303447  0.71107927  1
  Te2-  Te185  1  0.08964052  0.67738616  0.71037276  1
  Te2-  Te186  1  0.58915111  0.17221053  0.70921453  1
  Te2-  Te187  1  0.58362397  0.67308212  0.70794652  1
  Te2-  Te188  1  0.08627192  0.41336043  0.71014575  1
  Te2-  Te189  1  0.09039128  0.91736872  0.71113121  1
  Te2-  Te190  1  0.58829906  0.41355724  0.70783789  1
  Te2-  Te191  1  0.58556779  0.91524887  0.70869101  1
  Te2-  Te192  1  0.15856299  0.07913033  0.04272578  1
  Te2-  Te193  1  0.16087485  0.58174770  0.04515500  1
  Te2-  Te194  1  0.66388632  0.08291401  0.04303079  1
  Te2-  Te195  1  0.66111626  0.58311231  0.04305793  1
  Te2-  Te196  1  0.42361403  0.34078715  0.04233756  1
  Te2-  Te197  1  0.42133119  0.84003938  0.04422047  1
  Te2-  Te198  1  0.92152461  0.34129082  0.04404474  1
  Te2-  Te199  1  0.91932309  0.83881503  0.04666815  1
  Te2-  Te200  1  0.42127300  0.08072437  0.04280657  1
  Te2-  Te201  1  0.42448429  0.58604886  0.04213043  1
  Te2-  Te202  1  0.92060388  0.08312240  0.04355260  1
  Te2-  Te203  1  0.92079663  0.58144426  0.04569673  1
  Te2-  Te204  1  0.49134640  0.24684486  0.37964986  1
  Te2-  Te205  1  0.49638471  0.74760901  0.37643768  1
  Te2-  Te206  1  0.99299578  0.24596037  0.37723959  1
  Te2-  Te207  1  0.99125818  0.74588629  0.38032249  1
  Te2-  Te208  1  0.25120692  0.00500450  0.37843526  1
  Te2-  Te209  1  0.25036626  0.50507619  0.37782113  1
  Te2-  Te210  1  0.75151504  0.00585754  0.37499029  1
  Te2-  Te211  1  0.74873345  0.50477718  0.38095216  1
  Te2-  Te212  1  0.25170899  0.24772104  0.37944475  1
  Te2-  Te213  1  0.25012622  0.74288322  0.37593256  1
  Te2-  Te214  1  0.74671340  0.24570837  0.37756757  1
  Te2-  Te215  1  0.75107835  0.74458637  0.37838879  1
