# generated using pymatgen
data_Ti(CuTe)4
_symmetry_space_group_name_H-M   'P 1'
_cell_length_a   16.88618344
_cell_length_b   16.88561212
_cell_length_c   20.70363000
_cell_angle_alpha   90.01591158
_cell_angle_beta   89.97286734
_cell_angle_gamma   119.99082734
_symmetry_Int_Tables_number   1
_chemical_formula_structural   Ti(CuTe)4
_chemical_formula_sum   'Ti24 Cu96 Te96'
_cell_volume   5112.87913263
_cell_formula_units_Z   24
loop_
 _symmetry_equiv_pos_site_id
 _symmetry_equiv_pos_as_xyz
  1  'x, y, z'
loop_
 _atom_type_symbol
 _atom_type_oxidation_number
  Ti4+  4.0
  Cu+  1.0
  Te2-  -2.0
loop_
 _atom_site_type_symbol
 _atom_site_label
 _atom_site_symmetry_multiplicity
 _atom_site_fract_x
 _atom_site_fract_y
 _atom_site_fract_z
 _atom_site_occupancy
  Ti4+  Ti0  1  -0.00019565  0.00006043  0.26346976  1
  Ti4+  Ti1  1  0.00039463  0.49793559  0.25687755  1
  Ti4+  Ti2  1  0.50150752  0.00197399  0.26056475  1
  Ti4+  Ti3  1  0.49964157  0.49887507  0.25343377  1
  Ti4+  Ti4  1  0.33356830  0.16379438  0.59067044  1
  Ti4+  Ti5  1  0.33051214  0.66490577  0.58931989  1
  Ti4+  Ti6  1  0.83376225  0.16806475  0.59315989  1
  Ti4+  Ti7  1  0.83208413  0.66618018  0.58804099  1
  Ti4+  Ti8  1  0.16785397  0.33315675  0.92379220  1
  Ti4+  Ti9  1  0.16749281  0.83255719  0.92526205  1
  Ti4+  Ti10  1  0.66378194  0.33222209  0.92402508  1
  Ti4+  Ti11  1  0.66884501  0.83811730  0.92319257  1
  Ti4+  Ti12  1  -0.00175053  -0.00040509  0.75512455  1
  Ti4+  Ti13  1  0.00189643  0.50188316  0.75589538  1
  Ti4+  Ti14  1  0.50016888  0.00025713  0.75527373  1
  Ti4+  Ti15  1  0.49828698  0.49735201  0.75433840  1
  Ti4+  Ti16  1  0.33501201  0.16784487  0.09085742  1
  Ti4+  Ti17  1  0.33210645  0.66490616  0.08832983  1
  Ti4+  Ti18  1  0.83349789  0.16738237  0.09179942  1
  Ti4+  Ti19  1  0.83323396  0.66805121  0.08739867  1
  Ti4+  Ti20  1  0.16655737  0.33491216  0.42274216  1
  Ti4+  Ti21  1  0.16696147  0.83300540  0.41804822  1
  Ti4+  Ti22  1  0.66614841  0.33271311  0.42207204  1
  Ti4+  Ti23  1  0.66665050  0.83270146  0.42062419  1
  Cu+  Cu24  1  0.23701842  0.47446221  0.13967279  1
  Cu+  Cu25  1  0.52469229  0.26066620  0.14165576  1
  Cu+  Cu26  1  0.07870815  0.91914894  0.48009173  1
  Cu+  Cu27  1  0.68213573  0.09490515  0.81294674  1
  Cu+  Cu28  1  0.34725430  0.91907910  0.47552406  1
  Cu+  Cu29  1  0.84376417  0.92270388  0.48120167  1
  Cu+  Cu30  1  0.07983880  0.15966523  0.48400436  1
  Cu+  Cu31  1  0.40227884  0.30630377  0.80655304  1
  Cu+  Cu32  1  0.57747614  0.14907878  0.47809179  1
  Cu+  Cu33  1  0.06956194  0.42805543  0.47331938  1
  Cu+  Cu34  1  0.91103036  0.09617351  0.81157885  1
  Cu+  Cu35  1  0.19226962  0.59730586  0.80797232  1
  Cu+  Cu36  1  0.16368657  0.08255463  0.17673571  1
  Cu+  Cu37  1  0.16382599  0.57440293  0.17020756  1
  Cu+  Cu38  1  0.66440890  0.08471721  0.17424193  1
  Cu+  Cu39  1  0.66348111  0.58304324  0.16677540  1
  Cu+  Cu40  1  0.42378720  0.33714611  0.16879290  1
  Cu+  Cu41  1  0.41675904  0.83554551  0.17378654  1
  Cu+  Cu42  1  0.92010201  0.33646522  0.17213727  1
  Cu+  Cu43  1  0.91714650  0.83621862  0.17386768  1
  Cu+  Cu44  1  0.42322709  0.08712740  0.17418568  1
  Cu+  Cu45  1  0.41203839  0.57609219  0.16793355  1
  Cu+  Cu46  1  0.91882899  0.08283941  0.17681276  1
  Cu+  Cu47  1  0.91668445  0.58180092  0.17040035  1
  Cu+  Cu48  1  0.49758080  0.24525188  0.50398519  1
  Cu+  Cu49  1  0.49580893  0.74608249  0.50213543  1
  Cu+  Cu50  1  0.99738938  0.25230014  0.50504657  1
  Cu+  Cu51  1  0.99256390  0.74604561  0.49910853  1
  Cu+  Cu52  1  0.25532260  0.00451879  0.49959345  1
  Cu+  Cu53  1  0.24454328  0.50309438  0.50309923  1
  Cu+  Cu54  1  0.75175014  0.00349897  0.50450891  1
  Cu+  Cu55  1  0.75118186  0.50352346  0.50306490  1
  Cu+  Cu56  1  0.25355089  0.24906783  0.50452601  1
  Cu+  Cu57  1  0.25233247  0.74542977  0.50051662  1
  Cu+  Cu58  1  0.74938133  0.24633819  0.50577353  1
  Cu+  Cu59  1  0.75245281  0.74819798  0.50066663  1
  Cu+  Cu60  1  0.33081549  0.40990511  0.83652061  1
  Cu+  Cu61  1  0.32796467  0.91435063  0.83858059  1
  Cu+  Cu62  1  0.83100466  0.41709590  0.83782802  1
  Cu+  Cu63  1  0.82990980  0.92159539  0.83540632  1
  Cu+  Cu64  1  0.08340491  0.17082562  0.83711023  1
  Cu+  Cu65  1  0.09005477  0.67017751  0.83792584  1
  Cu+  Cu66  1  0.58600976  0.17210775  0.83735997  1
  Cu+  Cu67  1  0.58561070  0.67094197  0.83738670  1
  Cu+  Cu68  1  0.08979041  0.42134761  0.83732066  1
  Cu+  Cu69  1  0.08467907  0.91502968  0.83936391  1
  Cu+  Cu70  1  0.57626246  0.40875654  0.83695725  1
  Cu+  Cu71  1  0.58974142  0.92074981  0.83612817  1
  Cu+  Cu72  1  0.16636954  0.08096439  0.67616782  1
  Cu+  Cu73  1  0.16925054  0.58593462  0.67826070  1
  Cu+  Cu74  1  0.66876019  0.08456549  0.68233465  1
  Cu+  Cu75  1  0.66809646  0.58370996  0.67147143  1
  Cu+  Cu76  1  0.41368875  0.32649947  0.67817384  1
  Cu+  Cu77  1  0.41342673  0.83052479  0.67481754  1
  Cu+  Cu78  1  0.91655409  0.33368625  0.67708345  1
  Cu+  Cu79  1  0.91373431  0.82992710  0.67484877  1
  Cu+  Cu80  1  0.41551094  0.08137708  0.67631406  1
  Cu+  Cu81  1  0.41330253  0.58154402  0.67225564  1
  Cu+  Cu82  1  0.91512497  0.08436741  0.68207486  1
  Cu+  Cu83  1  0.91550586  0.58662995  0.67251310  1
  Cu+  Cu84  1  0.00059483  0.24987500  0.00984760  1
  Cu+  Cu85  1  0.00322223  0.75251472  0.00777569  1
  Cu+  Cu86  1  0.50211886  0.25000129  0.01244163  1
  Cu+  Cu87  1  0.50494707  0.75580459  0.00658691  1
  Cu+  Cu88  1  0.24869403  0.49655503  0.01045563  1
  Cu+  Cu89  1  0.24754540  0.99549064  0.01092134  1
  Cu+  Cu90  1  0.74727548  0.49857326  0.00586471  1
  Cu+  Cu91  1  0.75054619  1.00127412  0.01131555  1
  Cu+  Cu92  1  0.24896003  0.24845444  0.00966582  1
  Cu+  Cu93  1  0.24793495  0.74999553  0.00969020  1
  Cu+  Cu94  1  0.74833746  0.25032388  0.01050168  1
  Cu+  Cu95  1  0.75230239  0.75697148  0.00607441  1
  Cu+  Cu96  1  0.33706672  0.41916026  0.33806420  1
  Cu+  Cu97  1  0.33743699  0.91950889  0.34601598  1
  Cu+  Cu98  1  0.83626942  0.41730843  0.34074285  1
  Cu+  Cu99  1  0.83639532  0.91765076  0.34907364  1
  Cu+  Cu100  1  0.08196213  0.16385540  0.35109957  1
  Cu+  Cu101  1  0.08367911  0.66320542  0.33730027  1
  Cu+  Cu102  1  0.58098775  0.16415108  0.34889045  1
  Cu+  Cu103  1  0.58040377  0.66309588  0.33618692  1
  Cu+  Cu104  1  0.08323532  0.41968939  0.34551895  1
  Cu+  Cu105  1  0.08050951  0.91700270  0.34817528  1
  Cu+  Cu106  1  0.58230323  0.41798629  0.33887380  1
  Cu+  Cu107  1  0.58254670  0.91775718  0.34251781  1
  Cu+  Cu108  1  0.00069277  0.00095578  0.12085261  1
  Cu+  Cu109  1  -0.00214014  0.50159944  0.11424452  1
  Cu+  Cu110  1  0.49937232  -0.00335792  0.11818486  1
  Cu+  Cu111  1  0.50229382  0.50436443  0.10897581  1
  Cu+  Cu112  1  0.33549996  0.17127627  0.44584018  1
  Cu+  Cu113  1  0.33650029  0.66459312  0.44393528  1
  Cu+  Cu114  1  0.83214177  0.16669664  0.44922374  1
  Cu+  Cu115  1  0.82927510  0.66203495  0.44235044  1
  Cu+  Cu116  1  0.16688480  0.33470371  0.78050190  1
  Cu+  Cu117  1  0.16356965  0.83404602  0.78231888  1
  Cu+  Cu118  1  0.67048256  0.34051664  0.78117106  1
  Cu+  Cu119  1  0.66291463  0.82866944  0.77926016  1
  Te2-  Te120  1  -0.00012463  -0.00027708  0.39757911  1
  Te2-  Te121  1  -0.00078548  0.50224139  0.38803315  1
  Te2-  Te122  1  0.50188065  -0.00146771  0.39314843  1
  Te2-  Te123  1  0.50048202  0.50035694  0.38265293  1
  Te2-  Te124  1  0.33035049  0.16018694  0.72091708  1
  Te2-  Te125  1  0.33562083  0.66664579  0.71986513  1
  Te2-  Te126  1  0.83515277  0.17088770  0.72476991  1
  Te2-  Te127  1  0.83106677  0.66564308  0.71701861  1
  Te2-  Te128  1  0.16556277  0.32996968  0.05374958  1
  Te2-  Te129  1  0.16581754  0.83134722  0.05455520  1
  Te2-  Te130  1  0.66886164  0.33563547  0.05414698  1
  Te2-  Te131  1  0.66821418  0.83598928  0.05205265  1
  Te2-  Te132  1  0.48956789  0.24082125  0.88504983  1
  Te2-  Te133  1  0.49845027  0.75304179  0.88023926  1
  Te2-  Te134  1  0.99510298  0.25270868  0.88349177  1
  Te2-  Te135  1  0.99692562  0.74631004  0.88167503  1
  Te2-  Te136  1  0.25207116  0.00485208  0.88472233  1
  Te2-  Te137  1  0.25846337  0.50572385  0.88279579  1
  Te2-  Te138  1  0.75796403  0.01675865  0.88533939  1
  Te2-  Te139  1  0.74650483  0.50177761  0.87957695  1
  Te2-  Te140  1  0.24960912  0.24120893  0.88339495  1
  Te2-  Te141  1  0.25882070  0.74818234  0.88411793  1
  Te2-  Te142  1  0.75576910  0.25034787  0.88435392  1
  Te2-  Te143  1  0.75497006  0.75412298  0.87975883  1
  Te2-  Te144  1  0.32517392  0.40680772  0.21291163  1
  Te2-  Te145  1  0.33116192  0.91819378  0.21850140  1
  Te2-  Te146  1  0.82919595  0.41357344  0.21500184  1
  Te2-  Te147  1  0.82924992  0.91499310  0.22131885  1
  Te2-  Te148  1  0.08583004  0.17158946  0.22310441  1
  Te2-  Te149  1  0.08681533  0.66743661  0.21156460  1
  Te2-  Te150  1  0.59083616  0.17663370  0.22161089  1
  Te2-  Te151  1  0.58161160  0.66941855  0.21030796  1
  Te2-  Te152  1  0.08554109  0.40756008  0.21884623  1
  Te2-  Te153  1  0.08445374  0.91425563  0.22054539  1
  Te2-  Te154  1  0.59223596  0.41662204  0.21350835  1
  Te2-  Te155  1  0.58581854  0.91599769  0.21673457  1
  Te2-  Te156  1  0.15849058  0.07703808  0.55017713  1
  Te2-  Te157  1  0.15577443  0.58181756  0.55097260  1
  Te2-  Te158  1  0.66099324  0.07752188  0.55408507  1
  Te2-  Te159  1  0.66104410  0.58162464  0.54565746  1
  Te2-  Te160  1  0.41946517  0.33436289  0.55043088  1
  Te2-  Te161  1  0.42130818  0.83857647  0.54886445  1
  Te2-  Te162  1  0.91674344  0.34003065  0.55094917  1
  Te2-  Te163  1  0.92195580  0.84413821  0.54938742  1
  Te2-  Te164  1  0.42125299  0.07558688  0.55047127  1
  Te2-  Te165  1  0.41401873  0.57794737  0.54607680  1
  Te2-  Te166  1  0.92148054  0.08065022  0.55381943  1
  Te2-  Te167  1  0.91917152  0.58169898  0.54659385  1
  Te2-  Te168  1  -0.00005129  0.00052558  0.88196394  1
  Te2-  Te169  1  -0.00023803  0.50075338  0.88278240  1
  Te2-  Te170  1  0.49946564  0.00106310  0.88201613  1
  Te2-  Te171  1  0.50027436  0.50194198  0.88117400  1
  Te2-  Te172  1  0.33444078  0.16872593  0.21762323  1
  Te2-  Te173  1  0.33328297  0.66555766  0.21522849  1
  Te2-  Te174  1  0.83384491  0.16806098  0.21779887  1
  Te2-  Te175  1  0.83122583  0.66557858  0.21355322  1
  Te2-  Te176  1  0.16884599  0.33407889  0.55074356  1
  Te2-  Te177  1  0.16542284  0.83115086  0.54582187  1
  Te2-  Te178  1  0.66719764  0.33488848  0.54898678  1
  Te2-  Te179  1  0.66527251  0.83144990  0.54785511  1
  Te2-  Te180  1  0.32583626  0.41184071  0.70913884  1
  Te2-  Te181  1  0.32638308  0.91210938  0.71255313  1
  Te2-  Te182  1  0.82975733  0.41719064  0.71124400  1
  Te2-  Te183  1  0.82484755  0.91115235  0.70913997  1
  Te2-  Te184  1  0.08839605  0.17341123  0.71018979  1
  Te2-  Te185  1  0.08487960  0.67378191  0.71052624  1
  Te2-  Te186  1  0.58560500  0.17460589  0.71087382  1
  Te2-  Te187  1  0.58343976  0.66862266  0.70966578  1
  Te2-  Te188  1  0.08668060  0.41354738  0.71024466  1
  Te2-  Te189  1  0.08321532  0.91163554  0.71210260  1
  Te2-  Te190  1  0.58659898  0.41374849  0.70900398  1
  Te2-  Te191  1  0.58420017  0.91107221  0.70942789  1
  Te2-  Te192  1  0.16182651  0.07966235  0.04950257  1
  Te2-  Te193  1  0.15931841  0.57923091  0.04303450  1
  Te2-  Te194  1  0.66092318  0.08137007  0.04794373  1
  Te2-  Te195  1  0.66294613  0.58495034  0.04022163  1
  Te2-  Te196  1  0.41920579  0.33984304  0.04253651  1
  Te2-  Te197  1  0.41823150  0.83783736  0.04657458  1
  Te2-  Te198  1  0.91926116  0.33880065  0.04593409  1
  Te2-  Te199  1  0.92131513  0.84080731  0.04631520  1
  Te2-  Te200  1  0.41837354  0.07829930  0.04689120  1
  Te2-  Te201  1  0.42191195  0.58401317  0.04047495  1
  Te2-  Te202  1  0.92003151  0.08108698  0.04931999  1
  Te2-  Te203  1  0.91778050  0.58121123  0.04295812  1
  Te2-  Te204  1  0.49353240  0.24943021  0.37688541  1
  Te2-  Te205  1  0.49525991  0.74683271  0.37551738  1
  Te2-  Te206  1  0.99190129  0.24715543  0.37786909  1
  Te2-  Te207  1  0.99304412  0.74308838  0.37285537  1
  Te2-  Te208  1  0.25399230  0.00927789  0.37349856  1
  Te2-  Te209  1  0.25537856  0.50653205  0.37581331  1
  Te2-  Te210  1  0.75276752  0.00750791  0.37775607  1
  Te2-  Te211  1  0.75185060  0.50320503  0.37602658  1
  Te2-  Te212  1  0.25540607  0.25052867  0.37745441  1
  Te2-  Te213  1  0.25323621  0.74525943  0.37401538  1
  Te2-  Te214  1  0.75458982  0.24780917  0.37844640  1
  Te2-  Te215  1  0.74989986  0.74379300  0.37390480  1
