# generated using pymatgen
data_Ti(CuTe)4
_symmetry_space_group_name_H-M   'P 1'
_cell_length_a   16.86742453
_cell_length_b   16.86683781
_cell_length_c   20.67864079
_cell_angle_alpha   89.97395466
_cell_angle_beta   90.01255131
_cell_angle_gamma   120.00259153
_symmetry_Int_Tables_number   1
_chemical_formula_structural   Ti(CuTe)4
_chemical_formula_sum   'Ti24 Cu96 Te96'
_cell_volume   5094.75939384
_cell_formula_units_Z   24
loop_
 _symmetry_equiv_pos_site_id
 _symmetry_equiv_pos_as_xyz
  1  'x, y, z'
loop_
 _atom_type_symbol
 _atom_type_oxidation_number
  Ti4+  4.0
  Cu+  1.0
  Te2-  -2.0
loop_
 _atom_site_type_symbol
 _atom_site_label
 _atom_site_symmetry_multiplicity
 _atom_site_fract_x
 _atom_site_fract_y
 _atom_site_fract_z
 _atom_site_occupancy
  Ti4+  Ti0  1  -0.00096289  -0.00032010  0.25538259  1
  Ti4+  Ti1  1  -0.00434984  0.49385530  0.25545922  1
  Ti4+  Ti2  1  0.49634922  -0.00265938  0.26131038  1
  Ti4+  Ti3  1  0.50123350  0.50163743  0.25692271  1
  Ti4+  Ti4  1  0.33240506  0.16918581  0.58943554  1
  Ti4+  Ti5  1  0.33634558  0.66883833  0.58941544  1
  Ti4+  Ti6  1  0.83181639  0.16683294  0.59542191  1
  Ti4+  Ti7  1  0.83672366  0.67085017  0.59040896  1
  Ti4+  Ti8  1  0.16869669  0.33647989  0.92336937  1
  Ti4+  Ti9  1  0.16901908  0.83520070  0.92535209  1
  Ti4+  Ti10  1  0.66870419  0.33104138  0.92630308  1
  Ti4+  Ti11  1  0.66405866  0.83145710  0.92578257  1
  Ti4+  Ti12  1  0.00119976  0.00040884  0.75657370  1
  Ti4+  Ti13  1  0.00026687  0.49890536  0.75447437  1
  Ti4+  Ti14  1  0.50092458  0.00093541  0.75643519  1
  Ti4+  Ti15  1  0.50017610  0.50192116  0.75723388  1
  Ti4+  Ti16  1  0.33244508  0.16320687  0.08932042  1
  Ti4+  Ti17  1  0.33366034  0.66624972  0.09048366  1
  Ti4+  Ti18  1  0.83641459  0.16860999  0.08906747  1
  Ti4+  Ti19  1  0.83126930  0.66614191  0.08611459  1
  Ti4+  Ti20  1  0.16920944  0.33369752  0.42346444  1
  Ti4+  Ti21  1  0.16331428  0.83234232  0.41963359  1
  Ti4+  Ti22  1  0.66646651  0.33137042  0.42313694  1
  Ti4+  Ti23  1  0.66518652  0.83316290  0.42216017  1
  Cu+  Cu24  1  0.68386868  0.08710699  0.81292539  1
  Cu+  Cu25  1  0.34361105  0.92709321  0.47857645  1
  Cu+  Cu26  1  0.73821431  0.24981292  0.14665147  1
  Cu+  Cu27  1  0.57839821  0.93021304  0.47852495  1
  Cu+  Cu28  1  0.07089049  0.93164487  0.47077574  1
  Cu+  Cu29  1  0.40400313  0.59898334  0.80476242  1
  Cu+  Cu30  1  0.02644453  0.26261772  0.13812041  1
  Cu+  Cu31  1  0.73821557  0.76244661  0.13994875  1
  Cu+  Cu32  1  0.91126353  0.31599164  0.81221236  1
  Cu+  Cu33  1  0.36396417  0.43330812  0.47273916  1
  Cu+  Cu34  1  0.23552918  0.97073645  0.14261458  1
  Cu+  Cu35  1  0.73479440  0.48260737  0.14009798  1
  Cu+  Cu36  1  0.16382128  0.07638127  0.16911210  1
  Cu+  Cu37  1  0.16265234  0.57908128  0.17057742  1
  Cu+  Cu38  1  0.66167723  0.07901824  0.17486620  1
  Cu+  Cu39  1  0.66210492  0.58397448  0.16794718  1
  Cu+  Cu40  1  0.41569205  0.33473575  0.17056423  1
  Cu+  Cu41  1  0.41747809  0.83438306  0.17509497  1
  Cu+  Cu42  1  0.91892323  0.33567023  0.16738983  1
  Cu+  Cu43  1  0.91287711  0.83697408  0.16735562  1
  Cu+  Cu44  1  0.41051238  0.07464074  0.17235617  1
  Cu+  Cu45  1  0.41715569  0.58032635  0.17187147  1
  Cu+  Cu46  1  0.92331056  0.08708833  0.16851805  1
  Cu+  Cu47  1  0.91058829  0.57490848  0.16659146  1
  Cu+  Cu48  1  0.49692056  0.24998183  0.50304207  1
  Cu+  Cu49  1  0.49693480  0.75220574  0.50216602  1
  Cu+  Cu50  1  0.99768843  0.25108738  0.50915618  1
  Cu+  Cu51  1  0.99535598  0.75451787  0.50103269  1
  Cu+  Cu52  1  0.24687146  0.00470957  0.50158852  1
  Cu+  Cu53  1  0.25882818  0.50293263  0.50432351  1
  Cu+  Cu54  1  0.74895128  0.00301875  0.50733877  1
  Cu+  Cu55  1  0.75322849  0.50276651  0.50544399  1
  Cu+  Cu56  1  0.25779836  0.25572410  0.50258598  1
  Cu+  Cu57  1  0.25383678  0.75057744  0.50074523  1
  Cu+  Cu58  1  0.75166043  0.24831762  0.50800994  1
  Cu+  Cu59  1  0.75492794  0.75014868  0.50337542  1
  Cu+  Cu60  1  0.33252150  0.42319375  0.83733882  1
  Cu+  Cu61  1  0.32997267  0.91738215  0.83936781  1
  Cu+  Cu62  1  0.83101537  0.41087721  0.83802930  1
  Cu+  Cu63  1  0.83172845  0.91204596  0.83982719  1
  Cu+  Cu64  1  0.08587201  0.16952092  0.83786840  1
  Cu+  Cu65  1  0.08784829  0.67075111  0.83778585  1
  Cu+  Cu66  1  0.58965167  0.16935298  0.83801846  1
  Cu+  Cu67  1  0.57819094  0.66788208  0.83979992  1
  Cu+  Cu68  1  0.08513319  0.41316460  0.83525610  1
  Cu+  Cu69  1  0.09028741  0.91967323  0.83953235  1
  Cu+  Cu70  1  0.58672886  0.41598468  0.84067957  1
  Cu+  Cu71  1  0.58608145  0.91455803  0.83834126  1
  Cu+  Cu72  1  0.16792461  0.08514833  0.67256884  1
  Cu+  Cu73  1  0.16899605  0.58365080  0.67143331  1
  Cu+  Cu74  1  0.66766704  0.08464649  0.68339065  1
  Cu+  Cu75  1  0.67206039  0.58599489  0.67403553  1
  Cu+  Cu76  1  0.41749974  0.33362439  0.67553936  1
  Cu+  Cu77  1  0.41664705  0.83527935  0.67638655  1
  Cu+  Cu78  1  0.91354997  0.33044765  0.68232923  1
  Cu+  Cu79  1  0.91922213  0.83273160  0.67518794  1
  Cu+  Cu80  1  0.41359220  0.08471065  0.67514239  1
  Cu+  Cu81  1  0.41762214  0.58724362  0.67767865  1
  Cu+  Cu82  1  0.91412234  0.08262936  0.67716297  1
  Cu+  Cu83  1  0.91727028  0.58703221  0.67273788  1
  Cu+  Cu84  1  0.00576181  0.25293200  0.01176862  1
  Cu+  Cu85  1  0.00335175  0.75344238  0.00552517  1
  Cu+  Cu86  1  0.50141707  0.24791693  0.00849806  1
  Cu+  Cu87  1  0.50025825  0.74989522  0.01047183  1
  Cu+  Cu88  1  0.25066866  0.50021739  0.00730267  1
  Cu+  Cu89  1  0.24846153  0.99480689  0.01352682  1
  Cu+  Cu90  1  0.74900749  0.49500025  0.01165619  1
  Cu+  Cu91  1  0.74961841  0.99816424  0.01013826  1
  Cu+  Cu92  1  0.25078248  0.25135803  0.00519103  1
  Cu+  Cu93  1  0.25166491  0.75354191  0.00811485  1
  Cu+  Cu94  1  0.75063469  0.25007002  0.01716436  1
  Cu+  Cu95  1  0.74595500  0.75074572  0.01136930  1
  Cu+  Cu96  1  0.33935889  0.41895701  0.34489863  1
  Cu+  Cu97  1  0.33165973  0.91410913  0.34875309  1
  Cu+  Cu98  1  0.83229796  0.41111576  0.34161663  1
  Cu+  Cu99  1  0.83215070  0.91759198  0.34021842  1
  Cu+  Cu100  1  0.08288792  0.16608663  0.34083333  1
  Cu+  Cu101  1  0.07582026  0.65811027  0.33797272  1
  Cu+  Cu102  1  0.58259211  0.16416940  0.34396579  1
  Cu+  Cu103  1  0.58481936  0.66697645  0.34069114  1
  Cu+  Cu104  1  0.08079129  0.41347842  0.34094773  1
  Cu+  Cu105  1  0.07736864  0.91466912  0.34278657  1
  Cu+  Cu106  1  0.58429804  0.41700803  0.34073372  1
  Cu+  Cu107  1  0.57929826  0.91684093  0.34927030  1
  Cu+  Cu108  1  0.00197946  0.00112442  0.11056380  1
  Cu+  Cu109  1  0.00398702  0.50614918  0.11086787  1
  Cu+  Cu110  1  0.49972944  -0.00121687  0.11818672  1
  Cu+  Cu111  1  0.49556637  0.49554401  0.11241974  1
  Cu+  Cu112  1  0.33410241  0.16751142  0.44366356  1
  Cu+  Cu113  1  0.32782992  0.66262267  0.44482292  1
  Cu+  Cu114  1  0.83746403  0.16752733  0.45262710  1
  Cu+  Cu115  1  0.82906592  0.66123198  0.44633695  1
  Cu+  Cu116  1  0.17039193  0.33143469  0.77940442  1
  Cu+  Cu117  1  0.16458761  0.83178432  0.78226146  1
  Cu+  Cu118  1  0.66490429  0.33559015  0.78270434  1
  Cu+  Cu119  1  0.66985026  0.83142506  0.78297708  1
  Te2-  Te120  1  -0.00314193  0.00129266  0.38538759  1
  Te2-  Te121  1  -0.00259653  0.49490490  0.38429738  1
  Te2-  Te122  1  0.49757430  0.00119597  0.39338989  1
  Te2-  Te123  1  0.50643379  0.50305995  0.38719715  1
  Te2-  Te124  1  0.33212338  0.16830880  0.71814298  1
  Te2-  Te125  1  0.33234852  0.66972987  0.71930602  1
  Te2-  Te126  1  0.83385691  0.16471796  0.72768545  1
  Te2-  Te127  1  0.83572834  0.66846440  0.71967067  1
  Te2-  Te128  1  0.17296241  0.33632721  0.05370976  1
  Te2-  Te129  1  0.16427059  0.82857223  0.05640860  1
  Te2-  Te130  1  0.66390015  0.32981392  0.05836458  1
  Te2-  Te131  1  0.66411190  0.83461541  0.05631930  1
  Te2-  Te132  1  0.49879653  0.24647034  0.88264885  1
  Te2-  Te133  1  0.49017311  0.74888440  0.88464310  1
  Te2-  Te134  1  0.99482156  0.24452179  0.88459611  1
  Te2-  Te135  1  0.99860408  0.75010940  0.87993693  1
  Te2-  Te136  1  0.25590337  0.00821498  0.88647691  1
  Te2-  Te137  1  0.25090175  0.51027819  0.88181577  1
  Te2-  Te138  1  0.75642723  0.00452988  0.88447677  1
  Te2-  Te139  1  0.75477631  0.50158993  0.88436400  1
  Te2-  Te140  1  0.25493244  0.25299827  0.87927813  1
  Te2-  Te141  1  0.25514245  0.74983937  0.88251335  1
  Te2-  Te142  1  0.75670134  0.24299142  0.88833553  1
  Te2-  Te143  1  0.74720181  0.74418249  0.88382144  1
  Te2-  Te144  1  0.32926862  0.41399295  0.21759822  1
  Te2-  Te145  1  0.32327113  0.90692958  0.22075187  1
  Te2-  Te146  1  0.81935467  0.40692174  0.21533415  1
  Te2-  Te147  1  0.82595324  0.91904988  0.21430383  1
  Te2-  Te148  1  0.09154993  0.17293245  0.21467994  1
  Te2-  Te149  1  0.07836093  0.66425089  0.21194502  1
  Te2-  Te150  1  0.57938335  0.16897072  0.21805287  1
  Te2-  Te151  1  0.58506570  0.67511840  0.21504159  1
  Te2-  Te152  1  0.08718964  0.41172477  0.21507968  1
  Te2-  Te153  1  0.07923596  0.90666138  0.21531209  1
  Te2-  Te154  1  0.58372138  0.41185802  0.21479850  1
  Te2-  Te155  1  0.58393039  0.91350367  0.22183084  1
  Te2-  Te156  1  0.15976560  0.08653380  0.54660904  1
  Te2-  Te157  1  0.16698148  0.58217480  0.54524278  1
  Te2-  Te158  1  0.65879483  0.08267657  0.55544014  1
  Te2-  Te159  1  0.66501583  0.58329796  0.54808836  1
  Te2-  Te160  1  0.42525961  0.34380090  0.54948526  1
  Te2-  Te161  1  0.42167452  0.84554317  0.55017485  1
  Te2-  Te162  1  0.91769023  0.33802849  0.55463542  1
  Te2-  Te163  1  0.92066155  0.84614554  0.54939439  1
  Te2-  Te164  1  0.41912726  0.08302642  0.54876313  1
  Te2-  Te165  1  0.42777864  0.58648696  0.55040940  1
  Te2-  Te166  1  0.91659118  0.08176221  0.55120287  1
  Te2-  Te167  1  0.92291970  0.58645966  0.54661093  1
  Te2-  Te168  1  0.00188901  0.00035092  0.88312325  1
  Te2-  Te169  1  0.00252065  0.50097825  0.88157917  1
  Te2-  Te170  1  0.50029006  -0.00054245  0.88346109  1
  Te2-  Te171  1  0.50027726  0.49853619  0.88433477  1
  Te2-  Te172  1  0.33194863  0.16600619  0.21645665  1
  Te2-  Te173  1  0.33087214  0.66337774  0.21694413  1
  Te2-  Te174  1  0.83321863  0.16622324  0.21686728  1
  Te2-  Te175  1  0.83252949  0.66611305  0.21375066  1
  Te2-  Te176  1  0.16806632  0.33459422  0.55052256  1
  Te2-  Te177  1  0.16632163  0.83321922  0.54718348  1
  Te2-  Te178  1  0.66624363  0.33412649  0.54951869  1
  Te2-  Te179  1  0.66703918  0.83204891  0.54916632  1
  Te2-  Te180  1  0.32850690  0.41487978  0.70966576  1
  Te2-  Te181  1  0.32793903  0.91587754  0.71273478  1
  Te2-  Te182  1  0.82668443  0.41688737  0.71090248  1
  Te2-  Te183  1  0.82882849  0.91263959  0.71280406  1
  Te2-  Te184  1  0.08517947  0.17192790  0.71086627  1
  Te2-  Te185  1  0.08699644  0.67091178  0.71029192  1
  Te2-  Te186  1  0.58385606  0.17428816  0.71136082  1
  Te2-  Te187  1  0.58975292  0.67378815  0.71178479  1
  Te2-  Te188  1  0.08851486  0.41407143  0.70850859  1
  Te2-  Te189  1  0.08891205  0.91647399  0.71198848  1
  Te2-  Te190  1  0.58697389  0.41675845  0.71295595  1
  Te2-  Te191  1  0.58597710  0.91143463  0.71178523  1
  Te2-  Te192  1  0.16129250  0.08160072  0.04178457  1
  Te2-  Te193  1  0.16319985  0.58250255  0.04356873  1
  Te2-  Te194  1  0.66062398  0.07780428  0.04697715  1
  Te2-  Te195  1  0.65735433  0.57697716  0.04022464  1
  Te2-  Te196  1  0.41920464  0.33557138  0.04386869  1
  Te2-  Te197  1  0.41998263  0.83933284  0.04808304  1
  Te2-  Te198  1  0.92386435  0.34330351  0.04130550  1
  Te2-  Te199  1  0.91948167  0.83937082  0.04061219  1
  Te2-  Te200  1  0.42117807  0.07854919  0.04522545  1
  Te2-  Te201  1  0.41950711  0.57986043  0.04516774  1
  Te2-  Te202  1  0.92039290  0.08000144  0.04219045  1
  Te2-  Te203  1  0.92147922  0.58293217  0.04014844  1
  Te2-  Te204  1  0.49447121  0.24726611  0.37697589  1
  Te2-  Te205  1  0.49149561  0.74344800  0.37638015  1
  Te2-  Te206  1  0.99560158  0.24641764  0.38132831  1
  Te2-  Te207  1  0.99042123  0.74241887  0.37432839  1
  Te2-  Te208  1  0.25018696  0.00667062  0.37341511  1
  Te2-  Te209  1  0.25183286  0.50438725  0.37601614  1
  Te2-  Te210  1  0.75279808  0.00713276  0.37909146  1
  Te2-  Te211  1  0.75339841  0.50255063  0.37753315  1
  Te2-  Te212  1  0.25329032  0.24621187  0.37567634  1
  Te2-  Te213  1  0.24578032  0.74085625  0.37436845  1
  Te2-  Te214  1  0.75185037  0.24297824  0.38108793  1
  Te2-  Te215  1  0.75365230  0.74884332  0.37717235  1
