# generated using pymatgen
data_Ti(CuTe)4
_symmetry_space_group_name_H-M   'P 1'
_cell_length_a   16.88698283
_cell_length_b   16.88292370
_cell_length_c   20.70131694
_cell_angle_alpha   89.97019765
_cell_angle_beta   89.97591885
_cell_angle_gamma   119.99637885
_symmetry_Int_Tables_number   1
_chemical_formula_structural   Ti(CuTe)4
_chemical_formula_sum   'Ti24 Cu96 Te96'
_cell_volume   5111.44837500
_cell_formula_units_Z   24
loop_
 _symmetry_equiv_pos_site_id
 _symmetry_equiv_pos_as_xyz
  1  'x, y, z'
loop_
 _atom_type_symbol
 _atom_type_oxidation_number
  Ti4+  4.0
  Cu+  1.0
  Te2-  -2.0
loop_
 _atom_site_type_symbol
 _atom_site_label
 _atom_site_symmetry_multiplicity
 _atom_site_fract_x
 _atom_site_fract_y
 _atom_site_fract_z
 _atom_site_occupancy
  Ti4+  Ti0  1  -0.00339891  0.00147083  0.25692180  1
  Ti4+  Ti1  1  -0.00238647  0.49942198  0.26309368  1
  Ti4+  Ti2  1  0.49897956  0.00105855  0.25739852  1
  Ti4+  Ti3  1  0.49703674  0.50165230  0.25687118  1
  Ti4+  Ti4  1  0.33304333  0.16748507  0.58846091  1
  Ti4+  Ti5  1  0.33405706  0.66439703  0.59017562  1
  Ti4+  Ti6  1  0.83234174  0.16433154  0.59669260  1
  Ti4+  Ti7  1  0.83436450  0.66390125  0.59165484  1
  Ti4+  Ti8  1  0.16770895  0.33369433  0.92368351  1
  Ti4+  Ti9  1  0.17037821  0.83451932  0.92065741  1
  Ti4+  Ti10  1  0.67051126  0.33679377  0.92289787  1
  Ti4+  Ti11  1  0.66876573  0.83358580  0.92348302  1
  Ti4+  Ti12  1  0.00097746  -0.00119064  0.75372673  1
  Ti4+  Ti13  1  0.00149119  0.50025422  0.75279599  1
  Ti4+  Ti14  1  0.49963266  -0.00121835  0.75272861  1
  Ti4+  Ti15  1  0.50081211  0.49940268  0.75604577  1
  Ti4+  Ti16  1  0.33318317  0.16771778  0.08785670  1
  Ti4+  Ti17  1  0.33365814  0.66654376  0.08955606  1
  Ti4+  Ti18  1  0.83362620  0.16663228  0.08939672  1
  Ti4+  Ti19  1  0.83369010  0.66757817  0.09017179  1
  Ti4+  Ti20  1  0.16649275  0.33348107  0.42393046  1
  Ti4+  Ti21  1  0.16348881  0.83196441  0.42082236  1
  Ti4+  Ti22  1  0.66497012  0.33351335  0.42236390  1
  Ti4+  Ti23  1  0.66507475  0.83318207  0.42407991  1
  Cu+  Cu24  1  0.35723708  0.42813980  0.47345721  1
  Cu+  Cu25  1  0.67806880  0.08908766  0.81205401  1
  Cu+  Cu26  1  0.19143817  0.59509970  0.80460491  1
  Cu+  Cu27  1  0.91498010  0.08683896  0.81731667  1
  Cu+  Cu28  1  0.91595434  0.33000130  0.81815692  1
  Cu+  Cu29  1  0.07814352  0.64890773  0.47770747  1
  Cu+  Cu30  1  0.73610418  0.76280061  0.14119292  1
  Cu+  Cu31  1  0.91644723  0.59196171  0.81244523  1
  Cu+  Cu32  1  0.84667882  0.41728996  0.48069478  1
  Cu+  Cu33  1  0.68848892  0.59791739  0.80625888  1
  Cu+  Cu34  1  0.19293078  0.09611388  0.80342298  1
  Cu+  Cu35  1  0.23577897  0.26178364  0.14169458  1
  Cu+  Cu36  1  0.16326641  0.08771616  0.17033030  1
  Cu+  Cu37  1  0.16352794  0.58368560  0.17557160  1
  Cu+  Cu38  1  0.66239848  0.08231265  0.17131493  1
  Cu+  Cu39  1  0.66384237  0.58765669  0.17120919  1
  Cu+  Cu40  1  0.41109384  0.33557002  0.17046404  1
  Cu+  Cu41  1  0.41830415  0.83721431  0.17193366  1
  Cu+  Cu42  1  0.91450957  0.33538953  0.17554328  1
  Cu+  Cu43  1  0.91087682  0.83576601  0.17085365  1
  Cu+  Cu44  1  0.41944844  0.08231694  0.17083898  1
  Cu+  Cu45  1  0.41647909  0.58108513  0.17018346  1
  Cu+  Cu46  1  0.91674011  0.08074177  0.17005968  1
  Cu+  Cu47  1  0.91725595  0.58069715  0.17607395  1
  Cu+  Cu48  1  0.49374663  0.24771652  0.50172426  1
  Cu+  Cu49  1  0.49684174  0.74740499  0.50431675  1
  Cu+  Cu50  1  0.99548429  0.24512657  0.50903936  1
  Cu+  Cu51  1  0.99611126  0.74200187  0.50272358  1
  Cu+  Cu52  1  0.24791725  0.00326396  0.50282411  1
  Cu+  Cu53  1  0.25652471  0.50204268  0.50421057  1
  Cu+  Cu54  1  0.75026854  0.00046195  0.50963779  1
  Cu+  Cu55  1  0.75363098  0.50153082  0.50435973  1
  Cu+  Cu56  1  0.25483164  0.25223359  0.50396403  1
  Cu+  Cu57  1  0.24854917  0.74549550  0.50431401  1
  Cu+  Cu58  1  0.75069309  0.24700374  0.50868970  1
  Cu+  Cu59  1  0.74847496  0.74585613  0.50638046  1
  Cu+  Cu60  1  0.32989746  0.41462801  0.83779661  1
  Cu+  Cu61  1  0.32933776  0.91267349  0.83287656  1
  Cu+  Cu62  1  0.82498531  0.41506079  0.83221673  1
  Cu+  Cu63  1  0.82717620  0.91219421  0.83434125  1
  Cu+  Cu64  1  0.08965699  0.16869174  0.83571173  1
  Cu+  Cu65  1  0.09134075  0.67261528  0.83249555  1
  Cu+  Cu66  1  0.58530487  0.16878201  0.83446933  1
  Cu+  Cu67  1  0.58832995  0.66840599  0.83818709  1
  Cu+  Cu68  1  0.09047260  0.41848114  0.83423771  1
  Cu+  Cu69  1  0.09136289  0.91960647  0.83307367  1
  Cu+  Cu70  1  0.59093072  0.42262603  0.83637313  1
  Cu+  Cu71  1  0.58537796  0.91526647  0.83525284  1
  Cu+  Cu72  1  0.17149543  0.08593202  0.67506146  1
  Cu+  Cu73  1  0.17172358  0.58367071  0.67703688  1
  Cu+  Cu74  1  0.66921741  0.08338381  0.68126177  1
  Cu+  Cu75  1  0.67176430  0.58389919  0.67864191  1
  Cu+  Cu76  1  0.41401005  0.33136053  0.67376414  1
  Cu+  Cu77  1  0.41372490  0.82934656  0.67243757  1
  Cu+  Cu78  1  0.91452156  0.32877971  0.68471697  1
  Cu+  Cu79  1  0.91689085  0.83011608  0.67208867  1
  Cu+  Cu80  1  0.41304788  0.08232492  0.67059051  1
  Cu+  Cu81  1  0.41513905  0.58121364  0.67556205  1
  Cu+  Cu82  1  0.91374360  0.08134424  0.68372943  1
  Cu+  Cu83  1  0.91598768  0.58223779  0.68131777  1
  Cu+  Cu84  1  0.00070336  0.25080369  0.01042005  1
  Cu+  Cu85  1  0.00558966  0.75031377  0.00653138  1
  Cu+  Cu86  1  0.50548239  0.25296317  0.00595121  1
  Cu+  Cu87  1  0.50234200  0.74975892  0.00740606  1
  Cu+  Cu88  1  0.24884731  0.50035018  0.00993933  1
  Cu+  Cu89  1  0.25188030  0.99940473  0.00587107  1
  Cu+  Cu90  1  0.75410289  0.50036890  0.01023792  1
  Cu+  Cu91  1  0.75122571  1.00035622  0.01001130  1
  Cu+  Cu92  1  0.24842005  0.25086384  0.01238039  1
  Cu+  Cu93  1  0.24952987  0.74904469  0.00700179  1
  Cu+  Cu94  1  0.75131579  0.25227543  0.00967212  1
  Cu+  Cu95  1  0.74965312  0.75159691  0.01243022  1
  Cu+  Cu96  1  0.33388037  0.41727213  0.34556002  1
  Cu+  Cu97  1  0.33516701  0.91909618  0.33956981  1
  Cu+  Cu98  1  0.83389969  0.41802682  0.34983842  1
  Cu+  Cu99  1  0.83275260  0.91805675  0.34310731  1
  Cu+  Cu100  1  0.07952279  0.16460130  0.34246430  1
  Cu+  Cu101  1  0.07804977  0.66197396  0.34860375  1
  Cu+  Cu102  1  0.58058269  0.16370605  0.34098726  1
  Cu+  Cu103  1  0.58110569  0.66689616  0.34188586  1
  Cu+  Cu104  1  0.07903730  0.41574725  0.34510371  1
  Cu+  Cu105  1  0.07812108  0.91851206  0.33861128  1
  Cu+  Cu106  1  0.57914036  0.41782616  0.33943788  1
  Cu+  Cu107  1  0.58143537  0.92060725  0.34208307  1
  Cu+  Cu108  1  0.00195727  -0.00301851  0.11349807  1
  Cu+  Cu109  1  0.00087194  0.49892399  0.12116422  1
  Cu+  Cu110  1  0.49978054  -0.00071302  0.11404022  1
  Cu+  Cu111  1  0.50196529  0.49820393  0.11390727  1
  Cu+  Cu112  1  0.33060243  0.16298962  0.44415970  1
  Cu+  Cu113  1  0.33424707  0.67017721  0.44673117  1
  Cu+  Cu114  1  0.83111572  0.16312186  0.45390622  1
  Cu+  Cu115  1  0.83052106  0.66847837  0.44821544  1
  Cu+  Cu116  1  0.16928330  0.33246496  0.77874897  1
  Cu+  Cu117  1  0.16794120  0.83544701  0.77393697  1
  Cu+  Cu118  1  0.65698559  0.32827929  0.77858590  1
  Cu+  Cu119  1  0.66135261  0.82865662  0.77944043  1
  Te2-  Te120  1  -0.00253090  0.00013846  0.38590095  1
  Te2-  Te121  1  -0.00126613  0.49724860  0.39578812  1
  Te2-  Te122  1  0.49757308  0.00049149  0.38701766  1
  Te2-  Te123  1  0.50112316  0.50244863  0.38704684  1
  Te2-  Te124  1  0.33693446  0.16812845  0.71940957  1
  Te2-  Te125  1  0.33754589  0.66730588  0.72084266  1
  Te2-  Te126  1  0.83284595  0.16454794  0.72985469  1
  Te2-  Te127  1  0.83753143  0.66935164  0.72376228  1
  Te2-  Te128  1  0.16570664  0.33515320  0.05359917  1
  Te2-  Te129  1  0.17010430  0.83474449  0.04934871  1
  Te2-  Te130  1  0.66885665  0.33503485  0.05125228  1
  Te2-  Te131  1  0.66610814  0.83512049  0.05333272  1
  Te2-  Te132  1  0.50108148  0.25237771  0.87915286  1
  Te2-  Te133  1  0.49850830  0.74795368  0.88098294  1
  Te2-  Te134  1  0.99283399  0.24628328  0.88397853  1
  Te2-  Te135  1  0.99758937  0.75095744  0.88009735  1
  Te2-  Te136  1  0.25938605  0.00892112  0.87977181  1
  Te2-  Te137  1  0.25576211  0.50743971  0.88357082  1
  Te2-  Te138  1  0.75539179  0.00950712  0.88380038  1
  Te2-  Te139  1  0.75913784  0.51386613  0.88382338  1
  Te2-  Te140  1  0.25572602  0.24813781  0.88443146  1
  Te2-  Te141  1  0.25805376  0.74747886  0.88106692  1
  Te2-  Te142  1  0.75635662  0.24674266  0.88336332  1
  Te2-  Te143  1  0.75771976  0.74906498  0.88493046  1
  Te2-  Te144  1  0.32289958  0.41565076  0.21803440  1
  Te2-  Te145  1  0.32711131  0.91455769  0.21406833  1
  Te2-  Te146  1  0.82628524  0.41397953  0.22220537  1
  Te2-  Te147  1  0.82190624  0.91552113  0.21707538  1
  Te2-  Te148  1  0.08241271  0.17621813  0.21662059  1
  Te2-  Te149  1  0.08374091  0.67085866  0.22161773  1
  Te2-  Te150  1  0.58639174  0.17363130  0.21556203  1
  Te2-  Te151  1  0.58243659  0.67562759  0.21616532  1
  Te2-  Te152  1  0.08302090  0.41461075  0.21919077  1
  Te2-  Te153  1  0.08166537  0.91697662  0.21219866  1
  Te2-  Te154  1  0.58176582  0.41668306  0.21304935  1
  Te2-  Te155  1  0.58568893  0.91534922  0.21629504  1
  Te2-  Te156  1  0.16146317  0.08367203  0.54832994  1
  Te2-  Te157  1  0.16124754  0.57451300  0.55019440  1
  Te2-  Te158  1  0.66196256  0.08008435  0.55405594  1
  Te2-  Te159  1  0.66367620  0.57827081  0.55157428  1
  Te2-  Te160  1  0.42372306  0.34263030  0.54871717  1
  Te2-  Te161  1  0.41647755  0.83522720  0.54693381  1
  Te2-  Te162  1  0.92103830  0.33728457  0.55585102  1
  Te2-  Te163  1  0.91871117  0.83296451  0.54660256  1
  Te2-  Te164  1  0.41652052  0.08006214  0.54519341  1
  Te2-  Te165  1  0.42453484  0.58089354  0.54996805  1
  Te2-  Te166  1  0.91750757  0.07863138  0.55556456  1
  Te2-  Te167  1  0.92179597  0.57481527  0.55282651  1
  Te2-  Te168  1  -0.00114980  -0.00332124  0.88151536  1
  Te2-  Te169  1  -0.00075099  0.50076351  0.88156135  1
  Te2-  Te170  1  0.49888457  -0.00086263  0.88004039  1
  Te2-  Te171  1  0.49927799  0.49923117  0.88297948  1
  Te2-  Te172  1  0.33274082  0.16604289  0.21460388  1
  Te2-  Te173  1  0.33370935  0.66792847  0.21591576  1
  Te2-  Te174  1  0.83103986  0.16493755  0.21556104  1
  Te2-  Te175  1  0.83234792  0.66711131  0.21694671  1
  Te2-  Te176  1  0.16651415  0.33229966  0.55068326  1
  Te2-  Te177  1  0.16616091  0.83376907  0.54784115  1
  Te2-  Te178  1  0.66270609  0.33107211  0.54936522  1
  Te2-  Te179  1  0.66480221  0.83043265  0.55056498  1
  Te2-  Te180  1  0.32792265  0.41285333  0.71195237  1
  Te2-  Te181  1  0.32780598  0.91309685  0.70729364  1
  Te2-  Te182  1  0.82322290  0.41021180  0.70739245  1
  Te2-  Te183  1  0.82588915  0.90804670  0.70892000  1
  Te2-  Te184  1  0.08742636  0.17320701  0.70862213  1
  Te2-  Te185  1  0.08949102  0.67427618  0.70547802  1
  Te2-  Te186  1  0.58345038  0.17157960  0.70719839  1
  Te2-  Te187  1  0.58624065  0.67128419  0.71014271  1
  Te2-  Te188  1  0.08826744  0.41139725  0.70805948  1
  Te2-  Te189  1  0.08702412  0.91325348  0.70620957  1
  Te2-  Te190  1  0.58446641  0.41155462  0.70922990  1
  Te2-  Te191  1  0.58410018  0.90972641  0.70839849  1
  Te2-  Te192  1  0.16086450  0.07838002  0.04241353  1
  Te2-  Te193  1  0.16056758  0.58111804  0.04791116  1
  Te2-  Te194  1  0.66170136  0.08158962  0.04466002  1
  Te2-  Te195  1  0.66180800  0.57931932  0.04381363  1
  Te2-  Te196  1  0.42171161  0.33986130  0.04246997  1
  Te2-  Te197  1  0.41979908  0.83766554  0.04458685  1
  Te2-  Te198  1  0.92027803  0.34019156  0.04804382  1
  Te2-  Te199  1  0.92260095  0.83854663  0.04310107  1
  Te2-  Te200  1  0.42117421  0.08331250  0.04408806  1
  Te2-  Te201  1  0.41962821  0.58001320  0.04460816  1
  Te2-  Te202  1  0.92093828  0.08047633  0.04485074  1
  Te2-  Te203  1  0.92243355  0.58259149  0.04901537  1
  Te2-  Te204  1  0.49386113  0.24787572  0.37603012  1
  Te2-  Te205  1  0.49426111  0.74972113  0.37814778  1
  Te2-  Te206  1  0.99263945  0.24628590  0.38275288  1
  Te2-  Te207  1  0.99056822  0.74822625  0.37605983  1
  Te2-  Te208  1  0.24851314  0.00307739  0.37580784  1
  Te2-  Te209  1  0.25037404  0.50635921  0.37798277  1
  Te2-  Te210  1  0.75063165  0.00540381  0.38213681  1
  Te2-  Te211  1  0.74890593  0.50675671  0.37758495  1
  Te2-  Te212  1  0.24989066  0.24509009  0.37702542  1
  Te2-  Te213  1  0.25245518  0.74833533  0.37639415  1
  Te2-  Te214  1  0.75002948  0.24457010  0.38069261  1
  Te2-  Te215  1  0.75055903  0.74763623  0.37895786  1
