# generated using pymatgen
data_Ti(CuTe)4
_symmetry_space_group_name_H-M   'P 1'
_cell_length_a   16.89661592
_cell_length_b   16.89409116
_cell_length_c   20.72257899
_cell_angle_alpha   90.03595545
_cell_angle_beta   89.93213233
_cell_angle_gamma   119.98343636
_symmetry_Int_Tables_number   1
_chemical_formula_structural   Ti(CuTe)4
_chemical_formula_sum   'Ti24 Cu96 Te96'
_cell_volume   5123.67009476
_cell_formula_units_Z   24
loop_
 _symmetry_equiv_pos_site_id
 _symmetry_equiv_pos_as_xyz
  1  'x, y, z'
loop_
 _atom_type_symbol
 _atom_type_oxidation_number
  Ti4+  4.0
  Cu+  1.0
  Te2-  -2.0
loop_
 _atom_site_type_symbol
 _atom_site_label
 _atom_site_symmetry_multiplicity
 _atom_site_fract_x
 _atom_site_fract_y
 _atom_site_fract_z
 _atom_site_occupancy
  Ti4+  Ti0  1  0.00002399  -0.00076987  0.25826733  1
  Ti4+  Ti1  1  0.00036416  0.49906076  0.25874933  1
  Ti4+  Ti2  1  0.50258080  -0.00008697  0.25645815  1
  Ti4+  Ti3  1  0.50012780  0.49745432  0.25943753  1
  Ti4+  Ti4  1  0.33603980  0.16714195  0.59250901  1
  Ti4+  Ti5  1  0.33506778  0.67104689  0.58800130  1
  Ti4+  Ti6  1  0.83690705  0.17119226  0.59037212  1
  Ti4+  Ti7  1  0.83024863  0.66848491  0.58855618  1
  Ti4+  Ti8  1  0.16538375  0.32958477  0.92204857  1
  Ti4+  Ti9  1  0.16403380  0.83184152  0.92305776  1
  Ti4+  Ti10  1  0.66717637  0.33200785  0.92549302  1
  Ti4+  Ti11  1  0.66483366  0.83234716  0.92806676  1
  Ti4+  Ti12  1  0.00076279  0.00150859  0.75413209  1
  Ti4+  Ti13  1  -0.00116937  0.49964612  0.75447490  1
  Ti4+  Ti14  1  0.50030271  0.00108010  0.75650892  1
  Ti4+  Ti15  1  0.49981410  0.50149929  0.75673565  1
  Ti4+  Ti16  1  0.33407723  0.16646140  0.09030580  1
  Ti4+  Ti17  1  0.33092571  0.66448163  0.08827323  1
  Ti4+  Ti18  1  0.83242322  0.16514294  0.08909038  1
  Ti4+  Ti19  1  0.83147372  0.66546845  0.08980696  1
  Ti4+  Ti20  1  0.16558391  0.33362506  0.42196209  1
  Ti4+  Ti21  1  0.16895762  0.83428201  0.42038591  1
  Ti4+  Ti22  1  0.66590596  0.33342034  0.42155804  1
  Ti4+  Ti23  1  0.66796897  0.83363153  0.42094379  1
  Cu+  Cu24  1  0.52538578  0.26130444  0.14222333  1
  Cu+  Cu25  1  0.57180026  0.42183438  0.47813973  1
  Cu+  Cu26  1  0.90414299  0.30959468  0.80925271  1
  Cu+  Cu27  1  0.84847144  0.42922346  0.47453416  1
  Cu+  Cu28  1  0.41217662  0.31643515  0.81100902  1
  Cu+  Cu29  1  0.51329028  0.75168105  0.14490089  1
  Cu+  Cu30  1  0.74608092  0.98265399  0.14411668  1
  Cu+  Cu31  1  0.18316800  0.08679688  0.80889343  1
  Cu+  Cu32  1  0.07790373  0.43089438  0.47543912  1
  Cu+  Cu33  1  0.85633664  0.93132590  0.47361481  1
  Cu+  Cu34  1  0.36062464  0.93304428  0.47040939  1
  Cu+  Cu35  1  0.57281463  0.65222082  0.47595089  1
  Cu+  Cu36  1  0.16357617  0.08218404  0.17296650  1
  Cu+  Cu37  1  0.16117129  0.57672886  0.17106163  1
  Cu+  Cu38  1  0.66350794  0.07708281  0.16932554  1
  Cu+  Cu39  1  0.66201158  0.57847322  0.17184816  1
  Cu+  Cu40  1  0.42312165  0.33342530  0.17265297  1
  Cu+  Cu41  1  0.41872651  0.83385756  0.16992540  1
  Cu+  Cu42  1  0.91968835  0.33677830  0.17293564  1
  Cu+  Cu43  1  0.91772039  0.83520552  0.17172107  1
  Cu+  Cu44  1  0.42246545  0.08616543  0.17138128  1
  Cu+  Cu45  1  0.41802774  0.58058798  0.17220732  1
  Cu+  Cu46  1  0.91709604  0.07842627  0.17241100  1
  Cu+  Cu47  1  0.91577618  0.57981760  0.17298870  1
  Cu+  Cu48  1  0.49296201  0.24880780  0.50391353  1
  Cu+  Cu49  1  0.49512334  0.74745598  0.50177637  1
  Cu+  Cu50  1  0.99697626  0.25494400  0.50299554  1
  Cu+  Cu51  1  0.99632031  0.75095406  0.50106544  1
  Cu+  Cu52  1  0.25680789  0.00173524  0.50450031  1
  Cu+  Cu53  1  0.25070027  0.50573968  0.50220762  1
  Cu+  Cu54  1  0.75643567  0.00482800  0.50395916  1
  Cu+  Cu55  1  0.74843077  0.50511097  0.50172808  1
  Cu+  Cu56  1  0.25147794  0.24947871  0.50618070  1
  Cu+  Cu57  1  0.25950668  0.75798888  0.50017072  1
  Cu+  Cu58  1  0.75606661  0.25414472  0.50349718  1
  Cu+  Cu59  1  0.75105600  0.75026645  0.50075239  1
  Cu+  Cu60  1  0.33055151  0.41078513  0.83613101  1
  Cu+  Cu61  1  0.32846165  0.91268666  0.83724335  1
  Cu+  Cu62  1  0.83053317  0.41108405  0.83779531  1
  Cu+  Cu63  1  0.82903924  0.91561037  0.84010223  1
  Cu+  Cu64  1  0.08939887  0.16989545  0.83408961  1
  Cu+  Cu65  1  0.08141770  0.66901019  0.83710403  1
  Cu+  Cu66  1  0.58479010  0.16959283  0.83862436  1
  Cu+  Cu67  1  0.58284051  0.67123824  0.84139066  1
  Cu+  Cu68  1  0.07906016  0.40984416  0.83554465  1
  Cu+  Cu69  1  0.08577541  0.91481765  0.83637818  1
  Cu+  Cu70  1  0.58298513  0.41367518  0.84023055  1
  Cu+  Cu71  1  0.58368235  0.91536549  0.84141485  1
  Cu+  Cu72  1  0.17096049  0.08491597  0.67883371  1
  Cu+  Cu73  1  0.16970703  0.58883135  0.67179910  1
  Cu+  Cu74  1  0.67080571  0.08648817  0.67501576  1
  Cu+  Cu75  1  0.66667475  0.58773806  0.67555018  1
  Cu+  Cu76  1  0.41653134  0.33238174  0.68171467  1
  Cu+  Cu77  1  0.41862358  0.83505857  0.67358957  1
  Cu+  Cu78  1  0.91596354  0.33356865  0.67966614  1
  Cu+  Cu79  1  0.91299075  0.83369048  0.67389112  1
  Cu+  Cu80  1  0.41824607  0.08464845  0.67633303  1
  Cu+  Cu81  1  0.41688116  0.58898294  0.67450580  1
  Cu+  Cu82  1  0.91746839  0.08579848  0.67464562  1
  Cu+  Cu83  1  0.91265935  0.58555236  0.67396797  1
  Cu+  Cu84  1  0.00095081  0.24940902  0.00697279  1
  Cu+  Cu85  1  0.00057049  0.75060758  0.00697977  1
  Cu+  Cu86  1  0.50348659  0.25163228  0.01399547  1
  Cu+  Cu87  1  0.50050056  0.75066569  0.01477469  1
  Cu+  Cu88  1  0.24569939  0.49447870  0.00508958  1
  Cu+  Cu89  1  0.24597645  0.99587979  0.00812807  1
  Cu+  Cu90  1  0.74793869  0.49776584  0.00826595  1
  Cu+  Cu91  1  0.74628194  0.99530831  0.01478904  1
  Cu+  Cu92  1  0.24844007  0.24915702  0.00949855  1
  Cu+  Cu93  1  0.24327496  0.74758324  0.00687752  1
  Cu+  Cu94  1  0.75054812  0.25110122  0.01032236  1
  Cu+  Cu95  1  0.74688621  0.74934729  0.01037867  1
  Cu+  Cu96  1  0.33460928  0.41488432  0.34067157  1
  Cu+  Cu97  1  0.33936982  0.92027302  0.34247824  1
  Cu+  Cu98  1  0.83705383  0.41762684  0.34558579  1
  Cu+  Cu99  1  0.83810778  0.91929827  0.34576113  1
  Cu+  Cu100  1  0.08069710  0.16351542  0.34183523  1
  Cu+  Cu101  1  0.08294054  0.66475346  0.33971733  1
  Cu+  Cu102  1  0.58238007  0.16520449  0.34111959  1
  Cu+  Cu103  1  0.58142048  0.66227684  0.34689968  1
  Cu+  Cu104  1  0.08045951  0.41700040  0.34652431  1
  Cu+  Cu105  1  0.08325258  0.91788719  0.34077395  1
  Cu+  Cu106  1  0.58018456  0.41509717  0.34811683  1
  Cu+  Cu107  1  0.58383658  0.91662684  0.34190378  1
  Cu+  Cu108  1  0.00207536  -0.00106672  0.11523925  1
  Cu+  Cu109  1  -0.00189276  0.50032756  0.11555395  1
  Cu+  Cu110  1  0.49437946  -0.00336084  0.11340291  1
  Cu+  Cu111  1  0.49579423  0.49720688  0.11594894  1
  Cu+  Cu112  1  0.32517433  0.16343186  0.44948232  1
  Cu+  Cu113  1  0.33143114  0.66633274  0.44354168  1
  Cu+  Cu114  1  0.83016477  0.16571561  0.44705414  1
  Cu+  Cu115  1  0.83665657  0.66873942  0.44367152  1
  Cu+  Cu116  1  0.16825045  0.33807885  0.77829366  1
  Cu+  Cu117  1  0.16538163  0.83024073  0.77913652  1
  Cu+  Cu118  1  0.66690110  0.33572570  0.78279668  1
  Cu+  Cu119  1  0.66660649  0.83551090  0.78556992  1
  Te2-  Te120  1  0.00417267  0.00126583  0.38914739  1
  Te2-  Te121  1  0.00188964  0.50406906  0.39168037  1
  Te2-  Te122  1  0.50549987  0.00219269  0.38681123  1
  Te2-  Te123  1  0.49561886  0.49663304  0.39163038  1
  Te2-  Te124  1  0.33638152  0.16570954  0.72427553  1
  Te2-  Te125  1  0.33342599  0.67044225  0.71664163  1
  Te2-  Te126  1  0.83440847  0.16654002  0.72036777  1
  Te2-  Te127  1  0.83171805  0.66917180  0.71716207  1
  Te2-  Te128  1  0.16517960  0.33124790  0.05085514  1
  Te2-  Te129  1  0.16400922  0.83173921  0.05223482  1
  Te2-  Te130  1  0.67038578  0.33502745  0.05593266  1
  Te2-  Te131  1  0.66567274  0.82990305  0.06080615  1
  Te2-  Te132  1  0.49331640  0.24381615  0.88660036  1
  Te2-  Te133  1  0.49341940  0.74820864  0.88765381  1
  Te2-  Te134  1  0.99236931  0.24003306  0.88106048  1
  Te2-  Te135  1  0.99240245  0.74789405  0.88117551  1
  Te2-  Te136  1  0.25551101  0.00647703  0.88269947  1
  Te2-  Te137  1  0.24897547  0.49887365  0.87875124  1
  Te2-  Te138  1  0.75083876  0.00373611  0.88764916  1
  Te2-  Te139  1  0.75177801  0.50155565  0.88216281  1
  Te2-  Te140  1  0.25600131  0.24239181  0.88355986  1
  Te2-  Te141  1  0.24893523  0.74486702  0.88116772  1
  Te2-  Te142  1  0.75146292  0.24235370  0.88446747  1
  Te2-  Te143  1  0.75079701  0.74762543  0.88467318  1
  Te2-  Te144  1  0.33138897  0.41195755  0.21476623  1
  Te2-  Te145  1  0.33346644  0.91690434  0.21525495  1
  Te2-  Te146  1  0.82856915  0.41261549  0.21890807  1
  Te2-  Te147  1  0.82587010  0.90930306  0.21933415  1
  Te2-  Te148  1  0.08394152  0.17072266  0.21627153  1
  Te2-  Te149  1  0.08526811  0.66908412  0.21428118  1
  Te2-  Te150  1  0.59237922  0.17317059  0.21576124  1
  Te2-  Te151  1  0.58789213  0.67054559  0.21936185  1
  Te2-  Te152  1  0.08550070  0.41173974  0.21993420  1
  Te2-  Te153  1  0.08577149  0.91382883  0.21533134  1
  Te2-  Te154  1  0.59036625  0.41329619  0.22057622  1
  Te2-  Te155  1  0.58838099  0.90914767  0.21661317  1
  Te2-  Te156  1  0.16684852  0.08087560  0.55064090  1
  Te2-  Te157  1  0.16290756  0.58925817  0.54589958  1
  Te2-  Te158  1  0.66728433  0.08514741  0.54823171  1
  Te2-  Te159  1  0.65426517  0.58005332  0.54960587  1
  Te2-  Te160  1  0.41798175  0.34111034  0.55384769  1
  Te2-  Te161  1  0.42702119  0.84510128  0.54768118  1
  Te2-  Te162  1  0.92331017  0.34848952  0.55215415  1
  Te2-  Te163  1  0.91972245  0.84139737  0.54795807  1
  Te2-  Te164  1  0.42586623  0.08363996  0.55035774  1
  Te2-  Te165  1  0.41702909  0.57870397  0.54890210  1
  Te2-  Te166  1  0.92591540  0.08711720  0.54896054  1
  Te2-  Te167  1  0.91827351  0.58393760  0.54793976  1
  Te2-  Te168  1  0.00015555  0.00006272  0.88092716  1
  Te2-  Te169  1  0.00002886  0.49977551  0.88122593  1
  Te2-  Te170  1  0.49773033  -0.00061639  0.88260749  1
  Te2-  Te171  1  0.49880899  0.50033483  0.88354607  1
  Te2-  Te172  1  0.33246392  0.16447861  0.21703317  1
  Te2-  Te173  1  0.33095919  0.66429078  0.21526177  1
  Te2-  Te174  1  0.83333689  0.16595155  0.21581523  1
  Te2-  Te175  1  0.83222678  0.66559438  0.21585541  1
  Te2-  Te176  1  0.16730162  0.33602181  0.54874843  1
  Te2-  Te177  1  0.16490720  0.83214838  0.54709121  1
  Te2-  Te178  1  0.66496597  0.33406375  0.54884297  1
  Te2-  Te179  1  0.66544082  0.83460542  0.54816296  1
  Te2-  Te180  1  0.32858319  0.41811267  0.70938524  1
  Te2-  Te181  1  0.32883582  0.91461575  0.71112594  1
  Te2-  Te182  1  0.82599764  0.41606039  0.71053126  1
  Te2-  Te183  1  0.82743468  0.91666647  0.71304746  1
  Te2-  Te184  1  0.08775248  0.17495433  0.70812749  1
  Te2-  Te185  1  0.08291287  0.67120569  0.71014478  1
  Te2-  Te186  1  0.58796185  0.17358559  0.71257041  1
  Te2-  Te187  1  0.58477451  0.67439945  0.71461579  1
  Te2-  Te188  1  0.08916455  0.41847875  0.70811140  1
  Te2-  Te189  1  0.08387932  0.91188890  0.70896520  1
  Te2-  Te190  1  0.58890044  0.41767824  0.71229678  1
  Te2-  Te191  1  0.58750451  0.91652717  0.71379366  1
  Te2-  Te192  1  0.16193378  0.08029945  0.04640196  1
  Te2-  Te193  1  0.15946657  0.57761532  0.04440108  1
  Te2-  Te194  1  0.65875588  0.08067736  0.04378021  1
  Te2-  Te195  1  0.65916324  0.57873319  0.04596301  1
  Te2-  Te196  1  0.41817433  0.33876648  0.04530743  1
  Te2-  Te197  1  0.41357603  0.83688959  0.04323014  1
  Te2-  Te198  1  0.92033815  0.33788403  0.04640850  1
  Te2-  Te199  1  0.91754691  0.83713768  0.04549643  1
  Te2-  Te200  1  0.41676195  0.07810466  0.04397099  1
  Te2-  Te201  1  0.41562034  0.57676833  0.04399315  1
  Te2-  Te202  1  0.91976315  0.07952331  0.04489758  1
  Te2-  Te203  1  0.91786363  0.58071578  0.04575411  1
  Te2-  Te204  1  0.49124547  0.24290545  0.37793992  1
  Te2-  Te205  1  0.49371452  0.74729838  0.37550955  1
  Te2-  Te206  1  0.99247705  0.24490408  0.37719984  1
  Te2-  Te207  1  0.99668237  0.74816339  0.37521714  1
  Te2-  Te208  1  0.25358989  0.00662227  0.37669258  1
  Te2-  Te209  1  0.25430352  0.50533622  0.37513549  1
  Te2-  Te210  1  0.75343219  0.00713363  0.37672292  1
  Te2-  Te211  1  0.75367552  0.50721841  0.37481503  1
  Te2-  Te212  1  0.25074175  0.24617190  0.37916862  1
  Te2-  Te213  1  0.25354301  0.74723500  0.37344451  1
  Te2-  Te214  1  0.75190669  0.24576371  0.37684053  1
  Te2-  Te215  1  0.75430573  0.74605254  0.37425239  1
