# generated using pymatgen
data_Ti(CuTe)4
_symmetry_space_group_name_H-M   'P 1'
_cell_length_a   16.89439676
_cell_length_b   16.88721183
_cell_length_c   20.71184453
_cell_angle_alpha   89.93385864
_cell_angle_beta   89.98218119
_cell_angle_gamma   120.00559870
_symmetry_Int_Tables_number   1
_chemical_formula_structural   Ti(CuTe)4
_chemical_formula_sum   'Ti24 Cu96 Te96'
_cell_volume   5117.11323754
_cell_formula_units_Z   24
loop_
 _symmetry_equiv_pos_site_id
 _symmetry_equiv_pos_as_xyz
  1  'x, y, z'
loop_
 _atom_type_symbol
 _atom_type_oxidation_number
  Ti4+  4.0
  Cu+  1.0
  Te2-  -2.0
loop_
 _atom_site_type_symbol
 _atom_site_label
 _atom_site_symmetry_multiplicity
 _atom_site_fract_x
 _atom_site_fract_y
 _atom_site_fract_z
 _atom_site_occupancy
  Ti4+  Ti0  1  0.00063655  0.00175014  0.25784514  1
  Ti4+  Ti1  1  -0.00070394  0.49924379  0.25686563  1
  Ti4+  Ti2  1  0.49674310  0.00067282  0.25465743  1
  Ti4+  Ti3  1  0.49951258  0.50008460  0.26230934  1
  Ti4+  Ti4  1  0.33415569  0.16717390  0.59399563  1
  Ti4+  Ti5  1  0.33049406  0.66440561  0.59252277  1
  Ti4+  Ti6  1  0.83346709  0.16601808  0.58666952  1
  Ti4+  Ti7  1  0.83525399  0.66888953  0.59318386  1
  Ti4+  Ti8  1  0.17026391  0.33366169  0.92398098  1
  Ti4+  Ti9  1  0.16701388  0.83313019  0.92433138  1
  Ti4+  Ti10  1  0.66886414  0.33625491  0.92321847  1
  Ti4+  Ti11  1  0.66598114  0.83256639  0.92248083  1
  Ti4+  Ti12  1  0.00117256  0.00049203  0.75510911  1
  Ti4+  Ti13  1  -0.00065108  0.49924198  0.75610678  1
  Ti4+  Ti14  1  0.49965617  -0.00135516  0.75431343  1
  Ti4+  Ti15  1  0.50051597  0.50028354  0.75109328  1
  Ti4+  Ti16  1  0.33387893  0.16592285  0.08932701  1
  Ti4+  Ti17  1  0.33227881  0.66604561  0.08991821  1
  Ti4+  Ti18  1  0.83469893  0.16768556  0.08699433  1
  Ti4+  Ti19  1  0.83228121  0.66591805  0.09038315  1
  Ti4+  Ti20  1  0.16604178  0.33407742  0.42267796  1
  Ti4+  Ti21  1  0.16472197  0.83154989  0.42433302  1
  Ti4+  Ti22  1  0.66485868  0.33164943  0.42302858  1
  Ti4+  Ti23  1  0.66743627  0.83430167  0.42110024  1
  Cu+  Cu24  1  0.23629065  0.76144428  0.14178908  1
  Cu+  Cu25  1  0.85729908  0.92705461  0.47272180  1
  Cu+  Cu26  1  0.91166307  0.59603554  0.80940064  1
  Cu+  Cu27  1  0.18232821  0.59243020  0.81138900  1
  Cu+  Cu28  1  0.41384547  0.59113493  0.81062525  1
  Cu+  Cu29  1  0.73901461  0.26117031  0.13974488  1
  Cu+  Cu30  1  0.07243813  0.42865743  0.47351476  1
  Cu+  Cu31  1  0.68064641  0.59348418  0.80823839  1
  Cu+  Cu32  1  0.02262232  0.26071856  0.14096851  1
  Cu+  Cu33  1  0.18654464  0.09003576  0.80911450  1
  Cu+  Cu34  1  0.41541512  0.32371143  0.81238844  1
  Cu+  Cu35  1  0.35210638  0.42547310  0.47928597  1
  Cu+  Cu36  1  0.16383090  0.08119075  0.17116072  1
  Cu+  Cu37  1  0.16325420  0.58498037  0.17060987  1
  Cu+  Cu38  1  0.66240411  0.08648438  0.16789594  1
  Cu+  Cu39  1  0.66311247  0.58140616  0.17499252  1
  Cu+  Cu40  1  0.41603441  0.33494903  0.17559226  1
  Cu+  Cu41  1  0.41069144  0.83520843  0.17006807  1
  Cu+  Cu42  1  0.91839693  0.33474712  0.16895774  1
  Cu+  Cu43  1  0.91574584  0.83505617  0.17305633  1
  Cu+  Cu44  1  0.41701245  0.08016069  0.16841774  1
  Cu+  Cu45  1  0.41723810  0.57972078  0.17591836  1
  Cu+  Cu46  1  0.92296333  0.08576112  0.17013956  1
  Cu+  Cu47  1  0.91699620  0.58141865  0.17068812  1
  Cu+  Cu48  1  0.49699906  0.24840247  0.50625054  1
  Cu+  Cu49  1  0.49691190  0.74797673  0.50405575  1
  Cu+  Cu50  1  0.99408843  0.25188728  0.50065537  1
  Cu+  Cu51  1  0.99619781  0.74631900  0.50613030  1
  Cu+  Cu52  1  0.24801751  0.00029983  0.50815594  1
  Cu+  Cu53  1  0.24945980  0.50237074  0.50530374  1
  Cu+  Cu54  1  0.75637612  0.00240440  0.50054442  1
  Cu+  Cu55  1  0.75136780  0.50108439  0.50795683  1
  Cu+  Cu56  1  0.25526190  0.25127925  0.50731314  1
  Cu+  Cu57  1  0.24740896  0.74509580  0.50621787  1
  Cu+  Cu58  1  0.75004799  0.24696323  0.50210899  1
  Cu+  Cu59  1  0.75593486  0.75388930  0.50492230  1
  Cu+  Cu60  1  0.32679482  0.41277583  0.83215387  1
  Cu+  Cu61  1  0.33134357  0.91376832  0.83630892  1
  Cu+  Cu62  1  0.83116998  0.42010763  0.83663816  1
  Cu+  Cu63  1  0.83087895  0.91462092  0.83610129  1
  Cu+  Cu64  1  0.08865619  0.16807097  0.83678952  1
  Cu+  Cu65  1  0.08553170  0.67002851  0.83833887  1
  Cu+  Cu66  1  0.58626102  0.16817622  0.83670050  1
  Cu+  Cu67  1  0.58837251  0.67563291  0.83289988  1
  Cu+  Cu68  1  0.08803701  0.41683980  0.83769973  1
  Cu+  Cu69  1  0.08753986  0.91727753  0.83706574  1
  Cu+  Cu70  1  0.59131317  0.41635701  0.83236661  1
  Cu+  Cu71  1  0.58350059  0.91377309  0.83578179  1
  Cu+  Cu72  1  0.17140924  0.08688971  0.68039981  1
  Cu+  Cu73  1  0.16710350  0.58043189  0.68096939  1
  Cu+  Cu74  1  0.66835030  0.08199216  0.66978267  1
  Cu+  Cu75  1  0.67077480  0.58628921  0.67796752  1
  Cu+  Cu76  1  0.41557767  0.33042826  0.68152023  1
  Cu+  Cu77  1  0.41436545  0.82971245  0.67533847  1
  Cu+  Cu78  1  0.91325627  0.32791085  0.67220387  1
  Cu+  Cu79  1  0.91651361  0.83298159  0.67618026  1
  Cu+  Cu80  1  0.41582007  0.08317318  0.67604331  1
  Cu+  Cu81  1  0.41312241  0.58249809  0.67986739  1
  Cu+  Cu82  1  0.91466414  0.08368739  0.67075140  1
  Cu+  Cu83  1  0.91317732  0.58324862  0.68093085  1
  Cu+  Cu84  1  0.00601964  0.25087555  0.01136615  1
  Cu+  Cu85  1  0.00082219  0.75025332  0.00934744  1
  Cu+  Cu86  1  0.50267291  0.25212905  0.00879895  1
  Cu+  Cu87  1  0.50220277  0.74835492  0.00790613  1
  Cu+  Cu88  1  0.25270786  0.49903463  0.01028404  1
  Cu+  Cu89  1  0.25038930  0.99885111  0.00954211  1
  Cu+  Cu90  1  0.74916701  0.50090984  0.01018299  1
  Cu+  Cu91  1  0.74927981  0.99641846  0.00531896  1
  Cu+  Cu92  1  0.25185985  0.24987752  0.01022088  1
  Cu+  Cu93  1  0.24660035  0.74895731  0.01269615  1
  Cu+  Cu94  1  0.75022106  0.25329645  0.00992487  1
  Cu+  Cu95  1  0.74625769  0.74900538  0.00858193  1
  Cu+  Cu96  1  0.33738705  0.41901761  0.34970028  1
  Cu+  Cu97  1  0.33251984  0.91621172  0.34164730  1
  Cu+  Cu98  1  0.83294732  0.41563024  0.34166391  1
  Cu+  Cu99  1  0.83724504  0.91952326  0.34377524  1
  Cu+  Cu100  1  0.08303080  0.16555795  0.34167746  1
  Cu+  Cu101  1  0.08233561  0.66514961  0.34345009  1
  Cu+  Cu102  1  0.57919788  0.16438577  0.34005004  1
  Cu+  Cu103  1  0.58161389  0.66449091  0.34402464  1
  Cu+  Cu104  1  0.08099788  0.41742241  0.34412802  1
  Cu+  Cu105  1  0.08018907  0.91541162  0.34263982  1
  Cu+  Cu106  1  0.58009741  0.41712253  0.34525231  1
  Cu+  Cu107  1  0.57804368  0.91763502  0.33663425  1
  Cu+  Cu108  1  -0.00099763  -0.00390094  0.11521963  1
  Cu+  Cu109  1  -0.00116295  0.49925998  0.11324663  1
  Cu+  Cu110  1  0.50195756  -0.00260188  0.11074917  1
  Cu+  Cu111  1  0.49940213  0.49804722  0.12081397  1
  Cu+  Cu112  1  0.33127952  0.16142137  0.45193466  1
  Cu+  Cu113  1  0.33579012  0.67152639  0.44871822  1
  Cu+  Cu114  1  0.82728525  0.16325660  0.44247389  1
  Cu+  Cu115  1  0.82975603  0.66258363  0.45088963  1
  Cu+  Cu116  1  0.15906825  0.32851487  0.77941362  1
  Cu+  Cu117  1  0.16794524  0.83401270  0.78061719  1
  Cu+  Cu118  1  0.66895589  0.32694268  0.77876567  1
  Cu+  Cu119  1  0.67178539  0.84238442  0.77780960  1
  Te2-  Te120  1  0.00312628  0.00206261  0.38828902  1
  Te2-  Te121  1  -0.00275889  0.50018668  0.38703496  1
  Te2-  Te122  1  0.49764279  -0.00026523  0.38344103  1
  Te2-  Te123  1  0.50282763  0.50245900  0.39374511  1
  Te2-  Te124  1  0.33665755  0.16553017  0.72643720  1
  Te2-  Te125  1  0.33297307  0.66747111  0.72484848  1
  Te2-  Te126  1  0.83144177  0.16389089  0.71573188  1
  Te2-  Te127  1  0.83497378  0.67078511  0.72568003  1
  Te2-  Te128  1  0.17205227  0.33461143  0.05405345  1
  Te2-  Te129  1  0.16481470  0.83426821  0.05429448  1
  Te2-  Te130  1  0.66686084  0.33603450  0.05330117  1
  Te2-  Te131  1  0.66633245  0.83361063  0.05153644  1
  Te2-  Te132  1  0.49662754  0.24743072  0.88217186  1
  Te2-  Te133  1  0.49184680  0.74664238  0.88210597  1
  Te2-  Te134  1  1.00091740  0.24860441  0.88309185  1
  Te2-  Te135  1  0.99455526  0.75007626  0.88314013  1
  Te2-  Te136  1  0.25716008  0.00622410  0.88347213  1
  Te2-  Te137  1  0.25775552  0.50977746  0.88403989  1
  Te2-  Te138  1  0.75188701  0.00368386  0.87949560  1
  Te2-  Te139  1  0.75596635  0.51327068  0.88406422  1
  Te2-  Te140  1  0.25819329  0.24595350  0.88389207  1
  Te2-  Te141  1  0.25481604  0.74762398  0.88506925  1
  Te2-  Te142  1  0.75453550  0.25207691  0.88204112  1
  Te2-  Te143  1  0.75510309  0.74756163  0.88259459  1
  Te2-  Te144  1  0.32728095  0.41312271  0.22252745  1
  Te2-  Te145  1  0.32152819  0.91483195  0.21595015  1
  Te2-  Te146  1  0.82680963  0.41376996  0.21540766  1
  Te2-  Te147  1  0.82993205  0.91792768  0.21655515  1
  Te2-  Te148  1  0.09168606  0.17640164  0.21621462  1
  Te2-  Te149  1  0.08319521  0.67322719  0.21734625  1
  Te2-  Te150  1  0.58308003  0.17561707  0.21438986  1
  Te2-  Te151  1  0.58523359  0.67143132  0.21869341  1
  Te2-  Te152  1  0.08864858  0.41617415  0.21642152  1
  Te2-  Te153  1  0.08407918  0.91395693  0.21668254  1
  Te2-  Te154  1  0.58416916  0.41369379  0.21947874  1
  Te2-  Te155  1  0.58173454  0.91602566  0.21035766  1
  Te2-  Te156  1  0.16336798  0.08381730  0.55317929  1
  Te2-  Te157  1  0.15697636  0.57845710  0.55331041  1
  Te2-  Te158  1  0.66291979  0.07806799  0.54406563  1
  Te2-  Te159  1  0.66552728  0.58503864  0.55049846  1
  Te2-  Te160  1  0.42358188  0.34136820  0.55413374  1
  Te2-  Te161  1  0.41590580  0.83430819  0.54932556  1
  Te2-  Te162  1  0.91702546  0.34192733  0.54729852  1
  Te2-  Te163  1  0.92469714  0.84221159  0.55054141  1
  Te2-  Te164  1  0.41737800  0.08049475  0.55023704  1
  Te2-  Te165  1  0.41952144  0.58073196  0.55198342  1
  Te2-  Te166  1  0.92561357  0.08414057  0.54556037  1
  Te2-  Te167  1  0.91846447  0.58044248  0.55403374  1
  Te2-  Te168  1  -0.00056232  -0.00090924  0.88208109  1
  Te2-  Te169  1  0.00038979  0.49854964  0.88373252  1
  Te2-  Te170  1  0.50076498  -0.00064235  0.88051092  1
  Te2-  Te171  1  0.50084213  0.50022649  0.87942023  1
  Te2-  Te172  1  0.33261249  0.16431895  0.21558255  1
  Te2-  Te173  1  0.33225896  0.66611628  0.21661912  1
  Te2-  Te174  1  0.83136806  0.16475181  0.21426507  1
  Te2-  Te175  1  0.83291792  0.66606679  0.21669082  1
  Te2-  Te176  1  0.16345753  0.33107193  0.54979275  1
  Te2-  Te177  1  0.16491715  0.83115459  0.55062968  1
  Te2-  Te178  1  0.66657522  0.33103426  0.54925953  1
  Te2-  Te179  1  0.66617708  0.83436064  0.54795645  1
  Te2-  Te180  1  0.32291171  0.41037689  0.70673365  1
  Te2-  Te181  1  0.32722442  0.91261094  0.71039247  1
  Te2-  Te182  1  0.82691823  0.41050338  0.70991370  1
  Te2-  Te183  1  0.82939381  0.91537135  0.70959615  1
  Te2-  Te184  1  0.08379109  0.17228702  0.70940509  1
  Te2-  Te185  1  0.08650110  0.67320173  0.71042847  1
  Te2-  Te186  1  0.58672502  0.16963511  0.70944843  1
  Te2-  Te187  1  0.58708909  0.67573156  0.70624907  1
  Te2-  Te188  1  0.08148662  0.40850953  0.71065900  1
  Te2-  Te189  1  0.08682473  0.91304016  0.71027834  1
  Te2-  Te190  1  0.58939765  0.41319028  0.70642252  1
  Te2-  Te191  1  0.58490096  0.91309587  0.70890202  1
  Te2-  Te192  1  0.16127789  0.07965168  0.04509166  1
  Te2-  Te193  1  0.15975164  0.57670209  0.04380330  1
  Te2-  Te194  1  0.66270485  0.08033731  0.04062515  1
  Te2-  Te195  1  0.65982602  0.58040200  0.04799192  1
  Te2-  Te196  1  0.42089794  0.33941644  0.04798806  1
  Te2-  Te197  1  0.41986566  0.83718442  0.04270179  1
  Te2-  Te198  1  0.92276046  0.34098663  0.04089667  1
  Te2-  Te199  1  0.91695538  0.83692976  0.04569572  1
  Te2-  Te200  1  0.42094407  0.08107066  0.04302084  1
  Te2-  Te201  1  0.42063202  0.58059752  0.04898590  1
  Te2-  Te202  1  0.91884679  0.07839927  0.04310508  1
  Te2-  Te203  1  0.91912876  0.58073424  0.04472950  1
  Te2-  Te204  1  0.49260464  0.24651936  0.38013204  1
  Te2-  Te205  1  0.49510743  0.74888583  0.37762708  1
  Te2-  Te206  1  0.99308461  0.24537307  0.37500449  1
  Te2-  Te207  1  0.99292338  0.74572367  0.38007736  1
  Te2-  Te208  1  0.24989791  0.00305632  0.38075389  1
  Te2-  Te209  1  0.25282441  0.50827849  0.37790815  1
  Te2-  Te210  1  0.74889557  0.00470334  0.37303317  1
  Te2-  Te211  1  0.75129657  0.50380220  0.38041406  1
  Te2-  Te212  1  0.25205582  0.24569083  0.38034952  1
  Te2-  Te213  1  0.25160258  0.74688732  0.37959296  1
  Te2-  Te214  1  0.74921084  0.24567535  0.37574009  1
  Te2-  Te215  1  0.75301294  0.74676918  0.37767177  1
