# generated using pymatgen
data_Ti(CuTe)4
_symmetry_space_group_name_H-M   'P 1'
_cell_length_a   16.88560966
_cell_length_b   16.88376851
_cell_length_c   20.70129709
_cell_angle_alpha   89.97048257
_cell_angle_beta   90.01437308
_cell_angle_gamma   120.00746405
_symmetry_Int_Tables_number   1
_chemical_formula_structural   Ti(CuTe)4
_chemical_formula_sum   'Ti24 Cu96 Te96'
_cell_volume   5110.71422577
_cell_formula_units_Z   24
loop_
 _symmetry_equiv_pos_site_id
 _symmetry_equiv_pos_as_xyz
  1  'x, y, z'
loop_
 _atom_type_symbol
 _atom_type_oxidation_number
  Ti4+  4.0
  Cu+  1.0
  Te2-  -2.0
loop_
 _atom_site_type_symbol
 _atom_site_label
 _atom_site_symmetry_multiplicity
 _atom_site_fract_x
 _atom_site_fract_y
 _atom_site_fract_z
 _atom_site_occupancy
  Ti4+  Ti0  1  0.00035328  -0.00012988  0.26236691  1
  Ti4+  Ti1  1  -0.00127133  0.49629997  0.25646187  1
  Ti4+  Ti2  1  0.49744299  0.00015340  0.25477867  1
  Ti4+  Ti3  1  0.50184972  0.50444201  0.25635115  1
  Ti4+  Ti4  1  0.33385637  0.16956284  0.58846146  1
  Ti4+  Ti5  1  0.33168243  0.66667328  0.59081786  1
  Ti4+  Ti6  1  0.83328213  0.16521938  0.59404546  1
  Ti4+  Ti7  1  0.83098139  0.66616103  0.59078063  1
  Ti4+  Ti8  1  0.16852440  0.33450947  0.92570527  1
  Ti4+  Ti9  1  0.16495135  0.83082207  0.92346024  1
  Ti4+  Ti10  1  0.66663836  0.33251661  0.92389692  1
  Ti4+  Ti11  1  0.67104453  0.83552949  0.92508415  1
  Ti4+  Ti12  1  -0.00151565  -0.00235023  0.75701380  1
  Ti4+  Ti13  1  0.00128160  0.50035883  0.75476588  1
  Ti4+  Ti14  1  0.50043379  0.00204150  0.75445847  1
  Ti4+  Ti15  1  0.49980863  0.49993767  0.75596335  1
  Ti4+  Ti16  1  0.33264897  0.16307495  0.08933291  1
  Ti4+  Ti17  1  0.33469241  0.66653570  0.08657668  1
  Ti4+  Ti18  1  0.83525027  0.16888584  0.08979129  1
  Ti4+  Ti19  1  0.83234033  0.66704911  0.09020018  1
  Ti4+  Ti20  1  0.16701263  0.33296055  0.42105474  1
  Ti4+  Ti21  1  0.16632734  0.83149206  0.42078651  1
  Ti4+  Ti22  1  0.66503119  0.33373776  0.42214880  1
  Ti4+  Ti23  1  0.66719864  0.83445890  0.42226987  1
  Cu+  Cu24  1  0.07712780  0.15654155  0.48261786  1
  Cu+  Cu25  1  0.02425623  0.25970341  0.14250920  1
  Cu+  Cu26  1  0.19139629  0.59435010  0.80726937  1
  Cu+  Cu27  1  0.68499131  0.09546011  0.81041336  1
  Cu+  Cu28  1  0.74017638  0.76559128  0.14352617  1
  Cu+  Cu29  1  0.90457751  0.80802901  0.80873504  1
  Cu+  Cu30  1  0.23281128  0.97122226  0.14053258  1
  Cu+  Cu31  1  0.84335828  0.92257077  0.48466895  1
  Cu+  Cu32  1  0.56966010  0.43137894  0.47035872  1
  Cu+  Cu33  1  0.07830124  0.92046185  0.48200242  1
  Cu+  Cu34  1  0.73887022  0.26215503  0.13985974  1
  Cu+  Cu35  1  0.91430346  0.09225149  0.81603980  1
  Cu+  Cu36  1  0.16511153  0.07780600  0.17375622  1
  Cu+  Cu37  1  0.16475433  0.58018626  0.16917195  1
  Cu+  Cu38  1  0.66355727  0.08763860  0.16997239  1
  Cu+  Cu39  1  0.66443727  0.58871524  0.17079786  1
  Cu+  Cu40  1  0.42058910  0.33619583  0.17229986  1
  Cu+  Cu41  1  0.41908339  0.83602903  0.16783350  1
  Cu+  Cu42  1  0.91881993  0.33582684  0.16944150  1
  Cu+  Cu43  1  0.91385330  0.83591731  0.17407942  1
  Cu+  Cu44  1  0.41171441  0.07451279  0.16803414  1
  Cu+  Cu45  1  0.42038416  0.58367710  0.16871712  1
  Cu+  Cu46  1  0.92267886  0.08600150  0.17405394  1
  Cu+  Cu47  1  0.91566711  0.57863729  0.17130373  1
  Cu+  Cu48  1  0.49765308  0.25628511  0.50195665  1
  Cu+  Cu49  1  0.49561257  0.74932138  0.50473556  1
  Cu+  Cu50  1  0.99530216  0.24588090  0.50504639  1
  Cu+  Cu51  1  0.99593096  0.74793079  0.50343582  1
  Cu+  Cu52  1  0.25178656  0.00335877  0.50188896  1
  Cu+  Cu53  1  0.25002710  0.50402396  0.50432294  1
  Cu+  Cu54  1  0.75243583  0.00443464  0.50610235  1
  Cu+  Cu55  1  0.74412608  0.50096953  0.50390430  1
  Cu+  Cu56  1  0.25234129  0.24700385  0.50066136  1
  Cu+  Cu57  1  0.24933388  0.74425072  0.50411191  1
  Cu+  Cu58  1  0.74813380  0.24592458  0.50721111  1
  Cu+  Cu59  1  0.75387583  0.74897588  0.50279918  1
  Cu+  Cu60  1  0.33174040  0.41454076  0.83838345  1
  Cu+  Cu61  1  0.32849370  0.91828377  0.83606478  1
  Cu+  Cu62  1  0.82996230  0.41449921  0.83701221  1
  Cu+  Cu63  1  0.83031727  0.91227092  0.83750664  1
  Cu+  Cu64  1  0.08539516  0.17162963  0.84042038  1
  Cu+  Cu65  1  0.08835728  0.66895425  0.83522820  1
  Cu+  Cu66  1  0.58838090  0.17120931  0.83700506  1
  Cu+  Cu67  1  0.58826365  0.66861290  0.83844510  1
  Cu+  Cu68  1  0.08856829  0.41833151  0.83737712  1
  Cu+  Cu69  1  0.07983870  0.90920870  0.83821988  1
  Cu+  Cu70  1  0.58408757  0.41414431  0.83810604  1
  Cu+  Cu71  1  0.58859212  0.92146323  0.83686440  1
  Cu+  Cu72  1  0.16918352  0.08457029  0.67590270  1
  Cu+  Cu73  1  0.17008053  0.58516037  0.67851071  1
  Cu+  Cu74  1  0.67041490  0.08521331  0.68098995  1
  Cu+  Cu75  1  0.66661143  0.58373857  0.67468079  1
  Cu+  Cu76  1  0.41549405  0.33278940  0.67378214  1
  Cu+  Cu77  1  0.41278901  0.83179460  0.67372855  1
  Cu+  Cu78  1  0.91653220  0.33153356  0.67519075  1
  Cu+  Cu79  1  0.91548165  0.82972933  0.68120742  1
  Cu+  Cu80  1  0.41633866  0.08740524  0.67055525  1
  Cu+  Cu81  1  0.41400905  0.58436236  0.67436184  1
  Cu+  Cu82  1  0.91476832  0.08218315  0.68471377  1
  Cu+  Cu83  1  0.91436552  0.58342778  0.67335702  1
  Cu+  Cu84  1  0.00533608  0.25281624  0.01378842  1
  Cu+  Cu85  1  -0.00004927  0.74880058  0.00794175  1
  Cu+  Cu86  1  0.50122254  0.24744259  0.00658867  1
  Cu+  Cu87  1  0.50497322  0.75123223  0.00693464  1
  Cu+  Cu88  1  0.25072854  0.49867333  0.00931220  1
  Cu+  Cu89  1  0.24493660  0.99317530  0.01185866  1
  Cu+  Cu90  1  0.74731946  0.49653887  0.00768545  1
  Cu+  Cu91  1  0.75376350  1.00060041  0.01028194  1
  Cu+  Cu92  1  0.24886282  0.24921618  0.00944848  1
  Cu+  Cu93  1  0.25028093  0.75007563  0.00638944  1
  Cu+  Cu94  1  0.74867050  0.25172237  0.01196128  1
  Cu+  Cu95  1  0.75122046  0.75304056  0.01449387  1
  Cu+  Cu96  1  0.33589764  0.42007265  0.33950915  1
  Cu+  Cu97  1  0.33402308  0.91420448  0.33942642  1
  Cu+  Cu98  1  0.83446456  0.41388726  0.34181568  1
  Cu+  Cu99  1  0.83524817  0.91986587  0.35065673  1
  Cu+  Cu100  1  0.08381148  0.16484992  0.34957770  1
  Cu+  Cu101  1  0.08181834  0.66000029  0.33999181  1
  Cu+  Cu102  1  0.58107216  0.16467535  0.33849076  1
  Cu+  Cu103  1  0.58443681  0.66946438  0.34124901  1
  Cu+  Cu104  1  0.08089357  0.41495264  0.34063312  1
  Cu+  Cu105  1  0.08104685  0.91528888  0.34937379  1
  Cu+  Cu106  1  0.58229884  0.42250035  0.34263468  1
  Cu+  Cu107  1  0.58168936  0.92048564  0.33922025  1
  Cu+  Cu108  1  0.00129074  -0.00012285  0.11852239  1
  Cu+  Cu109  1  0.00283413  0.50520607  0.11272118  1
  Cu+  Cu110  1  0.50154603  -0.00174157  0.11072846  1
  Cu+  Cu111  1  0.49822772  0.49544477  0.11358137  1
  Cu+  Cu112  1  0.33709695  0.16453357  0.44365778  1
  Cu+  Cu113  1  0.33479120  0.66613499  0.44711512  1
  Cu+  Cu114  1  0.83124195  0.16960588  0.44982426  1
  Cu+  Cu115  1  0.83405607  0.66230336  0.44679164  1
  Cu+  Cu116  1  0.16879663  0.33354089  0.78189062  1
  Cu+  Cu117  1  0.16800255  0.83368053  0.77857293  1
  Cu+  Cu118  1  0.66666283  0.33574304  0.78011668  1
  Cu+  Cu119  1  0.65773696  0.82872636  0.78206508  1
  Te2-  Te120  1  0.00037687  -0.00025628  0.39528954  1
  Te2-  Te121  1  -0.00128252  0.49647108  0.38557031  1
  Te2-  Te122  1  0.49815393  0.00091484  0.38369442  1
  Te2-  Te123  1  0.49905027  0.50543223  0.38687103  1
  Te2-  Te124  1  0.33437916  0.16825798  0.71717305  1
  Te2-  Te125  1  0.33615136  0.66928260  0.72189629  1
  Te2-  Te126  1  0.83599210  0.16970841  0.72602493  1
  Te2-  Te127  1  0.83028135  0.66220052  0.72102064  1
  Te2-  Te128  1  0.17160969  0.33506743  0.05629446  1
  Te2-  Te129  1  0.16342648  0.82653032  0.05400837  1
  Te2-  Te130  1  0.66374704  0.33328005  0.05453287  1
  Te2-  Te131  1  0.66777821  0.83676286  0.05543994  1
  Te2-  Te132  1  0.49580328  0.24583771  0.88100915  1
  Te2-  Te133  1  0.50218648  0.75234551  0.88053921  1
  Te2-  Te134  1  0.99497179  0.25170253  0.88625357  1
  Te2-  Te135  1  0.99130489  0.73958870  0.88227853  1
  Te2-  Te136  1  0.24719176  0.00239814  0.88430107  1
  Te2-  Te137  1  0.25740742  0.50749225  0.88331033  1
  Te2-  Te138  1  0.75817660  0.01131793  0.88434332  1
  Te2-  Te139  1  0.75216815  0.50378104  0.88186321  1
  Te2-  Te140  1  0.25231607  0.24724484  0.88353079  1
  Te2-  Te141  1  0.25733875  0.75042341  0.88053181  1
  Te2-  Te142  1  0.75751236  0.24899280  0.88480827  1
  Te2-  Te143  1  0.75415031  0.74506039  0.88658775  1
  Te2-  Te144  1  0.33104305  0.41628351  0.21369828  1
  Te2-  Te145  1  0.32284413  0.90640956  0.21379385  1
  Te2-  Te146  1  0.82460074  0.41162854  0.21602659  1
  Te2-  Te147  1  0.82790718  0.91897356  0.22166282  1
  Te2-  Te148  1  0.09127452  0.17212488  0.22105642  1
  Te2-  Te149  1  0.08419127  0.66738664  0.21396686  1
  Te2-  Te150  1  0.58029021  0.17400161  0.21302755  1
  Te2-  Te151  1  0.58597128  0.67925339  0.21593820  1
  Te2-  Te152  1  0.08905667  0.41289924  0.21502014  1
  Te2-  Te153  1  0.08147679  0.90894877  0.22070540  1
  Te2-  Te154  1  0.58880539  0.42024475  0.21566534  1
  Te2-  Te155  1  0.58673838  0.91846001  0.21307985  1
  Te2-  Te156  1  0.15657592  0.07835079  0.55010534  1
  Te2-  Te157  1  0.15889324  0.57866361  0.55157560  1
  Te2-  Te158  1  0.66246559  0.07947605  0.55367416  1
  Te2-  Te159  1  0.65812084  0.58367278  0.54900421  1
  Te2-  Te160  1  0.41696240  0.34354552  0.54807584  1
  Te2-  Te161  1  0.41677850  0.83840918  0.54820911  1
  Te2-  Te162  1  0.91744711  0.33461729  0.54929205  1
  Te2-  Te163  1  0.92186688  0.84305677  0.55354337  1
  Te2-  Te164  1  0.41995864  0.08621735  0.54430172  1
  Te2-  Te165  1  0.41780601  0.58126072  0.54849137  1
  Te2-  Te166  1  0.92175821  0.07722435  0.55586775  1
  Te2-  Te167  1  0.91420550  0.58017064  0.54709627  1
  Te2-  Te168  1  0.00108442  0.00028119  0.88448454  1
  Te2-  Te169  1  0.00002797  0.49992369  0.88159597  1
  Te2-  Te170  1  0.49831370  0.00092148  0.88146278  1
  Te2-  Te171  1  0.50101577  0.49966144  0.88225264  1
  Te2-  Te172  1  0.33555555  0.16670898  0.21615892  1
  Te2-  Te173  1  0.33428607  0.66704212  0.21274690  1
  Te2-  Te174  1  0.83234948  0.16654033  0.21707997  1
  Te2-  Te175  1  0.83326418  0.66534700  0.21699435  1
  Te2-  Te176  1  0.16776391  0.33340053  0.54817895  1
  Te2-  Te177  1  0.16705839  0.83257801  0.54801050  1
  Te2-  Te178  1  0.66517512  0.33247107  0.54908903  1
  Te2-  Te179  1  0.66553089  0.83227307  0.54938650  1
  Te2-  Te180  1  0.32805671  0.41463960  0.71179895  1
  Te2-  Te181  1  0.32881630  0.91778449  0.70947015  1
  Te2-  Te182  1  0.82850073  0.41369372  0.71067205  1
  Te2-  Te183  1  0.82310087  0.90963288  0.71134595  1
  Te2-  Te184  1  0.08762721  0.17202676  0.71296440  1
  Te2-  Te185  1  0.08446679  0.67268978  0.70856981  1
  Te2-  Te186  1  0.58591758  0.17448790  0.70923643  1
  Te2-  Te187  1  0.58462437  0.67145446  0.71133369  1
  Te2-  Te188  1  0.08654344  0.41226551  0.71048908  1
  Te2-  Te189  1  0.08809880  0.91466442  0.71117093  1
  Te2-  Te190  1  0.58509465  0.41400808  0.71095183  1
  Te2-  Te191  1  0.58342593  0.91204087  0.70975500  1
  Te2-  Te192  1  0.15929448  0.07936396  0.04620418  1
  Te2-  Te193  1  0.16194590  0.58028759  0.04271954  1
  Te2-  Te194  1  0.66250455  0.07987517  0.04299460  1
  Te2-  Te195  1  0.66037908  0.57942085  0.04380169  1
  Te2-  Te196  1  0.41925755  0.33490521  0.04496866  1
  Te2-  Te197  1  0.42093517  0.83822379  0.04133645  1
  Te2-  Te198  1  0.92118031  0.34191217  0.04258751  1
  Te2-  Te199  1  0.92303034  0.84066892  0.04664746  1
  Te2-  Te200  1  0.41865045  0.07766274  0.04156571  1
  Te2-  Te201  1  0.42186896  0.58101204  0.04278821  1
  Te2-  Te202  1  0.92241196  0.08104309  0.04704095  1
  Te2-  Te203  1  0.91643249  0.57932403  0.04494900  1
  Te2-  Te204  1  0.49474363  0.24905235  0.37418173  1
  Te2-  Te205  1  0.49577076  0.75075980  0.37782489  1
  Te2-  Te206  1  0.99223840  0.24599026  0.37792830  1
  Te2-  Te207  1  0.99309304  0.74192084  0.37623642  1
  Te2-  Te208  1  0.25445713  0.00464241  0.37484337  1
  Te2-  Te209  1  0.25122609  0.50494219  0.37745190  1
  Te2-  Te210  1  0.75064825  0.00832817  0.37894565  1
  Te2-  Te211  1  0.75420355  0.50517347  0.37623624  1
  Te2-  Te212  1  0.25748933  0.24990449  0.37495488  1
  Te2-  Te213  1  0.25150180  0.74467942  0.37754184  1
  Te2-  Te214  1  0.74901471  0.24520080  0.37959910  1
  Te2-  Te215  1  0.75359118  0.74649660  0.37687142  1
