# generated using pymatgen
data_Ti(CuTe)4
_symmetry_space_group_name_H-M   'P 1'
_cell_length_a   16.89798147
_cell_length_b   16.89861735
_cell_length_c   20.72348044
_cell_angle_alpha   90.02472568
_cell_angle_beta   89.96445643
_cell_angle_gamma   119.98291748
_symmetry_Int_Tables_number   1
_chemical_formula_structural   Ti(CuTe)4
_chemical_formula_sum   'Ti24 Cu96 Te96'
_cell_volume   5125.70930360
_cell_formula_units_Z   24
loop_
 _symmetry_equiv_pos_site_id
 _symmetry_equiv_pos_as_xyz
  1  'x, y, z'
loop_
 _atom_type_symbol
 _atom_type_oxidation_number
  Ti4+  4.0
  Cu+  1.0
  Te2-  -2.0
loop_
 _atom_site_type_symbol
 _atom_site_label
 _atom_site_symmetry_multiplicity
 _atom_site_fract_x
 _atom_site_fract_y
 _atom_site_fract_z
 _atom_site_occupancy
  Ti4+  Ti0  1  -0.00040049  0.00015932  0.25898797  1
  Ti4+  Ti1  1  -0.00033178  0.50077459  0.25949773  1
  Ti4+  Ti2  1  0.50176192  -0.00197828  0.25690373  1
  Ti4+  Ti3  1  0.50246833  0.49798988  0.25702987  1
  Ti4+  Ti4  1  0.33725238  0.16747836  0.58939329  1
  Ti4+  Ti5  1  0.33300611  0.66540745  0.58845486  1
  Ti4+  Ti6  1  0.83678321  0.16527651  0.59050802  1
  Ti4+  Ti7  1  0.83497689  0.66650414  0.59174769  1
  Ti4+  Ti8  1  0.16545357  0.33703787  0.92414681  1
  Ti4+  Ti9  1  0.16516580  0.83697214  0.92407278  1
  Ti4+  Ti10  1  0.66363554  0.33381474  0.92638492  1
  Ti4+  Ti11  1  0.66212701  0.83350079  0.92673146  1
  Ti4+  Ti12  1  0.00108850  -0.00030242  0.75548257  1
  Ti4+  Ti13  1  0.00081047  0.49921798  0.75520742  1
  Ti4+  Ti14  1  0.49944710  0.00074386  0.75649862  1
  Ti4+  Ti15  1  0.49881248  0.50097394  0.75696892  1
  Ti4+  Ti16  1  0.33231741  0.16803516  0.08932104  1
  Ti4+  Ti17  1  0.33153955  0.66774222  0.08972518  1
  Ti4+  Ti18  1  0.83150163  0.16644987  0.08862686  1
  Ti4+  Ti19  1  0.83093553  0.66675442  0.08815055  1
  Ti4+  Ti20  1  0.16858016  0.33380563  0.41882161  1
  Ti4+  Ti21  1  0.16797056  0.83332572  0.42029399  1
  Ti4+  Ti22  1  0.66653445  0.33208036  0.42249948  1
  Ti4+  Ti23  1  0.66744722  0.83256801  0.42254416  1
  Cu+  Cu24  1  0.40366767  0.09655384  0.80866653  1
  Cu+  Cu25  1  0.74653459  0.48288690  0.14123761  1
  Cu+  Cu26  1  0.35820129  0.92664404  0.47134502  1
  Cu+  Cu27  1  0.40207067  0.59760526  0.80745357  1
  Cu+  Cu28  1  0.51485560  0.75242276  0.14435984  1
  Cu+  Cu29  1  0.08319496  0.15545191  0.47716922  1
  Cu+  Cu30  1  0.35737430  0.42692367  0.47141731  1
  Cu+  Cu31  1  0.07510544  0.41774490  0.47749857  1
  Cu+  Cu32  1  0.51662100  0.25293859  0.14281338  1
  Cu+  Cu33  1  0.07368783  0.65249378  0.47668486  1
  Cu+  Cu34  1  0.74593002  0.98258663  0.14230330  1
  Cu+  Cu35  1  0.85242742  0.92018779  0.47533953  1
  Cu+  Cu36  1  0.16242145  0.08429555  0.17291277  1
  Cu+  Cu37  1  0.16149478  0.58312023  0.17365788  1
  Cu+  Cu38  1  0.66319083  0.07631663  0.16844441  1
  Cu+  Cu39  1  0.66318470  0.57578523  0.16796108  1
  Cu+  Cu40  1  0.42199350  0.33496298  0.17031465  1
  Cu+  Cu41  1  0.42070230  0.83544974  0.17056373  1
  Cu+  Cu42  1  0.92009861  0.33740649  0.17145293  1
  Cu+  Cu43  1  0.91673158  0.83717571  0.17080919  1
  Cu+  Cu44  1  0.41914263  0.08189763  0.17200591  1
  Cu+  Cu45  1  0.41908336  0.58177362  0.17275521  1
  Cu+  Cu46  1  0.91649983  0.07992878  0.17238063  1
  Cu+  Cu47  1  0.91756314  0.58178276  0.17197660  1
  Cu+  Cu48  1  0.49793650  0.24660517  0.50328249  1
  Cu+  Cu49  1  0.49572729  0.74518195  0.50281365  1
  Cu+  Cu50  1  0.99288262  0.24282616  0.49991092  1
  Cu+  Cu51  1  0.99365569  0.74457806  0.50267792  1
  Cu+  Cu52  1  0.25904932  0.00211897  0.50090409  1
  Cu+  Cu53  1  0.25484799  0.50308995  0.49885833  1
  Cu+  Cu54  1  0.75561313  -0.00048501  0.50401941  1
  Cu+  Cu55  1  0.74978016  0.50109213  0.50558661  1
  Cu+  Cu56  1  0.25738344  0.25078836  0.50102339  1
  Cu+  Cu57  1  0.25242079  0.74930129  0.50042993  1
  Cu+  Cu58  1  0.75125938  0.24727220  0.50455408  1
  Cu+  Cu59  1  0.75440281  0.75011088  0.50603674  1
  Cu+  Cu60  1  0.32922578  0.42272641  0.83788990  1
  Cu+  Cu61  1  0.32910385  0.92190913  0.83780708  1
  Cu+  Cu62  1  0.83084875  0.41743347  0.83945382  1
  Cu+  Cu63  1  0.83060674  0.91816927  0.84031062  1
  Cu+  Cu64  1  0.08485304  0.17044157  0.83830794  1
  Cu+  Cu65  1  0.08415312  0.67023192  0.83826032  1
  Cu+  Cu66  1  0.57789052  0.16989394  0.83894682  1
  Cu+  Cu67  1  0.57591773  0.66972254  0.83924343  1
  Cu+  Cu68  1  0.08453618  0.41511241  0.83728021  1
  Cu+  Cu69  1  0.08474977  0.91536908  0.83707859  1
  Cu+  Cu70  1  0.58430835  0.41585391  0.84050216  1
  Cu+  Cu71  1  0.58380448  0.91516949  0.84010592  1
  Cu+  Cu72  1  0.17021353  0.08295837  0.67334563  1
  Cu+  Cu73  1  0.16628064  0.58121131  0.67374121  1
  Cu+  Cu74  1  0.67168792  0.08356096  0.67543368  1
  Cu+  Cu75  1  0.67066661  0.58577186  0.67618494  1
  Cu+  Cu76  1  0.41883264  0.33406000  0.67457309  1
  Cu+  Cu77  1  0.41758793  0.83333136  0.67447450  1
  Cu+  Cu78  1  0.91702480  0.32995527  0.67552143  1
  Cu+  Cu79  1  0.91583248  0.83014433  0.67642649  1
  Cu+  Cu80  1  0.41767627  0.08461012  0.67935192  1
  Cu+  Cu81  1  0.41479467  0.58328832  0.67877424  1
  Cu+  Cu82  1  0.91821000  0.08298758  0.67535095  1
  Cu+  Cu83  1  0.91584354  0.58329887  0.67562059  1
  Cu+  Cu84  1  0.00114647  0.25231326  0.00716657  1
  Cu+  Cu85  1  0.00072086  0.75332435  0.00705377  1
  Cu+  Cu86  1  0.49987210  0.25191055  0.01406319  1
  Cu+  Cu87  1  0.49867073  0.75160122  0.01464854  1
  Cu+  Cu88  1  0.24518700  0.49984042  0.00858650  1
  Cu+  Cu89  1  0.24548473  0.99989624  0.00845575  1
  Cu+  Cu90  1  0.74758397  0.49821966  0.01309801  1
  Cu+  Cu91  1  0.74699589  0.99745431  0.01381423  1
  Cu+  Cu92  1  0.24532264  0.25439907  0.00700434  1
  Cu+  Cu93  1  0.24407712  0.75366072  0.00711307  1
  Cu+  Cu94  1  0.74809905  0.25208137  0.00837252  1
  Cu+  Cu95  1  0.74652483  0.75155812  0.00782189  1
  Cu+  Cu96  1  0.33941174  0.41805994  0.34229893  1
  Cu+  Cu97  1  0.33855753  0.91867891  0.34272510  1
  Cu+  Cu98  1  0.83537647  0.41825542  0.34321013  1
  Cu+  Cu99  1  0.83709962  0.91890533  0.34756056  1
  Cu+  Cu100  1  0.08142428  0.16418621  0.34557029  1
  Cu+  Cu101  1  0.08131024  0.66428690  0.34605960  1
  Cu+  Cu102  1  0.58307979  0.16420770  0.34120878  1
  Cu+  Cu103  1  0.58327978  0.66370211  0.34109382  1
  Cu+  Cu104  1  0.08366268  0.42051305  0.34613190  1
  Cu+  Cu105  1  0.08275792  0.91808714  0.34012274  1
  Cu+  Cu106  1  0.58309630  0.41435389  0.34373353  1
  Cu+  Cu107  1  0.58251892  0.91443758  0.34297715  1
  Cu+  Cu108  1  0.00132143  -0.00005119  0.11517572  1
  Cu+  Cu109  1  0.00022703  0.50003670  0.11548582  1
  Cu+  Cu110  1  0.49696699  -0.00013059  0.11296391  1
  Cu+  Cu111  1  0.49664445  0.49966175  0.11338668  1
  Cu+  Cu112  1  0.33336859  0.16360689  0.44437588  1
  Cu+  Cu113  1  0.33544045  0.66780376  0.44300241  1
  Cu+  Cu114  1  0.82547581  0.16234719  0.44775258  1
  Cu+  Cu115  1  0.82900368  0.66300285  0.44913683  1
  Cu+  Cu116  1  0.16666518  0.33029896  0.78101759  1
  Cu+  Cu117  1  0.16670985  0.83032076  0.78077146  1
  Cu+  Cu118  1  0.66950500  0.33385869  0.78384643  1
  Cu+  Cu119  1  0.66916667  0.83407409  0.78435601  1
  Te2-  Te120  1  0.00340244  -0.00036123  0.39142081  1
  Te2-  Te121  1  -0.00186114  0.49948999  0.39175887  1
  Te2-  Te122  1  0.50422800  0.00054703  0.38709769  1
  Te2-  Te123  1  0.50457426  0.50043905  0.38735808  1
  Te2-  Te124  1  0.33433668  0.16923567  0.71914765  1
  Te2-  Te125  1  0.33121790  0.66810999  0.71798425  1
  Te2-  Te126  1  0.83606669  0.16538741  0.71907307  1
  Te2-  Te127  1  0.83458718  0.66610131  0.72058240  1
  Te2-  Te128  1  0.16413928  0.33605982  0.05338083  1
  Te2-  Te129  1  0.16369150  0.83616592  0.05331716  1
  Te2-  Te130  1  0.66633324  0.33212342  0.05851254  1
  Te2-  Te131  1  0.66515340  0.83146304  0.05892519  1
  Te2-  Te132  1  0.49016724  0.24992071  0.88672332  1
  Te2-  Te133  1  0.48848916  0.74972247  0.88705838  1
  Te2-  Te134  1  0.99417332  0.24810196  0.88165167  1
  Te2-  Te135  1  0.99394980  0.74848429  0.88153803  1
  Te2-  Te136  1  0.25028323  0.01211453  0.88307247  1
  Te2-  Te137  1  0.25002658  0.51231343  0.88320375  1
  Te2-  Te138  1  0.75011445  0.00484946  0.88672744  1
  Te2-  Te139  1  0.75113692  0.50500509  0.88613082  1
  Te2-  Te140  1  0.25316602  0.25382712  0.88126146  1
  Te2-  Te141  1  0.25239247  0.75319051  0.88130513  1
  Te2-  Te142  1  0.74745712  0.24812471  0.88235641  1
  Te2-  Te143  1  0.74595076  0.74815293  0.88187570  1
  Te2-  Te144  1  0.33228325  0.41337301  0.21542460  1
  Te2-  Te145  1  0.33151552  0.91399302  0.21584710  1
  Te2-  Te146  1  0.82738328  0.41132451  0.21740259  1
  Te2-  Te147  1  0.82623648  0.91111193  0.22027545  1
  Te2-  Te148  1  0.08287378  0.17141497  0.21846928  1
  Te2-  Te149  1  0.08359712  0.67206888  0.21897218  1
  Te2-  Te150  1  0.59050962  0.17028173  0.21557975  1
  Te2-  Te151  1  0.59107214  0.67029263  0.21554800  1
  Te2-  Te152  1  0.08620048  0.41592624  0.21853555  1
  Te2-  Te153  1  0.08471689  0.91520135  0.21455476  1
  Te2-  Te154  1  0.59000670  0.40914465  0.21744920  1
  Te2-  Te155  1  0.58932412  0.90907282  0.21708269  1
  Te2-  Te156  1  0.16593417  0.07848914  0.54683281  1
  Te2-  Te157  1  0.15863003  0.57775261  0.54730416  1
  Te2-  Te158  1  0.66635030  0.07886928  0.54883424  1
  Te2-  Te159  1  0.66372300  0.58271644  0.55002728  1
  Te2-  Te160  1  0.42492720  0.34099375  0.54846617  1
  Te2-  Te161  1  0.42160443  0.83835448  0.54815957  1
  Te2-  Te162  1  0.91919420  0.33778173  0.54937278  1
  Te2-  Te163  1  0.92490209  0.84019178  0.55071347  1
  Te2-  Te164  1  0.42496958  0.08097424  0.55122642  1
  Te2-  Te165  1  0.42076981  0.57940197  0.55070123  1
  Te2-  Te166  1  0.92513895  0.07679622  0.54957999  1
  Te2-  Te167  1  0.91767380  0.57571548  0.54990040  1
  Te2-  Te168  1  0.00054460  0.00134508  0.88153069  1
  Te2-  Te169  1  0.00022335  0.50102661  0.88127920  1
  Te2-  Te170  1  0.49813052  0.00043965  0.88312513  1
  Te2-  Te171  1  0.49791458  0.50047496  0.88355538  1
  Te2-  Te172  1  0.33255937  0.16565377  0.21605457  1
  Te2-  Te173  1  0.33235585  0.66587132  0.21640612  1
  Te2-  Te174  1  0.83279785  0.16716369  0.21539570  1
  Te2-  Te175  1  0.83237621  0.66729878  0.21499736  1
  Te2-  Te176  1  0.16592178  0.33192202  0.54718705  1
  Te2-  Te177  1  0.16544710  0.83237992  0.54753878  1
  Te2-  Te178  1  0.66688409  0.33156766  0.54862995  1
  Te2-  Te179  1  0.66459456  0.83062056  0.54928723  1
  Te2-  Te180  1  0.32680158  0.41174388  0.71044289  1
  Te2-  Te181  1  0.32718635  0.91256309  0.71029137  1
  Te2-  Te182  1  0.82905466  0.41302146  0.71224809  1
  Te2-  Te183  1  0.82889250  0.91353211  0.71299750  1
  Te2-  Te184  1  0.08822990  0.17094510  0.71077134  1
  Te2-  Te185  1  0.08599146  0.67072056  0.71085026  1
  Te2-  Te186  1  0.58990851  0.17281911  0.71151957  1
  Te2-  Te187  1  0.58697165  0.67299518  0.71185103  1
  Te2-  Te188  1  0.08671889  0.41250273  0.71116609  1
  Te2-  Te189  1  0.08682567  0.91346682  0.71107401  1
  Te2-  Te190  1  0.58714107  0.41624435  0.71435816  1
  Te2-  Te191  1  0.58621343  0.91438852  0.71385358  1
  Te2-  Te192  1  0.16081730  0.08488366  0.04589319  1
  Te2-  Te193  1  0.16000389  0.58423225  0.04652091  1
  Te2-  Te194  1  0.65831144  0.08190993  0.04261015  1
  Te2-  Te195  1  0.65769580  0.58144351  0.04211818  1
  Te2-  Te196  1  0.41524293  0.34004396  0.04378175  1
  Te2-  Te197  1  0.41401094  0.83965729  0.04407766  1
  Te2-  Te198  1  0.91787252  0.33874277  0.04506986  1
  Te2-  Te199  1  0.91638732  0.83895837  0.04442403  1
  Te2-  Te200  1  0.41574019  0.07917464  0.04423430  1
  Te2-  Te201  1  0.41518845  0.57904061  0.04485888  1
  Te2-  Te202  1  0.92007936  0.08209823  0.04481613  1
  Te2-  Te203  1  0.92040560  0.58315442  0.04452991  1
  Te2-  Te204  1  0.49451910  0.24462339  0.37741883  1
  Te2-  Te205  1  0.49554255  0.74503706  0.37677109  1
  Te2-  Te206  1  0.99268270  0.24767166  0.37404351  1
  Te2-  Te207  1  0.99350828  0.74883233  0.37641247  1
  Te2-  Te208  1  0.25321009  0.00573271  0.37400155  1
  Te2-  Te209  1  0.25670970  0.50780350  0.37237058  1
  Te2-  Te210  1  0.75204526  0.00577327  0.37727772  1
  Te2-  Te211  1  0.75270895  0.50471425  0.37911222  1
  Te2-  Te212  1  0.25466965  0.24583578  0.37352633  1
  Te2-  Te213  1  0.25451627  0.74656640  0.37347560  1
  Te2-  Te214  1  0.75313853  0.24739250  0.37763457  1
  Te2-  Te215  1  0.75320226  0.74570321  0.37813157  1
