# generated using pymatgen
data_Ti(CuTe)4
_symmetry_space_group_name_H-M   'P 1'
_cell_length_a   16.88961044
_cell_length_b   16.89545822
_cell_length_c   20.71097342
_cell_angle_alpha   90.00599676
_cell_angle_beta   90.04634279
_cell_angle_gamma   120.00757457
_symmetry_Int_Tables_number   1
_chemical_formula_structural   Ti(CuTe)4
_chemical_formula_sum   'Ti24 Cu96 Te96'
_cell_volume   5117.84796384
_cell_formula_units_Z   24
loop_
 _symmetry_equiv_pos_site_id
 _symmetry_equiv_pos_as_xyz
  1  'x, y, z'
loop_
 _atom_type_symbol
 _atom_type_oxidation_number
  Ti4+  4.0
  Cu+  1.0
  Te2-  -2.0
loop_
 _atom_site_type_symbol
 _atom_site_label
 _atom_site_symmetry_multiplicity
 _atom_site_fract_x
 _atom_site_fract_y
 _atom_site_fract_z
 _atom_site_occupancy
  Ti4+  Ti0  1  0.00323564  0.00129494  0.25653987  1
  Ti4+  Ti1  1  0.00484674  0.50128582  0.25948215  1
  Ti4+  Ti2  1  0.50339754  -0.00073023  0.25799979  1
  Ti4+  Ti3  1  0.50156984  0.50155258  0.26024475  1
  Ti4+  Ti4  1  0.33151912  0.16409984  0.58861422  1
  Ti4+  Ti5  1  0.32868641  0.66299647  0.59671197  1
  Ti4+  Ti6  1  0.83112032  0.16559361  0.58867949  1
  Ti4+  Ti7  1  0.83039811  0.66638410  0.58590561  1
  Ti4+  Ti8  1  0.16675028  0.33481883  0.92649349  1
  Ti4+  Ti9  1  0.16728467  0.83544458  0.92238715  1
  Ti4+  Ti10  1  0.66482210  0.33393396  0.92274027  1
  Ti4+  Ti11  1  0.66519751  0.83307270  0.92506162  1
  Ti4+  Ti12  1  -0.00144534  -0.00096584  0.75459080  1
  Ti4+  Ti13  1  -0.00174950  0.49872148  0.75481201  1
  Ti4+  Ti14  1  0.49778507  0.00048543  0.75341978  1
  Ti4+  Ti15  1  0.49957934  0.49951045  0.75572581  1
  Ti4+  Ti16  1  0.33408573  0.16722897  0.08996509  1
  Ti4+  Ti17  1  0.33474660  0.66734379  0.09067413  1
  Ti4+  Ti18  1  0.83354078  0.16753861  0.08832387  1
  Ti4+  Ti19  1  0.83492061  0.66820778  0.08969732  1
  Ti4+  Ti20  1  0.16847659  0.33519058  0.42282613  1
  Ti4+  Ti21  1  0.16748945  0.83440824  0.42139846  1
  Ti4+  Ti22  1  0.66789785  0.33173398  0.41866884  1
  Ti4+  Ti23  1  0.66818330  0.83251466  0.42223373  1
  Cu+  Cu24  1  0.07102414  0.92781509  0.47111501  1
  Cu+  Cu25  1  0.17294482  0.58653566  0.81940197  1
  Cu+  Cu26  1  0.41130564  0.58701643  0.81845247  1
  Cu+  Cu27  1  0.07234504  0.65164741  0.47558834  1
  Cu+  Cu28  1  0.07175315  0.42205426  0.47820024  1
  Cu+  Cu29  1  0.41293966  0.82817959  0.81767411  1
  Cu+  Cu30  1  0.24292181  0.48040462  0.14518567  1
  Cu+  Cu31  1  0.57185135  0.14350054  0.47285507  1
  Cu+  Cu32  1  0.52384374  0.76083259  0.14314342  1
  Cu+  Cu33  1  0.40541865  0.09753674  0.80531484  1
  Cu+  Cu34  1  0.57213459  0.41718527  0.47538994  1
  Cu+  Cu35  1  0.56665263  0.64832983  0.47756786  1
  Cu+  Cu36  1  0.16549838  0.08167539  0.17188385  1
  Cu+  Cu37  1  0.16483651  0.57812783  0.17295279  1
  Cu+  Cu38  1  0.66555493  0.08241465  0.17111312  1
  Cu+  Cu39  1  0.66693201  0.58481713  0.17397984  1
  Cu+  Cu40  1  0.41918590  0.33558739  0.17349184  1
  Cu+  Cu41  1  0.42596844  0.83793769  0.17174824  1
  Cu+  Cu42  1  0.92335365  0.33594527  0.17110568  1
  Cu+  Cu43  1  0.92259491  0.83802510  0.17132847  1
  Cu+  Cu44  1  0.41956828  0.08214731  0.17302940  1
  Cu+  Cu45  1  0.42098172  0.58373104  0.17235787  1
  Cu+  Cu46  1  0.92012335  0.08319014  0.17041872  1
  Cu+  Cu47  1  0.92390994  0.58720627  0.17325294  1
  Cu+  Cu48  1  0.49609110  0.24344401  0.50171120  1
  Cu+  Cu49  1  0.49612070  0.74630902  0.50999476  1
  Cu+  Cu50  1  0.99660532  0.25018547  0.50372397  1
  Cu+  Cu51  1  0.99567369  0.75055666  0.50026654  1
  Cu+  Cu52  1  0.24754517  0.00350973  0.50135745  1
  Cu+  Cu53  1  0.24705552  0.50270912  0.50696648  1
  Cu+  Cu54  1  0.75229785  0.00257993  0.50303570  1
  Cu+  Cu55  1  0.74781196  0.50344172  0.49752657  1
  Cu+  Cu56  1  0.25110753  0.24721740  0.50237832  1
  Cu+  Cu57  1  0.24616282  0.74388703  0.50692247  1
  Cu+  Cu58  1  0.74718155  0.24131113  0.49991421  1
  Cu+  Cu59  1  0.74607243  0.74293814  0.49948965  1
  Cu+  Cu60  1  0.32907006  0.41549432  0.83906830  1
  Cu+  Cu61  1  0.32838020  0.91923295  0.83383043  1
  Cu+  Cu62  1  0.82793364  0.41511389  0.83686298  1
  Cu+  Cu63  1  0.83054717  0.91523067  0.83848674  1
  Cu+  Cu64  1  0.08397208  0.16806657  0.83911758  1
  Cu+  Cu65  1  0.08446483  0.67075780  0.83576827  1
  Cu+  Cu66  1  0.57991019  0.17225915  0.83477879  1
  Cu+  Cu67  1  0.58388054  0.67077500  0.83761682  1
  Cu+  Cu68  1  0.08572485  0.41487999  0.83795702  1
  Cu+  Cu69  1  0.08399507  0.91552092  0.83540972  1
  Cu+  Cu70  1  0.58627329  0.41489092  0.83665198  1
  Cu+  Cu71  1  0.58484645  0.91341060  0.83626095  1
  Cu+  Cu72  1  0.16570534  0.08212295  0.67437863  1
  Cu+  Cu73  1  0.16583244  0.58140969  0.68547080  1
  Cu+  Cu74  1  0.66757505  0.08426274  0.67316086  1
  Cu+  Cu75  1  0.66613455  0.58275663  0.67374724  1
  Cu+  Cu76  1  0.41746658  0.33090660  0.67460859  1
  Cu+  Cu77  1  0.41330061  0.82848117  0.68363037  1
  Cu+  Cu78  1  0.91295569  0.32955074  0.67312849  1
  Cu+  Cu79  1  0.91342890  0.83147212  0.67069786  1
  Cu+  Cu80  1  0.41474143  0.08481275  0.67628947  1
  Cu+  Cu81  1  0.41359884  0.58247656  0.68491820  1
  Cu+  Cu82  1  0.91407982  0.08489386  0.67326160  1
  Cu+  Cu83  1  0.91272861  0.58373663  0.67108493  1
  Cu+  Cu84  1  0.00160828  0.25261869  0.00860264  1
  Cu+  Cu85  1  0.00278591  0.75190007  0.00645980  1
  Cu+  Cu86  1  0.50165419  0.25135619  0.00783609  1
  Cu+  Cu87  1  0.50223307  0.75211379  0.01487493  1
  Cu+  Cu88  1  0.24795904  0.49841252  0.01683635  1
  Cu+  Cu89  1  0.25084253  1.00017006  0.00732807  1
  Cu+  Cu90  1  0.74927149  0.49803352  0.00810648  1
  Cu+  Cu91  1  0.74719664  0.99848572  0.00818402  1
  Cu+  Cu92  1  0.24971583  0.25318123  0.01042691  1
  Cu+  Cu93  1  0.24906947  0.75295471  0.00983973  1
  Cu+  Cu94  1  0.74753137  0.25239010  0.00576766  1
  Cu+  Cu95  1  0.74842257  0.75076452  0.00902043  1
  Cu+  Cu96  1  0.33637890  0.41964721  0.34422681  1
  Cu+  Cu97  1  0.33941229  0.91864863  0.34059980  1
  Cu+  Cu98  1  0.83976425  0.41697079  0.33976262  1
  Cu+  Cu99  1  0.83931355  0.91922338  0.33937820  1
  Cu+  Cu100  1  0.08595850  0.16571515  0.33922055  1
  Cu+  Cu101  1  0.08704671  0.66465712  0.34621935  1
  Cu+  Cu102  1  0.58382050  0.16180999  0.34442359  1
  Cu+  Cu103  1  0.58241210  0.66456832  0.34830174  1
  Cu+  Cu104  1  0.08734320  0.42094253  0.34840560  1
  Cu+  Cu105  1  0.08539001  0.92148153  0.34327755  1
  Cu+  Cu106  1  0.58428850  0.41905392  0.34610838  1
  Cu+  Cu107  1  0.58532474  0.91710554  0.34258144  1
  Cu+  Cu108  1  -0.00001888  0.00102416  0.11364027  1
  Cu+  Cu109  1  -0.00458725  0.49861655  0.11647207  1
  Cu+  Cu110  1  0.50078401  0.00313208  0.11507915  1
  Cu+  Cu111  1  0.50454899  0.49819260  0.11777513  1
  Cu+  Cu112  1  0.33268982  0.16717501  0.44375554  1
  Cu+  Cu113  1  0.33588558  0.67093610  0.45337145  1
  Cu+  Cu114  1  0.83654530  0.16430711  0.44466525  1
  Cu+  Cu115  1  0.83461984  0.66615995  0.44026270  1
  Cu+  Cu116  1  0.16477364  0.32813992  0.78306972  1
  Cu+  Cu117  1  0.16133600  0.83229218  0.77763667  1
  Cu+  Cu118  1  0.66932826  0.33515014  0.77814209  1
  Cu+  Cu119  1  0.67028441  0.83460255  0.78106266  1
  Te2-  Te120  1  0.00145640  0.00356154  0.38745068  1
  Te2-  Te121  1  0.00018430  0.49963527  0.39195162  1
  Te2-  Te122  1  0.50111416  -0.00372726  0.38886493  1
  Te2-  Te123  1  0.49862869  0.49863157  0.39238939  1
  Te2-  Te124  1  0.33023038  0.16677634  0.71866394  1
  Te2-  Te125  1  0.33087013  0.66448659  0.72954105  1
  Te2-  Te126  1  0.83124656  0.16593134  0.71767566  1
  Te2-  Te127  1  0.83173697  0.66713739  0.71428639  1
  Te2-  Te128  1  0.16449694  0.33140778  0.05680560  1
  Te2-  Te129  1  0.16683398  0.83581618  0.05108014  1
  Te2-  Te130  1  0.66589844  0.33379445  0.05173756  1
  Te2-  Te131  1  0.66953512  0.83529558  0.05531556  1
  Te2-  Te132  1  0.48919164  0.24900582  0.88239749  1
  Te2-  Te133  1  0.48838324  0.74495920  0.88720902  1
  Te2-  Te134  1  0.99669140  0.24929867  0.88282954  1
  Te2-  Te135  1  0.99644812  0.74834792  0.88059465  1
  Te2-  Te136  1  0.25144974  0.00877561  0.88122381  1
  Te2-  Te137  1  0.25490666  0.51141014  0.88873029  1
  Te2-  Te138  1  0.75005489  0.00341437  0.88208571  1
  Te2-  Te139  1  0.75260069  0.50653510  0.88226689  1
  Te2-  Te140  1  0.25204739  0.24968349  0.88416400  1
  Te2-  Te141  1  0.25538499  0.74733842  0.88383664  1
  Te2-  Te142  1  0.74825825  0.24636409  0.87962409  1
  Te2-  Te143  1  0.74988307  0.74727481  0.88283563  1
  Te2-  Te144  1  0.32904047  0.41348163  0.21836248  1
  Te2-  Te145  1  0.33252918  0.91280944  0.21503539  1
  Te2-  Te146  1  0.83559924  0.41691462  0.21406002  1
  Te2-  Te147  1  0.83181256  0.91541286  0.21405986  1
  Te2-  Te148  1  0.08826425  0.17272263  0.21412877  1
  Te2-  Te149  1  0.09178287  0.67214902  0.21908634  1
  Te2-  Te150  1  0.58745405  0.17065346  0.21763808  1
  Te2-  Te151  1  0.58944842  0.67460629  0.22057367  1
  Te2-  Te152  1  0.08881186  0.41100852  0.22087625  1
  Te2-  Te153  1  0.08948090  0.91504041  0.21700672  1
  Te2-  Te154  1  0.58670907  0.41677935  0.21878226  1
  Te2-  Te155  1  0.59429102  0.91567174  0.21722662  1
  Te2-  Te156  1  0.15754813  0.08108778  0.54850957  1
  Te2-  Te157  1  0.15299320  0.57619042  0.55600291  1
  Te2-  Te158  1  0.65640694  0.07400137  0.54786126  1
  Te2-  Te159  1  0.65293029  0.57561519  0.54800090  1
  Te2-  Te160  1  0.41783836  0.33695718  0.54865163  1
  Te2-  Te161  1  0.41366227  0.83185752  0.55476222  1
  Te2-  Te162  1  0.91365284  0.33909004  0.54760592  1
  Te2-  Te163  1  0.91424662  0.83903265  0.54484036  1
  Te2-  Te164  1  0.41537635  0.07500354  0.54882384  1
  Te2-  Te165  1  0.41334980  0.57540147  0.55620014  1
  Te2-  Te166  1  0.91954529  0.08267498  0.54743851  1
  Te2-  Te167  1  0.91451031  0.57791615  0.54522436  1
  Te2-  Te168  1  -0.00034970  -0.00088307  0.88092382  1
  Te2-  Te169  1  -0.00241455  0.49962910  0.88191176  1
  Te2-  Te170  1  0.50031411  0.00158723  0.88099707  1
  Te2-  Te171  1  0.50124921  0.49972693  0.88276381  1
  Te2-  Te172  1  0.33481621  0.16627495  0.21629325  1
  Te2-  Te173  1  0.33534499  0.66848562  0.21779081  1
  Te2-  Te174  1  0.83550286  0.16708915  0.21458854  1
  Te2-  Te175  1  0.83717683  0.66935003  0.21601937  1
  Te2-  Te176  1  0.16614669  0.33118176  0.54966765  1
  Te2-  Te177  1  0.16484499  0.83392890  0.54884513  1
  Te2-  Te178  1  0.66801067  0.33349803  0.54602354  1
  Te2-  Te179  1  0.66847555  0.83344215  0.54921953  1
  Te2-  Te180  1  0.32572400  0.40924046  0.71196289  1
  Te2-  Te181  1  0.32324603  0.91223269  0.70723824  1
  Te2-  Te182  1  0.82760231  0.41446599  0.70953531  1
  Te2-  Te183  1  0.82765704  0.91467890  0.71066424  1
  Te2-  Te184  1  0.08400472  0.17047592  0.71156458  1
  Te2-  Te185  1  0.08182696  0.67145396  0.70880569  1
  Te2-  Te186  1  0.58659279  0.17312141  0.70806832  1
  Te2-  Te187  1  0.58708326  0.67294035  0.71070766  1
  Te2-  Te188  1  0.08217687  0.40849068  0.71132897  1
  Te2-  Te189  1  0.08272056  0.91231177  0.70862269  1
  Te2-  Te190  1  0.58617036  0.41396986  0.71070214  1
  Te2-  Te191  1  0.58659267  0.91457778  0.70989467  1
  Te2-  Te192  1  0.16277471  0.08205649  0.04519133  1
  Te2-  Te193  1  0.16048015  0.58355685  0.04662577  1
  Te2-  Te194  1  0.66150912  0.08258294  0.04459443  1
  Te2-  Te195  1  0.66276636  0.58135216  0.04691785  1
  Te2-  Te196  1  0.41992891  0.33914944  0.04671235  1
  Te2-  Te197  1  0.41866421  0.84068081  0.04522822  1
  Te2-  Te198  1  0.91819663  0.33918409  0.04434100  1
  Te2-  Te199  1  0.91975433  0.83880285  0.04431940  1
  Te2-  Te200  1  0.41996347  0.08206277  0.04561460  1
  Te2-  Te201  1  0.42140313  0.57965705  0.04535133  1
  Te2-  Te202  1  0.91864932  0.08147288  0.04346653  1
  Te2-  Te203  1  0.91999627  0.58254411  0.04561035  1
  Te2-  Te204  1  0.49391498  0.24542113  0.37390586  1
  Te2-  Te205  1  0.49398820  0.74797147  0.38117062  1
  Te2-  Te206  1  0.99717820  0.24684614  0.37607587  1
  Te2-  Te207  1  0.99599028  0.74786067  0.37263532  1
  Te2-  Te208  1  0.25746302  0.00669322  0.37517265  1
  Te2-  Te209  1  0.25854045  0.51030237  0.38076756  1
  Te2-  Te210  1  0.75522454  0.00414625  0.37701409  1
  Te2-  Te211  1  0.75757780  0.50543058  0.37191149  1
  Te2-  Te212  1  0.25430399  0.24909561  0.37672557  1
  Te2-  Te213  1  0.25790387  0.75013700  0.37987035  1
  Te2-  Te214  1  0.75702984  0.24719426  0.37398139  1
  Te2-  Te215  1  0.75634575  0.74928222  0.37374126  1
