# generated using pymatgen
data_Ti(CuTe)4
_symmetry_space_group_name_H-M   'P 1'
_cell_length_a   16.87392458
_cell_length_b   16.87610142
_cell_length_c   20.68711808
_cell_angle_alpha   90.03811726
_cell_angle_beta   90.00019162
_cell_angle_gamma   119.99088144
_symmetry_Int_Tables_number   1
_chemical_formula_structural   Ti(CuTe)4
_chemical_formula_sum   'Ti24 Cu96 Te96'
_cell_volume   5102.21346084
_cell_formula_units_Z   24
loop_
 _symmetry_equiv_pos_site_id
 _symmetry_equiv_pos_as_xyz
  1  'x, y, z'
loop_
 _atom_type_symbol
 _atom_type_oxidation_number
  Ti4+  4.0
  Cu+  1.0
  Te2-  -2.0
loop_
 _atom_site_type_symbol
 _atom_site_label
 _atom_site_symmetry_multiplicity
 _atom_site_fract_x
 _atom_site_fract_y
 _atom_site_fract_z
 _atom_site_occupancy
  Ti4+  Ti0  1  -0.00186388  -0.00029923  0.25727827  1
  Ti4+  Ti1  1  0.00369261  0.50343392  0.26256645  1
  Ti4+  Ti2  1  0.49931891  0.00184131  0.25621830  1
  Ti4+  Ti3  1  0.49889182  0.49880392  0.25782972  1
  Ti4+  Ti4  1  0.33537472  0.16911187  0.58817993  1
  Ti4+  Ti5  1  0.33395533  0.66743402  0.59138646  1
  Ti4+  Ti6  1  0.83159413  0.16691928  0.59000673  1
  Ti4+  Ti7  1  0.83334619  0.66362695  0.59469958  1
  Ti4+  Ti8  1  0.16335853  0.33115467  0.92443552  1
  Ti4+  Ti9  1  0.16688424  0.83138231  0.92442574  1
  Ti4+  Ti10  1  0.66845700  0.33323470  0.92570788  1
  Ti4+  Ti11  1  0.66529570  0.83070713  0.92153596  1
  Ti4+  Ti12  1  0.00052340  0.00073580  0.75236595  1
  Ti4+  Ti13  1  -0.00078375  0.49810881  0.75547653  1
  Ti4+  Ti14  1  0.49870688  -0.00137499  0.75629817  1
  Ti4+  Ti15  1  0.50125863  0.50216257  0.75458385  1
  Ti4+  Ti16  1  0.33712416  0.16845426  0.08740627  1
  Ti4+  Ti17  1  0.33046420  0.66543155  0.08975611  1
  Ti4+  Ti18  1  0.83273012  0.16554333  0.08961501  1
  Ti4+  Ti19  1  0.83382268  0.66750256  0.09168640  1
  Ti4+  Ti20  1  0.16762163  0.33530063  0.42088192  1
  Ti4+  Ti21  1  0.16761027  0.83339536  0.42291689  1
  Ti4+  Ti22  1  0.66605074  0.33386358  0.42100650  1
  Ti4+  Ti23  1  0.66684403  0.83403233  0.42260890  1
  Cu+  Cu24  1  0.91198010  0.82205964  0.81148268  1
  Cu+  Cu25  1  0.40224983  0.80535067  0.80658193  1
  Cu+  Cu26  1  0.52732497  0.26488045  0.14266166  1
  Cu+  Cu27  1  0.67707716  0.58631586  0.81548283  1
  Cu+  Cu28  1  0.57565387  0.42884238  0.47527495  1
  Cu+  Cu29  1  0.23555275  0.47487823  0.13967287  1
  Cu+  Cu30  1  0.07877157  0.65050383  0.48037106  1
  Cu+  Cu31  1  0.57353788  0.14794892  0.47353168  1
  Cu+  Cu32  1  0.84371931  0.42006145  0.48121078  1
  Cu+  Cu33  1  0.91460454  0.58453952  0.82087217  1
  Cu+  Cu34  1  0.23603157  0.76115324  0.14174787  1
  Cu+  Cu35  1  0.90353156  0.30730422  0.80628655  1
  Cu+  Cu36  1  0.16246244  0.08129692  0.17044118  1
  Cu+  Cu37  1  0.16523474  0.58454847  0.17290547  1
  Cu+  Cu38  1  0.66352642  0.08121022  0.17022446  1
  Cu+  Cu39  1  0.66412430  0.58317680  0.17288585  1
  Cu+  Cu40  1  0.42374616  0.33692412  0.16953514  1
  Cu+  Cu41  1  0.41190598  0.83653837  0.16977094  1
  Cu+  Cu42  1  0.91662095  0.33511521  0.17508293  1
  Cu+  Cu43  1  0.91767930  0.83824398  0.17242111  1
  Cu+  Cu44  1  0.42441486  0.08810204  0.16876269  1
  Cu+  Cu45  1  0.41162544  0.57694316  0.17079485  1
  Cu+  Cu46  1  0.91612381  0.07926474  0.17117274  1
  Cu+  Cu47  1  0.92012315  0.58537725  0.17678727  1
  Cu+  Cu48  1  0.49471048  0.24879039  0.49970341  1
  Cu+  Cu49  1  0.49859823  0.75230064  0.50556457  1
  Cu+  Cu50  1  0.99971073  0.25262119  0.50290976  1
  Cu+  Cu51  1  0.99941285  0.74579355  0.50637533  1
  Cu+  Cu52  1  0.25355395  0.00470261  0.50279106  1
  Cu+  Cu53  1  0.25363903  0.50439628  0.50354546  1
  Cu+  Cu54  1  0.74970615  0.00271565  0.50340097  1
  Cu+  Cu55  1  0.75257234  0.50527580  0.50397114  1
  Cu+  Cu56  1  0.25190695  0.25056182  0.50162366  1
  Cu+  Cu57  1  0.25194041  0.74763656  0.50550768  1
  Cu+  Cu58  1  0.75106542  0.24499519  0.50176160  1
  Cu+  Cu59  1  0.74963622  0.74754147  0.50682023  1
  Cu+  Cu60  1  0.32952807  0.41698711  0.83849779  1
  Cu+  Cu61  1  0.33152754  0.90928495  0.83825216  1
  Cu+  Cu62  1  0.82915424  0.40934768  0.83615633  1
  Cu+  Cu63  1  0.83045911  0.91472111  0.83276899  1
  Cu+  Cu64  1  0.08429503  0.17125731  0.83547400  1
  Cu+  Cu65  1  0.08832799  0.67376109  0.83575151  1
  Cu+  Cu66  1  0.58396141  0.17008170  0.83961832  1
  Cu+  Cu67  1  0.58842121  0.67284932  0.83291187  1
  Cu+  Cu68  1  0.07943977  0.40824394  0.83677326  1
  Cu+  Cu69  1  0.08455056  0.91587837  0.83521661  1
  Cu+  Cu70  1  0.58342593  0.41418583  0.83854404  1
  Cu+  Cu71  1  0.57803307  0.90897419  0.83630108  1
  Cu+  Cu72  1  0.17097470  0.08784203  0.67128331  1
  Cu+  Cu73  1  0.16770129  0.58365415  0.67576197  1
  Cu+  Cu74  1  0.66705363  0.08660773  0.67455018  1
  Cu+  Cu75  1  0.66864090  0.58317626  0.68312997  1
  Cu+  Cu76  1  0.41595609  0.33243982  0.67226244  1
  Cu+  Cu77  1  0.41218425  0.82784893  0.67801330  1
  Cu+  Cu78  1  0.91400012  0.32944238  0.67867893  1
  Cu+  Cu79  1  0.91677810  0.83029827  0.68039574  1
  Cu+  Cu80  1  0.41666797  0.08667972  0.67296331  1
  Cu+  Cu81  1  0.41682952  0.58557475  0.67347904  1
  Cu+  Cu82  1  0.91770604  0.08714812  0.67157574  1
  Cu+  Cu83  1  0.91722961  0.58275662  0.68566629  1
  Cu+  Cu84  1  -0.00062982  0.24993875  0.00940378  1
  Cu+  Cu85  1  0.00023256  0.74966814  0.01135979  1
  Cu+  Cu86  1  0.50650650  0.25395422  0.01365518  1
  Cu+  Cu87  1  0.50077168  0.74888282  0.00642558  1
  Cu+  Cu88  1  0.24419888  0.49365546  0.01136333  1
  Cu+  Cu89  1  0.25156799  0.99809416  0.00673527  1
  Cu+  Cu90  1  0.75248023  0.50073344  0.01231517  1
  Cu+  Cu91  1  0.74700830  0.99526503  0.00419860  1
  Cu+  Cu92  1  0.25017258  0.25159306  0.00684436  1
  Cu+  Cu93  1  0.24780257  0.75028179  0.01329366  1
  Cu+  Cu94  1  0.75155300  0.25028473  0.00970771  1
  Cu+  Cu95  1  0.74931454  0.74976571  0.00912465  1
  Cu+  Cu96  1  0.33485591  0.41752566  0.34046259  1
  Cu+  Cu97  1  0.33498224  0.91945546  0.33985730  1
  Cu+  Cu98  1  0.83816702  0.42149751  0.35070588  1
  Cu+  Cu99  1  0.83512658  0.91723166  0.34126582  1
  Cu+  Cu100  1  0.07944397  0.16317042  0.33899123  1
  Cu+  Cu101  1  0.08499348  0.66628329  0.35078006  1
  Cu+  Cu102  1  0.58290950  0.16538142  0.34469279  1
  Cu+  Cu103  1  0.58211213  0.66493533  0.34097139  1
  Cu+  Cu104  1  0.08623474  0.42105078  0.34380436  1
  Cu+  Cu105  1  0.07989715  0.91889144  0.34075395  1
  Cu+  Cu106  1  0.58204056  0.41909452  0.34678822  1
  Cu+  Cu107  1  0.58154294  0.91866257  0.33902084  1
  Cu+  Cu108  1  0.00166627  0.00167967  0.11355216  1
  Cu+  Cu109  1  -0.00440526  0.49730713  0.12046082  1
  Cu+  Cu110  1  0.50121263  -0.00210411  0.11202354  1
  Cu+  Cu111  1  0.50127638  0.50421516  0.11438535  1
  Cu+  Cu112  1  0.32684455  0.16467617  0.44366568  1
  Cu+  Cu113  1  0.33852926  0.66820155  0.44820673  1
  Cu+  Cu114  1  0.83853081  0.16244149  0.44653515  1
  Cu+  Cu115  1  0.83681710  0.67524646  0.45094799  1
  Cu+  Cu116  1  0.17074197  0.33426102  0.78027150  1
  Cu+  Cu117  1  0.17225854  0.84286727  0.78017755  1
  Cu+  Cu118  1  0.66154779  0.33005454  0.78120873  1
  Cu+  Cu119  1  0.66979995  0.84094080  0.77565444  1
  Te2-  Te120  1  -0.00132424  0.00079412  0.38680520  1
  Te2-  Te121  1  0.00353537  0.50051713  0.39438370  1
  Te2-  Te122  1  0.49862628  -0.00106003  0.38661716  1
  Te2-  Te123  1  0.49817976  0.50168721  0.38828982  1
  Te2-  Te124  1  0.33442348  0.16860606  0.71716068  1
  Te2-  Te125  1  0.33104361  0.66221979  0.72211182  1
  Te2-  Te126  1  0.83073870  0.16263307  0.72043748  1
  Te2-  Te127  1  0.83420471  0.66570762  0.72748789  1
  Te2-  Te128  1  0.16345005  0.32794549  0.05519281  1
  Te2-  Te129  1  0.16564699  0.83483637  0.05477136  1
  Te2-  Te130  1  0.67279077  0.33572452  0.05603190  1
  Te2-  Te131  1  0.66514493  0.83153702  0.05003828  1
  Te2-  Te132  1  0.49689403  0.24918685  0.88601705  1
  Te2-  Te133  1  0.49072032  0.73992942  0.88089297  1
  Te2-  Te134  1  0.98838197  0.24051135  0.88349436  1
  Te2-  Te135  1  0.99120337  0.74546621  0.88487284  1
  Te2-  Te136  1  0.25223073  0.00060830  0.88023612  1
  Te2-  Te137  1  0.24692144  0.50226180  0.88373203  1
  Te2-  Te138  1  0.74843414  0.00028105  0.87779815  1
  Te2-  Te139  1  0.75560422  0.50811913  0.88569734  1
  Te2-  Te140  1  0.25120786  0.24832391  0.88095760  1
  Te2-  Te141  1  0.25103309  0.74127077  0.88587075  1
  Te2-  Te142  1  0.75137598  0.24279368  0.88381570  1
  Te2-  Te143  1  0.75601519  0.74510870  0.88271800  1
  Te2-  Te144  1  0.32601029  0.40770921  0.21471087  1
  Te2-  Te145  1  0.32597364  0.91983167  0.21420454  1
  Te2-  Te146  1  0.83271796  0.41799511  0.22233351  1
  Te2-  Te147  1  0.82543493  0.91285301  0.21591389  1
  Te2-  Te148  1  0.08427372  0.17107495  0.21337506  1
  Te2-  Te149  1  0.08775163  0.67631859  0.22220594  1
  Te2-  Te150  1  0.59209860  0.17598395  0.21701506  1
  Te2-  Te151  1  0.58096592  0.66888473  0.21476563  1
  Te2-  Te152  1  0.08605437  0.41402191  0.21782702  1
  Te2-  Te153  1  0.08527435  0.91441735  0.21526193  1
  Te2-  Te154  1  0.59121017  0.41673068  0.21892124  1
  Te2-  Te155  1  0.58099656  0.91320836  0.21321100  1
  Te2-  Te156  1  0.16409298  0.08311424  0.54561790  1
  Te2-  Te157  1  0.15977186  0.57658180  0.55028223  1
  Te2-  Te158  1  0.65765318  0.07771399  0.54877151  1
  Te2-  Te159  1  0.66101583  0.58073325  0.55430860  1
  Te2-  Te160  1  0.41951376  0.34304408  0.54654541  1
  Te2-  Te161  1  0.41831150  0.83883599  0.55101980  1
  Te2-  Te162  1  0.92126362  0.34050578  0.55102973  1
  Te2-  Te163  1  0.91832050  0.83270527  0.55206853  1
  Te2-  Te164  1  0.42043960  0.07961935  0.54730064  1
  Te2-  Te165  1  0.42055426  0.58363310  0.54793019  1
  Te2-  Te166  1  0.91865071  0.08415709  0.54571511  1
  Te2-  Te167  1  0.92130959  0.57665500  0.55532168  1
  Te2-  Te168  1  -0.00024674  0.00100406  0.87993188  1
  Te2-  Te169  1  0.00130623  0.50049160  0.88333698  1
  Te2-  Te170  1  0.50031372  -0.00010878  0.88320839  1
  Te2-  Te171  1  0.49996313  0.50213543  0.88194224  1
  Te2-  Te172  1  0.33273041  0.16656871  0.21410348  1
  Te2-  Te173  1  0.33544527  0.66895848  0.21737267  1
  Te2-  Te174  1  0.83220748  0.16451328  0.21581913  1
  Te2-  Te175  1  0.83332793  0.66959361  0.21752632  1
  Te2-  Te176  1  0.16832624  0.33495116  0.54722779  1
  Te2-  Te177  1  0.16967273  0.83605226  0.54996685  1
  Te2-  Te178  1  0.66542609  0.33208398  0.54921857  1
  Te2-  Te179  1  0.66739626  0.83497196  0.54918493  1
  Te2-  Te180  1  0.32972396  0.41564625  0.71082421  1
  Te2-  Te181  1  0.32763189  0.91594310  0.70986521  1
  Te2-  Te182  1  0.82324415  0.41020873  0.70976398  1
  Te2-  Te183  1  0.82807670  0.91590296  0.70543327  1
  Te2-  Te184  1  0.08690486  0.17333831  0.70920461  1
  Te2-  Te185  1  0.08963890  0.67436993  0.71088286  1
  Te2-  Te186  1  0.58435906  0.17174450  0.71300663  1
  Te2-  Te187  1  0.58713040  0.67583324  0.70755387  1
  Te2-  Te188  1  0.08657473  0.41296802  0.71013945  1
  Te2-  Te189  1  0.09018907  0.91715690  0.70767352  1
  Te2-  Te190  1  0.58426999  0.41080986  0.71120460  1
  Te2-  Te191  1  0.58574297  0.91500801  0.70842410  1
  Te2-  Te192  1  0.16457822  0.08137472  0.04335995  1
  Te2-  Te193  1  0.15648728  0.57788122  0.04540243  1
  Te2-  Te194  1  0.66159091  0.07931512  0.04343888  1
  Te2-  Te195  1  0.66173548  0.58043722  0.04634013  1
  Te2-  Te196  1  0.42052811  0.34161867  0.04275848  1
  Te2-  Te197  1  0.42021584  0.83773892  0.04266359  1
  Te2-  Te198  1  0.92012167  0.33940397  0.04789411  1
  Te2-  Te199  1  0.91910547  0.83906353  0.04578660  1
  Te2-  Te200  1  0.42171555  0.07993924  0.04195165  1
  Te2-  Te201  1  0.41693737  0.57952962  0.04351695  1
  Te2-  Te202  1  0.91672582  0.07850960  0.04398196  1
  Te2-  Te203  1  0.92149704  0.58121376  0.04965837  1
  Te2-  Te204  1  0.49162139  0.24626232  0.37342738  1
  Te2-  Te205  1  0.49571763  0.74909824  0.37759537  1
  Te2-  Te206  1  0.99548088  0.24934396  0.37620924  1
  Te2-  Te207  1  0.99418122  0.74934746  0.37902327  1
  Te2-  Te208  1  0.25037253  0.00431165  0.37670549  1
  Te2-  Te209  1  0.25627305  0.50871518  0.37718725  1
  Te2-  Te210  1  0.75153995  0.00479065  0.37647216  1
  Te2-  Te211  1  0.75437933  0.51059127  0.37777047  1
  Te2-  Te212  1  0.25025505  0.24691329  0.37517329  1
  Te2-  Te213  1  0.25834317  0.75059648  0.37812987  1
  Te2-  Te214  1  0.75510635  0.24752940  0.37536377  1
  Te2-  Te215  1  0.75205453  0.74718098  0.37918564  1
