# generated using pymatgen
data_Ti(CuTe)4
_symmetry_space_group_name_H-M   'P 1'
_cell_length_a   16.84800607
_cell_length_b   16.84621598
_cell_length_c   20.64366463
_cell_angle_alpha   89.98040279
_cell_angle_beta   90.00863401
_cell_angle_gamma   120.00606690
_symmetry_Int_Tables_number   1
_chemical_formula_structural   Ti(CuTe)4
_chemical_formula_sum   'Ti24 Cu96 Te96'
_cell_volume   5073.89788439
_cell_formula_units_Z   24
loop_
 _symmetry_equiv_pos_site_id
 _symmetry_equiv_pos_as_xyz
  1  'x, y, z'
loop_
 _atom_type_symbol
 _atom_type_oxidation_number
  Ti4+  4.0
  Cu+  1.0
  Te2-  -2.0
loop_
 _atom_site_type_symbol
 _atom_site_label
 _atom_site_symmetry_multiplicity
 _atom_site_fract_x
 _atom_site_fract_y
 _atom_site_fract_z
 _atom_site_occupancy
  Ti4+  Ti0  1  -0.00151019  -0.00084591  0.25462879  1
  Ti4+  Ti1  1  -0.00263420  0.49888977  0.25824571  1
  Ti4+  Ti2  1  0.49987663  0.00211845  0.26074195  1
  Ti4+  Ti3  1  0.50097166  0.50347475  0.26084449  1
  Ti4+  Ti4  1  0.33104857  0.16571663  0.58717229  1
  Ti4+  Ti5  1  0.33274932  0.66629483  0.58999089  1
  Ti4+  Ti6  1  0.83544286  0.16812259  0.58738307  1
  Ti4+  Ti7  1  0.83218463  0.66553590  0.59051906  1
  Ti4+  Ti8  1  0.16893636  0.33528050  0.92499273  1
  Ti4+  Ti9  1  0.16886675  0.83262493  0.92445446  1
  Ti4+  Ti10  1  0.66701878  0.33159135  0.92859441  1
  Ti4+  Ti11  1  0.66770701  0.83240639  0.92752967  1
  Ti4+  Ti12  1  -0.00144881  -0.00108297  0.75555771  1
  Ti4+  Ti13  1  0.00202850  0.50022281  0.75621266  1
  Ti4+  Ti14  1  0.50029916  0.00029194  0.75731554  1
  Ti4+  Ti15  1  0.49966006  0.49929736  0.75720351  1
  Ti4+  Ti16  1  0.33393785  0.16583768  0.09098992  1
  Ti4+  Ti17  1  0.33434978  0.66567868  0.09274839  1
  Ti4+  Ti18  1  0.83358623  0.16821617  0.08998979  1
  Ti4+  Ti19  1  0.83286970  0.66724496  0.08904492  1
  Ti4+  Ti20  1  0.16474706  0.33159660  0.41934782  1
  Ti4+  Ti21  1  0.16710635  0.83345592  0.42024144  1
  Ti4+  Ti22  1  0.66761575  0.33475763  0.41711712  1
  Ti4+  Ti23  1  0.66581597  0.83299900  0.41937178  1
  Cu+  Cu24  1  0.84732396  0.42784922  0.47652571  1
  Cu+  Cu25  1  0.73468337  0.76072331  0.14143024  1
  Cu+  Cu26  1  0.19492125  0.59709060  0.80767247  1
  Cu+  Cu27  1  0.07845506  0.42846718  0.47369633  1
  Cu+  Cu28  1  0.57874803  0.42131055  0.47852995  1
  Cu+  Cu29  1  0.34464287  0.92123574  0.47901588  1
  Cu+  Cu30  1  0.73620647  0.26230655  0.14399925  1
  Cu+  Cu31  1  0.57783740  0.92320138  0.47790518  1
  Cu+  Cu32  1  0.58113460  0.16077510  0.48039958  1
  Cu+  Cu33  1  0.57683980  0.65528874  0.47893727  1
  Cu+  Cu34  1  0.34070168  0.42023423  0.47966039  1
  Cu+  Cu35  1  0.06935643  0.14104883  0.46929749  1
  Cu+  Cu36  1  0.16485607  0.08293679  0.17102290  1
  Cu+  Cu37  1  0.16495151  0.58096281  0.17402624  1
  Cu+  Cu38  1  0.66479146  0.08751260  0.17379651  1
  Cu+  Cu39  1  0.66443708  0.58778993  0.17354894  1
  Cu+  Cu40  1  0.41660734  0.33481853  0.17574006  1
  Cu+  Cu41  1  0.41645537  0.83435594  0.17634015  1
  Cu+  Cu42  1  0.91260367  0.33572368  0.17226921  1
  Cu+  Cu43  1  0.91216138  0.83522119  0.16810383  1
  Cu+  Cu44  1  0.41611597  0.08012377  0.17409351  1
  Cu+  Cu45  1  0.41852712  0.58260003  0.17522625  1
  Cu+  Cu46  1  0.92118503  0.08380235  0.16936503  1
  Cu+  Cu47  1  0.91669431  0.58073307  0.17083345  1
  Cu+  Cu48  1  0.49014405  0.24524951  0.49559146  1
  Cu+  Cu49  1  0.49473132  0.74799132  0.49950969  1
  Cu+  Cu50  1  0.99723018  0.24767367  0.49764657  1
  Cu+  Cu51  1  0.99752733  0.74913495  0.50193866  1
  Cu+  Cu52  1  0.25117013  0.00277117  0.49912167  1
  Cu+  Cu53  1  0.25134869  0.50651506  0.50042855  1
  Cu+  Cu54  1  0.75288139  0.00471166  0.49890711  1
  Cu+  Cu55  1  0.75504619  0.50996792  0.49818215  1
  Cu+  Cu56  1  0.24679119  0.24273126  0.49783228  1
  Cu+  Cu57  1  0.25071771  0.74758182  0.50207274  1
  Cu+  Cu58  1  0.75716049  0.24911975  0.49582838  1
  Cu+  Cu59  1  0.75118219  0.74684038  0.50061968  1
  Cu+  Cu60  1  0.33019141  0.41454312  0.83770035  1
  Cu+  Cu61  1  0.33006469  0.91501063  0.83797749  1
  Cu+  Cu62  1  0.83011460  0.41195991  0.84106370  1
  Cu+  Cu63  1  0.83006437  0.91289136  0.84048295  1
  Cu+  Cu64  1  0.08511461  0.16870807  0.83828478  1
  Cu+  Cu65  1  0.09151619  0.67008179  0.83739740  1
  Cu+  Cu66  1  0.58656649  0.16892761  0.84185639  1
  Cu+  Cu67  1  0.58591603  0.66883602  0.84152742  1
  Cu+  Cu68  1  0.09158557  0.42031537  0.83749693  1
  Cu+  Cu69  1  0.08496366  0.91541138  0.83813747  1
  Cu+  Cu70  1  0.58369302  0.41396487  0.84145164  1
  Cu+  Cu71  1  0.58510263  0.91517831  0.84135866  1
  Cu+  Cu72  1  0.16682011  0.08347388  0.67282548  1
  Cu+  Cu73  1  0.16995610  0.58438387  0.67921053  1
  Cu+  Cu74  1  0.66771334  0.08474500  0.67568183  1
  Cu+  Cu75  1  0.66664449  0.58230534  0.67750774  1
  Cu+  Cu76  1  0.41576258  0.33228016  0.67450964  1
  Cu+  Cu77  1  0.41734441  0.83406598  0.67744777  1
  Cu+  Cu78  1  0.91581930  0.33265706  0.67461599  1
  Cu+  Cu79  1  0.91296653  0.82996250  0.67377032  1
  Cu+  Cu80  1  0.41745701  0.08510969  0.67575862  1
  Cu+  Cu81  1  0.41741782  0.58366969  0.67754720  1
  Cu+  Cu82  1  0.91476081  0.08252548  0.67364079  1
  Cu+  Cu83  1  0.91238938  0.58068389  0.67615379  1
  Cu+  Cu84  1  0.00494912  0.25352895  0.00717105  1
  Cu+  Cu85  1  0.00472658  0.74914870  0.00670234  1
  Cu+  Cu86  1  0.50155433  0.24858973  0.01178062  1
  Cu+  Cu87  1  0.50169209  0.74896423  0.01121726  1
  Cu+  Cu88  1  0.25137386  0.49821848  0.01032219  1
  Cu+  Cu89  1  0.25002425  0.99658947  0.00792536  1
  Cu+  Cu90  1  0.74938490  0.49729810  0.01059366  1
  Cu+  Cu91  1  0.75121316  0.99843426  0.01070323  1
  Cu+  Cu92  1  0.25044105  0.25258531  0.00793617  1
  Cu+  Cu93  1  0.25021158  0.74989274  0.01004218  1
  Cu+  Cu94  1  0.74777297  0.25247560  0.01523412  1
  Cu+  Cu95  1  0.74742665  0.75185162  0.01318754  1
  Cu+  Cu96  1  0.33521227  0.41882203  0.34762085  1
  Cu+  Cu97  1  0.33593589  0.91739937  0.34743483  1
  Cu+  Cu98  1  0.83646580  0.41778669  0.34604823  1
  Cu+  Cu99  1  0.83457414  0.91648058  0.33781994  1
  Cu+  Cu100  1  0.07978453  0.15939765  0.34144735  1
  Cu+  Cu101  1  0.08193742  0.66478713  0.33874878  1
  Cu+  Cu102  1  0.58213906  0.16594898  0.34730430  1
  Cu+  Cu103  1  0.58280600  0.66564099  0.34787389  1
  Cu+  Cu104  1  0.07808428  0.41655041  0.34414908  1
  Cu+  Cu105  1  0.08068264  0.91596415  0.33544285  1
  Cu+  Cu106  1  0.58374030  0.42142136  0.34599396  1
  Cu+  Cu107  1  0.58283731  0.92023632  0.34596710  1
  Cu+  Cu108  1  0.00379340  -0.00161575  0.11205435  1
  Cu+  Cu109  1  0.00386952  0.50078968  0.11641740  1
  Cu+  Cu110  1  0.49963018  -0.00337652  0.11899346  1
  Cu+  Cu111  1  0.49950847  0.49586126  0.11920222  1
  Cu+  Cu112  1  0.32789800  0.16291445  0.43853673  1
  Cu+  Cu113  1  0.33155254  0.66677171  0.44180048  1
  Cu+  Cu114  1  0.83548999  0.16540339  0.43994663  1
  Cu+  Cu115  1  0.83919084  0.67422245  0.44322909  1
  Cu+  Cu116  1  0.16469330  0.32864108  0.78044402  1
  Cu+  Cu117  1  0.16440120  0.83521700  0.78004598  1
  Cu+  Cu118  1  0.66430988  0.33296375  0.78659366  1
  Cu+  Cu119  1  0.66620923  0.83406519  0.78545028  1
  Te2-  Te120  1  -0.00315730  -0.00658356  0.38601702  1
  Te2-  Te121  1  0.00167910  0.50464649  0.39137662  1
  Te2-  Te122  1  0.50032358  0.00157725  0.39495464  1
  Te2-  Te123  1  0.49950153  0.50087801  0.39489671  1
  Te2-  Te124  1  0.33204295  0.16620202  0.71559533  1
  Te2-  Te125  1  0.33781403  0.66910871  0.71989387  1
  Te2-  Te126  1  0.83386905  0.16689444  0.71587669  1
  Te2-  Te127  1  0.83248968  0.66587277  0.71928067  1
  Te2-  Te128  1  0.16804478  0.33361017  0.05453425  1
  Te2-  Te129  1  0.16792944  0.83262245  0.05382197  1
  Te2-  Te130  1  0.66413857  0.33527128  0.06019026  1
  Te2-  Te131  1  0.66470288  0.83558714  0.05879963  1
  Te2-  Te132  1  0.49537307  0.24591746  0.88567231  1
  Te2-  Te133  1  0.49593424  0.74693545  0.88523160  1
  Te2-  Te134  1  0.99815987  0.25160887  0.88090423  1
  Te2-  Te135  1  0.99809833  0.74527627  0.88043204  1
  Te2-  Te136  1  0.25292669  0.00483974  0.88223399  1
  Te2-  Te137  1  0.26018167  0.51066715  0.88406012  1
  Te2-  Te138  1  0.75331428  0.00411487  0.88476472  1
  Te2-  Te139  1  0.75248415  0.50270862  0.88459675  1
  Te2-  Te140  1  0.25316994  0.24764557  0.88220883  1
  Te2-  Te141  1  0.26003668  0.74840559  0.88388508  1
  Te2-  Te142  1  0.75380433  0.24568623  0.88845926  1
  Te2-  Te143  1  0.75336517  0.74553656  0.88669434  1
  Te2-  Te144  1  0.32906421  0.41547473  0.22085816  1
  Te2-  Te145  1  0.32788219  0.91357963  0.22065177  1
  Te2-  Te146  1  0.82296629  0.41547977  0.21919587  1
  Te2-  Te147  1  0.82436849  0.91654907  0.21316358  1
  Te2-  Te148  1  0.08679917  0.17246127  0.21596985  1
  Te2-  Te149  1  0.08418205  0.66970198  0.21382651  1
  Te2-  Te150  1  0.58347846  0.17557082  0.21998874  1
  Te2-  Te151  1  0.58533020  0.67752221  0.22100221  1
  Te2-  Te152  1  0.08133822  0.41151281  0.21735710  1
  Te2-  Te153  1  0.08147347  0.91176930  0.20990286  1
  Te2-  Te154  1  0.58731775  0.41937963  0.21844151  1
  Te2-  Te155  1  0.58688721  0.91869048  0.21851179  1
  Te2-  Te156  1  0.15833665  0.07600493  0.54630522  1
  Te2-  Te157  1  0.15973754  0.58215959  0.55103492  1
  Te2-  Te158  1  0.65939419  0.08098165  0.54898918  1
  Te2-  Te159  1  0.65585286  0.57689824  0.55033775  1
  Te2-  Te160  1  0.41928327  0.34087991  0.54766582  1
  Te2-  Te161  1  0.42177045  0.84174115  0.55085007  1
  Te2-  Te162  1  0.92276637  0.34373104  0.54755379  1
  Te2-  Te163  1  0.91644848  0.83649282  0.54735657  1
  Te2-  Te164  1  0.42172962  0.08015137  0.54895490  1
  Te2-  Te165  1  0.42020671  0.57894475  0.55026885  1
  Te2-  Te166  1  0.91803606  0.07824244  0.54672143  1
  Te2-  Te167  1  0.92117089  0.58141548  0.54982731  1
  Te2-  Te168  1  0.00053467  -0.00025964  0.88205687  1
  Te2-  Te169  1  0.00138973  0.49995848  0.88299772  1
  Te2-  Te170  1  0.49925589  -0.00121272  0.88366248  1
  Te2-  Te171  1  0.49905860  0.49852227  0.88353357  1
  Te2-  Te172  1  0.33205232  0.16548022  0.21779993  1
  Te2-  Te173  1  0.33235551  0.66551453  0.21952757  1
  Te2-  Te174  1  0.83492730  0.16617335  0.21707824  1
  Te2-  Te175  1  0.83491677  0.66787705  0.21630764  1
  Te2-  Te176  1  0.16681371  0.33335239  0.54843808  1
  Te2-  Te177  1  0.16604371  0.83372805  0.54786866  1
  Te2-  Te178  1  0.66684073  0.33328332  0.54619735  1
  Te2-  Te179  1  0.66716942  0.83384356  0.54777254  1
  Te2-  Te180  1  0.32721674  0.41327266  0.71074792  1
  Te2-  Te181  1  0.32786376  0.91481483  0.71108651  1
  Te2-  Te182  1  0.82766815  0.41227000  0.71423737  1
  Te2-  Te183  1  0.82618092  0.91275760  0.71240631  1
  Te2-  Te184  1  0.08469785  0.17051184  0.71028500  1
  Te2-  Te185  1  0.08453576  0.67260258  0.70973746  1
  Te2-  Te186  1  0.58695458  0.17323981  0.71372803  1
  Te2-  Te187  1  0.58702610  0.67277530  0.71380092  1
  Te2-  Te188  1  0.08602609  0.41139038  0.70973961  1
  Te2-  Te189  1  0.08399595  0.91344600  0.70990790  1
  Te2-  Te190  1  0.58490218  0.41190107  0.71315336  1
  Te2-  Te191  1  0.58746760  0.91480604  0.71313155  1
  Te2-  Te192  1  0.16410464  0.08172886  0.04378468  1
  Te2-  Te193  1  0.16343025  0.58008881  0.04686992  1
  Te2-  Te194  1  0.66004070  0.07845682  0.04642006  1
  Te2-  Te195  1  0.65914994  0.57833431  0.04595887  1
  Te2-  Te196  1  0.41958046  0.33785764  0.04788606  1
  Te2-  Te197  1  0.41982163  0.83735128  0.04870093  1
  Te2-  Te198  1  0.92223240  0.34092306  0.04490963  1
  Te2-  Te199  1  0.92223322  0.83839505  0.04105194  1
  Te2-  Te200  1  0.41896800  0.07831730  0.04759727  1
  Te2-  Te201  1  0.42065123  0.57964919  0.04867564  1
  Te2-  Te202  1  0.92160439  0.08385718  0.04384631  1
  Te2-  Te203  1  0.91928681  0.58038005  0.04500378  1
  Te2-  Te204  1  0.49053822  0.24779399  0.36979317  1
  Te2-  Te205  1  0.49023131  0.74692780  0.37239312  1
  Te2-  Te206  1  0.99174412  0.24386601  0.37072389  1
  Te2-  Te207  1  0.99573720  0.74765669  0.37459458  1
  Te2-  Te208  1  0.24970759  0.00511539  0.37171628  1
  Te2-  Te209  1  0.25084466  0.50732804  0.37328231  1
  Te2-  Te210  1  0.75567758  0.00649186  0.37236853  1
  Te2-  Te211  1  0.75654876  0.51160609  0.37197026  1
  Te2-  Te212  1  0.25206038  0.24513577  0.37095159  1
  Te2-  Te213  1  0.25090144  0.74411143  0.37446970  1
  Te2-  Te214  1  0.75506595  0.24485761  0.37008161  1
  Te2-  Te215  1  0.75570847  0.74830142  0.37383837  1
