# generated using pymatgen
data_Ti(CuTe)4
_symmetry_space_group_name_H-M   'P 1'
_cell_length_a   16.89587828
_cell_length_b   16.89919672
_cell_length_c   20.71733405
_cell_angle_alpha   90.02981858
_cell_angle_beta   89.99430175
_cell_angle_gamma   119.99896109
_symmetry_Int_Tables_number   1
_chemical_formula_structural   Ti(CuTe)4
_chemical_formula_sum   'Ti24 Cu96 Te96'
_cell_volume   5122.89923970
_cell_formula_units_Z   24
loop_
 _symmetry_equiv_pos_site_id
 _symmetry_equiv_pos_as_xyz
  1  'x, y, z'
loop_
 _atom_type_symbol
 _atom_type_oxidation_number
  Ti4+  4.0
  Cu+  1.0
  Te2-  -2.0
loop_
 _atom_site_type_symbol
 _atom_site_label
 _atom_site_symmetry_multiplicity
 _atom_site_fract_x
 _atom_site_fract_y
 _atom_site_fract_z
 _atom_site_occupancy
  Ti4+  Ti0  1  -0.00318287  -0.00002767  0.25700758  1
  Ti4+  Ti1  1  -0.00106275  0.50009713  0.25811956  1
  Ti4+  Ti2  1  0.50023670  0.00008709  0.25901362  1
  Ti4+  Ti3  1  0.49605234  0.49901945  0.25540727  1
  Ti4+  Ti4  1  0.33270668  0.16538117  0.58913986  1
  Ti4+  Ti5  1  0.33212540  0.66538814  0.59138389  1
  Ti4+  Ti6  1  0.83025765  0.16544535  0.59703255  1
  Ti4+  Ti7  1  0.83129037  0.66705469  0.59159724  1
  Ti4+  Ti8  1  0.16900220  0.33398404  0.92387485  1
  Ti4+  Ti9  1  0.17114506  0.83532952  0.92021544  1
  Ti4+  Ti10  1  0.66971578  0.33467831  0.92239250  1
  Ti4+  Ti11  1  0.67145624  0.83362762  0.92578610  1
  Ti4+  Ti12  1  0.00170558  0.00032930  0.75360767  1
  Ti4+  Ti13  1  0.00082090  0.50128932  0.75262934  1
  Ti4+  Ti14  1  0.50009568  0.00015423  0.75450546  1
  Ti4+  Ti15  1  0.50033679  0.49976624  0.75546632  1
  Ti4+  Ti16  1  0.33454895  0.16750725  0.08793970  1
  Ti4+  Ti17  1  0.33503217  0.66693577  0.08745492  1
  Ti4+  Ti18  1  0.83552612  0.16739921  0.08870553  1
  Ti4+  Ti19  1  0.83494077  0.66763183  0.08758465  1
  Ti4+  Ti20  1  0.16510861  0.33387201  0.42432800  1
  Ti4+  Ti21  1  0.16478320  0.83383645  0.42118448  1
  Ti4+  Ti22  1  0.66379051  0.33165933  0.42281152  1
  Ti4+  Ti23  1  0.66563022  0.83284034  0.42492800  1
  Cu+  Cu24  1  0.91547514  0.82094977  0.80973484  1
  Cu+  Cu25  1  0.73794546  0.75484249  0.14482455  1
  Cu+  Cu26  1  0.91495666  0.32593249  0.81422388  1
  Cu+  Cu27  1  0.67939947  0.08812283  0.81400883  1
  Cu+  Cu28  1  0.57176473  0.14250024  0.47605893  1
  Cu+  Cu29  1  0.91603339  0.08547836  0.81992772  1
  Cu+  Cu30  1  0.23601551  0.25446263  0.14264067  1
  Cu+  Cu31  1  0.73959062  0.98611423  0.14707149  1
  Cu+  Cu32  1  0.68705167  0.58939397  0.80675036  1
  Cu+  Cu33  1  0.19197181  0.09546441  0.80402628  1
  Cu+  Cu34  1  0.23683727  0.48426519  0.14337965  1
  Cu+  Cu35  1  0.19117898  0.59550630  0.80534365  1
  Cu+  Cu36  1  0.16257884  0.08382770  0.17091817  1
  Cu+  Cu37  1  0.16205861  0.58032871  0.17088219  1
  Cu+  Cu38  1  0.66256381  0.08130613  0.17229948  1
  Cu+  Cu39  1  0.66178156  0.58295983  0.16948343  1
  Cu+  Cu40  1  0.41235674  0.33551239  0.16810849  1
  Cu+  Cu41  1  0.41934761  0.83726871  0.17078219  1
  Cu+  Cu42  1  0.91867663  0.33885783  0.17119914  1
  Cu+  Cu43  1  0.91304719  0.83578235  0.16909370  1
  Cu+  Cu44  1  0.42022078  0.08368348  0.17263682  1
  Cu+  Cu45  1  0.41384934  0.57743237  0.16737590  1
  Cu+  Cu46  1  0.91512026  0.07792300  0.16912466  1
  Cu+  Cu47  1  0.91820021  0.58163016  0.17150286  1
  Cu+  Cu48  1  0.49540995  0.24321243  0.50291184  1
  Cu+  Cu49  1  0.49572142  0.74632291  0.50660996  1
  Cu+  Cu50  1  0.99660736  0.24853355  0.51053431  1
  Cu+  Cu51  1  0.99546364  0.75124606  0.50485746  1
  Cu+  Cu52  1  0.24910133  0.00332203  0.50216443  1
  Cu+  Cu53  1  0.25033560  0.50308216  0.50666737  1
  Cu+  Cu54  1  0.75022911  0.00182063  0.50988120  1
  Cu+  Cu55  1  0.74636823  0.50279697  0.50505724  1
  Cu+  Cu56  1  0.24989382  0.24852922  0.50543036  1
  Cu+  Cu57  1  0.24872649  0.74769300  0.50519924  1
  Cu+  Cu58  1  0.74504800  0.24437554  0.50842874  1
  Cu+  Cu59  1  0.74923954  0.74709902  0.50710735  1
  Cu+  Cu60  1  0.33030179  0.41420893  0.83703471  1
  Cu+  Cu61  1  0.33067843  0.91570676  0.83407281  1
  Cu+  Cu62  1  0.82775746  0.41291505  0.83315480  1
  Cu+  Cu63  1  0.82709091  0.90965098  0.83583066  1
  Cu+  Cu64  1  0.09176878  0.17153038  0.83492519  1
  Cu+  Cu65  1  0.09192444  0.67161401  0.83232495  1
  Cu+  Cu66  1  0.58771682  0.17047607  0.83542942  1
  Cu+  Cu67  1  0.59022164  0.66702802  0.83803887  1
  Cu+  Cu68  1  0.08999662  0.41957334  0.83474532  1
  Cu+  Cu69  1  0.09112337  0.91776091  0.83296845  1
  Cu+  Cu70  1  0.58857433  0.41787071  0.83689332  1
  Cu+  Cu71  1  0.58711411  0.91675977  0.83785519  1
  Cu+  Cu72  1  0.17085329  0.08587774  0.67571584  1
  Cu+  Cu73  1  0.17042897  0.58521084  0.67701263  1
  Cu+  Cu74  1  0.66821629  0.08436343  0.68309874  1
  Cu+  Cu75  1  0.66949679  0.58579590  0.67927214  1
  Cu+  Cu76  1  0.41380474  0.33046699  0.67216425  1
  Cu+  Cu77  1  0.41366523  0.82964827  0.67423995  1
  Cu+  Cu78  1  0.91285744  0.33047945  0.68183258  1
  Cu+  Cu79  1  0.91408035  0.83111233  0.67862895  1
  Cu+  Cu80  1  0.41407584  0.08252655  0.67333404  1
  Cu+  Cu81  1  0.41358628  0.58248908  0.67545910  1
  Cu+  Cu82  1  0.91467962  0.08529805  0.68521540  1
  Cu+  Cu83  1  0.91515044  0.58581425  0.67204538  1
  Cu+  Cu84  1  0.00318958  0.25308478  0.00920643  1
  Cu+  Cu85  1  0.00731856  0.75215791  0.00496478  1
  Cu+  Cu86  1  0.50649556  0.25160612  0.00615822  1
  Cu+  Cu87  1  0.50539937  0.75307846  0.00895673  1
  Cu+  Cu88  1  0.25096220  0.49982482  0.01265240  1
  Cu+  Cu89  1  0.25289172  0.99955785  0.00596553  1
  Cu+  Cu90  1  0.75251775  0.49833611  0.00697348  1
  Cu+  Cu91  1  0.75272332  0.99984925  0.01620231  1
  Cu+  Cu92  1  0.25054239  0.25098376  0.01261591  1
  Cu+  Cu93  1  0.25288500  0.75212950  0.00631582  1
  Cu+  Cu94  1  0.75189414  0.25204714  0.00944034  1
  Cu+  Cu95  1  0.75338261  0.75273987  0.01416809  1
  Cu+  Cu96  1  0.33175540  0.41761971  0.34229447  1
  Cu+  Cu97  1  0.33451162  0.91837820  0.34179032  1
  Cu+  Cu98  1  0.83442210  0.41791306  0.34262378  1
  Cu+  Cu99  1  0.83243258  0.91684594  0.34474203  1
  Cu+  Cu100  1  0.07877187  0.16476540  0.34290898  1
  Cu+  Cu101  1  0.07999893  0.66376847  0.34121524  1
  Cu+  Cu102  1  0.58182029  0.16247783  0.34651167  1
  Cu+  Cu103  1  0.58097090  0.66370455  0.34162938  1
  Cu+  Cu104  1  0.08055979  0.41823497  0.34411257  1
  Cu+  Cu105  1  0.07933200  0.91785772  0.33988803  1
  Cu+  Cu106  1  0.57928795  0.41723376  0.33872332  1
  Cu+  Cu107  1  0.58386934  0.91854434  0.34462321  1
  Cu+  Cu108  1  0.00314273  -0.00116669  0.11315892  1
  Cu+  Cu109  1  -0.00069960  0.50202250  0.11425861  1
  Cu+  Cu110  1  0.49765471  0.00005648  0.11537144  1
  Cu+  Cu111  1  0.50167282  0.49872009  0.11118805  1
  Cu+  Cu112  1  0.33151595  0.16883763  0.44575038  1
  Cu+  Cu113  1  0.33284585  0.66882739  0.44927466  1
  Cu+  Cu114  1  0.83453041  0.16818636  0.45523942  1
  Cu+  Cu115  1  0.83180232  0.66479424  0.44877346  1
  Cu+  Cu116  1  0.16956439  0.33541290  0.77810888  1
  Cu+  Cu117  1  0.16758712  0.83267332  0.77377093  1
  Cu+  Cu118  1  0.66214389  0.33229953  0.77796716  1
  Cu+  Cu119  1  0.65923309  0.82821363  0.78217049  1
  Te2-  Te120  1  -0.00201214  -0.00011853  0.38556321  1
  Te2-  Te121  1  -0.00168694  0.50060809  0.38715648  1
  Te2-  Te122  1  0.49757078  -0.00357234  0.38938978  1
  Te2-  Te123  1  0.49706422  0.49860749  0.38390944  1
  Te2-  Te124  1  0.33686911  0.16832232  0.72014907  1
  Te2-  Te125  1  0.33599625  0.66743141  0.72274764  1
  Te2-  Te126  1  0.83266412  0.16714947  0.73079908  1
  Te2-  Te127  1  0.83567150  0.66655073  0.72479436  1
  Te2-  Te128  1  0.16616570  0.33342334  0.05551213  1
  Te2-  Te129  1  0.17117556  0.83506540  0.04896666  1
  Te2-  Te130  1  0.66967942  0.33457445  0.05114565  1
  Te2-  Te131  1  0.66744193  0.83305475  0.05725275  1
  Te2-  Te132  1  0.49952523  0.24928594  0.88001317  1
  Te2-  Te133  1  0.50249996  0.74916939  0.88229392  1
  Te2-  Te134  1  0.99465509  0.24724447  0.88317122  1
  Te2-  Te135  1  0.99854167  0.74589637  0.87908154  1
  Te2-  Te136  1  0.25880741  0.00972471  0.88037619  1
  Te2-  Te137  1  0.25596419  0.50646866  0.88443530  1
  Te2-  Te138  1  0.75744414  0.00896652  0.88759238  1
  Te2-  Te139  1  0.75926624  0.50788175  0.88152155  1
  Te2-  Te140  1  0.25652555  0.24837740  0.88479127  1
  Te2-  Te141  1  0.25974957  0.74955370  0.88070204  1
  Te2-  Te142  1  0.75752728  0.24518740  0.88382019  1
  Te2-  Te143  1  0.75846523  0.74497226  0.88631043  1
  Te2-  Te144  1  0.31865739  0.41002586  0.21609968  1
  Te2-  Te145  1  0.32958625  0.91504266  0.21565623  1
  Te2-  Te146  1  0.82710220  0.41407143  0.21653255  1
  Te2-  Te147  1  0.81932967  0.91007452  0.21827822  1
  Te2-  Te148  1  0.08065937  0.17295001  0.21664100  1
  Te2-  Te149  1  0.08609815  0.67128792  0.21527266  1
  Te2-  Te150  1  0.58724888  0.17169098  0.21913134  1
  Te2-  Te151  1  0.58022552  0.67202733  0.21554471  1
  Te2-  Te152  1  0.08408588  0.41028174  0.21807463  1
  Te2-  Te153  1  0.08146578  0.91508214  0.21348657  1
  Te2-  Te154  1  0.58124002  0.41452502  0.21234379  1
  Te2-  Te155  1  0.58490185  0.91081090  0.21865005  1
  Te2-  Te156  1  0.16057840  0.08079112  0.54947337  1
  Te2-  Te157  1  0.16018893  0.58040003  0.55085490  1
  Te2-  Te158  1  0.65737236  0.07619492  0.55552592  1
  Te2-  Te159  1  0.65896639  0.58076748  0.55305245  1
  Te2-  Te160  1  0.41925475  0.33596453  0.54653232  1
  Te2-  Te161  1  0.41720418  0.83646932  0.54880796  1
  Te2-  Te162  1  0.91365443  0.33478415  0.55400065  1
  Te2-  Te163  1  0.91649096  0.83865413  0.55187106  1
  Te2-  Te164  1  0.41571274  0.07452460  0.54807929  1
  Te2-  Te165  1  0.41769689  0.57887904  0.55026433  1
  Te2-  Te166  1  0.91690579  0.08109536  0.55685128  1
  Te2-  Te167  1  0.91574497  0.58191750  0.54666695  1
  Te2-  Te168  1  0.00125077  -0.00126651  0.88241173  1
  Te2-  Te169  1  -0.00013520  0.50152699  0.88013734  1
  Te2-  Te170  1  0.50017630  0.00057073  0.88161757  1
  Te2-  Te171  1  0.49965728  0.49800822  0.88226246  1
  Te2-  Te172  1  0.33278396  0.16677776  0.21474726  1
  Te2-  Te173  1  0.33344703  0.66689038  0.21424365  1
  Te2-  Te174  1  0.83429363  0.16799699  0.21527203  1
  Te2-  Te175  1  0.83203758  0.66591548  0.21431755  1
  Te2-  Te176  1  0.16670730  0.33366004  0.55059537  1
  Te2-  Te177  1  0.16517662  0.83425798  0.54722300  1
  Te2-  Te178  1  0.66371050  0.33398443  0.54961067  1
  Te2-  Te179  1  0.66443771  0.83130350  0.55115678  1
  Te2-  Te180  1  0.32848129  0.41337896  0.71087712  1
  Te2-  Te181  1  0.32833295  0.91362408  0.70862154  1
  Te2-  Te182  1  0.82587285  0.41658396  0.70761845  1
  Te2-  Te183  1  0.82417087  0.91250111  0.71019529  1
  Te2-  Te184  1  0.08840288  0.17511747  0.70843250  1
  Te2-  Te185  1  0.08532097  0.67343021  0.70587878  1
  Te2-  Te186  1  0.58370726  0.17300634  0.70882654  1
  Te2-  Te187  1  0.58389330  0.67210583  0.71103272  1
  Te2-  Te188  1  0.08658169  0.41260036  0.70780095  1
  Te2-  Te189  1  0.08737695  0.91335451  0.70592540  1
  Te2-  Te190  1  0.58406412  0.41253918  0.70899024  1
  Te2-  Te191  1  0.58413017  0.91085653  0.71067194  1
  Te2-  Te192  1  0.16229590  0.07869556  0.04280767  1
  Te2-  Te193  1  0.16172427  0.58275691  0.04327825  1
  Te2-  Te194  1  0.66171824  0.08213872  0.04507821  1
  Te2-  Te195  1  0.66281019  0.57919043  0.04201528  1
  Te2-  Te196  1  0.42346515  0.33907321  0.04138114  1
  Te2-  Te197  1  0.42218706  0.83970564  0.04433596  1
  Te2-  Te198  1  0.92147146  0.34055657  0.04501894  1
  Te2-  Te199  1  0.92575762  0.84017475  0.04224888  1
  Te2-  Te200  1  0.42189035  0.08289083  0.04526503  1
  Te2-  Te201  1  0.42397768  0.58240360  0.04123792  1
  Te2-  Te202  1  0.92558842  0.08312267  0.04302354  1
  Te2-  Te203  1  0.92198754  0.58292584  0.04419677  1
  Te2-  Te204  1  0.49265039  0.24733090  0.37565142  1
  Te2-  Te205  1  0.49469300  0.74731140  0.37981869  1
  Te2-  Te206  1  0.99299796  0.24812779  0.38279405  1
  Te2-  Te207  1  0.99313299  0.74777979  0.37779435  1
  Te2-  Te208  1  0.25008902  0.00526011  0.37606683  1
  Te2-  Te209  1  0.25057570  0.50553298  0.38026880  1
  Te2-  Te210  1  0.75252823  0.00605027  0.38336630  1
  Te2-  Te211  1  0.74850601  0.50298754  0.37825183  1
  Te2-  Te212  1  0.24929935  0.24754621  0.37839306  1
  Te2-  Te213  1  0.25054849  0.74755432  0.37824570  1
  Te2-  Te214  1  0.75362943  0.24792120  0.38084785  1
  Te2-  Te215  1  0.75033223  0.74614049  0.38026775  1
