# generated using pymatgen
data_Ti(CuTe)4
_symmetry_space_group_name_H-M   'P 1'
_cell_length_a   16.88966257
_cell_length_b   16.89365492
_cell_length_c   20.71430377
_cell_angle_alpha   90.07832537
_cell_angle_beta   89.98175984
_cell_angle_gamma   119.97927050
_symmetry_Int_Tables_number   1
_chemical_formula_structural   Ti(CuTe)4
_chemical_formula_sum   'Ti24 Cu96 Te96'
_cell_volume   5119.59727634
_cell_formula_units_Z   24
loop_
 _symmetry_equiv_pos_site_id
 _symmetry_equiv_pos_as_xyz
  1  'x, y, z'
loop_
 _atom_type_symbol
 _atom_type_oxidation_number
  Ti4+  4.0
  Cu+  1.0
  Te2-  -2.0
loop_
 _atom_site_type_symbol
 _atom_site_label
 _atom_site_symmetry_multiplicity
 _atom_site_fract_x
 _atom_site_fract_y
 _atom_site_fract_z
 _atom_site_occupancy
  Ti4+  Ti0  1  0.00083441  0.00024665  0.26237060  1
  Ti4+  Ti1  1  -0.00068553  0.49581881  0.25585207  1
  Ti4+  Ti2  1  0.49817539  -0.00130882  0.25927457  1
  Ti4+  Ti3  1  0.50117030  0.49965210  0.25454034  1
  Ti4+  Ti4  1  0.33616687  0.16889862  0.58848700  1
  Ti4+  Ti5  1  0.33035750  0.66606582  0.58899549  1
  Ti4+  Ti6  1  0.83355339  0.16553962  0.59201241  1
  Ti4+  Ti7  1  0.83332381  0.66606745  0.58675843  1
  Ti4+  Ti8  1  0.16481158  0.33291235  0.92665188  1
  Ti4+  Ti9  1  0.16600978  0.83587935  0.92687469  1
  Ti4+  Ti10  1  0.66690168  0.33283462  0.92419697  1
  Ti4+  Ti11  1  0.66659835  0.83417947  0.92504033  1
  Ti4+  Ti12  1  0.00112025  0.00065872  0.75668820  1
  Ti4+  Ti13  1  -0.00150824  0.49908799  0.75678012  1
  Ti4+  Ti14  1  0.49925263  0.00114325  0.75563065  1
  Ti4+  Ti15  1  0.50076866  0.50218598  0.75578305  1
  Ti4+  Ti16  1  0.33270603  0.16655645  0.09017942  1
  Ti4+  Ti17  1  0.33349935  0.66804579  0.08705795  1
  Ti4+  Ti18  1  0.83405382  0.16856269  0.09054672  1
  Ti4+  Ti19  1  0.83241158  0.66599406  0.08923218  1
  Ti4+  Ti20  1  0.16752440  0.33385450  0.42164549  1
  Ti4+  Ti21  1  0.16635494  0.82992348  0.41841553  1
  Ti4+  Ti22  1  0.66587458  0.33402134  0.42079794  1
  Ti4+  Ti23  1  0.66766230  0.83436224  0.41938144  1
  Cu+  Cu24  1  0.57977822  0.15125044  0.47527270  1
  Cu+  Cu25  1  0.84465389  0.92265948  0.48044697  1
  Cu+  Cu26  1  0.01813799  0.25320866  0.14367843  1
  Cu+  Cu27  1  0.07913660  0.15753084  0.48302864  1
  Cu+  Cu28  1  0.57131576  0.42938332  0.47051050  1
  Cu+  Cu29  1  0.08251388  0.91826880  0.48325398  1
  Cu+  Cu30  1  0.73941993  0.47486907  0.13864683  1
  Cu+  Cu31  1  0.07170967  0.64094605  0.47000030  1
  Cu+  Cu32  1  0.23803132  0.97781965  0.14485737  1
  Cu+  Cu33  1  0.34389526  0.91844662  0.47796522  1
  Cu+  Cu34  1  0.90441906  0.30891130  0.80999346  1
  Cu+  Cu35  1  0.24566110  0.48357476  0.14034138  1
  Cu+  Cu36  1  0.16379988  0.07890931  0.17438571  1
  Cu+  Cu37  1  0.16550003  0.57847807  0.16863851  1
  Cu+  Cu38  1  0.66391257  0.08409885  0.17358222  1
  Cu+  Cu39  1  0.66480984  0.57630676  0.16907067  1
  Cu+  Cu40  1  0.42104829  0.33835880  0.16882568  1
  Cu+  Cu41  1  0.41818943  0.83828670  0.17021352  1
  Cu+  Cu42  1  0.92382151  0.33623879  0.16907365  1
  Cu+  Cu43  1  0.91672278  0.83651239  0.17422697  1
  Cu+  Cu44  1  0.41365629  0.07787484  0.17337271  1
  Cu+  Cu45  1  0.41743816  0.58056714  0.16844932  1
  Cu+  Cu46  1  0.92018842  0.08391095  0.17550440  1
  Cu+  Cu47  1  0.91277656  0.57658460  0.17094818  1
  Cu+  Cu48  1  0.49931075  0.25136965  0.50088387  1
  Cu+  Cu49  1  0.49684830  0.74894503  0.50137005  1
  Cu+  Cu50  1  0.99708115  0.24868584  0.50507984  1
  Cu+  Cu51  1  0.99561230  0.74199201  0.49835984  1
  Cu+  Cu52  1  0.25759092  0.00798591  0.49915723  1
  Cu+  Cu53  1  0.25033406  0.50462460  0.50302236  1
  Cu+  Cu54  1  0.75374632  0.00519097  0.50204922  1
  Cu+  Cu55  1  0.74779467  0.50406946  0.50004682  1
  Cu+  Cu56  1  0.25332478  0.24889912  0.50197786  1
  Cu+  Cu57  1  0.24930819  0.74185440  0.49955244  1
  Cu+  Cu58  1  0.75087200  0.24762164  0.50586189  1
  Cu+  Cu59  1  0.75357018  0.74895437  0.49924946  1
  Cu+  Cu60  1  0.33184240  0.41784656  0.84031947  1
  Cu+  Cu61  1  0.33007346  0.91980105  0.83994832  1
  Cu+  Cu62  1  0.83043570  0.41138747  0.83832155  1
  Cu+  Cu63  1  0.83028823  0.91553387  0.83950778  1
  Cu+  Cu64  1  0.08377740  0.17007920  0.83965354  1
  Cu+  Cu65  1  0.08340324  0.67192453  0.84035961  1
  Cu+  Cu66  1  0.58454756  0.17074678  0.83723664  1
  Cu+  Cu67  1  0.58576571  0.67199990  0.83812806  1
  Cu+  Cu68  1  0.07850843  0.41074032  0.84017930  1
  Cu+  Cu69  1  0.08701118  0.91813493  0.84060756  1
  Cu+  Cu70  1  0.58590494  0.41801770  0.83922137  1
  Cu+  Cu71  1  0.58512388  0.91704439  0.83885207  1
  Cu+  Cu72  1  0.16929500  0.08475254  0.67715147  1
  Cu+  Cu73  1  0.16616574  0.58471153  0.67497857  1
  Cu+  Cu74  1  0.66762193  0.08393505  0.67620598  1
  Cu+  Cu75  1  0.66834565  0.58623445  0.67280282  1
  Cu+  Cu76  1  0.41707161  0.33389881  0.67449048  1
  Cu+  Cu77  1  0.41217470  0.83088366  0.67423018  1
  Cu+  Cu78  1  0.91411637  0.32854208  0.68004161  1
  Cu+  Cu79  1  0.91841465  0.83264297  0.67477259  1
  Cu+  Cu80  1  0.41665730  0.08473973  0.67473668  1
  Cu+  Cu81  1  0.41477796  0.58607460  0.67428704  1
  Cu+  Cu82  1  0.91758045  0.08377257  0.67847621  1
  Cu+  Cu83  1  0.91609713  0.58429094  0.67260874  1
  Cu+  Cu84  1  0.00115388  0.25168776  0.01484045  1
  Cu+  Cu85  1  0.00209280  0.75490942  0.00988327  1
  Cu+  Cu86  1  0.50142857  0.25117062  0.00776579  1
  Cu+  Cu87  1  0.50351728  0.75452565  0.00724206  1
  Cu+  Cu88  1  0.24684400  0.49800621  0.01154131  1
  Cu+  Cu89  1  0.24751556  0.99767775  0.01524790  1
  Cu+  Cu90  1  0.74838956  0.49580074  0.01034179  1
  Cu+  Cu91  1  0.74782541  0.99699246  0.00912685  1
  Cu+  Cu92  1  0.24881489  0.25124820  0.01019583  1
  Cu+  Cu93  1  0.25056913  0.75622792  0.00829325  1
  Cu+  Cu94  1  0.74959997  0.25098210  0.00905523  1
  Cu+  Cu95  1  0.74852599  0.75329336  0.00845760  1
  Cu+  Cu96  1  0.33671949  0.42023177  0.33989201  1
  Cu+  Cu97  1  0.33527866  0.91566598  0.34681721  1
  Cu+  Cu98  1  0.83448905  0.41554603  0.33956379  1
  Cu+  Cu99  1  0.83719056  0.92074801  0.34836804  1
  Cu+  Cu100  1  0.08265562  0.16433966  0.35019330  1
  Cu+  Cu101  1  0.08070405  0.65878126  0.34113996  1
  Cu+  Cu102  1  0.57948989  0.16194427  0.34606376  1
  Cu+  Cu103  1  0.58313781  0.66536139  0.33601929  1
  Cu+  Cu104  1  0.08440255  0.41689801  0.34247316  1
  Cu+  Cu105  1  0.08172445  0.91632595  0.34983237  1
  Cu+  Cu106  1  0.58364829  0.42058377  0.34273508  1
  Cu+  Cu107  1  0.58241589  0.91804028  0.34138884  1
  Cu+  Cu108  1  -0.00196227  -0.00117667  0.11901909  1
  Cu+  Cu109  1  0.00262821  0.50563860  0.11282264  1
  Cu+  Cu110  1  0.50370509  0.00359923  0.11595801  1
  Cu+  Cu111  1  0.50232067  0.50386781  0.11050353  1
  Cu+  Cu112  1  0.33523864  0.16984963  0.44329072  1
  Cu+  Cu113  1  0.33874619  0.66478884  0.44368616  1
  Cu+  Cu114  1  0.83392138  0.17056901  0.44849765  1
  Cu+  Cu115  1  0.83132974  0.66535502  0.44084889  1
  Cu+  Cu116  1  0.16997231  0.33562008  0.78451694  1
  Cu+  Cu117  1  0.16652354  0.83315693  0.78423522  1
  Cu+  Cu118  1  0.66576571  0.33637312  0.78143048  1
  Cu+  Cu119  1  0.66722027  0.83587659  0.78223968  1
  Te2-  Te120  1  0.00104066  -0.00012207  0.39570304  1
  Te2-  Te121  1  -0.00288263  0.49356948  0.38644642  1
  Te2-  Te122  1  0.50023271  -0.00286269  0.39194643  1
  Te2-  Te123  1  0.50031138  0.50394935  0.38525339  1
  Te2-  Te124  1  0.33551484  0.16884027  0.71679331  1
  Te2-  Te125  1  0.33080260  0.66660326  0.71790529  1
  Te2-  Te126  1  0.83136571  0.16230361  0.72195007  1
  Te2-  Te127  1  0.83345587  0.66677093  0.71512004  1
  Te2-  Te128  1  0.16761226  0.33257120  0.05907281  1
  Te2-  Te129  1  0.16453696  0.83175575  0.05840636  1
  Te2-  Te130  1  0.66451807  0.32967582  0.05481202  1
  Te2-  Te131  1  0.66592748  0.83369680  0.05482389  1
  Te2-  Te132  1  0.49560792  0.24911545  0.88205474  1
  Te2-  Te133  1  0.49475562  0.74898387  0.88185619  1
  Te2-  Te134  1  0.99094941  0.24297104  0.88766303  1
  Te2-  Te135  1  0.99428879  0.75052082  0.88436250  1
  Te2-  Te136  1  0.25284784  0.00837040  0.88816237  1
  Te2-  Te137  1  0.24760806  0.50266934  0.88427830  1
  Te2-  Te138  1  0.75305427  0.00637388  0.88337581  1
  Te2-  Te139  1  0.75426150  0.50365748  0.88328212  1
  Te2-  Te140  1  0.25154594  0.24893849  0.88420826  1
  Te2-  Te141  1  0.25221862  0.75124096  0.88268910  1
  Te2-  Te142  1  0.75089856  0.24250827  0.88359163  1
  Te2-  Te143  1  0.75287831  0.74802948  0.88300067  1
  Te2-  Te144  1  0.32720865  0.41068252  0.21468838  1
  Te2-  Te145  1  0.32442963  0.90922899  0.21950230  1
  Te2-  Te146  1  0.82634751  0.40642200  0.21433266  1
  Te2-  Te147  1  0.83096386  0.91742592  0.22089082  1
  Te2-  Te148  1  0.09031010  0.17287403  0.22183806  1
  Te2-  Te149  1  0.08310355  0.66484389  0.21378801  1
  Te2-  Te150  1  0.58190989  0.16966751  0.21887727  1
  Te2-  Te151  1  0.58649440  0.66892523  0.21024487  1
  Te2-  Te152  1  0.09093514  0.41027096  0.21686159  1
  Te2-  Te153  1  0.08386224  0.91028790  0.22108091  1
  Te2-  Te154  1  0.58592878  0.40924411  0.21652515  1
  Te2-  Te155  1  0.58520178  0.91520247  0.21578067  1
  Te2-  Te156  1  0.15977963  0.07858690  0.55059379  1
  Te2-  Te157  1  0.15530165  0.57579872  0.54913732  1
  Te2-  Te158  1  0.66075453  0.07696585  0.55028719  1
  Te2-  Te159  1  0.65973650  0.58412615  0.54667996  1
  Te2-  Te160  1  0.41939451  0.34114388  0.54800549  1
  Te2-  Te161  1  0.41991187  0.83927063  0.54813394  1
  Te2-  Te162  1  0.91795202  0.33582161  0.55197874  1
  Te2-  Te163  1  0.92375481  0.84234491  0.54852033  1
  Te2-  Te164  1  0.42372978  0.08083885  0.54859187  1
  Te2-  Te165  1  0.41787215  0.58190400  0.54788867  1
  Te2-  Te166  1  0.92253142  0.07795515  0.55219812  1
  Te2-  Te167  1  0.91600183  0.57578933  0.54641149  1
  Te2-  Te168  1  -0.00021737  0.00075791  0.88291327  1
  Te2-  Te169  1  -0.00047340  0.50219648  0.88351436  1
  Te2-  Te170  1  0.50004056  0.00188256  0.88179854  1
  Te2-  Te171  1  0.50144148  0.50292024  0.88199999  1
  Te2-  Te172  1  0.33480928  0.16924461  0.21687456  1
  Te2-  Te173  1  0.33478540  0.66783132  0.21395151  1
  Te2-  Te174  1  0.83297098  0.16787303  0.21756508  1
  Te2-  Te175  1  0.83298758  0.66602219  0.21595881  1
  Te2-  Te176  1  0.16874230  0.33481676  0.54869398  1
  Te2-  Te177  1  0.16871977  0.83426696  0.54703088  1
  Te2-  Te178  1  0.66841852  0.33587463  0.54816995  1
  Te2-  Te179  1  0.66698621  0.83322645  0.54649458  1
  Te2-  Te180  1  0.32913666  0.41605476  0.71272814  1
  Te2-  Te181  1  0.32691472  0.91526892  0.71261670  1
  Te2-  Te182  1  0.82672994  0.41455051  0.71070720  1
  Te2-  Te183  1  0.82893166  0.91317997  0.71263130  1
  Te2-  Te184  1  0.08773708  0.17351928  0.71341390  1
  Te2-  Te185  1  0.08394479  0.67132322  0.71330558  1
  Te2-  Te186  1  0.58657753  0.17328939  0.71111063  1
  Te2-  Te187  1  0.58545735  0.67316978  0.71121641  1
  Te2-  Te188  1  0.08669123  0.41444023  0.71269176  1
  Te2-  Te189  1  0.08769869  0.91471566  0.71342860  1
  Te2-  Te190  1  0.58690189  0.41691490  0.71161524  1
  Te2-  Te191  1  0.58331187  0.91331397  0.71181614  1
  Te2-  Te192  1  0.15874279  0.08173613  0.04738366  1
  Te2-  Te193  1  0.16086573  0.58470536  0.04178219  1
  Te2-  Te194  1  0.66238780  0.08153993  0.04657368  1
  Te2-  Te195  1  0.66170655  0.58203515  0.04197062  1
  Te2-  Te196  1  0.41926623  0.33856499  0.04375536  1
  Te2-  Te197  1  0.42018700  0.84096090  0.04455766  1
  Te2-  Te198  1  0.91875483  0.34157344  0.04362546  1
  Te2-  Te199  1  0.91743326  0.83917868  0.04789088  1
  Te2-  Te200  1  0.42074311  0.08184584  0.04594196  1
  Te2-  Te201  1  0.42047055  0.58299733  0.04109777  1
  Te2-  Te202  1  0.91789800  0.07916690  0.04756738  1
  Te2-  Te203  1  0.92081566  0.58309397  0.04325272  1
  Te2-  Te204  1  0.49280760  0.24813128  0.37381725  1
  Te2-  Te205  1  0.49590813  0.74737536  0.37458380  1
  Te2-  Te206  1  0.99328890  0.24784218  0.37813759  1
  Te2-  Te207  1  0.99185811  0.74257668  0.37189053  1
  Te2-  Te208  1  0.25446710  0.00742719  0.37331078  1
  Te2-  Te209  1  0.25361832  0.50575088  0.37679699  1
  Te2-  Te210  1  0.75231442  0.00891686  0.37603365  1
  Te2-  Te211  1  0.75541660  0.50598975  0.37353399  1
  Te2-  Te212  1  0.25655333  0.25031516  0.37525769  1
  Te2-  Te213  1  0.25299702  0.74216271  0.37288193  1
  Te2-  Te214  1  0.75240136  0.24669347  0.37774255  1
  Te2-  Te215  1  0.75237449  0.74649924  0.37271494  1
