# generated using pymatgen
data_Ti(CuTe)4
_symmetry_space_group_name_H-M   'P 1'
_cell_length_a   16.88423639
_cell_length_b   16.88857699
_cell_length_c   20.70630870
_cell_angle_alpha   90.01815251
_cell_angle_beta   90.01490943
_cell_angle_gamma   119.99871981
_symmetry_Int_Tables_number   1
_chemical_formula_structural   Ti(CuTe)4
_chemical_formula_sum   'Ti24 Cu96 Te96'
_cell_volume   5113.44192381
_cell_formula_units_Z   24
loop_
 _symmetry_equiv_pos_site_id
 _symmetry_equiv_pos_as_xyz
  1  'x, y, z'
loop_
 _atom_type_symbol
 _atom_type_oxidation_number
  Ti4+  4.0
  Cu+  1.0
  Te2-  -2.0
loop_
 _atom_site_type_symbol
 _atom_site_label
 _atom_site_symmetry_multiplicity
 _atom_site_fract_x
 _atom_site_fract_y
 _atom_site_fract_z
 _atom_site_occupancy
  Ti4+  Ti0  1  0.00008732  0.00224135  0.25705022  1
  Ti4+  Ti1  1  0.00020375  0.50218213  0.25603733  1
  Ti4+  Ti2  1  0.50313234  0.00295644  0.26017671  1
  Ti4+  Ti3  1  0.49826048  0.49858986  0.25917693  1
  Ti4+  Ti4  1  0.33176335  0.16458278  0.59333063  1
  Ti4+  Ti5  1  0.33749398  0.66581571  0.58818132  1
  Ti4+  Ti6  1  0.83343851  0.16605147  0.58978055  1
  Ti4+  Ti7  1  0.83517468  0.66454268  0.58806570  1
  Ti4+  Ti8  1  0.16401216  0.33273973  0.92487770  1
  Ti4+  Ti9  1  0.16600994  0.83172024  0.92293482  1
  Ti4+  Ti10  1  0.66161938  0.33138648  0.92594646  1
  Ti4+  Ti11  1  0.66763974  0.83623418  0.92554441  1
  Ti4+  Ti12  1  -0.00121436  0.00031785  0.75571657  1
  Ti4+  Ti13  1  0.00136034  0.49989815  0.75414326  1
  Ti4+  Ti14  1  0.50038679  -0.00022617  0.75579255  1
  Ti4+  Ti15  1  0.50077552  0.49849710  0.75686809  1
  Ti4+  Ti16  1  0.33327111  0.16896568  0.09119617  1
  Ti4+  Ti17  1  0.33293198  0.66705178  0.08936140  1
  Ti4+  Ti18  1  0.83155108  0.16565196  0.08993746  1
  Ti4+  Ti19  1  0.83359609  0.66724623  0.08775012  1
  Ti4+  Ti20  1  0.16575585  0.33174018  0.42222636  1
  Ti4+  Ti21  1  0.16846856  0.83507757  0.42004142  1
  Ti4+  Ti22  1  0.66904890  0.33575903  0.42202508  1
  Ti4+  Ti23  1  0.66591497  0.83253447  0.42008505  1
  Cu+  Cu24  1  0.57435605  0.15339804  0.47910621  1
  Cu+  Cu25  1  0.85892328  0.42781831  0.47102727  1
  Cu+  Cu26  1  0.40173910  0.31329375  0.81168844  1
  Cu+  Cu27  1  0.07165078  0.14162471  0.47433587  1
  Cu+  Cu28  1  0.57618432  0.92097169  0.47929286  1
  Cu+  Cu29  1  0.73802895  0.97781944  0.14413955  1
  Cu+  Cu30  1  0.40521445  0.08733034  0.81300839  1
  Cu+  Cu31  1  0.34903597  0.41788311  0.47624160  1
  Cu+  Cu32  1  0.57996330  0.64959433  0.47532006  1
  Cu+  Cu33  1  0.23828272  0.26421040  0.14092430  1
  Cu+  Cu34  1  0.52146215  0.26170383  0.14517925  1
  Cu+  Cu35  1  0.90333874  0.09654309  0.80829704  1
  Cu+  Cu36  1  0.16472957  0.09063268  0.17199534  1
  Cu+  Cu37  1  0.16340146  0.58299262  0.17063337  1
  Cu+  Cu38  1  0.66323920  0.07927165  0.17309173  1
  Cu+  Cu39  1  0.66543365  0.58428572  0.17150746  1
  Cu+  Cu40  1  0.41639074  0.33674875  0.17183986  1
  Cu+  Cu41  1  0.41923598  0.83597282  0.17248912  1
  Cu+  Cu42  1  0.91656203  0.33826185  0.17189297  1
  Cu+  Cu43  1  0.92113426  0.83712249  0.16946858  1
  Cu+  Cu44  1  0.42454056  0.08903378  0.17351001  1
  Cu+  Cu45  1  0.41561001  0.58064522  0.17269029  1
  Cu+  Cu46  1  0.91540104  0.07992246  0.17141344  1
  Cu+  Cu47  1  0.91692106  0.58141335  0.16969454  1
  Cu+  Cu48  1  0.49533945  0.24674230  0.50615129  1
  Cu+  Cu49  1  0.49584842  0.74426482  0.50036787  1
  Cu+  Cu50  1  0.99670884  0.24227298  0.50270584  1
  Cu+  Cu51  1  0.99902452  0.74890989  0.50130747  1
  Cu+  Cu52  1  0.25274948  0.00228843  0.50413210  1
  Cu+  Cu53  1  0.25780917  0.50183050  0.50142130  1
  Cu+  Cu54  1  0.75144877  0.00446333  0.50210452  1
  Cu+  Cu55  1  0.75896601  0.50457356  0.50108078  1
  Cu+  Cu56  1  0.24878086  0.24533311  0.50561108  1
  Cu+  Cu57  1  0.25305291  0.74874792  0.50100348  1
  Cu+  Cu58  1  0.75301467  0.25076043  0.50237528  1
  Cu+  Cu59  1  0.75070339  0.74421234  0.50227159  1
  Cu+  Cu60  1  0.32980440  0.41211805  0.83985066  1
  Cu+  Cu61  1  0.32776640  0.91465606  0.83732131  1
  Cu+  Cu62  1  0.83104263  0.41553976  0.83881064  1
  Cu+  Cu63  1  0.83068067  0.92246475  0.83802804  1
  Cu+  Cu64  1  0.07947983  0.16968887  0.83763177  1
  Cu+  Cu65  1  0.08634104  0.66899273  0.83579863  1
  Cu+  Cu66  1  0.57895980  0.16930868  0.83833158  1
  Cu+  Cu67  1  0.58587256  0.67015557  0.83964873  1
  Cu+  Cu68  1  0.08521065  0.41647438  0.83682417  1
  Cu+  Cu69  1  0.08334164  0.91300393  0.83708259  1
  Cu+  Cu70  1  0.57744234  0.40872157  0.83812459  1
  Cu+  Cu71  1  0.58737236  0.91618023  0.83867734  1
  Cu+  Cu72  1  0.16565196  0.08253298  0.67626151  1
  Cu+  Cu73  1  0.17260022  0.58426071  0.67161198  1
  Cu+  Cu74  1  0.66760064  0.08289317  0.67610079  1
  Cu+  Cu75  1  0.67108494  0.58332665  0.67394664  1
  Cu+  Cu76  1  0.41533641  0.32855638  0.68208911  1
  Cu+  Cu77  1  0.41911779  0.83029751  0.67394887  1
  Cu+  Cu78  1  0.91757343  0.33243977  0.67415005  1
  Cu+  Cu79  1  0.91403525  0.82847206  0.67226576  1
  Cu+  Cu80  1  0.41625391  0.08386129  0.68239409  1
  Cu+  Cu81  1  0.41992415  0.58432178  0.67489717  1
  Cu+  Cu82  1  0.91478097  0.08392063  0.67928202  1
  Cu+  Cu83  1  0.91788925  0.58326294  0.67277864  1
  Cu+  Cu84  1  -0.00103899  0.25069928  0.00946706  1
  Cu+  Cu85  1  0.00224688  0.74925660  0.00594507  1
  Cu+  Cu86  1  0.49979466  0.25132352  0.01569292  1
  Cu+  Cu87  1  0.50268722  0.75223841  0.00926365  1
  Cu+  Cu88  1  0.24945481  0.49850419  0.00820463  1
  Cu+  Cu89  1  0.24761638  0.99548058  0.00901436  1
  Cu+  Cu90  1  0.74555247  0.49743491  0.00797694  1
  Cu+  Cu91  1  0.74832614  0.99787751  0.01454930  1
  Cu+  Cu92  1  0.24609822  0.25184544  0.01284040  1
  Cu+  Cu93  1  0.24948545  0.75194338  0.00672674  1
  Cu+  Cu94  1  0.74478216  0.24968775  0.00933276  1
  Cu+  Cu95  1  0.75080316  0.75415866  0.00789273  1
  Cu+  Cu96  1  0.33448911  0.41597242  0.34686393  1
  Cu+  Cu97  1  0.33786697  0.92112831  0.34163512  1
  Cu+  Cu98  1  0.83927239  0.42305780  0.34350013  1
  Cu+  Cu99  1  0.83545938  0.91803815  0.34056775  1
  Cu+  Cu100  1  0.08004627  0.16373813  0.34546723  1
  Cu+  Cu101  1  0.08338256  0.66795647  0.33815834  1
  Cu+  Cu102  1  0.58420321  0.16683453  0.34816794  1
  Cu+  Cu103  1  0.57988744  0.66260163  0.34607630  1
  Cu+  Cu104  1  0.08035040  0.41899470  0.33927817  1
  Cu+  Cu105  1  0.08571358  0.92216200  0.34014382  1
  Cu+  Cu106  1  0.58254017  0.41756843  0.34208235  1
  Cu+  Cu107  1  0.58401814  0.92041120  0.34872385  1
  Cu+  Cu108  1  0.00170883  -0.00093592  0.11369347  1
  Cu+  Cu109  1  0.00016887  0.50061473  0.11308601  1
  Cu+  Cu110  1  0.49522991  -0.00244253  0.11693344  1
  Cu+  Cu111  1  0.50279841  0.50555455  0.11622777  1
  Cu+  Cu112  1  0.33368562  0.16603249  0.44929341  1
  Cu+  Cu113  1  0.32733949  0.66358022  0.44356115  1
  Cu+  Cu114  1  0.83496129  0.16801820  0.44525295  1
  Cu+  Cu115  1  0.83811497  0.67116522  0.44350384  1
  Cu+  Cu116  1  0.16820028  0.33614368  0.78166583  1
  Cu+  Cu117  1  0.16402628  0.83046956  0.77873452  1
  Cu+  Cu118  1  0.67072542  0.33553668  0.78306499  1
  Cu+  Cu119  1  0.66644335  0.82975767  0.78252005  1
  Te2-  Te120  1  -0.00168552  -0.00278858  0.38792626  1
  Te2-  Te121  1  0.00543963  0.50586718  0.38746861  1
  Te2-  Te122  1  0.49925491  0.00132323  0.39244228  1
  Te2-  Te123  1  0.50036754  0.49686015  0.39172143  1
  Te2-  Te124  1  0.32832791  0.16255559  0.72522200  1
  Te2-  Te125  1  0.33619072  0.66563404  0.71691025  1
  Te2-  Te126  1  0.83208248  0.16865497  0.71979831  1
  Te2-  Te127  1  0.83550650  0.66500931  0.71707105  1
  Te2-  Te128  1  0.16307363  0.33547980  0.05546583  1
  Te2-  Te129  1  0.16543781  0.83125927  0.05217981  1
  Te2-  Te130  1  0.66680824  0.33485393  0.05627350  1
  Te2-  Te131  1  0.66574367  0.83148857  0.05635905  1
  Te2-  Te132  1  0.48382556  0.24206645  0.88787566  1
  Te2-  Te133  1  0.49623534  0.74892711  0.88330699  1
  Te2-  Te134  1  0.99058091  0.24970969  0.88342576  1
  Te2-  Te135  1  0.99467194  0.74528659  0.88017240  1
  Te2-  Te136  1  0.24967557  0.00701465  0.88348697  1
  Te2-  Te137  1  0.25260706  0.50291178  0.88217899  1
  Te2-  Te138  1  0.75211383  0.01130436  0.88705662  1
  Te2-  Te139  1  0.74627221  0.50052687  0.88167542  1
  Te2-  Te140  1  0.24658992  0.24177661  0.88571087  1
  Te2-  Te141  1  0.25390722  0.74800530  0.88093116  1
  Te2-  Te142  1  0.74673172  0.24635484  0.88302866  1
  Te2-  Te143  1  0.75496662  0.75331983  0.88186355  1
  Te2-  Te144  1  0.32481587  0.41393141  0.21952477  1
  Te2-  Te145  1  0.33407167  0.92000564  0.21551938  1
  Te2-  Te146  1  0.82714146  0.41557286  0.21747989  1
  Te2-  Te147  1  0.82668910  0.91019563  0.21528558  1
  Te2-  Te148  1  0.08265906  0.17649561  0.21856904  1
  Te2-  Te149  1  0.08513481  0.67314780  0.21290495  1
  Te2-  Te150  1  0.59321548  0.17644185  0.22053958  1
  Te2-  Te151  1  0.58306088  0.66869722  0.21869988  1
  Te2-  Te152  1  0.08485907  0.41486965  0.21413121  1
  Te2-  Te153  1  0.08910917  0.92132076  0.21412283  1
  Te2-  Te154  1  0.58779855  0.41600569  0.21632764  1
  Te2-  Te155  1  0.58558014  0.91165575  0.22075797  1
  Te2-  Te156  1  0.15936385  0.07614213  0.55021594  1
  Te2-  Te157  1  0.16767929  0.58012304  0.54512844  1
  Te2-  Te158  1  0.65735207  0.07949370  0.55010080  1
  Te2-  Te159  1  0.66095475  0.57373045  0.54821356  1
  Te2-  Te160  1  0.41977582  0.33715652  0.55390892  1
  Te2-  Te161  1  0.42008285  0.83877867  0.54811058  1
  Te2-  Te162  1  0.92297315  0.33762318  0.54777870  1
  Te2-  Te163  1  0.91777343  0.83587001  0.54614593  1
  Te2-  Te164  1  0.41802752  0.07768376  0.55404417  1
  Te2-  Te165  1  0.42594208  0.57653069  0.54926519  1
  Te2-  Te166  1  0.91635290  0.07513524  0.55161470  1
  Te2-  Te167  1  0.92651483  0.58147227  0.54712014  1
  Te2-  Te168  1  0.00028249  -0.00022567  0.88240423  1
  Te2-  Te169  1  0.00058269  0.50073043  0.88037311  1
  Te2-  Te170  1  0.49854480  -0.00158319  0.88253506  1
  Te2-  Te171  1  0.50022166  0.50103525  0.88372061  1
  Te2-  Te172  1  0.33364735  0.16758626  0.21853159  1
  Te2-  Te173  1  0.33230019  0.66688976  0.21560518  1
  Te2-  Te174  1  0.83388919  0.16855994  0.21658558  1
  Te2-  Te175  1  0.83509834  0.66850335  0.21398863  1
  Te2-  Te176  1  0.16551518  0.33324730  0.54967852  1
  Te2-  Te177  1  0.16787388  0.83202448  0.54612881  1
  Te2-  Te178  1  0.66686882  0.33471941  0.54942046  1
  Te2-  Te179  1  0.66759902  0.83267560  0.54757406  1
  Te2-  Te180  1  0.32813435  0.41432141  0.71180468  1
  Te2-  Te181  1  0.32793164  0.91008214  0.71002372  1
  Te2-  Te182  1  0.82935381  0.41400953  0.71113344  1
  Te2-  Te183  1  0.82670531  0.91108106  0.71050513  1
  Te2-  Te184  1  0.08731783  0.17395825  0.71088587  1
  Te2-  Te185  1  0.08840049  0.67054056  0.70878057  1
  Te2-  Te186  1  0.58875379  0.17394175  0.71153060  1
  Te2-  Te187  1  0.58873653  0.67013888  0.71248168  1
  Te2-  Te188  1  0.08784435  0.41472715  0.71003968  1
  Te2-  Te189  1  0.08323559  0.91244107  0.71091182  1
  Te2-  Te190  1  0.58838605  0.41350987  0.71140827  1
  Te2-  Te191  1  0.58766520  0.91379118  0.71264570  1
  Te2-  Te192  1  0.16124865  0.07967630  0.04495009  1
  Te2-  Te193  1  0.16216763  0.58182026  0.04390628  1
  Te2-  Te194  1  0.65779335  0.08031200  0.04639056  1
  Te2-  Te195  1  0.66140887  0.58337162  0.04453401  1
  Te2-  Te196  1  0.41833342  0.34260898  0.04465292  1
  Te2-  Te197  1  0.41883715  0.83859177  0.04564059  1
  Te2-  Te198  1  0.91541194  0.33746613  0.04536226  1
  Te2-  Te199  1  0.92118473  0.83854207  0.04301614  1
  Te2-  Te200  1  0.41683007  0.07914849  0.04637138  1
  Te2-  Te201  1  0.41921134  0.58150740  0.04576183  1
  Te2-  Te202  1  0.92097416  0.08160925  0.04497508  1
  Te2-  Te203  1  0.91680293  0.57920721  0.04305154  1
  Te2-  Te204  1  0.49390336  0.24888404  0.37891623  1
  Te2-  Te205  1  0.49097052  0.74644589  0.37400574  1
  Te2-  Te206  1  0.99342161  0.24956120  0.37603214  1
  Te2-  Te207  1  0.99745537  0.75129145  0.37471875  1
  Te2-  Te208  1  0.25502656  0.00790793  0.37772498  1
  Te2-  Te209  1  0.25001197  0.50426358  0.37497283  1
  Te2-  Te210  1  0.75650403  0.00769204  0.37611054  1
  Te2-  Te211  1  0.75285140  0.50868516  0.37519203  1
  Te2-  Te212  1  0.25257387  0.24418448  0.37752713  1
  Te2-  Te213  1  0.25379302  0.74955983  0.37429365  1
  Te2-  Te214  1  0.75731512  0.25062254  0.37548159  1
  Te2-  Te215  1  0.75361473  0.74724359  0.37480143  1
