# generated using pymatgen
data_Ti(CuTe)4
_symmetry_space_group_name_H-M   'P 1'
_cell_length_a   16.88800538
_cell_length_b   16.88697599
_cell_length_c   20.70207619
_cell_angle_alpha   89.95601884
_cell_angle_beta   90.03998508
_cell_angle_gamma   120.00658774
_symmetry_Int_Tables_number   1
_chemical_formula_structural   Ti(CuTe)4
_chemical_formula_sum   'Ti24 Cu96 Te96'
_cell_volume   5112.64677777
_cell_formula_units_Z   24
loop_
 _symmetry_equiv_pos_site_id
 _symmetry_equiv_pos_as_xyz
  1  'x, y, z'
loop_
 _atom_type_symbol
 _atom_type_oxidation_number
  Ti4+  4.0
  Cu+  1.0
  Te2-  -2.0
loop_
 _atom_site_type_symbol
 _atom_site_label
 _atom_site_symmetry_multiplicity
 _atom_site_fract_x
 _atom_site_fract_y
 _atom_site_fract_z
 _atom_site_occupancy
  Ti4+  Ti0  1  -0.00223475  0.00023214  0.25505453  1
  Ti4+  Ti1  1  -0.00008493  0.49979708  0.25920041  1
  Ti4+  Ti2  1  0.50047101  -0.00072567  0.25616630  1
  Ti4+  Ti3  1  0.50065563  0.49779112  0.25728891  1
  Ti4+  Ti4  1  0.33373617  0.16741824  0.58807368  1
  Ti4+  Ti5  1  0.33306798  0.66578849  0.59006715  1
  Ti4+  Ti6  1  0.83307792  0.16547426  0.59467987  1
  Ti4+  Ti7  1  0.83027408  0.66444463  0.59694953  1
  Ti4+  Ti8  1  0.16888641  0.33730138  0.92275594  1
  Ti4+  Ti9  1  0.16690940  0.83436836  0.92032999  1
  Ti4+  Ti10  1  0.66789404  0.33435564  0.92684981  1
  Ti4+  Ti11  1  0.66724405  0.83592179  0.92483906  1
  Ti4+  Ti12  1  0.00062505  -0.00016212  0.75343105  1
  Ti4+  Ti13  1  -0.00056236  0.49958656  0.75285338  1
  Ti4+  Ti14  1  0.50119355  0.00012574  0.75448632  1
  Ti4+  Ti15  1  0.49822903  0.49961727  0.75722460  1
  Ti4+  Ti16  1  0.33361786  0.16839378  0.08658174  1
  Ti4+  Ti17  1  0.33440852  0.66787855  0.08784600  1
  Ti4+  Ti18  1  0.83333887  0.16555805  0.08803964  1
  Ti4+  Ti19  1  0.83414279  0.66644708  0.08809192  1
  Ti4+  Ti20  1  0.16682972  0.33205952  0.42142714  1
  Ti4+  Ti21  1  0.16642559  0.83253784  0.42100325  1
  Ti4+  Ti22  1  0.66515321  0.33256496  0.42448427  1
  Ti4+  Ti23  1  0.66701315  0.83245055  0.42551009  1
  Cu+  Cu24  1  0.51628614  0.25462389  0.14315212  1
  Cu+  Cu25  1  0.23759089  0.26174858  0.13815407  1
  Cu+  Cu26  1  0.40476286  0.59773719  0.80499181  1
  Cu+  Cu27  1  0.74715971  0.48575519  0.14809820  1
  Cu+  Cu28  1  0.73861734  0.98268907  0.14519926  1
  Cu+  Cu29  1  0.91206183  0.82612355  0.81600886  1
  Cu+  Cu30  1  0.67412469  0.58760795  0.81942350  1
  Cu+  Cu31  1  0.91452304  0.09565378  0.81061837  1
  Cu+  Cu32  1  0.57250053  0.43025427  0.47670503  1
  Cu+  Cu33  1  0.74032061  0.75292210  0.14647300  1
  Cu+  Cu34  1  0.91063719  0.58912221  0.81181472  1
  Cu+  Cu35  1  0.68542448  0.09780666  0.80996240  1
  Cu+  Cu36  1  0.16302295  0.08674197  0.16784155  1
  Cu+  Cu37  1  0.16513372  0.58326546  0.17222132  1
  Cu+  Cu38  1  0.66129127  0.07812190  0.16918579  1
  Cu+  Cu39  1  0.66223874  0.57761750  0.16953892  1
  Cu+  Cu40  1  0.41776419  0.33432287  0.16815053  1
  Cu+  Cu41  1  0.41860268  0.83594913  0.16920278  1
  Cu+  Cu42  1  0.91798975  0.33586901  0.17212149  1
  Cu+  Cu43  1  0.91490219  0.83718248  0.16831849  1
  Cu+  Cu44  1  0.42100511  0.08321059  0.16919337  1
  Cu+  Cu45  1  0.41931481  0.58279656  0.16950674  1
  Cu+  Cu46  1  0.91447682  0.07655061  0.16751560  1
  Cu+  Cu47  1  0.91912507  0.57751386  0.17150694  1
  Cu+  Cu48  1  0.49624583  0.25339989  0.50326761  1
  Cu+  Cu49  1  0.49670065  0.74618206  0.50636791  1
  Cu+  Cu50  1  0.99788126  0.24659530  0.50690771  1
  Cu+  Cu51  1  0.99837479  0.74846932  0.50793640  1
  Cu+  Cu52  1  0.25232724  0.00223237  0.50198861  1
  Cu+  Cu53  1  0.25307602  0.50169855  0.50431789  1
  Cu+  Cu54  1  0.75058274  0.00210227  0.50961326  1
  Cu+  Cu55  1  0.74537767  0.50126564  0.50894698  1
  Cu+  Cu56  1  0.25234904  0.24796338  0.50168060  1
  Cu+  Cu57  1  0.25185477  0.74802030  0.50317925  1
  Cu+  Cu58  1  0.74891489  0.24543702  0.50836240  1
  Cu+  Cu59  1  0.75003931  0.74650744  0.51001610  1
  Cu+  Cu60  1  0.33082555  0.42134264  0.83736838  1
  Cu+  Cu61  1  0.33002940  0.91573623  0.83483240  1
  Cu+  Cu62  1  0.82956284  0.41694215  0.83623069  1
  Cu+  Cu63  1  0.82925549  0.91831244  0.83583037  1
  Cu+  Cu64  1  0.08707696  0.17313894  0.83651959  1
  Cu+  Cu65  1  0.08468215  0.67109163  0.83260892  1
  Cu+  Cu66  1  0.58620386  0.16984165  0.83956724  1
  Cu+  Cu67  1  0.58112615  0.66981417  0.83782412  1
  Cu+  Cu68  1  0.08792663  0.41727987  0.83389617  1
  Cu+  Cu69  1  0.08607304  0.91275330  0.83318203  1
  Cu+  Cu70  1  0.58608626  0.41444088  0.84020818  1
  Cu+  Cu71  1  0.58982487  0.92141208  0.83580245  1
  Cu+  Cu72  1  0.17106418  0.08471958  0.67054594  1
  Cu+  Cu73  1  0.16832958  0.58282201  0.67177343  1
  Cu+  Cu74  1  0.67080800  0.08487188  0.68164780  1
  Cu+  Cu75  1  0.66640016  0.58115644  0.68521804  1
  Cu+  Cu76  1  0.41437967  0.32954610  0.67381640  1
  Cu+  Cu77  1  0.41593183  0.83024638  0.67297013  1
  Cu+  Cu78  1  0.91578141  0.33026891  0.67577442  1
  Cu+  Cu79  1  0.91562178  0.82854462  0.68325284  1
  Cu+  Cu80  1  0.41625015  0.08583832  0.67058036  1
  Cu+  Cu81  1  0.41212913  0.58356322  0.67775005  1
  Cu+  Cu82  1  0.91574133  0.08432024  0.68074850  1
  Cu+  Cu83  1  0.91259156  0.58247645  0.68074899  1
  Cu+  Cu84  1  0.00354019  0.25244643  0.00806462  1
  Cu+  Cu85  1  0.00380861  0.75042476  0.00737397  1
  Cu+  Cu86  1  0.50459741  0.25289521  0.01306487  1
  Cu+  Cu87  1  0.50133560  0.75198162  0.00800565  1
  Cu+  Cu88  1  0.25156182  0.50176052  0.00776015  1
  Cu+  Cu89  1  0.24813866  0.99769152  0.00288431  1
  Cu+  Cu90  1  0.75107618  0.49886524  0.01705415  1
  Cu+  Cu91  1  0.75101894  0.99966337  0.01481929  1
  Cu+  Cu92  1  0.24860525  0.25427600  0.00893202  1
  Cu+  Cu93  1  0.24840123  0.75170819  0.00439029  1
  Cu+  Cu94  1  0.75071977  0.25160919  0.01030438  1
  Cu+  Cu95  1  0.75063133  0.75258106  0.01572145  1
  Cu+  Cu96  1  0.33432279  0.41471474  0.34113774  1
  Cu+  Cu97  1  0.33563613  0.91686412  0.33848298  1
  Cu+  Cu98  1  0.83603791  0.41720573  0.34568171  1
  Cu+  Cu99  1  0.83305431  0.91622597  0.34435155  1
  Cu+  Cu100  1  0.08076711  0.16469195  0.33957100  1
  Cu+  Cu101  1  0.08020812  0.66325372  0.34193625  1
  Cu+  Cu102  1  0.58288019  0.16269457  0.34167316  1
  Cu+  Cu103  1  0.58607168  0.66542685  0.34423667  1
  Cu+  Cu104  1  0.08179095  0.41794862  0.34270049  1
  Cu+  Cu105  1  0.07942388  0.91644087  0.33822495  1
  Cu+  Cu106  1  0.58343735  0.41720504  0.34705077  1
  Cu+  Cu107  1  0.58326462  0.91703668  0.34310549  1
  Cu+  Cu108  1  0.00364628  -0.00086809  0.11006380  1
  Cu+  Cu109  1  0.00521326  0.49835771  0.11596386  1
  Cu+  Cu110  1  0.49545620  -0.00220755  0.11155535  1
  Cu+  Cu111  1  0.49709363  0.49944628  0.11276930  1
  Cu+  Cu112  1  0.33109322  0.16251278  0.44401063  1
  Cu+  Cu113  1  0.33335992  0.66595611  0.44733135  1
  Cu+  Cu114  1  0.83392659  0.16692732  0.45294683  1
  Cu+  Cu115  1  0.83664728  0.66812335  0.45428066  1
  Cu+  Cu116  1  0.16779766  0.33366355  0.77757859  1
  Cu+  Cu117  1  0.17206610  0.83368550  0.77444006  1
  Cu+  Cu118  1  0.66394351  0.33045787  0.78224809  1
  Cu+  Cu119  1  0.66449421  0.83276682  0.77998829  1
  Te2-  Te120  1  -0.00055737  0.00017118  0.38346172  1
  Te2-  Te121  1  0.00067174  0.50030575  0.38833080  1
  Te2-  Te122  1  0.49891494  -0.00187041  0.38487145  1
  Te2-  Te123  1  0.49877440  0.49995799  0.38714791  1
  Te2-  Te124  1  0.33352646  0.16565889  0.71761329  1
  Te2-  Te125  1  0.33020904  0.66810132  0.72128825  1
  Te2-  Te126  1  0.83599689  0.16927041  0.72761807  1
  Te2-  Te127  1  0.83100176  0.66456194  0.73053422  1
  Te2-  Te128  1  0.16711576  0.33796232  0.05329723  1
  Te2-  Te129  1  0.16826775  0.83505860  0.04934658  1
  Te2-  Te130  1  0.66923020  0.33271085  0.05886907  1
  Te2-  Te131  1  0.66427083  0.83289069  0.05625887  1
  Te2-  Te132  1  0.49783450  0.24832379  0.88563321  1
  Te2-  Te133  1  0.49594251  0.75339641  0.88192346  1
  Te2-  Te134  1  0.99503548  0.25179870  0.88237242  1
  Te2-  Te135  1  0.98889146  0.74433746  0.88223214  1
  Te2-  Te136  1  0.25193018  0.00578626  0.87759088  1
  Te2-  Te137  1  0.25276088  0.51179988  0.88217560  1
  Te2-  Te138  1  0.75656731  0.01164400  0.88653167  1
  Te2-  Te139  1  0.75589093  0.51049116  0.88842396  1
  Te2-  Te140  1  0.25444941  0.25222565  0.88167322  1
  Te2-  Te141  1  0.25087052  0.74753374  0.87831142  1
  Te2-  Te142  1  0.75733126  0.25187537  0.88439621  1
  Te2-  Te143  1  0.75387857  0.74801199  0.88673062  1
  Te2-  Te144  1  0.32877722  0.41468492  0.21464394  1
  Te2-  Te145  1  0.33012093  0.91557223  0.21237051  1
  Te2-  Te146  1  0.82443626  0.40828838  0.21961138  1
  Te2-  Te147  1  0.81962272  0.90915935  0.21795459  1
  Te2-  Te148  1  0.08139719  0.17403567  0.21364574  1
  Te2-  Te149  1  0.08479130  0.67109982  0.21609498  1
  Te2-  Te150  1  0.59108604  0.17361577  0.21589855  1
  Te2-  Te151  1  0.58556022  0.67078325  0.21760063  1
  Te2-  Te152  1  0.08561744  0.41459454  0.21633165  1
  Te2-  Te153  1  0.08349340  0.91642550  0.21142710  1
  Te2-  Te154  1  0.58778973  0.40948325  0.21884195  1
  Te2-  Te155  1  0.58426817  0.90877281  0.21687550  1
  Te2-  Te156  1  0.16227323  0.08046898  0.54518159  1
  Te2-  Te157  1  0.16228180  0.57964245  0.54642317  1
  Te2-  Te158  1  0.66097091  0.07944282  0.55494993  1
  Te2-  Te159  1  0.65632171  0.58006850  0.55673917  1
  Te2-  Te160  1  0.41782154  0.34332445  0.54867792  1
  Te2-  Te161  1  0.41931508  0.83732213  0.54763194  1
  Te2-  Te162  1  0.91793368  0.33564044  0.55020535  1
  Te2-  Te163  1  0.91748250  0.83479557  0.55512149  1
  Te2-  Te164  1  0.42109077  0.08400551  0.54494090  1
  Te2-  Te165  1  0.41916711  0.57914824  0.55138758  1
  Te2-  Te166  1  0.91850590  0.07972290  0.55356435  1
  Te2-  Te167  1  0.91437187  0.57952978  0.55296726  1
  Te2-  Te168  1  0.00254427  0.00137801  0.88132042  1
  Te2-  Te169  1  0.00163580  0.50124689  0.87995614  1
  Te2-  Te170  1  0.49827164  -0.00074282  0.88150349  1
  Te2-  Te171  1  0.49975140  0.49918362  0.88513588  1
  Te2-  Te172  1  0.33192881  0.16422896  0.21415089  1
  Te2-  Te173  1  0.33460177  0.66711101  0.21407520  1
  Te2-  Te174  1  0.83233169  0.16463508  0.21482850  1
  Te2-  Te175  1  0.83464321  0.66602624  0.21550030  1
  Te2-  Te176  1  0.16809039  0.33216584  0.54766971  1
  Te2-  Te177  1  0.16878613  0.83401616  0.54733474  1
  Te2-  Te178  1  0.66431799  0.33056604  0.55124489  1
  Te2-  Te179  1  0.66522745  0.83195793  0.55175262  1
  Te2-  Te180  1  0.32695237  0.41175397  0.71041494  1
  Te2-  Te181  1  0.33107580  0.91585283  0.70776446  1
  Te2-  Te182  1  0.82440522  0.40956288  0.70995142  1
  Te2-  Te183  1  0.82476691  0.91118653  0.70926268  1
  Te2-  Te184  1  0.08938574  0.17258093  0.70899378  1
  Te2-  Te185  1  0.08690915  0.67205631  0.70601759  1
  Te2-  Te186  1  0.58500856  0.17277833  0.71128381  1
  Te2-  Te187  1  0.58460777  0.67301793  0.71057234  1
  Te2-  Te188  1  0.08648203  0.41369527  0.70865359  1
  Te2-  Te189  1  0.08932089  0.91524141  0.70728345  1
  Te2-  Te190  1  0.58228438  0.40929820  0.71342990  1
  Te2-  Te191  1  0.58541770  0.91137671  0.70944531  1
  Te2-  Te192  1  0.16210795  0.08138445  0.04001487  1
  Te2-  Te193  1  0.16283654  0.58288032  0.04459142  1
  Te2-  Te194  1  0.65922940  0.08111873  0.04270561  1
  Te2-  Te195  1  0.65860993  0.57959161  0.04259135  1
  Te2-  Te196  1  0.42097467  0.34227177  0.04082637  1
  Te2-  Te197  1  0.41822200  0.83905425  0.04240688  1
  Te2-  Te198  1  0.92060505  0.33911002  0.04571220  1
  Te2-  Te199  1  0.92333302  0.83986054  0.04181002  1
  Te2-  Te200  1  0.41759199  0.07963942  0.04144401  1
  Te2-  Te201  1  0.42121258  0.58229265  0.04310151  1
  Te2-  Te202  1  0.92379157  0.08243782  0.04175435  1
  Te2-  Te203  1  0.92388364  0.58159258  0.04480569  1
  Te2-  Te204  1  0.49387106  0.24417850  0.37634594  1
  Te2-  Te205  1  0.49617930  0.74646342  0.37956521  1
  Te2-  Te206  1  0.99425280  0.24723124  0.37966663  1
  Te2-  Te207  1  0.99392784  0.74720439  0.37968800  1
  Te2-  Te208  1  0.25064916  0.00262812  0.37451233  1
  Te2-  Te209  1  0.25311686  0.50408410  0.37745497  1
  Te2-  Te210  1  0.75211713  0.00470552  0.38250410  1
  Te2-  Te211  1  0.75474884  0.50636315  0.38145466  1
  Te2-  Te212  1  0.25110157  0.24470921  0.37544804  1
  Te2-  Te213  1  0.25184533  0.74675741  0.37641616  1
  Te2-  Te214  1  0.75164340  0.24647176  0.38171555  1
  Te2-  Te215  1  0.75444980  0.74693134  0.38308556  1
