# generated using pymatgen
data_Ti(CuTe)4
_symmetry_space_group_name_H-M   'P 1'
_cell_length_a   16.85919766
_cell_length_b   16.86203561
_cell_length_c   20.66621592
_cell_angle_alpha   90.02900588
_cell_angle_beta   90.00586264
_cell_angle_gamma   120.00302179
_symmetry_Int_Tables_number   1
_chemical_formula_structural   Ti(CuTe)4
_chemical_formula_sum   'Ti24 Cu96 Te96'
_cell_volume   5087.74319066
_cell_formula_units_Z   24
loop_
 _symmetry_equiv_pos_site_id
 _symmetry_equiv_pos_as_xyz
  1  'x, y, z'
loop_
 _atom_type_symbol
 _atom_type_oxidation_number
  Ti4+  4.0
  Cu+  1.0
  Te2-  -2.0
loop_
 _atom_site_type_symbol
 _atom_site_label
 _atom_site_symmetry_multiplicity
 _atom_site_fract_x
 _atom_site_fract_y
 _atom_site_fract_z
 _atom_site_occupancy
  Ti4+  Ti0  1  -0.00059639  0.00087350  0.25687994  1
  Ti4+  Ti1  1  0.00470436  0.50347660  0.25529969  1
  Ti4+  Ti2  1  0.50346947  0.00281199  0.25715728  1
  Ti4+  Ti3  1  0.50237860  0.50231057  0.26113351  1
  Ti4+  Ti4  1  0.33051646  0.16405485  0.58630799  1
  Ti4+  Ti5  1  0.33108268  0.66515417  0.59065788  1
  Ti4+  Ti6  1  0.83078569  0.16501176  0.59198989  1
  Ti4+  Ti7  1  0.83413623  0.66624473  0.58963276  1
  Ti4+  Ti8  1  0.16454252  0.33214627  0.92626383  1
  Ti4+  Ti9  1  0.16685909  0.83352021  0.92571369  1
  Ti4+  Ti10  1  0.66541869  0.33121898  0.92382613  1
  Ti4+  Ti11  1  0.66582011  0.83156192  0.92917359  1
  Ti4+  Ti12  1  -0.00050845  -0.00035789  0.75874146  1
  Ti4+  Ti13  1  -0.00224255  0.49700656  0.75564298  1
  Ti4+  Ti14  1  0.49905598  0.00008065  0.75527855  1
  Ti4+  Ti15  1  0.50048139  0.50080128  0.75733623  1
  Ti4+  Ti16  1  0.33344454  0.16753021  0.09137043  1
  Ti4+  Ti17  1  0.33296220  0.66659918  0.08892952  1
  Ti4+  Ti18  1  0.83430345  0.16743077  0.08864985  1
  Ti4+  Ti19  1  0.83472333  0.66760082  0.08984490  1
  Ti4+  Ti20  1  0.16809737  0.33479343  0.42004544  1
  Ti4+  Ti21  1  0.16624513  0.83337481  0.42050357  1
  Ti4+  Ti22  1  0.66782452  0.33349464  0.41948257  1
  Ti4+  Ti23  1  0.66916689  0.83497231  0.42090968  1
  Cu+  Cu24  1  0.73885256  0.75399992  0.14543149  1
  Cu+  Cu25  1  0.57751669  0.65629770  0.48098504  1
  Cu+  Cu26  1  0.02534707  0.26134802  0.14070708  1
  Cu+  Cu27  1  0.02727087  0.76656949  0.14021835  1
  Cu+  Cu28  1  0.57169326  0.14130895  0.47180703  1
  Cu+  Cu29  1  0.34185614  0.42108051  0.48124424  1
  Cu+  Cu30  1  0.06975714  0.64069384  0.47211575  1
  Cu+  Cu31  1  0.74006249  0.98644039  0.14369013  1
  Cu+  Cu32  1  0.06942904  0.15102277  0.47585910  1
  Cu+  Cu33  1  0.06981182  0.91972768  0.47416808  1
  Cu+  Cu34  1  0.90235192  0.30431144  0.80774536  1
  Cu+  Cu35  1  0.57792450  0.41996106  0.47939461  1
  Cu+  Cu36  1  0.16448402  0.08347407  0.17217406  1
  Cu+  Cu37  1  0.16511636  0.58484087  0.16918175  1
  Cu+  Cu38  1  0.66191229  0.08158486  0.17064970  1
  Cu+  Cu39  1  0.66145495  0.58155732  0.17308484  1
  Cu+  Cu40  1  0.41855579  0.33610306  0.17575532  1
  Cu+  Cu41  1  0.41926982  0.83606886  0.17028774  1
  Cu+  Cu42  1  0.92575430  0.33786809  0.16843891  1
  Cu+  Cu43  1  0.91909695  0.83446222  0.16966422  1
  Cu+  Cu44  1  0.42182108  0.08706902  0.17309269  1
  Cu+  Cu45  1  0.41811206  0.58391751  0.17309492  1
  Cu+  Cu46  1  0.91957374  0.08576547  0.16916875  1
  Cu+  Cu47  1  0.92605746  0.58973743  0.16934911  1
  Cu+  Cu48  1  0.49672536  0.24316128  0.49845048  1
  Cu+  Cu49  1  0.49755908  0.74968903  0.50332214  1
  Cu+  Cu50  1  0.99418199  0.24720028  0.50444315  1
  Cu+  Cu51  1  0.99686541  0.74603358  0.50205411  1
  Cu+  Cu52  1  0.24758650  0.00464239  0.49820434  1
  Cu+  Cu53  1  0.25380735  0.50767413  0.50080163  1
  Cu+  Cu54  1  0.75205519  0.00517557  0.50311744  1
  Cu+  Cu55  1  0.75364908  0.50632104  0.49876041  1
  Cu+  Cu56  1  0.24760149  0.24354784  0.49725543  1
  Cu+  Cu57  1  0.24570390  0.74331280  0.50256680  1
  Cu+  Cu58  1  0.74651952  0.24367583  0.50266959  1
  Cu+  Cu59  1  0.75229785  0.74789996  0.50032742  1
  Cu+  Cu60  1  0.33126562  0.41522811  0.84092767  1
  Cu+  Cu61  1  0.33032479  0.91554661  0.83834076  1
  Cu+  Cu62  1  0.82907960  0.40887568  0.83707530  1
  Cu+  Cu63  1  0.83004512  0.91343000  0.84445377  1
  Cu+  Cu64  1  0.08458860  0.16944927  0.84066065  1
  Cu+  Cu65  1  0.08445796  0.67076021  0.83929241  1
  Cu+  Cu66  1  0.58263951  0.17096032  0.83623951  1
  Cu+  Cu67  1  0.58634593  0.66963083  0.84257933  1
  Cu+  Cu68  1  0.07926213  0.41026502  0.83877818  1
  Cu+  Cu69  1  0.08431463  0.91430515  0.84079326  1
  Cu+  Cu70  1  0.58385392  0.41431708  0.83849334  1
  Cu+  Cu71  1  0.58340544  0.91531697  0.84174009  1
  Cu+  Cu72  1  0.16526856  0.08335602  0.67575579  1
  Cu+  Cu73  1  0.16659629  0.58314101  0.67587062  1
  Cu+  Cu74  1  0.66484249  0.08282547  0.67653051  1
  Cu+  Cu75  1  0.66763790  0.58505590  0.67620203  1
  Cu+  Cu76  1  0.41540108  0.33263293  0.67398319  1
  Cu+  Cu77  1  0.41498198  0.83027715  0.67411324  1
  Cu+  Cu78  1  0.91260561  0.32695514  0.67822510  1
  Cu+  Cu79  1  0.91587430  0.83221846  0.67646383  1
  Cu+  Cu80  1  0.41472124  0.08316113  0.67132030  1
  Cu+  Cu81  1  0.41754249  0.58510742  0.67829536  1
  Cu+  Cu82  1  0.91602960  0.08209267  0.67825999  1
  Cu+  Cu83  1  0.91685349  0.58456485  0.67456131  1
  Cu+  Cu84  1  0.00362244  0.25313815  0.01307631  1
  Cu+  Cu85  1  0.00621815  0.75240650  0.01195554  1
  Cu+  Cu86  1  0.50302189  0.25325212  0.00764106  1
  Cu+  Cu87  1  0.50075872  0.74819697  0.01018574  1
  Cu+  Cu88  1  0.24715529  0.49726691  0.00893608  1
  Cu+  Cu89  1  0.24921080  0.99950990  0.00884265  1
  Cu+  Cu90  1  0.74820328  0.49578640  0.00657455  1
  Cu+  Cu91  1  0.74702703  0.99556362  0.01503174  1
  Cu+  Cu92  1  0.24926281  0.25068114  0.01020730  1
  Cu+  Cu93  1  0.24878293  0.75105072  0.00752297  1
  Cu+  Cu94  1  0.74758748  0.25077565  0.00767718  1
  Cu+  Cu95  1  0.74735658  0.74977168  0.01646321  1
  Cu+  Cu96  1  0.33760548  0.42133183  0.34797398  1
  Cu+  Cu97  1  0.33778429  0.91942391  0.33882312  1
  Cu+  Cu98  1  0.83865984  0.41913203  0.33580419  1
  Cu+  Cu99  1  0.83445069  0.91970087  0.34090556  1
  Cu+  Cu100  1  0.08099337  0.16565783  0.34630738  1
  Cu+  Cu101  1  0.08327793  0.66430531  0.34406551  1
  Cu+  Cu102  1  0.58512808  0.16281509  0.34333939  1
  Cu+  Cu103  1  0.58608368  0.66732176  0.34826975  1
  Cu+  Cu104  1  0.08507502  0.41942368  0.33976232  1
  Cu+  Cu105  1  0.08266323  0.91983744  0.34554757  1
  Cu+  Cu106  1  0.58578309  0.42109990  0.34746006  1
  Cu+  Cu107  1  0.58728682  0.92136514  0.34144640  1
  Cu+  Cu108  1  0.00013105  -0.00021425  0.11321405  1
  Cu+  Cu109  1  -0.00241905  0.49911624  0.11208631  1
  Cu+  Cu110  1  0.49216306  -0.00278744  0.11456585  1
  Cu+  Cu111  1  0.49465203  0.49661787  0.11880207  1
  Cu+  Cu112  1  0.33550484  0.16740161  0.43804964  1
  Cu+  Cu113  1  0.33749768  0.67509398  0.44477891  1
  Cu+  Cu114  1  0.83430112  0.17023629  0.44669993  1
  Cu+  Cu115  1  0.83565089  0.66861477  0.44128209  1
  Cu+  Cu116  1  0.17090988  0.33612452  0.78364564  1
  Cu+  Cu117  1  0.16862749  0.83562978  0.78273273  1
  Cu+  Cu118  1  0.66517136  0.33571777  0.77900133  1
  Cu+  Cu119  1  0.66569097  0.83444918  0.78779233  1
  Te2-  Te120  1  -0.00315510  -0.00030488  0.38907856  1
  Te2-  Te121  1  -0.00017277  0.49735487  0.38621122  1
  Te2-  Te122  1  0.49956763  -0.00329740  0.38808050  1
  Te2-  Te123  1  0.50224734  0.50215079  0.39517735  1
  Te2-  Te124  1  0.33244657  0.16616414  0.71454678  1
  Te2-  Te125  1  0.33203883  0.66578800  0.71950051  1
  Te2-  Te126  1  0.82903407  0.16020758  0.72248404  1
  Te2-  Te127  1  0.83331345  0.66610963  0.71810252  1
  Te2-  Te128  1  0.17019894  0.33476729  0.05716660  1
  Te2-  Te129  1  0.17234611  0.83678473  0.05681911  1
  Te2-  Te130  1  0.66652153  0.33305324  0.05356787  1
  Te2-  Te131  1  0.66214249  0.83024882  0.06182777  1
  Te2-  Te132  1  0.49300775  0.24717743  0.88211513  1
  Te2-  Te133  1  0.49539581  0.74691756  0.88460302  1
  Te2-  Te134  1  0.99010943  0.24179827  0.88610099  1
  Te2-  Te135  1  0.99414523  0.74672745  0.88528258  1
  Te2-  Te136  1  0.25263637  0.00509793  0.88296347  1
  Te2-  Te137  1  0.24843155  0.50231657  0.88242120  1
  Te2-  Te138  1  0.75083302  0.00298113  0.88791063  1
  Te2-  Te139  1  0.75323118  0.50210919  0.88048027  1
  Te2-  Te140  1  0.25187789  0.24762253  0.88455542  1
  Te2-  Te141  1  0.25233402  0.74767181  0.88181558  1
  Te2-  Te142  1  0.74871526  0.23995144  0.88215294  1
  Te2-  Te143  1  0.75240291  0.74580877  0.88958079  1
  Te2-  Te144  1  0.33171123  0.41745894  0.22031181  1
  Te2-  Te145  1  0.33242852  0.91731137  0.21344765  1
  Te2-  Te146  1  0.83579071  0.41831938  0.21001909  1
  Te2-  Te147  1  0.82611574  0.91413285  0.21509681  1
  Te2-  Te148  1  0.08762602  0.17407908  0.21883075  1
  Te2-  Te149  1  0.09340074  0.67867336  0.21730148  1
  Te2-  Te150  1  0.59052104  0.17504577  0.21678997  1
  Te2-  Te151  1  0.58519295  0.67480517  0.22048675  1
  Te2-  Te152  1  0.09367928  0.41795245  0.21470559  1
  Te2-  Te153  1  0.08784851  0.91613947  0.21835634  1
  Te2-  Te154  1  0.58749259  0.41671972  0.21983887  1
  Te2-  Te155  1  0.58627901  0.91177699  0.21630657  1
  Te2-  Te156  1  0.15350480  0.07738541  0.54863669  1
  Te2-  Te157  1  0.15698249  0.57460139  0.54946299  1
  Te2-  Te158  1  0.65658639  0.07531185  0.55025403  1
  Te2-  Te159  1  0.65816182  0.57860566  0.54990382  1
  Te2-  Te160  1  0.41894664  0.33815898  0.54715014  1
  Te2-  Te161  1  0.41532434  0.83506678  0.54724428  1
  Te2-  Te162  1  0.91488900  0.33490309  0.54998792  1
  Te2-  Te163  1  0.91744901  0.83886781  0.54922421  1
  Te2-  Te164  1  0.41474843  0.07496800  0.54525029  1
  Te2-  Te165  1  0.42152171  0.57874108  0.55177840  1
  Te2-  Te166  1  0.91707623  0.07709262  0.55173919  1
  Te2-  Te167  1  0.91801470  0.57688211  0.54806263  1
  Te2-  Te168  1  0.00102584  -0.00006716  0.88538167  1
  Te2-  Te169  1  -0.00111510  0.50025850  0.88245626  1
  Te2-  Te170  1  0.49903123  0.00158405  0.88173144  1
  Te2-  Te171  1  0.50037716  0.49918725  0.88401509  1
  Te2-  Te172  1  0.33356806  0.16701291  0.21807158  1
  Te2-  Te173  1  0.33372587  0.66873168  0.21565380  1
  Te2-  Te174  1  0.83390826  0.16953704  0.21637329  1
  Te2-  Te175  1  0.83328729  0.66566555  0.21761074  1
  Te2-  Te176  1  0.16745859  0.33416395  0.54802649  1
  Te2-  Te177  1  0.16736139  0.83522280  0.54811273  1
  Te2-  Te178  1  0.66659738  0.33493473  0.54742028  1
  Te2-  Te179  1  0.66822798  0.83454101  0.54835135  1
  Te2-  Te180  1  0.32858784  0.41432823  0.71277731  1
  Te2-  Te181  1  0.32768054  0.91382112  0.71036752  1
  Te2-  Te182  1  0.82583417  0.41375202  0.70915827  1
  Te2-  Te183  1  0.82696844  0.91235097  0.71620508  1
  Te2-  Te184  1  0.08557210  0.17223973  0.71397647  1
  Te2-  Te185  1  0.08505285  0.67070028  0.71264047  1
  Te2-  Te186  1  0.58369062  0.17230272  0.70963985  1
  Te2-  Te187  1  0.58754127  0.67374688  0.71480830  1
  Te2-  Te188  1  0.08590960  0.41232703  0.71098149  1
  Te2-  Te189  1  0.08540857  0.91402450  0.71326098  1
  Te2-  Te190  1  0.58491289  0.41448314  0.71060731  1
  Te2-  Te191  1  0.58456894  0.91253961  0.71354244  1
  Te2-  Te192  1  0.16144751  0.08108580  0.04593514  1
  Te2-  Te193  1  0.16056675  0.58114686  0.04335611  1
  Te2-  Te194  1  0.65981280  0.08161530  0.04437866  1
  Te2-  Te195  1  0.66048039  0.57667317  0.04627202  1
  Te2-  Te196  1  0.41946771  0.33895411  0.04760046  1
  Te2-  Te197  1  0.41949618  0.83837476  0.04339648  1
  Te2-  Te198  1  0.91761946  0.33972902  0.04168114  1
  Te2-  Te199  1  0.92182148  0.84089166  0.04252245  1
  Te2-  Te200  1  0.41977423  0.08332856  0.04544013  1
  Te2-  Te201  1  0.41778997  0.57826851  0.04599053  1
  Te2-  Te202  1  0.92090014  0.07980755  0.04213548  1
  Te2-  Te203  1  0.91832671  0.57979396  0.04241549  1
  Te2-  Te204  1  0.49496727  0.24679898  0.37099080  1
  Te2-  Te205  1  0.49604259  0.75068941  0.37545256  1
  Te2-  Te206  1  0.99390869  0.25048979  0.37658016  1
  Te2-  Te207  1  0.99307349  0.74698949  0.37345127  1
  Te2-  Te208  1  0.25528027  0.00643239  0.37216704  1
  Te2-  Te209  1  0.25394299  0.51007871  0.37517452  1
  Te2-  Te210  1  0.75560124  0.00901997  0.37727463  1
  Te2-  Te211  1  0.75864056  0.50758793  0.37268059  1
  Te2-  Te212  1  0.25470771  0.24731990  0.37079925  1
  Te2-  Te213  1  0.25574966  0.75032689  0.37495372  1
  Te2-  Te214  1  0.75743814  0.25051125  0.37500615  1
  Te2-  Te215  1  0.75859598  0.75034638  0.37364539  1
