# generated using pymatgen
data_Ti(CuTe)4
_symmetry_space_group_name_H-M   'P 1'
_cell_length_a   16.86038464
_cell_length_b   16.86042601
_cell_length_c   20.66596647
_cell_angle_alpha   89.97802303
_cell_angle_beta   90.01304489
_cell_angle_gamma   120.01011803
_symmetry_Int_Tables_number   1
_chemical_formula_structural   Ti(CuTe)4
_chemical_formula_sum   'Ti24 Cu96 Te96'
_cell_volume   5087.19111632
_cell_formula_units_Z   24
loop_
 _symmetry_equiv_pos_site_id
 _symmetry_equiv_pos_as_xyz
  1  'x, y, z'
loop_
 _atom_type_symbol
 _atom_type_oxidation_number
  Ti4+  4.0
  Cu+  1.0
  Te2-  -2.0
loop_
 _atom_site_type_symbol
 _atom_site_label
 _atom_site_symmetry_multiplicity
 _atom_site_fract_x
 _atom_site_fract_y
 _atom_site_fract_z
 _atom_site_occupancy
  Ti4+  Ti0  1  0.00403886  0.00160728  0.25929396  1
  Ti4+  Ti1  1  0.00275054  0.49802257  0.25745498  1
  Ti4+  Ti2  1  0.50111812  -0.00080583  0.25664798  1
  Ti4+  Ti3  1  0.50317641  0.50247727  0.26165533  1
  Ti4+  Ti4  1  0.33421391  0.16804579  0.59242095  1
  Ti4+  Ti5  1  0.33129851  0.66585609  0.59323128  1
  Ti4+  Ti6  1  0.83474450  0.16795320  0.58880102  1
  Ti4+  Ti7  1  0.83171289  0.67021242  0.58785797  1
  Ti4+  Ti8  1  0.16469404  0.33175919  0.92695470  1
  Ti4+  Ti9  1  0.16414447  0.82951914  0.92103749  1
  Ti4+  Ti10  1  0.66373527  0.33515504  0.92091093  1
  Ti4+  Ti11  1  0.66423857  0.83239501  0.92669526  1
  Ti4+  Ti12  1  -0.00011771  0.00052368  0.75653178  1
  Ti4+  Ti13  1  -0.00088430  0.50199205  0.75469714  1
  Ti4+  Ti14  1  0.49936717  -0.00162890  0.75273862  1
  Ti4+  Ti15  1  0.49911971  0.49876405  0.75550144  1
  Ti4+  Ti16  1  0.33190950  0.16459567  0.09081439  1
  Ti4+  Ti17  1  0.33518020  0.66763923  0.09014167  1
  Ti4+  Ti18  1  0.83534561  0.16823713  0.08750385  1
  Ti4+  Ti19  1  0.83152258  0.66545210  0.09137967  1
  Ti4+  Ti20  1  0.16664777  0.33472006  0.42283282  1
  Ti4+  Ti21  1  0.16781761  0.83357848  0.42348361  1
  Ti4+  Ti22  1  0.66651750  0.33339200  0.42163572  1
  Ti4+  Ti23  1  0.66921019  0.83303472  0.42096516  1
  Cu+  Cu24  1  0.85319428  0.93057749  0.47199570  1
  Cu+  Cu25  1  0.17911328  0.58388419  0.81191001  1
  Cu+  Cu26  1  0.90152872  0.59755702  0.80155861  1
  Cu+  Cu27  1  0.57008923  0.42158855  0.47761575  1
  Cu+  Cu28  1  0.52793330  0.76266749  0.14325286  1
  Cu+  Cu29  1  0.07060857  0.43123736  0.47448058  1
  Cu+  Cu30  1  0.40207550  0.31512643  0.81113599  1
  Cu+  Cu31  1  0.41073858  0.81400491  0.80983420  1
  Cu+  Cu32  1  0.02712845  0.26107570  0.14202312  1
  Cu+  Cu33  1  0.40298459  0.08510253  0.80709750  1
  Cu+  Cu34  1  0.07981957  0.93072809  0.47674253  1
  Cu+  Cu35  1  0.57050506  0.65246244  0.47742222  1
  Cu+  Cu36  1  0.16387714  0.07759562  0.17312007  1
  Cu+  Cu37  1  0.16368228  0.57914248  0.17159513  1
  Cu+  Cu38  1  0.66250663  0.08248373  0.16858284  1
  Cu+  Cu39  1  0.66407310  0.58119424  0.17568851  1
  Cu+  Cu40  1  0.41982453  0.33389458  0.17644282  1
  Cu+  Cu41  1  0.42388895  0.83645320  0.17021422  1
  Cu+  Cu42  1  0.92534443  0.33577328  0.16914861  1
  Cu+  Cu43  1  0.92003366  0.83497721  0.17508929  1
  Cu+  Cu44  1  0.41743823  0.08001007  0.17149678  1
  Cu+  Cu45  1  0.42440789  0.58829040  0.17459048  1
  Cu+  Cu46  1  0.92416506  0.08743627  0.17216546  1
  Cu+  Cu47  1  0.91913396  0.58228197  0.17243885  1
  Cu+  Cu48  1  0.49678999  0.24995769  0.50633443  1
  Cu+  Cu49  1  0.49537989  0.74818846  0.50597910  1
  Cu+  Cu50  1  0.99772306  0.25416841  0.50170772  1
  Cu+  Cu51  1  0.99851418  0.75335826  0.50274027  1
  Cu+  Cu52  1  0.25136294  0.00335411  0.50640314  1
  Cu+  Cu53  1  0.24451191  0.50156488  0.50492887  1
  Cu+  Cu54  1  0.75519117  0.00407292  0.50200875  1
  Cu+  Cu55  1  0.74690854  0.50209534  0.50182530  1
  Cu+  Cu56  1  0.25389470  0.25131822  0.50450046  1
  Cu+  Cu57  1  0.25189957  0.74785050  0.50677028  1
  Cu+  Cu58  1  0.75166019  0.24704165  0.50216225  1
  Cu+  Cu59  1  0.75297443  0.74985551  0.49827916  1
  Cu+  Cu60  1  0.32845099  0.41228780  0.83915940  1
  Cu+  Cu61  1  0.32872315  0.91095874  0.83279928  1
  Cu+  Cu62  1  0.82885322  0.42226375  0.83415209  1
  Cu+  Cu63  1  0.83102593  0.91465702  0.84051066  1
  Cu+  Cu64  1  0.08147227  0.16771215  0.84059837  1
  Cu+  Cu65  1  0.08091924  0.66816336  0.83297633  1
  Cu+  Cu66  1  0.58047855  0.17040194  0.83214769  1
  Cu+  Cu67  1  0.58310488  0.66907456  0.83888820  1
  Cu+  Cu68  1  0.08394236  0.41263744  0.84009240  1
  Cu+  Cu69  1  0.08234019  0.91239144  0.83505654  1
  Cu+  Cu70  1  0.58107534  0.41111025  0.83326218  1
  Cu+  Cu71  1  0.58360073  0.91101426  0.83700388  1
  Cu+  Cu72  1  0.16666631  0.08493304  0.67604875  1
  Cu+  Cu73  1  0.16735267  0.58341440  0.68204975  1
  Cu+  Cu74  1  0.67118414  0.08245132  0.67149587  1
  Cu+  Cu75  1  0.66525052  0.58669549  0.67472126  1
  Cu+  Cu76  1  0.41771330  0.33216793  0.68167845  1
  Cu+  Cu77  1  0.41631047  0.82873129  0.68010237  1
  Cu+  Cu78  1  0.91647684  0.33225274  0.67349188  1
  Cu+  Cu79  1  0.91643290  0.83665352  0.67445359  1
  Cu+  Cu80  1  0.41679428  0.08679844  0.67794941  1
  Cu+  Cu81  1  0.41544856  0.58249297  0.67644214  1
  Cu+  Cu82  1  0.91665849  0.08604014  0.67349171  1
  Cu+  Cu83  1  0.91161362  0.58753710  0.67394013  1
  Cu+  Cu84  1  0.00406134  0.25219292  0.01329020  1
  Cu+  Cu85  1  -0.00130937  0.74849717  0.00719360  1
  Cu+  Cu86  1  0.49877406  0.25011852  0.00848954  1
  Cu+  Cu87  1  0.50315904  0.75257787  0.01449007  1
  Cu+  Cu88  1  0.24980481  0.49904245  0.01219277  1
  Cu+  Cu89  1  0.24755241  0.99583611  0.00699403  1
  Cu+  Cu90  1  0.74599855  0.49941223  0.00703077  1
  Cu+  Cu91  1  0.74741036  0.99837253  0.00927613  1
  Cu+  Cu92  1  0.24806779  0.24759552  0.01264028  1
  Cu+  Cu93  1  0.24711402  0.74763891  0.00829402  1
  Cu+  Cu94  1  0.74762629  0.25291275  0.00288302  1
  Cu+  Cu95  1  0.74727062  0.74895776  0.01072018  1
  Cu+  Cu96  1  0.33609205  0.41905900  0.34307045  1
  Cu+  Cu97  1  0.33770345  0.91545536  0.33963842  1
  Cu+  Cu98  1  0.83729773  0.41510054  0.33885131  1
  Cu+  Cu99  1  0.84009017  0.92010793  0.34400294  1
  Cu+  Cu100  1  0.08753907  0.16836570  0.34264403  1
  Cu+  Cu101  1  0.08649697  0.66430185  0.34046699  1
  Cu+  Cu102  1  0.58082974  0.16222662  0.33946817  1
  Cu+  Cu103  1  0.58351418  0.66510140  0.34928203  1
  Cu+  Cu104  1  0.08213028  0.41764335  0.34581156  1
  Cu+  Cu105  1  0.08413995  0.91808163  0.34739550  1
  Cu+  Cu106  1  0.58265650  0.41875700  0.34859032  1
  Cu+  Cu107  1  0.58206195  0.91719306  0.34069684  1
  Cu+  Cu108  1  -0.00357922  -0.00394288  0.11689799  1
  Cu+  Cu109  1  -0.00568367  0.49913604  0.11393726  1
  Cu+  Cu110  1  0.49792321  0.00097822  0.11215338  1
  Cu+  Cu111  1  0.49614445  0.49512197  0.12025376  1
  Cu+  Cu112  1  0.33460000  0.16417315  0.44840243  1
  Cu+  Cu113  1  0.33370211  0.66617981  0.44967576  1
  Cu+  Cu114  1  0.83288099  0.16690544  0.44365216  1
  Cu+  Cu115  1  0.83770978  0.66290845  0.44381575  1
  Cu+  Cu116  1  0.16432865  0.33078414  0.78333098  1
  Cu+  Cu117  1  0.16506531  0.83388599  0.77408742  1
  Cu+  Cu118  1  0.66931073  0.33185696  0.77491170  1
  Cu+  Cu119  1  0.67191444  0.83392467  0.78319680  1
  Te2-  Te120  1  0.00541211  0.00548913  0.39151539  1
  Te2-  Te121  1  -0.00078514  0.50169254  0.38817283  1
  Te2-  Te122  1  0.50076618  -0.00074287  0.38638502  1
  Te2-  Te123  1  0.49747520  0.49923332  0.39419386  1
  Te2-  Te124  1  0.32988542  0.16523618  0.72458360  1
  Te2-  Te125  1  0.33334646  0.66309547  0.72572570  1
  Te2-  Te126  1  0.83430639  0.16807057  0.71816458  1
  Te2-  Te127  1  0.83010954  0.67198172  0.71825972  1
  Te2-  Te128  1  0.17068532  0.33463594  0.05749118  1
  Te2-  Te129  1  0.16414000  0.83052340  0.04970368  1
  Te2-  Te130  1  0.66485793  0.33365362  0.04977539  1
  Te2-  Te131  1  0.67035970  0.83553783  0.05730082  1
  Te2-  Te132  1  0.48632934  0.24292846  0.88204212  1
  Te2-  Te133  1  0.49035590  0.74232508  0.88678818  1
  Te2-  Te134  1  0.99343893  0.24700005  0.88618069  1
  Te2-  Te135  1  0.99025570  0.74574009  0.88093588  1
  Te2-  Te136  1  0.24962607  0.00250189  0.88080774  1
  Te2-  Te137  1  0.25551684  0.50524878  0.88572207  1
  Te2-  Te138  1  0.74992514  0.00315977  0.88297219  1
  Te2-  Te139  1  0.74748575  0.50903131  0.88061843  1
  Te2-  Te140  1  0.24869221  0.24230201  0.88630255  1
  Te2-  Te141  1  0.25201189  0.74216012  0.88129863  1
  Te2-  Te142  1  0.74963571  0.25147504  0.87631554  1
  Te2-  Te143  1  0.74981001  0.74642173  0.88455689  1
  Te2-  Te144  1  0.33356421  0.41855366  0.21706459  1
  Te2-  Te145  1  0.32983843  0.91090564  0.21376064  1
  Te2-  Te146  1  0.83267184  0.41197642  0.21278795  1
  Te2-  Te147  1  0.83364987  0.91894756  0.21690810  1
  Te2-  Te148  1  0.09408906  0.17464859  0.21728576  1
  Te2-  Te149  1  0.08761438  0.66990366  0.21513520  1
  Te2-  Te150  1  0.58546836  0.17138787  0.21401672  1
  Te2-  Te151  1  0.59258249  0.67622280  0.22212575  1
  Te2-  Te152  1  0.09318118  0.41376195  0.21848266  1
  Te2-  Te153  1  0.08731787  0.91251463  0.22052158  1
  Te2-  Te154  1  0.58694043  0.41448931  0.22168501  1
  Te2-  Te155  1  0.59319836  0.91691270  0.21535114  1
  Te2-  Te156  1  0.16132933  0.08504252  0.55044344  1
  Te2-  Te157  1  0.15722804  0.58166955  0.55423228  1
  Te2-  Te158  1  0.66320925  0.07898075  0.54586959  1
  Te2-  Te159  1  0.65582460  0.58142146  0.54862269  1
  Te2-  Te160  1  0.41840508  0.34212554  0.55400832  1
  Te2-  Te161  1  0.41926511  0.83693683  0.55297523  1
  Te2-  Te162  1  0.91766639  0.34262153  0.54815041  1
  Te2-  Te163  1  0.92100473  0.84614533  0.54849477  1
  Te2-  Te164  1  0.41876217  0.08261243  0.55062538  1
  Te2-  Te165  1  0.41326727  0.57605332  0.55042589  1
  Te2-  Te166  1  0.92555818  0.08581463  0.54740795  1
  Te2-  Te167  1  0.91547889  0.58430508  0.54704946  1
  Te2-  Te168  1  -0.00033201  -0.00249075  0.88334759  1
  Te2-  Te169  1  -0.00201567  0.49908811  0.88230922  1
  Te2-  Te170  1  0.50010010  0.00041186  0.88028595  1
  Te2-  Te171  1  0.49980256  0.49863046  0.88270374  1
  Te2-  Te172  1  0.33361879  0.16380675  0.21766147  1
  Te2-  Te173  1  0.33354980  0.66760732  0.21707729  1
  Te2-  Te174  1  0.83257243  0.16666299  0.21442690  1
  Te2-  Te175  1  0.83501486  0.66547487  0.21823831  1
  Te2-  Te176  1  0.16578967  0.33247310  0.55008141  1
  Te2-  Te177  1  0.16670262  0.83317524  0.55085456  1
  Te2-  Te178  1  0.66826386  0.33309440  0.54887169  1
  Te2-  Te179  1  0.66730323  0.83343469  0.54881524  1
  Te2-  Te180  1  0.32471118  0.41264231  0.71146834  1
  Te2-  Te181  1  0.32560432  0.91268230  0.70528831  1
  Te2-  Te182  1  0.82832064  0.41534735  0.70656565  1
  Te2-  Te183  1  0.82816361  0.91677097  0.71222629  1
  Te2-  Te184  1  0.08548370  0.17293605  0.71311986  1
  Te2-  Te185  1  0.08402877  0.67474440  0.70572824  1
  Te2-  Te186  1  0.58939657  0.17122490  0.70575615  1
  Te2-  Te187  1  0.58402272  0.67310023  0.71249064  1
  Te2-  Te188  1  0.08402581  0.41131814  0.71252685  1
  Te2-  Te189  1  0.08572313  0.91473966  0.70879216  1
  Te2-  Te190  1  0.59057340  0.41685395  0.70751284  1
  Te2-  Te191  1  0.58929978  0.91376893  0.70992355  1
  Te2-  Te192  1  0.15942173  0.07662062  0.04650507  1
  Te2-  Te193  1  0.16096215  0.57949073  0.04600018  1
  Te2-  Te194  1  0.66249509  0.08394079  0.04247743  1
  Te2-  Te195  1  0.65861434  0.57970296  0.04878362  1
  Te2-  Te196  1  0.41825658  0.33744288  0.04848379  1
  Te2-  Te197  1  0.41725631  0.83991117  0.04295550  1
  Te2-  Te198  1  0.91764959  0.34012894  0.04141795  1
  Te2-  Te199  1  0.91812524  0.83673938  0.04696959  1
  Te2-  Te200  1  0.41723743  0.07965667  0.04381170  1
  Te2-  Te201  1  0.42045897  0.57935414  0.04667940  1
  Te2-  Te202  1  0.91875081  0.07837803  0.04412613  1
  Te2-  Te203  1  0.91595245  0.57957769  0.04463652  1
  Te2-  Te204  1  0.49357287  0.24473570  0.37797813  1
  Te2-  Te205  1  0.49406293  0.74872500  0.37848721  1
  Te2-  Te206  1  0.99398202  0.24495533  0.37518298  1
  Te2-  Te207  1  0.99651171  0.74473739  0.37552466  1
  Te2-  Te208  1  0.25742027  0.00540677  0.37792859  1
  Te2-  Te209  1  0.25498177  0.50793997  0.37769163  1
  Te2-  Te210  1  0.75282810  0.00570867  0.37483377  1
  Te2-  Te211  1  0.75679789  0.50519714  0.37445004  1
  Te2-  Te212  1  0.25619580  0.24990967  0.37902223  1
  Te2-  Te213  1  0.25418171  0.74727261  0.38007943  1
  Te2-  Te214  1  0.75101324  0.24621355  0.37586377  1
  Te2-  Te215  1  0.75809389  0.74723119  0.37276474  1
