# generated using pymatgen
data_Ti(CuTe)4
_symmetry_space_group_name_H-M   'P 1'
_cell_length_a   16.88808681
_cell_length_b   16.88761849
_cell_length_c   20.70969187
_cell_angle_alpha   89.96669714
_cell_angle_beta   90.01870768
_cell_angle_gamma   120.01647929
_symmetry_Int_Tables_number   1
_chemical_formula_structural   Ti(CuTe)4
_chemical_formula_sum   'Ti24 Cu96 Te96'
_cell_volume   5114.23777879
_cell_formula_units_Z   24
loop_
 _symmetry_equiv_pos_site_id
 _symmetry_equiv_pos_as_xyz
  1  'x, y, z'
loop_
 _atom_type_symbol
 _atom_type_oxidation_number
  Ti4+  4.0
  Cu+  1.0
  Te2-  -2.0
loop_
 _atom_site_type_symbol
 _atom_site_label
 _atom_site_symmetry_multiplicity
 _atom_site_fract_x
 _atom_site_fract_y
 _atom_site_fract_z
 _atom_site_occupancy
  Ti4+  Ti0  1  0.00145221  -0.00278605  0.25726556  1
  Ti4+  Ti1  1  -0.00350546  0.49842257  0.25987915  1
  Ti4+  Ti2  1  0.49932923  -0.00023296  0.25802087  1
  Ti4+  Ti3  1  0.49967449  0.49977306  0.25836807  1
  Ti4+  Ti4  1  0.33280364  0.16732091  0.59103648  1
  Ti4+  Ti5  1  0.33585582  0.66861940  0.58873910  1
  Ti4+  Ti6  1  0.83427568  0.16770758  0.58821103  1
  Ti4+  Ti7  1  0.83448500  0.66575525  0.59379919  1
  Ti4+  Ti8  1  0.16690748  0.33398168  0.92114816  1
  Ti4+  Ti9  1  0.16656535  0.83090754  0.92455896  1
  Ti4+  Ti10  1  0.66440205  0.33398372  0.92754410  1
  Ti4+  Ti11  1  0.66812779  0.83764874  0.92289122  1
  Ti4+  Ti12  1  -0.00148205  0.00113205  0.75422974  1
  Ti4+  Ti13  1  0.00182790  0.50187903  0.75706929  1
  Ti4+  Ti14  1  0.50103907  0.00001485  0.75561148  1
  Ti4+  Ti15  1  0.49905935  0.49780590  0.75509329  1
  Ti4+  Ti16  1  0.33178446  0.16600374  0.08898998  1
  Ti4+  Ti17  1  0.33325900  0.66548687  0.08984586  1
  Ti4+  Ti18  1  0.83275696  0.16747641  0.09015064  1
  Ti4+  Ti19  1  0.83423330  0.66728111  0.08793480  1
  Ti4+  Ti20  1  0.16750317  0.33131951  0.42014056  1
  Ti4+  Ti21  1  0.16557710  0.83126596  0.42291329  1
  Ti4+  Ti22  1  0.66768596  0.33425045  0.42317007  1
  Ti4+  Ti23  1  0.66591017  0.83426058  0.42099613  1
  Cu+  Cu24  1  0.08229541  0.42423833  0.47876125  1
  Cu+  Cu25  1  0.19266452  0.59777391  0.80573652  1
  Cu+  Cu26  1  0.90345811  0.09755004  0.80515470  1
  Cu+  Cu27  1  0.73947255  0.48605514  0.14489685  1
  Cu+  Cu28  1  0.02254957  0.75952146  0.14052711  1
  Cu+  Cu29  1  0.57233526  0.93078890  0.47240680  1
  Cu+  Cu30  1  0.40503364  0.30797449  0.80818484  1
  Cu+  Cu31  1  0.07445521  0.14410917  0.47293387  1
  Cu+  Cu32  1  0.73566796  0.25543370  0.14458275  1
  Cu+  Cu33  1  0.35431829  0.42583081  0.47465158  1
  Cu+  Cu34  1  0.85161355  0.43008909  0.47927046  1
  Cu+  Cu35  1  0.90534677  0.59284113  0.81239557  1
  Cu+  Cu36  1  0.16303943  0.07954333  0.17068998  1
  Cu+  Cu37  1  0.16383310  0.57948088  0.17323170  1
  Cu+  Cu38  1  0.66179095  0.08308434  0.17267681  1
  Cu+  Cu39  1  0.66073403  0.57951089  0.17052270  1
  Cu+  Cu40  1  0.41575060  0.33503480  0.17180073  1
  Cu+  Cu41  1  0.41870920  0.83430500  0.17275827  1
  Cu+  Cu42  1  0.91124494  0.33426275  0.17297335  1
  Cu+  Cu43  1  0.92467719  0.83639301  0.16914280  1
  Cu+  Cu44  1  0.41585995  0.08031199  0.17087508  1
  Cu+  Cu45  1  0.41724472  0.58079916  0.17260673  1
  Cu+  Cu46  1  0.91934522  0.08144707  0.17277109  1
  Cu+  Cu47  1  0.91654547  0.58049592  0.16955434  1
  Cu+  Cu48  1  0.49787703  0.25112029  0.50533969  1
  Cu+  Cu49  1  0.49839120  0.75498347  0.50113177  1
  Cu+  Cu50  1  0.99718363  0.24543915  0.50049029  1
  Cu+  Cu51  1  0.99718081  0.74629780  0.50685927  1
  Cu+  Cu52  1  0.25101343  0.00078162  0.50488807  1
  Cu+  Cu53  1  0.25624688  0.50530099  0.50176341  1
  Cu+  Cu54  1  0.74822386  0.00333697  0.50122542  1
  Cu+  Cu55  1  0.75632295  0.50503946  0.50714089  1
  Cu+  Cu56  1  0.25362601  0.24771893  0.50216239  1
  Cu+  Cu57  1  0.25122752  0.74739351  0.50245379  1
  Cu+  Cu58  1  0.75640942  0.25282652  0.50186611  1
  Cu+  Cu59  1  0.75014459  0.74790497  0.50627243  1
  Cu+  Cu60  1  0.33034168  0.41057925  0.83459197  1
  Cu+  Cu61  1  0.33173298  0.91394125  0.83789301  1
  Cu+  Cu62  1  0.82998325  0.41932863  0.84180670  1
  Cu+  Cu63  1  0.83019676  0.92279379  0.83555391  1
  Cu+  Cu64  1  0.07910874  0.17026949  0.83442128  1
  Cu+  Cu65  1  0.08547438  0.66949439  0.83785457  1
  Cu+  Cu66  1  0.58585078  0.16866538  0.83982090  1
  Cu+  Cu67  1  0.58494357  0.67012190  0.83796237  1
  Cu+  Cu68  1  0.09102406  0.42123493  0.83594297  1
  Cu+  Cu69  1  0.08274203  0.91408475  0.83793771  1
  Cu+  Cu70  1  0.58025448  0.41101153  0.83849572  1
  Cu+  Cu71  1  0.58651005  0.91618553  0.83612580  1
  Cu+  Cu72  1  0.16760473  0.08422267  0.67438328  1
  Cu+  Cu73  1  0.17161083  0.58534811  0.67771448  1
  Cu+  Cu74  1  0.66704291  0.08361974  0.67397039  1
  Cu+  Cu75  1  0.66991472  0.58193075  0.67616007  1
  Cu+  Cu76  1  0.41433709  0.32958485  0.67932832  1
  Cu+  Cu77  1  0.41747420  0.83384419  0.67434880  1
  Cu+  Cu78  1  0.91715846  0.33383337  0.67518904  1
  Cu+  Cu79  1  0.91519292  0.82994864  0.67592179  1
  Cu+  Cu80  1  0.41681831  0.08561696  0.67573447  1
  Cu+  Cu81  1  0.41735634  0.58482011  0.67205333  1
  Cu+  Cu82  1  0.91451146  0.08467446  0.67592737  1
  Cu+  Cu83  1  0.91560563  0.58493872  0.68312333  1
  Cu+  Cu84  1  0.00250210  0.25176229  0.00675550  1
  Cu+  Cu85  1  0.00313248  0.75017835  0.01226863  1
  Cu+  Cu86  1  0.49900502  0.25069816  0.01117043  1
  Cu+  Cu87  1  0.50441066  0.75215490  0.00758346  1
  Cu+  Cu88  1  0.25066404  0.49851666  0.00640992  1
  Cu+  Cu89  1  0.24710104  0.99638482  0.00868786  1
  Cu+  Cu90  1  0.74729908  0.49903473  0.01417164  1
  Cu+  Cu91  1  0.75069785  1.00101496  0.00769994  1
  Cu+  Cu92  1  0.24766084  0.24968868  0.00611614  1
  Cu+  Cu93  1  0.24856815  0.74759833  0.00935945  1
  Cu+  Cu94  1  0.74856907  0.25396026  0.01540218  1
  Cu+  Cu95  1  0.74976788  0.75576040  0.00525229  1
  Cu+  Cu96  1  0.33716554  0.41745606  0.34518581  1
  Cu+  Cu97  1  0.33435042  0.91533985  0.34121763  1
  Cu+  Cu98  1  0.83393041  0.41796741  0.34883797  1
  Cu+  Cu99  1  0.83617884  0.91576959  0.33923826  1
  Cu+  Cu100  1  0.08316812  0.15970520  0.34443297  1
  Cu+  Cu101  1  0.07965207  0.66426231  0.34308132  1
  Cu+  Cu102  1  0.58105297  0.16451292  0.34298830  1
  Cu+  Cu103  1  0.58190014  0.66409702  0.34109003  1
  Cu+  Cu104  1  0.07883220  0.41519934  0.34723080  1
  Cu+  Cu105  1  0.08219233  0.91460499  0.34246687  1
  Cu+  Cu106  1  0.58243082  0.41837406  0.34290508  1
  Cu+  Cu107  1  0.58184297  0.91985847  0.34403323  1
  Cu+  Cu108  1  -0.00149419  0.00158050  0.11358282  1
  Cu+  Cu109  1  0.00298307  0.49806660  0.11659047  1
  Cu+  Cu110  1  0.49574936  -0.00388527  0.11531760  1
  Cu+  Cu111  1  0.49695863  0.49936229  0.11486430  1
  Cu+  Cu112  1  0.33672970  0.16196326  0.44788279  1
  Cu+  Cu113  1  0.33444585  0.66770704  0.44365415  1
  Cu+  Cu114  1  0.83267994  0.16477717  0.44316580  1
  Cu+  Cu115  1  0.83260932  0.67025274  0.45109038  1
  Cu+  Cu116  1  0.16722646  0.33352589  0.77695483  1
  Cu+  Cu117  1  0.16941584  0.83929012  0.78167631  1
  Cu+  Cu118  1  0.66815184  0.33099648  0.78468322  1
  Cu+  Cu119  1  0.66498372  0.82940359  0.77957477  1
  Te2-  Te120  1  -0.00194595  -0.00588685  0.38826431  1
  Te2-  Te121  1  0.00032896  0.50188432  0.39189336  1
  Te2-  Te122  1  0.49719474  0.00099760  0.38872922  1
  Te2-  Te123  1  0.50274904  0.50184490  0.38940099  1
  Te2-  Te124  1  0.33061608  0.16288927  0.72154154  1
  Te2-  Te125  1  0.33895297  0.66949245  0.71897751  1
  Te2-  Te126  1  0.83164494  0.16893183  0.71808145  1
  Te2-  Te127  1  0.83199693  0.66770277  0.72483089  1
  Te2-  Te128  1  0.16725766  0.33373247  0.04974436  1
  Te2-  Te129  1  0.16975563  0.83271139  0.05496531  1
  Te2-  Te130  1  0.66224103  0.33361146  0.05956273  1
  Te2-  Te131  1  0.66839585  0.83689663  0.05211237  1
  Te2-  Te132  1  0.49155446  0.24258925  0.88499291  1
  Te2-  Te133  1  0.49620946  0.74921942  0.88175520  1
  Te2-  Te134  1  0.99301771  0.25270792  0.88081932  1
  Te2-  Te135  1  0.99293478  0.74691840  0.88518010  1
  Te2-  Te136  1  0.25080069  0.00139651  0.88249198  1
  Te2-  Te137  1  0.25956321  0.50799882  0.88059185  1
  Te2-  Te138  1  0.75266534  0.01326334  0.88225353  1
  Te2-  Te139  1  0.74766726  0.50703142  0.88659344  1
  Te2-  Te140  1  0.24768500  0.24143408  0.88016116  1
  Te2-  Te141  1  0.25551710  0.74660695  0.88339591  1
  Te2-  Te142  1  0.75249362  0.25163067  0.88751148  1
  Te2-  Te143  1  0.75471001  0.75349452  0.87951127  1
  Te2-  Te144  1  0.32778965  0.41348456  0.21828973  1
  Te2-  Te145  1  0.32836514  0.91265941  0.21552750  1
  Te2-  Te146  1  0.82048391  0.41211987  0.22062190  1
  Te2-  Te147  1  0.83116691  0.91129662  0.21336072  1
  Te2-  Te148  1  0.08689767  0.16945385  0.21777980  1
  Te2-  Te149  1  0.08505729  0.66993432  0.21679695  1
  Te2-  Te150  1  0.58230984  0.17396057  0.21755336  1
  Te2-  Te151  1  0.58606664  0.67082285  0.21534918  1
  Te2-  Te152  1  0.07934859  0.41163096  0.21899415  1
  Te2-  Te153  1  0.09181004  0.91290628  0.21684914  1
  Te2-  Te154  1  0.58334749  0.40981130  0.21727629  1
  Te2-  Te155  1  0.58681774  0.91594629  0.21721821  1
  Te2-  Te156  1  0.15971547  0.07807342  0.54865785  1
  Te2-  Te157  1  0.16216083  0.58149993  0.55046076  1
  Te2-  Te158  1  0.66159299  0.08555431  0.54790497  1
  Te2-  Te159  1  0.66367101  0.57948696  0.55041144  1
  Te2-  Te160  1  0.42170859  0.34143399  0.55204659  1
  Te2-  Te161  1  0.41803921  0.84223758  0.54842608  1
  Te2-  Te162  1  0.92501081  0.34408648  0.54925122  1
  Te2-  Te163  1  0.91871976  0.83627455  0.55008292  1
  Te2-  Te164  1  0.41935777  0.08306591  0.54955069  1
  Te2-  Te165  1  0.42536560  0.58579860  0.54622671  1
  Te2-  Te166  1  0.91650081  0.07757139  0.54834287  1
  Te2-  Te167  1  0.92497575  0.58133808  0.55578143  1
  Te2-  Te168  1  -0.00026236  0.00124641  0.88092779  1
  Te2-  Te169  1  0.00069114  0.49945936  0.88431716  1
  Te2-  Te170  1  0.50076825  -0.00091605  0.88183779  1
  Te2-  Te171  1  0.49900630  0.50043883  0.88181776  1
  Te2-  Te172  1  0.33191589  0.16526675  0.21523380  1
  Te2-  Te173  1  0.33296327  0.66510448  0.21622513  1
  Te2-  Te174  1  0.83268338  0.16428538  0.21693547  1
  Te2-  Te175  1  0.83170076  0.66640456  0.21535244  1
  Te2-  Te176  1  0.16785923  0.33377919  0.54853532  1
  Te2-  Te177  1  0.16755482  0.83204754  0.54910248  1
  Te2-  Te178  1  0.66768487  0.33317621  0.54999599  1
  Te2-  Te179  1  0.66704822  0.83469115  0.54791174  1
  Te2-  Te180  1  0.32713502  0.41547598  0.70780752  1
  Te2-  Te181  1  0.32917355  0.91505543  0.71131787  1
  Te2-  Te182  1  0.82755039  0.41252719  0.71400564  1
  Te2-  Te183  1  0.82621314  0.91236350  0.70863893  1
  Te2-  Te184  1  0.08663209  0.17349002  0.70759157  1
  Te2-  Te185  1  0.08936109  0.67527146  0.71085534  1
  Te2-  Te186  1  0.58673384  0.17241981  0.71276991  1
  Te2-  Te187  1  0.58643761  0.66954087  0.71076703  1
  Te2-  Te188  1  0.08627022  0.41368761  0.70944368  1
  Te2-  Te189  1  0.08497894  0.91443406  0.71152486  1
  Te2-  Te190  1  0.58718735  0.41220652  0.71193068  1
  Te2-  Te191  1  0.58709156  0.91430321  0.71010092  1
  Te2-  Te192  1  0.16023226  0.07985397  0.04428247  1
  Te2-  Te193  1  0.16162556  0.57826643  0.04603685  1
  Te2-  Te194  1  0.66018426  0.08039052  0.04541437  1
  Te2-  Te195  1  0.66083659  0.58561481  0.04346736  1
  Te2-  Te196  1  0.41680344  0.33863029  0.04529260  1
  Te2-  Te197  1  0.41915356  0.83661655  0.04570186  1
  Te2-  Te198  1  0.92146322  0.34018325  0.04555122  1
  Te2-  Te199  1  0.91944513  0.83998651  0.04239011  1
  Te2-  Te200  1  0.41770005  0.07955764  0.04478542  1
  Te2-  Te201  1  0.42011576  0.58190062  0.04521175  1
  Te2-  Te202  1  0.91967373  0.08306044  0.04556176  1
  Te2-  Te203  1  0.91994867  0.57782431  0.04287838  1
  Te2-  Te204  1  0.49526887  0.24848645  0.37901282  1
  Te2-  Te205  1  0.49396022  0.74659557  0.37454905  1
  Te2-  Te206  1  0.99283570  0.24252546  0.37383784  1
  Te2-  Te207  1  0.99247641  0.74558055  0.38034985  1
  Te2-  Te208  1  0.25229365  0.00286911  0.37833532  1
  Te2-  Te209  1  0.25231893  0.50578174  0.37431411  1
  Te2-  Te210  1  0.75512050  0.00552446  0.37413788  1
  Te2-  Te211  1  0.75198867  0.50813857  0.37971981  1
  Te2-  Te212  1  0.25547843  0.24475425  0.37559565  1
  Te2-  Te213  1  0.25074677  0.74527777  0.37646369  1
  Te2-  Te214  1  0.75103548  0.24485939  0.37589234  1
  Te2-  Te215  1  0.75129721  0.74705055  0.37897019  1
