# generated using pymatgen
data_Ti(CuTe)4
_symmetry_space_group_name_H-M   'P 1'
_cell_length_a   16.89198265
_cell_length_b   16.88775164
_cell_length_c   20.71057828
_cell_angle_alpha   90.00480137
_cell_angle_beta   89.95304350
_cell_angle_gamma   120.00180768
_symmetry_Int_Tables_number   1
_chemical_formula_structural   Ti(CuTe)4
_chemical_formula_sum   'Ti24 Cu96 Te96'
_cell_volume   5116.43226965
_cell_formula_units_Z   24
loop_
 _symmetry_equiv_pos_site_id
 _symmetry_equiv_pos_as_xyz
  1  'x, y, z'
loop_
 _atom_type_symbol
 _atom_type_oxidation_number
  Ti4+  4.0
  Cu+  1.0
  Te2-  -2.0
loop_
 _atom_site_type_symbol
 _atom_site_label
 _atom_site_symmetry_multiplicity
 _atom_site_fract_x
 _atom_site_fract_y
 _atom_site_fract_z
 _atom_site_occupancy
  Ti4+  Ti0  1  0.00133029  -0.00307614  0.25673598  1
  Ti4+  Ti1  1  0.00133671  0.49930076  0.25613478  1
  Ti4+  Ti2  1  0.50136680  -0.00261397  0.25770140  1
  Ti4+  Ti3  1  0.50050068  0.49935055  0.25823715  1
  Ti4+  Ti4  1  0.33238562  0.16758089  0.58939623  1
  Ti4+  Ti5  1  0.33056358  0.66547594  0.59748229  1
  Ti4+  Ti6  1  0.83229641  0.16518402  0.58985027  1
  Ti4+  Ti7  1  0.82904454  0.66458674  0.59307583  1
  Ti4+  Ti8  1  0.16924901  0.33374073  0.92380512  1
  Ti4+  Ti9  1  0.16707801  0.83639642  0.92256570  1
  Ti4+  Ti10  1  0.67053592  0.33740272  0.92271246  1
  Ti4+  Ti11  1  0.66580461  0.83583412  0.92403999  1
  Ti4+  Ti12  1  0.00096817  0.00016399  0.75452882  1
  Ti4+  Ti13  1  -0.00335214  0.49974047  0.75432787  1
  Ti4+  Ti14  1  0.50114197  0.00132350  0.75359808  1
  Ti4+  Ti15  1  0.49791936  0.49986039  0.75524490  1
  Ti4+  Ti16  1  0.33401995  0.16757622  0.08839404  1
  Ti4+  Ti17  1  0.33417536  0.66738387  0.08882871  1
  Ti4+  Ti18  1  0.83360440  0.16758308  0.08741586  1
  Ti4+  Ti19  1  0.83466593  0.66759372  0.08879284  1
  Ti4+  Ti20  1  0.16589000  0.33155969  0.42292478  1
  Ti4+  Ti21  1  0.16663963  0.83089320  0.42390056  1
  Ti4+  Ti22  1  0.66555372  0.33336027  0.42212410  1
  Ti4+  Ti23  1  0.66641862  0.83189395  0.42398709  1
  Cu+  Cu24  1  0.41111693  0.58911024  0.81607108  1
  Cu+  Cu25  1  0.17335506  0.58719187  0.81528998  1
  Cu+  Cu26  1  0.41310055  0.82608475  0.81407939  1
  Cu+  Cu27  1  0.52194838  0.75926941  0.14272400  1
  Cu+  Cu28  1  0.68121272  0.59495162  0.81093758  1
  Cu+  Cu29  1  0.69170758  0.09823157  0.80401869  1
  Cu+  Cu30  1  0.02384674  0.75987551  0.13999220  1
  Cu+  Cu31  1  0.90956808  0.59706973  0.80751593  1
  Cu+  Cu32  1  0.19284786  0.09757391  0.80393055  1
  Cu+  Cu33  1  0.57055736  0.42856737  0.47608936  1
  Cu+  Cu34  1  0.24163626  0.47856670  0.14288515  1
  Cu+  Cu35  1  0.74160439  0.47983403  0.14350954  1
  Cu+  Cu36  1  0.16398655  0.07920306  0.17011767  1
  Cu+  Cu37  1  0.16345686  0.57751151  0.16900825  1
  Cu+  Cu38  1  0.66413246  0.07965695  0.17008820  1
  Cu+  Cu39  1  0.66349993  0.57769717  0.17097356  1
  Cu+  Cu40  1  0.41932435  0.33541698  0.17120139  1
  Cu+  Cu41  1  0.42419907  0.83686627  0.17067509  1
  Cu+  Cu42  1  0.92000294  0.33609743  0.16881369  1
  Cu+  Cu43  1  0.92442143  0.83634433  0.17014978  1
  Cu+  Cu44  1  0.41651790  0.07947812  0.17166501  1
  Cu+  Cu45  1  0.41868960  0.58227289  0.17061518  1
  Cu+  Cu46  1  0.91643081  0.07954085  0.17088792  1
  Cu+  Cu47  1  0.91986529  0.58282577  0.16935816  1
  Cu+  Cu48  1  0.49577099  0.25372344  0.50284047  1
  Cu+  Cu49  1  0.49612683  0.74741374  0.51002424  1
  Cu+  Cu50  1  0.99536702  0.24692741  0.50403705  1
  Cu+  Cu51  1  0.99648481  0.74483963  0.50723119  1
  Cu+  Cu52  1  0.24926049  0.00105552  0.50504943  1
  Cu+  Cu53  1  0.24887895  0.50074558  0.50989438  1
  Cu+  Cu54  1  0.75006861  0.00195331  0.50503259  1
  Cu+  Cu55  1  0.74485855  0.50189251  0.50623324  1
  Cu+  Cu56  1  0.24812082  0.24536905  0.50367150  1
  Cu+  Cu57  1  0.25001555  0.74670342  0.50952544  1
  Cu+  Cu58  1  0.74919829  0.24567893  0.50477532  1
  Cu+  Cu59  1  0.74850551  0.74611152  0.50607808  1
  Cu+  Cu60  1  0.32606132  0.41472905  0.83613094  1
  Cu+  Cu61  1  0.32828078  0.91546679  0.83367737  1
  Cu+  Cu62  1  0.82770279  0.42084301  0.83436337  1
  Cu+  Cu63  1  0.83047562  0.91733166  0.83592972  1
  Cu+  Cu64  1  0.09057471  0.16819479  0.83660061  1
  Cu+  Cu65  1  0.08299686  0.67302671  0.83556291  1
  Cu+  Cu66  1  0.59076831  0.17089191  0.83511075  1
  Cu+  Cu67  1  0.58499839  0.67371578  0.83716432  1
  Cu+  Cu68  1  0.08496729  0.41500625  0.83635653  1
  Cu+  Cu69  1  0.08931924  0.92117794  0.83505209  1
  Cu+  Cu70  1  0.58921815  0.42022054  0.83589991  1
  Cu+  Cu71  1  0.58775328  0.91969035  0.83499409  1
  Cu+  Cu72  1  0.17040163  0.08440741  0.67667367  1
  Cu+  Cu73  1  0.16635987  0.58435871  0.68303242  1
  Cu+  Cu74  1  0.67079571  0.08508604  0.67641616  1
  Cu+  Cu75  1  0.66570983  0.58284317  0.68103383  1
  Cu+  Cu76  1  0.41262385  0.33110397  0.67375282  1
  Cu+  Cu77  1  0.41338969  0.82963814  0.68262085  1
  Cu+  Cu78  1  0.91185869  0.32877010  0.67264552  1
  Cu+  Cu79  1  0.91351713  0.83030686  0.67465036  1
  Cu+  Cu80  1  0.41586335  0.08584889  0.67063754  1
  Cu+  Cu81  1  0.41082839  0.58329100  0.68387360  1
  Cu+  Cu82  1  0.91487711  0.08308497  0.67277182  1
  Cu+  Cu83  1  0.90828055  0.58126166  0.67914975  1
  Cu+  Cu84  1  0.00400353  0.25165822  0.00647968  1
  Cu+  Cu85  1  0.00336929  0.75441326  0.01088406  1
  Cu+  Cu86  1  0.50499652  0.25366993  0.00634830  1
  Cu+  Cu87  1  0.50258222  0.75357279  0.01380088  1
  Cu+  Cu88  1  0.24881930  0.49847908  0.01446512  1
  Cu+  Cu89  1  0.25037619  1.00188370  0.00736929  1
  Cu+  Cu90  1  0.74963384  0.50044746  0.01361041  1
  Cu+  Cu91  1  0.74791645  1.00119472  0.00822573  1
  Cu+  Cu92  1  0.25179406  0.25249253  0.00874668  1
  Cu+  Cu93  1  0.24900152  0.75233319  0.00917296  1
  Cu+  Cu94  1  0.75169652  0.25323648  0.00669513  1
  Cu+  Cu95  1  0.74782570  0.75195348  0.00943138  1
  Cu+  Cu96  1  0.33370487  0.41660786  0.34348963  1
  Cu+  Cu97  1  0.33752958  0.91480933  0.34191593  1
  Cu+  Cu98  1  0.83596403  0.41765454  0.34121929  1
  Cu+  Cu99  1  0.83748889  0.91617532  0.34080060  1
  Cu+  Cu100  1  0.08117033  0.16137867  0.34031239  1
  Cu+  Cu101  1  0.08411986  0.66365733  0.34165538  1
  Cu+  Cu102  1  0.58161793  0.16150867  0.34074103  1
  Cu+  Cu103  1  0.58225842  0.66540185  0.34336395  1
  Cu+  Cu104  1  0.08428623  0.41731259  0.34251069  1
  Cu+  Cu105  1  0.08206409  0.91387166  0.34168244  1
  Cu+  Cu106  1  0.58332945  0.41873022  0.34699403  1
  Cu+  Cu107  1  0.58217514  0.91467224  0.34277362  1
  Cu+  Cu108  1  0.00001920  0.00289842  0.11391799  1
  Cu+  Cu109  1  -0.00012234  0.49892813  0.11182889  1
  Cu+  Cu110  1  0.50020727  0.00372362  0.11471070  1
  Cu+  Cu111  1  0.50001781  0.49855300  0.11476662  1
  Cu+  Cu112  1  0.33151521  0.16195014  0.44628014  1
  Cu+  Cu113  1  0.33283201  0.66470698  0.45502802  1
  Cu+  Cu114  1  0.83235516  0.16527659  0.44688578  1
  Cu+  Cu115  1  0.83563222  0.66865585  0.45029411  1
  Cu+  Cu116  1  0.15839340  0.32834533  0.77933389  1
  Cu+  Cu117  1  0.16674283  0.83591268  0.77676311  1
  Cu+  Cu118  1  0.66047935  0.33051919  0.77763456  1
  Cu+  Cu119  1  0.66985005  0.83673283  0.77886688  1
  Te2-  Te120  1  0.00128944  -0.00244027  0.38565382  1
  Te2-  Te121  1  0.00050320  0.49884030  0.38478699  1
  Te2-  Te122  1  0.50130394  -0.00180819  0.38674501  1
  Te2-  Te123  1  0.49831848  0.50096209  0.38820979  1
  Te2-  Te124  1  0.33698569  0.16835801  0.72028316  1
  Te2-  Te125  1  0.33016581  0.66635686  0.73180755  1
  Te2-  Te126  1  0.83662157  0.16712904  0.72118345  1
  Te2-  Te127  1  0.83132542  0.66913488  0.72565365  1
  Te2-  Te128  1  0.16677904  0.33122124  0.05398900  1
  Te2-  Te129  1  0.17011168  0.83767498  0.05256848  1
  Te2-  Te130  1  0.66820667  0.33338294  0.05295796  1
  Te2-  Te131  1  0.66943211  0.83729808  0.05421749  1
  Te2-  Te132  1  0.50112259  0.25109706  0.87964364  1
  Te2-  Te133  1  0.49040895  0.74831295  0.88620803  1
  Te2-  Te134  1  0.99995250  0.24767013  0.88004423  1
  Te2-  Te135  1  0.99479464  0.75336531  0.88312940  1
  Te2-  Te136  1  0.25755814  0.00932758  0.88137642  1
  Te2-  Te137  1  0.25449040  0.51078401  0.88684792  1
  Te2-  Te138  1  0.75456980  0.00843201  0.88215183  1
  Te2-  Te139  1  0.75680139  0.51522207  0.88584744  1
  Te2-  Te140  1  0.25922914  0.25020978  0.88281294  1
  Te2-  Te141  1  0.25305185  0.74677615  0.88320340  1
  Te2-  Te142  1  0.75969886  0.25367921  0.88082811  1
  Te2-  Te143  1  0.75381478  0.75092273  0.88338140  1
  Te2-  Te144  1  0.32787331  0.41158930  0.21690690  1
  Te2-  Te145  1  0.33020996  0.91062020  0.21560308  1
  Te2-  Te146  1  0.82820119  0.41159916  0.21491721  1
  Te2-  Te147  1  0.83017215  0.91065135  0.21463405  1
  Te2-  Te148  1  0.08509129  0.16814168  0.21436968  1
  Te2-  Te149  1  0.09046981  0.67226874  0.21523763  1
  Te2-  Te150  1  0.58535890  0.16846627  0.21484526  1
  Te2-  Te151  1  0.58921719  0.67186528  0.21692383  1
  Te2-  Te152  1  0.08619163  0.40973372  0.21635726  1
  Te2-  Te153  1  0.09228180  0.91243614  0.21608073  1
  Te2-  Te154  1  0.58551471  0.41032381  0.21915611  1
  Te2-  Te155  1  0.59223187  0.91301708  0.21702824  1
  Te2-  Te156  1  0.16026551  0.07934166  0.55024493  1
  Te2-  Te157  1  0.16001400  0.57962688  0.55558368  1
  Te2-  Te158  1  0.65977135  0.07884665  0.55023953  1
  Te2-  Te159  1  0.65520389  0.58030182  0.55368206  1
  Te2-  Te160  1  0.41489864  0.34180522  0.54863405  1
  Te2-  Te161  1  0.41714290  0.83601070  0.55526117  1
  Te2-  Te162  1  0.91715569  0.33693563  0.54751669  1
  Te2-  Te163  1  0.91678909  0.83470865  0.54900320  1
  Te2-  Te164  1  0.41938665  0.08427220  0.54523001  1
  Te2-  Te165  1  0.41604773  0.58010236  0.55627298  1
  Te2-  Te166  1  0.91812013  0.07927274  0.54769086  1
  Te2-  Te167  1  0.91238682  0.57703512  0.55231035  1
  Te2-  Te168  1  -0.00086854  -0.00035963  0.88139958  1
  Te2-  Te169  1  -0.00103194  0.50050644  0.88206844  1
  Te2-  Te170  1  0.49840735  0.00152616  0.88138238  1
  Te2-  Te171  1  0.49857469  0.50036957  0.88285606  1
  Te2-  Te172  1  0.33328284  0.16525432  0.21455704  1
  Te2-  Te173  1  0.33247009  0.66650463  0.21594360  1
  Te2-  Te174  1  0.83387957  0.16629309  0.21352778  1
  Te2-  Te175  1  0.83336357  0.66625975  0.21598622  1
  Te2-  Te176  1  0.16352789  0.32978452  0.54926461  1
  Te2-  Te177  1  0.16546907  0.83257492  0.55035126  1
  Te2-  Te178  1  0.66462804  0.33118566  0.54884319  1
  Te2-  Te179  1  0.66651564  0.83326350  0.55037004  1
  Te2-  Te180  1  0.32310281  0.41036495  0.71069166  1
  Te2-  Te181  1  0.32714631  0.91687383  0.70762656  1
  Te2-  Te182  1  0.82308177  0.40926124  0.70900954  1
  Te2-  Te183  1  0.82831727  0.91447293  0.70999844  1
  Te2-  Te184  1  0.08490137  0.17159921  0.70895997  1
  Te2-  Te185  1  0.08214657  0.67400077  0.70834128  1
  Te2-  Te186  1  0.58559710  0.17301500  0.70758270  1
  Te2-  Te187  1  0.58448400  0.67476326  0.71003984  1
  Te2-  Te188  1  0.08169046  0.41091207  0.70963033  1
  Te2-  Te189  1  0.08416794  0.91162793  0.70823843  1
  Te2-  Te190  1  0.58199472  0.41070260  0.70942541  1
  Te2-  Te191  1  0.58679281  0.91256364  0.70823955  1
  Te2-  Te192  1  0.16180708  0.08226554  0.04398422  1
  Te2-  Te193  1  0.16038194  0.58277798  0.04279565  1
  Te2-  Te194  1  0.66096847  0.08343380  0.04371711  1
  Te2-  Te195  1  0.66025183  0.58280510  0.04447488  1
  Te2-  Te196  1  0.42180693  0.33991592  0.04460308  1
  Te2-  Te197  1  0.41850790  0.84166494  0.04422451  1
  Te2-  Te198  1  0.92176486  0.33955090  0.04245446  1
  Te2-  Te199  1  0.91826950  0.84098055  0.04361797  1
  Te2-  Te200  1  0.42057855  0.08306941  0.04389520  1
  Te2-  Te201  1  0.42178861  0.58079650  0.04325294  1
  Te2-  Te202  1  0.91887242  0.08130754  0.04340808  1
  Te2-  Te203  1  0.92256272  0.58223743  0.04173500  1
  Te2-  Te204  1  0.49381520  0.24475650  0.37585843  1
  Te2-  Te205  1  0.49367564  0.74579281  0.38254611  1
  Te2-  Te206  1  0.99518288  0.24594353  0.37743074  1
  Te2-  Te207  1  0.99542387  0.74458468  0.37987856  1
  Te2-  Te208  1  0.25261015  0.00117262  0.37804597  1
  Te2-  Te209  1  0.25287409  0.50504800  0.38234521  1
  Te2-  Te210  1  0.75311021  0.00255835  0.37837822  1
  Te2-  Te211  1  0.75556770  0.50695855  0.37887457  1
  Te2-  Te212  1  0.25122979  0.24525510  0.37771738  1
  Te2-  Te213  1  0.25325329  0.74540506  0.38207780  1
  Te2-  Te214  1  0.75144590  0.24709563  0.37828191  1
  Te2-  Te215  1  0.75258543  0.74636103  0.37959210  1
