# generated using pymatgen
data_Ti(CuTe)4
_symmetry_space_group_name_H-M   'P 1'
_cell_length_a   16.88882629
_cell_length_b   16.89450053
_cell_length_c   20.70978114
_cell_angle_alpha   90.00468974
_cell_angle_beta   90.04839526
_cell_angle_gamma   120.00872165
_symmetry_Int_Tables_number   1
_chemical_formula_structural   Ti(CuTe)4
_chemical_formula_sum   'Ti24 Cu96 Te96'
_cell_volume   5116.96637837
_cell_formula_units_Z   24
loop_
 _symmetry_equiv_pos_site_id
 _symmetry_equiv_pos_as_xyz
  1  'x, y, z'
loop_
 _atom_type_symbol
 _atom_type_oxidation_number
  Ti4+  4.0
  Cu+  1.0
  Te2-  -2.0
loop_
 _atom_site_type_symbol
 _atom_site_label
 _atom_site_symmetry_multiplicity
 _atom_site_fract_x
 _atom_site_fract_y
 _atom_site_fract_z
 _atom_site_occupancy
  Ti4+  Ti0  1  0.00187748  -0.00051778  0.25767579  1
  Ti4+  Ti1  1  0.00101448  0.49725621  0.25962312  1
  Ti4+  Ti2  1  0.50345896  0.00088405  0.25664698  1
  Ti4+  Ti3  1  0.50057960  0.50053531  0.25379630  1
  Ti4+  Ti4  1  0.33578505  0.16849666  0.59207163  1
  Ti4+  Ti5  1  0.33289125  0.66862832  0.58681809  1
  Ti4+  Ti6  1  0.83178044  0.16702839  0.59467941  1
  Ti4+  Ti7  1  0.83306939  0.66591065  0.59188189  1
  Ti4+  Ti8  1  0.16398920  0.33100200  0.92228410  1
  Ti4+  Ti9  1  0.16352375  0.83142022  0.92253499  1
  Ti4+  Ti10  1  0.66525594  0.33447391  0.92932514  1
  Ti4+  Ti11  1  0.66522924  0.83405163  0.92325243  1
  Ti4+  Ti12  1  -0.00039361  0.00121376  0.75225856  1
  Ti4+  Ti13  1  0.00083464  0.50296452  0.75680990  1
  Ti4+  Ti14  1  0.50031949  0.00002391  0.75674129  1
  Ti4+  Ti15  1  0.49849347  0.49874848  0.75593289  1
  Ti4+  Ti16  1  0.33250457  0.16639309  0.08645687  1
  Ti4+  Ti17  1  0.33363151  0.66546098  0.08805520  1
  Ti4+  Ti18  1  0.83342916  0.16661425  0.08895185  1
  Ti4+  Ti19  1  0.83309670  0.66752568  0.08752353  1
  Ti4+  Ti20  1  0.16905590  0.33332213  0.42246509  1
  Ti4+  Ti21  1  0.16856657  0.83224543  0.41957640  1
  Ti4+  Ti22  1  0.66834160  0.33438309  0.42463224  1
  Ti4+  Ti23  1  0.66686279  0.83409114  0.42221511  1
  Cu+  Cu24  1  0.57303632  0.93134660  0.47401866  1
  Cu+  Cu25  1  0.07058180  0.64972929  0.47553177  1
  Cu+  Cu26  1  0.23720551  0.47483011  0.13740800  1
  Cu+  Cu27  1  0.51047829  0.25430501  0.14757491  1
  Cu+  Cu28  1  0.74812371  0.25443484  0.15405590  1
  Cu+  Cu29  1  0.74721814  0.48984956  0.14838492  1
  Cu+  Cu30  1  0.90218237  0.59368871  0.80895956  1
  Cu+  Cu31  1  0.90304331  0.08741815  0.80867206  1
  Cu+  Cu32  1  0.90583582  0.32250362  0.81600487  1
  Cu+  Cu33  1  0.52307407  0.76083774  0.13869795  1
  Cu+  Cu34  1  0.07222682  0.41951596  0.47977098  1
  Cu+  Cu35  1  0.40535216  0.30979292  0.80954952  1
  Cu+  Cu36  1  0.16272671  0.08073678  0.17055001  1
  Cu+  Cu37  1  0.16563202  0.57610947  0.17235303  1
  Cu+  Cu38  1  0.66262793  0.08072136  0.16981634  1
  Cu+  Cu39  1  0.66280205  0.58022479  0.16680251  1
  Cu+  Cu40  1  0.42005557  0.33814127  0.16607540  1
  Cu+  Cu41  1  0.42444475  0.83563605  0.16999998  1
  Cu+  Cu42  1  0.92153899  0.33802577  0.17153983  1
  Cu+  Cu43  1  0.91996378  0.83848998  0.17063498  1
  Cu+  Cu44  1  0.41981467  0.08220085  0.16887041  1
  Cu+  Cu45  1  0.41772158  0.58165064  0.16705225  1
  Cu+  Cu46  1  0.92074321  0.08091666  0.17165206  1
  Cu+  Cu47  1  0.91958696  0.58217245  0.17165543  1
  Cu+  Cu48  1  0.49870965  0.25168824  0.50714747  1
  Cu+  Cu49  1  0.49766508  0.75458128  0.50118333  1
  Cu+  Cu50  1  0.99757568  0.24974801  0.50867375  1
  Cu+  Cu51  1  0.99667891  0.74539891  0.50413119  1
  Cu+  Cu52  1  0.25501747  0.00421001  0.50381668  1
  Cu+  Cu53  1  0.24903587  0.50322629  0.50136003  1
  Cu+  Cu54  1  0.74612015  0.00135059  0.50675225  1
  Cu+  Cu55  1  0.75230392  0.50430869  0.50612031  1
  Cu+  Cu56  1  0.25718129  0.25116654  0.50559188  1
  Cu+  Cu57  1  0.24921523  0.74486529  0.49875576  1
  Cu+  Cu58  1  0.75244640  0.24951215  0.50801717  1
  Cu+  Cu59  1  0.75046597  0.74770510  0.50556384  1
  Cu+  Cu60  1  0.32908953  0.41124018  0.83675774  1
  Cu+  Cu61  1  0.32948178  0.91290770  0.83800864  1
  Cu+  Cu62  1  0.82941554  0.41896266  0.84198763  1
  Cu+  Cu63  1  0.82822522  0.91653499  0.83573255  1
  Cu+  Cu64  1  0.07964433  0.17000589  0.83229221  1
  Cu+  Cu65  1  0.07912816  0.67137107  0.83672421  1
  Cu+  Cu66  1  0.58444114  0.16844000  0.84147151  1
  Cu+  Cu67  1  0.58165667  0.66951790  0.83785506  1
  Cu+  Cu68  1  0.08250964  0.41325078  0.83687404  1
  Cu+  Cu69  1  0.08305904  0.91355188  0.83438686  1
  Cu+  Cu70  1  0.58010403  0.41262542  0.84092577  1
  Cu+  Cu71  1  0.58238759  0.91289856  0.83759294  1
  Cu+  Cu72  1  0.17098973  0.08628244  0.67335622  1
  Cu+  Cu73  1  0.17001936  0.58795547  0.67367386  1
  Cu+  Cu74  1  0.66771977  0.08385155  0.67939928  1
  Cu+  Cu75  1  0.66832560  0.58378488  0.67640534  1
  Cu+  Cu76  1  0.41583134  0.33031783  0.68045096  1
  Cu+  Cu77  1  0.41688853  0.83352138  0.67198335  1
  Cu+  Cu78  1  0.91716381  0.33315923  0.68440084  1
  Cu+  Cu79  1  0.91636249  0.83128356  0.67320304  1
  Cu+  Cu80  1  0.41821976  0.08705007  0.67564863  1
  Cu+  Cu81  1  0.41495419  0.58579513  0.67001279  1
  Cu+  Cu82  1  0.91454621  0.08593369  0.67915947  1
  Cu+  Cu83  1  0.91641764  0.58744525  0.68026825  1
  Cu+  Cu84  1  -0.00120035  0.24883488  0.00881747  1
  Cu+  Cu85  1  0.00107684  0.75125651  0.00752633  1
  Cu+  Cu86  1  0.50104195  0.25108962  0.01600180  1
  Cu+  Cu87  1  0.50307635  0.75258278  0.01055979  1
  Cu+  Cu88  1  0.24515211  0.49396381  0.00920356  1
  Cu+  Cu89  1  0.24625221  0.99493421  0.00592989  1
  Cu+  Cu90  1  0.74910696  0.49886968  0.01605247  1
  Cu+  Cu91  1  0.74928306  0.99919503  0.00807691  1
  Cu+  Cu92  1  0.24589289  0.24753505  0.00573683  1
  Cu+  Cu93  1  0.24566238  0.75007887  0.00566994  1
  Cu+  Cu94  1  0.74974621  0.25290108  0.01935672  1
  Cu+  Cu95  1  0.75012752  0.75428959  0.00547706  1
  Cu+  Cu96  1  0.33711148  0.41590599  0.33850718  1
  Cu+  Cu97  1  0.33798994  0.91840480  0.33908475  1
  Cu+  Cu98  1  0.83437362  0.41609022  0.34620144  1
  Cu+  Cu99  1  0.83918254  0.91876407  0.34207622  1
  Cu+  Cu100  1  0.08469231  0.16194160  0.34227611  1
  Cu+  Cu101  1  0.08335915  0.66171953  0.34532554  1
  Cu+  Cu102  1  0.58558121  0.16798365  0.34489348  1
  Cu+  Cu103  1  0.58466036  0.66521012  0.33849209  1
  Cu+  Cu104  1  0.08290714  0.41504814  0.34792577  1
  Cu+  Cu105  1  0.08387219  0.91725594  0.34016196  1
  Cu+  Cu106  1  0.58475511  0.41829439  0.34263371  1
  Cu+  Cu107  1  0.58555132  0.92048054  0.34474331  1
  Cu+  Cu108  1  0.00036597  0.00014529  0.11324369  1
  Cu+  Cu109  1  0.00425726  0.50467502  0.11572878  1
  Cu+  Cu110  1  0.49528499  -0.00431355  0.11233998  1
  Cu+  Cu111  1  0.49922579  0.50069765  0.10836665  1
  Cu+  Cu112  1  0.33549854  0.16584201  0.44874743  1
  Cu+  Cu113  1  0.33685539  0.66537724  0.44263937  1
  Cu+  Cu114  1  0.83518755  0.16542571  0.45258814  1
  Cu+  Cu115  1  0.83281938  0.66899590  0.44850133  1
  Cu+  Cu116  1  0.16859534  0.33641276  0.77771208  1
  Cu+  Cu117  1  0.16999110  0.83763853  0.77874843  1
  Cu+  Cu118  1  0.66418064  0.33201757  0.78635765  1
  Cu+  Cu119  1  0.66469450  0.82922265  0.77930842  1
  Te2-  Te120  1  0.00261642  -0.00151636  0.38733904  1
  Te2-  Te121  1  -0.00151311  0.49670070  0.39138613  1
  Te2-  Te122  1  0.50079016  0.00248946  0.38658429  1
  Te2-  Te123  1  0.50140232  0.50097195  0.38230132  1
  Te2-  Te124  1  0.33263936  0.16421723  0.72328363  1
  Te2-  Te125  1  0.33485409  0.66904174  0.71564873  1
  Te2-  Te126  1  0.83086599  0.16699383  0.72678413  1
  Te2-  Te127  1  0.83169853  0.66927338  0.72263681  1
  Te2-  Te128  1  0.16319270  0.32786156  0.05278018  1
  Te2-  Te129  1  0.16493172  0.83194444  0.05194607  1
  Te2-  Te130  1  0.66597712  0.33442977  0.06238090  1
  Te2-  Te131  1  0.66940580  0.83570876  0.05400417  1
  Te2-  Te132  1  0.49277284  0.24410618  0.88781901  1
  Te2-  Te133  1  0.49266298  0.74696183  0.88400657  1
  Te2-  Te134  1  0.98701514  0.24381877  0.88321135  1
  Te2-  Te135  1  0.98784680  0.74812360  0.88237523  1
  Te2-  Te136  1  0.25005100  0.00276305  0.88019739  1
  Te2-  Te137  1  0.24987064  0.50095012  0.88192830  1
  Te2-  Te138  1  0.74935161  0.00765145  0.88270541  1
  Te2-  Te139  1  0.74845375  0.50646898  0.88786962  1
  Te2-  Te140  1  0.24619290  0.24074405  0.87998723  1
  Te2-  Te141  1  0.24755696  0.74393395  0.88013126  1
  Te2-  Te142  1  0.75101762  0.24787795  0.88990257  1
  Te2-  Te143  1  0.75126671  0.74938379  0.87965998  1
  Te2-  Te144  1  0.32769893  0.41143855  0.21259862  1
  Te2-  Te145  1  0.33419762  0.91512508  0.21284295  1
  Te2-  Te146  1  0.82509706  0.41195823  0.22010496  1
  Te2-  Te147  1  0.82898431  0.91401484  0.21651263  1
  Te2-  Te148  1  0.08792165  0.17233150  0.21661843  1
  Te2-  Te149  1  0.08637602  0.66598810  0.21734508  1
  Te2-  Te150  1  0.58959860  0.17754767  0.21879808  1
  Te2-  Te151  1  0.58910317  0.67283892  0.21253421  1
  Te2-  Te152  1  0.08564212  0.40825924  0.21998285  1
  Te2-  Te153  1  0.08760018  0.91316379  0.21470247  1
  Te2-  Te154  1  0.58891829  0.41190690  0.21662161  1
  Te2-  Te155  1  0.59272029  0.91637430  0.21739845  1
  Te2-  Te156  1  0.16501928  0.08249761  0.54774039  1
  Te2-  Te157  1  0.15486920  0.57821038  0.54829882  1
  Te2-  Te158  1  0.65838945  0.08248452  0.55309065  1
  Te2-  Te159  1  0.66123091  0.58039178  0.55050816  1
  Te2-  Te160  1  0.42230309  0.34145262  0.55365538  1
  Te2-  Te161  1  0.41581808  0.84193343  0.54627565  1
  Te2-  Te162  1  0.91824377  0.34071501  0.55597242  1
  Te2-  Te163  1  0.91981129  0.83618491  0.54737554  1
  Te2-  Te164  1  0.42205682  0.08327443  0.54986935  1
  Te2-  Te165  1  0.41823249  0.58439195  0.54383779  1
  Te2-  Te166  1  0.91513965  0.08149658  0.55178963  1
  Te2-  Te167  1  0.91818235  0.57677018  0.55315018  1
  Te2-  Te168  1  -0.00039893  0.00029236  0.87916170  1
  Te2-  Te169  1  0.00202497  0.50197279  0.88423992  1
  Te2-  Te170  1  0.49797522  -0.00235317  0.88293573  1
  Te2-  Te171  1  0.49751629  0.50080744  0.88278555  1
  Te2-  Te172  1  0.33406440  0.16774365  0.21358257  1
  Te2-  Te173  1  0.33541280  0.66715880  0.21541059  1
  Te2-  Te174  1  0.83486662  0.16562293  0.21599710  1
  Te2-  Te175  1  0.83334314  0.66773825  0.21460240  1
  Te2-  Te176  1  0.17002491  0.33472758  0.54941041  1
  Te2-  Te177  1  0.16877796  0.83367665  0.54650241  1
  Te2-  Te178  1  0.66784609  0.33531807  0.55093062  1
  Te2-  Te179  1  0.66504754  0.83137777  0.54912562  1
  Te2-  Te180  1  0.32792126  0.41649158  0.70891096  1
  Te2-  Te181  1  0.33021768  0.91607329  0.71074592  1
  Te2-  Te182  1  0.82577894  0.41505078  0.71390449  1
  Te2-  Te183  1  0.82622335  0.91219215  0.70816222  1
  Te2-  Te184  1  0.08827987  0.17450503  0.70652604  1
  Te2-  Te185  1  0.08880501  0.67550519  0.71025363  1
  Te2-  Te186  1  0.58703055  0.17332129  0.71505367  1
  Te2-  Te187  1  0.58343453  0.66978775  0.71072393  1
  Te2-  Te188  1  0.09002211  0.41901221  0.71040643  1
  Te2-  Te189  1  0.08652243  0.91549224  0.70848225  1
  Te2-  Te190  1  0.58805213  0.41459833  0.71386913  1
  Te2-  Te191  1  0.58528446  0.91311151  0.71163895  1
  Te2-  Te192  1  0.16020154  0.07851108  0.04374879  1
  Te2-  Te193  1  0.16064933  0.58075558  0.04436099  1
  Te2-  Te194  1  0.65930810  0.07877349  0.04387259  1
  Te2-  Te195  1  0.66039502  0.58408605  0.04063857  1
  Te2-  Te196  1  0.41601497  0.33961808  0.03987156  1
  Te2-  Te197  1  0.41593556  0.83751288  0.04256771  1
  Te2-  Te198  1  0.92286609  0.34159541  0.04533410  1
  Te2-  Te199  1  0.91918581  0.83935282  0.04397695  1
  Te2-  Te200  1  0.41664711  0.07730401  0.04203569  1
  Te2-  Te201  1  0.41843448  0.57904670  0.03941379  1
  Te2-  Te202  1  0.91864953  0.07954133  0.04501224  1
  Te2-  Te203  1  0.92183438  0.58204769  0.04455252  1
  Te2-  Te204  1  0.49645213  0.24901884  0.38026378  1
  Te2-  Te205  1  0.49639036  0.74709515  0.37376075  1
  Te2-  Te206  1  0.99548642  0.24312495  0.38050884  1
  Te2-  Te207  1  0.99506780  0.74660431  0.37626125  1
  Te2-  Te208  1  0.25450684  0.00464306  0.37684310  1
  Te2-  Te209  1  0.25623836  0.50467251  0.37454455  1
  Te2-  Te210  1  0.75702442  0.00682966  0.37928716  1
  Te2-  Te211  1  0.75425261  0.50655235  0.37987684  1
  Te2-  Te212  1  0.25514503  0.24753142  0.37886505  1
  Te2-  Te213  1  0.25700044  0.74788386  0.37281178  1
  Te2-  Te214  1  0.75458750  0.24683741  0.38204622  1
  Te2-  Te215  1  0.75322309  0.74856950  0.37849872  1
