# generated using pymatgen
data_Ti(CuTe)4
_symmetry_space_group_name_H-M   'P 1'
_cell_length_a   16.84595374
_cell_length_b   16.84374392
_cell_length_c   20.64709697
_cell_angle_alpha   89.98990250
_cell_angle_beta   89.98898624
_cell_angle_gamma   119.99573666
_symmetry_Int_Tables_number   1
_chemical_formula_structural   Ti(CuTe)4
_chemical_formula_sum   'Ti24 Cu96 Te96'
_cell_volume   5073.90684023
_cell_formula_units_Z   24
loop_
 _symmetry_equiv_pos_site_id
 _symmetry_equiv_pos_as_xyz
  1  'x, y, z'
loop_
 _atom_type_symbol
 _atom_type_oxidation_number
  Ti4+  4.0
  Cu+  1.0
  Te2-  -2.0
loop_
 _atom_site_type_symbol
 _atom_site_label
 _atom_site_symmetry_multiplicity
 _atom_site_fract_x
 _atom_site_fract_y
 _atom_site_fract_z
 _atom_site_occupancy
  Ti4+  Ti0  1  0.00379190  0.00241773  0.25677713  1
  Ti4+  Ti1  1  -0.00484429  0.49819813  0.25735613  1
  Ti4+  Ti2  1  0.50038233  -0.00087551  0.25648672  1
  Ti4+  Ti3  1  0.50036011  0.50118500  0.25779472  1
  Ti4+  Ti4  1  0.33397376  0.16952007  0.59193202  1
  Ti4+  Ti5  1  0.33437320  0.66711889  0.58866961  1
  Ti4+  Ti6  1  0.83062498  0.16645425  0.59372638  1
  Ti4+  Ti7  1  0.83372946  0.66897710  0.59300512  1
  Ti4+  Ti8  1  0.16587487  0.33324297  0.92644991  1
  Ti4+  Ti9  1  0.16910123  0.83681586  0.92295967  1
  Ti4+  Ti10  1  0.66718531  0.33034608  0.92239683  1
  Ti4+  Ti11  1  0.66775116  0.82975338  0.92379022  1
  Ti4+  Ti12  1  -0.00090052  -0.00038478  0.75465420  1
  Ti4+  Ti13  1  -0.00114086  0.49746857  0.75517338  1
  Ti4+  Ti14  1  0.49855462  0.00129342  0.75651252  1
  Ti4+  Ti15  1  0.50038818  0.50090652  0.75690750  1
  Ti4+  Ti16  1  0.33087455  0.16443042  0.08841091  1
  Ti4+  Ti17  1  0.33645647  0.66709713  0.08817824  1
  Ti4+  Ti18  1  0.83260658  0.16740848  0.08837702  1
  Ti4+  Ti19  1  0.83297415  0.66517331  0.08927572  1
  Ti4+  Ti20  1  0.16876633  0.33401239  0.42373075  1
  Ti4+  Ti21  1  0.16581742  0.83275125  0.42300274  1
  Ti4+  Ti22  1  0.66543159  0.33217675  0.42464731  1
  Ti4+  Ti23  1  0.66549069  0.83463943  0.42346689  1
  Cu+  Cu24  1  0.01426403  0.26348904  0.14476677  1
  Cu+  Cu25  1  0.90969725  0.30959518  0.81030157  1
  Cu+  Cu26  1  0.24375676  0.26228516  0.14339140  1
  Cu+  Cu27  1  0.36331031  0.43127459  0.47283970  1
  Cu+  Cu28  1  0.68634688  0.58885557  0.80848469  1
  Cu+  Cu29  1  0.68099572  0.08503276  0.81244839  1
  Cu+  Cu30  1  0.73609095  0.26058340  0.14182491  1
  Cu+  Cu31  1  0.23676004  0.97313692  0.13964954  1
  Cu+  Cu32  1  0.52982188  0.76441863  0.14071111  1
  Cu+  Cu33  1  0.91464290  0.81590346  0.80886080  1
  Cu+  Cu34  1  0.40343579  0.09884922  0.80584503  1
  Cu+  Cu35  1  0.56955787  0.93302639  0.47438121  1
  Cu+  Cu36  1  0.16353242  0.08111801  0.16818224  1
  Cu+  Cu37  1  0.16469331  0.58418767  0.16935695  1
  Cu+  Cu38  1  0.66169846  0.08422825  0.16881173  1
  Cu+  Cu39  1  0.66446423  0.58128449  0.17134993  1
  Cu+  Cu40  1  0.41681618  0.33705357  0.17121351  1
  Cu+  Cu41  1  0.42428248  0.83455591  0.16896849  1
  Cu+  Cu42  1  0.91381823  0.33917697  0.16901758  1
  Cu+  Cu43  1  0.91834800  0.83517295  0.17127378  1
  Cu+  Cu44  1  0.41326821  0.07635976  0.16809540  1
  Cu+  Cu45  1  0.42392345  0.58712826  0.16999406  1
  Cu+  Cu46  1  0.92215198  0.08609418  0.16931256  1
  Cu+  Cu47  1  0.91611856  0.58113409  0.17078039  1
  Cu+  Cu48  1  0.49727304  0.24764437  0.50624667  1
  Cu+  Cu49  1  0.49595641  0.75409162  0.50177326  1
  Cu+  Cu50  1  0.99752143  0.25120435  0.50751406  1
  Cu+  Cu51  1  0.99732593  0.75224018  0.50694161  1
  Cu+  Cu52  1  0.25111613  0.00177094  0.50651733  1
  Cu+  Cu53  1  0.25676187  0.50157396  0.50350249  1
  Cu+  Cu54  1  0.74458702  0.00213118  0.50642533  1
  Cu+  Cu55  1  0.74811607  0.50182786  0.50788266  1
  Cu+  Cu56  1  0.25789429  0.25541322  0.50505582  1
  Cu+  Cu57  1  0.24896294  0.74726076  0.50325901  1
  Cu+  Cu58  1  0.75134287  0.24889838  0.50753893  1
  Cu+  Cu59  1  0.75292023  0.75035741  0.50756524  1
  Cu+  Cu60  1  0.33019801  0.41359533  0.83960202  1
  Cu+  Cu61  1  0.33079102  0.92267946  0.83646914  1
  Cu+  Cu62  1  0.83144454  0.40838774  0.83498842  1
  Cu+  Cu63  1  0.83068235  0.90849110  0.83420870  1
  Cu+  Cu64  1  0.08562714  0.16997087  0.83831082  1
  Cu+  Cu65  1  0.08673945  0.66870966  0.83533997  1
  Cu+  Cu66  1  0.58413478  0.16783942  0.83602553  1
  Cu+  Cu67  1  0.58763975  0.66716387  0.83769944  1
  Cu+  Cu68  1  0.08197333  0.41241565  0.83892592  1
  Cu+  Cu69  1  0.08714577  0.91614762  0.83601125  1
  Cu+  Cu70  1  0.58651135  0.41676784  0.83724873  1
  Cu+  Cu71  1  0.58415229  0.91159001  0.83853158  1
  Cu+  Cu72  1  0.16720075  0.08728875  0.67305802  1
  Cu+  Cu73  1  0.16966785  0.58326632  0.67141147  1
  Cu+  Cu74  1  0.66690478  0.08357352  0.68239456  1
  Cu+  Cu75  1  0.67016880  0.58766377  0.67999487  1
  Cu+  Cu76  1  0.41518097  0.33405380  0.67606850  1
  Cu+  Cu77  1  0.41387894  0.83141673  0.67376245  1
  Cu+  Cu78  1  0.91336788  0.32870270  0.68088273  1
  Cu+  Cu79  1  0.91528715  0.83113329  0.67999074  1
  Cu+  Cu80  1  0.41137215  0.08640088  0.67901906  1
  Cu+  Cu81  1  0.41388365  0.58326322  0.67317797  1
  Cu+  Cu82  1  0.91632987  0.08522249  0.67477464  1
  Cu+  Cu83  1  0.91700726  0.58420432  0.67369041  1
  Cu+  Cu84  1  0.00183844  0.25071519  0.01480676  1
  Cu+  Cu85  1  0.00128734  0.75098894  0.00754243  1
  Cu+  Cu86  1  0.50068976  0.24949608  0.00750956  1
  Cu+  Cu87  1  0.50587443  0.74960784  0.01127127  1
  Cu+  Cu88  1  0.24923662  0.49934765  0.00769321  1
  Cu+  Cu89  1  0.24901683  0.99654560  0.01189202  1
  Cu+  Cu90  1  0.74992044  0.49641829  0.00673209  1
  Cu+  Cu91  1  0.74880946  0.99713194  0.00717302  1
  Cu+  Cu92  1  0.24731467  0.25139298  0.01375653  1
  Cu+  Cu93  1  0.25153111  0.75265321  0.00503100  1
  Cu+  Cu94  1  0.74586496  0.24728459  0.01329298  1
  Cu+  Cu95  1  0.74864548  0.74635765  0.00975571  1
  Cu+  Cu96  1  0.33740224  0.41903538  0.34493908  1
  Cu+  Cu97  1  0.33412530  0.91512473  0.34076198  1
  Cu+  Cu98  1  0.83211716  0.41497931  0.34318356  1
  Cu+  Cu99  1  0.83743599  0.91824060  0.34104329  1
  Cu+  Cu100  1  0.08365841  0.16615192  0.34372846  1
  Cu+  Cu101  1  0.07811714  0.66266357  0.34073566  1
  Cu+  Cu102  1  0.58390548  0.16615695  0.34187888  1
  Cu+  Cu103  1  0.58511171  0.66762941  0.34316082  1
  Cu+  Cu104  1  0.07819044  0.41473747  0.34175492  1
  Cu+  Cu105  1  0.08483380  0.91880047  0.34158202  1
  Cu+  Cu106  1  0.58049729  0.41506202  0.34257016  1
  Cu+  Cu107  1  0.58251575  0.91913069  0.34561552  1
  Cu+  Cu108  1  -0.00427489  -0.00451878  0.11239141  1
  Cu+  Cu109  1  0.00409198  0.50646198  0.11212012  1
  Cu+  Cu110  1  0.49681843  -0.00348805  0.11138289  1
  Cu+  Cu111  1  0.50225700  0.50016490  0.11352064  1
  Cu+  Cu112  1  0.33132102  0.16273334  0.44959836  1
  Cu+  Cu113  1  0.32806717  0.66415084  0.44447831  1
  Cu+  Cu114  1  0.83534471  0.16629196  0.45155462  1
  Cu+  Cu115  1  0.83439800  0.66400038  0.45168377  1
  Cu+  Cu116  1  0.16861519  0.33631872  0.78299702  1
  Cu+  Cu117  1  0.16591239  0.83034026  0.77851814  1
  Cu+  Cu118  1  0.66582574  0.33440027  0.77801390  1
  Cu+  Cu119  1  0.66449641  0.83256074  0.77925640  1
  Te2-  Te120  1  0.00181599  0.00047746  0.38543349  1
  Te2-  Te121  1  -0.00256998  0.49867171  0.38624965  1
  Te2-  Te122  1  0.49762647  0.00202440  0.38695356  1
  Te2-  Te123  1  0.50533756  0.50345564  0.38821783  1
  Te2-  Te124  1  0.32900153  0.17086668  0.72320452  1
  Te2-  Te125  1  0.33292364  0.66682611  0.71784492  1
  Te2-  Te126  1  0.83330395  0.16291089  0.72657270  1
  Te2-  Te127  1  0.83664861  0.66498343  0.72610870  1
  Te2-  Te128  1  0.16817791  0.33822611  0.05921041  1
  Te2-  Te129  1  0.16520482  0.82865104  0.05356321  1
  Te2-  Te130  1  0.66401756  0.33330471  0.05292663  1
  Te2-  Te131  1  0.67256606  0.83431848  0.05438749  1
  Te2-  Te132  1  0.49451725  0.24921146  0.88168142  1
  Te2-  Te133  1  0.49607989  0.74420447  0.88372914  1
  Te2-  Te134  1  0.99185863  0.24238004  0.88732773  1
  Te2-  Te135  1  0.99598088  0.74455540  0.88183913  1
  Te2-  Te136  1  0.25198797  0.01168688  0.88458432  1
  Te2-  Te137  1  0.25014972  0.50339690  0.88158140  1
  Te2-  Te138  1  0.75684034  0.00203647  0.88166561  1
  Te2-  Te139  1  0.75782013  0.50277126  0.88118066  1
  Te2-  Te140  1  0.25172608  0.24693673  0.88696424  1
  Te2-  Te141  1  0.25577343  0.75298316  0.87905939  1
  Te2-  Te142  1  0.75381581  0.24024217  0.88543282  1
  Te2-  Te143  1  0.75667101  0.74175274  0.88394768  1
  Te2-  Te144  1  0.32741899  0.41846241  0.21743165  1
  Te2-  Te145  1  0.32792872  0.90766999  0.21409904  1
  Te2-  Te146  1  0.82068426  0.41317975  0.21680199  1
  Te2-  Te147  1  0.83268709  0.91882621  0.21507669  1
  Te2-  Te148  1  0.09087170  0.17941553  0.21704745  1
  Te2-  Te149  1  0.08349120  0.66992789  0.21512278  1
  Te2-  Te150  1  0.58079243  0.17244857  0.21539465  1
  Te2-  Te151  1  0.59198801  0.67566897  0.21730068  1
  Te2-  Te152  1  0.08569855  0.41577615  0.21562412  1
  Te2-  Te153  1  0.08709716  0.91220044  0.21567141  1
  Te2-  Te154  1  0.58339081  0.41253947  0.21622058  1
  Te2-  Te155  1  0.59293531  0.91788653  0.21756927  1
  Te2-  Te156  1  0.16402030  0.08602245  0.54709051  1
  Te2-  Te157  1  0.16318876  0.57773493  0.54568545  1
  Te2-  Te158  1  0.65600083  0.08147703  0.55469891  1
  Te2-  Te159  1  0.66150437  0.58307090  0.55338622  1
  Te2-  Te160  1  0.42610857  0.34431251  0.55070655  1
  Te2-  Te161  1  0.41624852  0.84238922  0.54847150  1
  Te2-  Te162  1  0.91856784  0.33878055  0.55420308  1
  Te2-  Te163  1  0.91998216  0.84167322  0.55350127  1
  Te2-  Te164  1  0.41838784  0.08111022  0.55316602  1
  Te2-  Te165  1  0.42678171  0.58551488  0.54732052  1
  Te2-  Te166  1  0.91468298  0.08084316  0.54864815  1
  Te2-  Te167  1  0.91801482  0.58277995  0.54808319  1
  Te2-  Te168  1  -0.00044067  -0.00079669  0.88203456  1
  Te2-  Te169  1  0.00062165  0.50101813  0.88253952  1
  Te2-  Te170  1  0.50018685  -0.00170050  0.88426163  1
  Te2-  Te171  1  0.49885373  0.49799105  0.88426435  1
  Te2-  Te172  1  0.33317860  0.16565366  0.21607389  1
  Te2-  Te173  1  0.33283390  0.66593818  0.21528861  1
  Te2-  Te174  1  0.83279779  0.16743188  0.21594925  1
  Te2-  Te175  1  0.83300397  0.66665199  0.21577927  1
  Te2-  Te176  1  0.16672402  0.33350486  0.55080356  1
  Te2-  Te177  1  0.16627976  0.83276227  0.54950964  1
  Te2-  Te178  1  0.66601440  0.33323485  0.55104297  1
  Te2-  Te179  1  0.66459671  0.83276763  0.55044581  1
  Te2-  Te180  1  0.32794590  0.41532819  0.71277870  1
  Te2-  Te181  1  0.32637170  0.91346597  0.70976172  1
  Te2-  Te182  1  0.82569823  0.41430186  0.70843134  1
  Te2-  Te183  1  0.82532277  0.91475218  0.70808473  1
  Te2-  Te184  1  0.08521754  0.17370101  0.71203261  1
  Te2-  Te185  1  0.08642335  0.66933684  0.70900182  1
  Te2-  Te186  1  0.58466816  0.17487752  0.70897049  1
  Te2-  Te187  1  0.58317581  0.67310557  0.71056052  1
  Te2-  Te188  1  0.08739501  0.41348392  0.71073098  1
  Te2-  Te189  1  0.08943727  0.91687816  0.70877441  1
  Te2-  Te190  1  0.58548318  0.41397213  0.70967026  1
  Te2-  Te191  1  0.58178306  0.91080230  0.71129693  1
  Te2-  Te192  1  0.15684504  0.07783832  0.04126306  1
  Te2-  Te193  1  0.16389153  0.58353703  0.04261973  1
  Te2-  Te194  1  0.65835654  0.07487263  0.04228058  1
  Te2-  Te195  1  0.66092579  0.57681193  0.04400318  1
  Te2-  Te196  1  0.42049717  0.33851241  0.04397249  1
  Te2-  Te197  1  0.42103371  0.83878607  0.04118653  1
  Te2-  Te198  1  0.91952659  0.34214408  0.04188054  1
  Te2-  Te199  1  0.91891587  0.83723415  0.04386862  1
  Te2-  Te200  1  0.42134149  0.08091282  0.04173904  1
  Te2-  Te201  1  0.41934491  0.57695603  0.04270430  1
  Te2-  Te202  1  0.91742944  0.07770326  0.04257706  1
  Te2-  Te203  1  0.91940137  0.58040488  0.04309553  1
  Te2-  Te204  1  0.49337215  0.24552832  0.37922478  1
  Te2-  Te205  1  0.49288029  0.74590318  0.37546571  1
  Te2-  Te206  1  0.99541594  0.24726705  0.38060799  1
  Te2-  Te207  1  0.99405748  0.74838756  0.37920213  1
  Te2-  Te208  1  0.25423371  0.00475945  0.37869575  1
  Te2-  Te209  1  0.24970847  0.50490002  0.37557079  1
  Te2-  Te210  1  0.75557562  0.00713526  0.37850383  1
  Te2-  Te211  1  0.75042322  0.50404115  0.38023748  1
  Te2-  Te212  1  0.25405851  0.24645309  0.37774994  1
  Te2-  Te213  1  0.24915901  0.74522369  0.37607434  1
  Te2-  Te214  1  0.75207200  0.24570820  0.38085392  1
  Te2-  Te215  1  0.75421278  0.74972827  0.38094749  1
