# generated using pymatgen
data_Ti(CuTe)4
_symmetry_space_group_name_H-M   'P 1'
_cell_length_a   16.89181498
_cell_length_b   16.88805772
_cell_length_c   20.70836543
_cell_angle_alpha   89.99639032
_cell_angle_beta   89.95824738
_cell_angle_gamma   120.00365386
_symmetry_Int_Tables_number   1
_chemical_formula_structural   Ti(CuTe)4
_chemical_formula_sum   'Ti24 Cu96 Te96'
_cell_volume   5115.83245562
_cell_formula_units_Z   24
loop_
 _symmetry_equiv_pos_site_id
 _symmetry_equiv_pos_as_xyz
  1  'x, y, z'
loop_
 _atom_type_symbol
 _atom_type_oxidation_number
  Ti4+  4.0
  Cu+  1.0
  Te2-  -2.0
loop_
 _atom_site_type_symbol
 _atom_site_label
 _atom_site_symmetry_multiplicity
 _atom_site_fract_x
 _atom_site_fract_y
 _atom_site_fract_z
 _atom_site_occupancy
  Ti4+  Ti0  1  0.00087829  0.00087029  0.25938938  1
  Ti4+  Ti1  1  -0.00239796  0.49508479  0.25768607  1
  Ti4+  Ti2  1  0.49875737  -0.00284117  0.26013000  1
  Ti4+  Ti3  1  0.50085576  0.49759727  0.25734349  1
  Ti4+  Ti4  1  0.33445560  0.16698721  0.59091255  1
  Ti4+  Ti5  1  0.32999597  0.66712963  0.59494489  1
  Ti4+  Ti6  1  0.83462770  0.17028221  0.59057625  1
  Ti4+  Ti7  1  0.83498393  0.67188688  0.58897595  1
  Ti4+  Ti8  1  0.16904678  0.33323181  0.92468593  1
  Ti4+  Ti9  1  0.16665660  0.83237627  0.92486134  1
  Ti4+  Ti10  1  0.66684535  0.33343908  0.92153444  1
  Ti4+  Ti11  1  0.66768967  0.83462990  0.92125109  1
  Ti4+  Ti12  1  -0.00081895  0.00105067  0.75545109  1
  Ti4+  Ti13  1  -0.00061486  0.50227310  0.75506380  1
  Ti4+  Ti14  1  0.50142422  0.00166904  0.75377247  1
  Ti4+  Ti15  1  0.49995956  0.49903104  0.75239701  1
  Ti4+  Ti16  1  0.33321833  0.16552619  0.08912724  1
  Ti4+  Ti17  1  0.33392794  0.66704502  0.08958375  1
  Ti4+  Ti18  1  0.83559414  0.16770583  0.08995726  1
  Ti4+  Ti19  1  0.83040204  0.66390750  0.08950208  1
  Ti4+  Ti20  1  0.16423947  0.33326680  0.42424954  1
  Ti4+  Ti21  1  0.16697068  0.83260285  0.42087176  1
  Ti4+  Ti22  1  0.66525953  0.33215339  0.42239595  1
  Ti4+  Ti23  1  0.66654667  0.83163150  0.42283566  1
  Cu+  Cu24  1  0.02637453  0.26091775  0.14187280  1
  Cu+  Cu25  1  0.35390800  0.92601147  0.47628329  1
  Cu+  Cu26  1  0.17663439  0.58834985  0.81534709  1
  Cu+  Cu27  1  0.69251174  0.09765304  0.80513220  1
  Cu+  Cu28  1  0.07088013  0.43154193  0.47540967  1
  Cu+  Cu29  1  0.68903895  0.59316024  0.80313871  1
  Cu+  Cu30  1  0.40622974  0.31137651  0.80660286  1
  Cu+  Cu31  1  0.73591781  0.47130363  0.13965642  1
  Cu+  Cu32  1  0.85266327  0.93251109  0.47428837  1
  Cu+  Cu33  1  0.41339028  0.82715332  0.81579208  1
  Cu+  Cu34  1  0.08157661  0.92989665  0.47430596  1
  Cu+  Cu35  1  0.41435343  0.58512574  0.81602604  1
  Cu+  Cu36  1  0.16349621  0.07947724  0.17181400  1
  Cu+  Cu37  1  0.16422453  0.57870492  0.17189183  1
  Cu+  Cu38  1  0.66285293  0.07964103  0.17364054  1
  Cu+  Cu39  1  0.66259137  0.57453598  0.17045770  1
  Cu+  Cu40  1  0.41818782  0.33529854  0.17061611  1
  Cu+  Cu41  1  0.41728775  0.83562694  0.17370577  1
  Cu+  Cu42  1  0.92388118  0.33488719  0.17059670  1
  Cu+  Cu43  1  0.91597483  0.83522741  0.17390765  1
  Cu+  Cu44  1  0.41606914  0.07884944  0.17332464  1
  Cu+  Cu45  1  0.41952921  0.58221520  0.17221983  1
  Cu+  Cu46  1  0.92229028  0.08592385  0.17287719  1
  Cu+  Cu47  1  0.90957325  0.57418663  0.17146714  1
  Cu+  Cu48  1  0.49686580  0.25022415  0.50463497  1
  Cu+  Cu49  1  0.49536167  0.74741755  0.50695079  1
  Cu+  Cu50  1  0.99616963  0.25552397  0.50379448  1
  Cu+  Cu51  1  0.99608393  0.75425214  0.50043533  1
  Cu+  Cu52  1  0.25468562  0.00448333  0.50282573  1
  Cu+  Cu53  1  0.24365249  0.50184961  0.50762614  1
  Cu+  Cu54  1  0.75319572  0.00319511  0.50567204  1
  Cu+  Cu55  1  0.75089378  0.50361918  0.50462583  1
  Cu+  Cu56  1  0.25214832  0.25084939  0.50587816  1
  Cu+  Cu57  1  0.25416992  0.75036502  0.50444685  1
  Cu+  Cu58  1  0.74995168  0.24906604  0.50480887  1
  Cu+  Cu59  1  0.75641990  0.75483727  0.50264709  1
  Cu+  Cu60  1  0.32707951  0.40895100  0.83390018  1
  Cu+  Cu61  1  0.32679639  0.91321489  0.83630333  1
  Cu+  Cu62  1  0.82847143  0.41682231  0.83511244  1
  Cu+  Cu63  1  0.82933535  0.91603658  0.83508291  1
  Cu+  Cu64  1  0.08412507  0.16880828  0.83835880  1
  Cu+  Cu65  1  0.08660178  0.67159505  0.83704810  1
  Cu+  Cu66  1  0.59007690  0.17071891  0.83409204  1
  Cu+  Cu67  1  0.58953716  0.67073663  0.83213743  1
  Cu+  Cu68  1  0.08392339  0.41542207  0.83796258  1
  Cu+  Cu69  1  0.08384516  0.91583600  0.83946469  1
  Cu+  Cu70  1  0.58522400  0.41484391  0.83286802  1
  Cu+  Cu71  1  0.58919295  0.91987298  0.83312976  1
  Cu+  Cu72  1  0.16911947  0.08530684  0.67561804  1
  Cu+  Cu73  1  0.16722491  0.58612524  0.68243704  1
  Cu+  Cu74  1  0.67224772  0.08766857  0.67690183  1
  Cu+  Cu75  1  0.67131423  0.58757626  0.67443444  1
  Cu+  Cu76  1  0.41534192  0.32945933  0.67805046  1
  Cu+  Cu77  1  0.41408864  0.83204234  0.68274502  1
  Cu+  Cu78  1  0.91492162  0.33494956  0.67521581  1
  Cu+  Cu79  1  0.91613610  0.83560911  0.67506008  1
  Cu+  Cu80  1  0.41602406  0.08464684  0.67408312  1
  Cu+  Cu81  1  0.41161528  0.58318931  0.68167444  1
  Cu+  Cu82  1  0.91638131  0.08658774  0.67441203  1
  Cu+  Cu83  1  0.91464689  0.58718078  0.67215366  1
  Cu+  Cu84  1  0.00560255  0.25247028  0.01326052  1
  Cu+  Cu85  1  0.00232360  0.75145146  0.00848637  1
  Cu+  Cu86  1  0.50024447  0.24882134  0.00625926  1
  Cu+  Cu87  1  0.50233969  0.75321692  0.00766245  1
  Cu+  Cu88  1  0.25094236  0.49949728  0.00965731  1
  Cu+  Cu89  1  0.24839188  0.99563927  0.00865424  1
  Cu+  Cu90  1  0.74581142  0.49660960  0.01092609  1
  Cu+  Cu91  1  0.74986051  1.00027436  0.00789766  1
  Cu+  Cu92  1  0.25011300  0.24886389  0.00920412  1
  Cu+  Cu93  1  0.24948691  0.75104917  0.01129260  1
  Cu+  Cu94  1  0.75083521  0.25009496  0.00800080  1
  Cu+  Cu95  1  0.74834361  0.75054562  0.00686316  1
  Cu+  Cu96  1  0.33692691  0.41850250  0.34125299  1
  Cu+  Cu97  1  0.33626170  0.91492599  0.34686621  1
  Cu+  Cu98  1  0.83236927  0.41344516  0.34123616  1
  Cu+  Cu99  1  0.83655723  0.91730469  0.34583985  1
  Cu+  Cu100  1  0.08321070  0.16593977  0.34356380  1
  Cu+  Cu101  1  0.08162569  0.66108238  0.33966790  1
  Cu+  Cu102  1  0.57821205  0.16067959  0.34318325  1
  Cu+  Cu103  1  0.58098427  0.66104150  0.34055301  1
  Cu+  Cu104  1  0.08091803  0.41636592  0.34730675  1
  Cu+  Cu105  1  0.08124573  0.91630519  0.34546683  1
  Cu+  Cu106  1  0.58178600  0.41593106  0.34130352  1
  Cu+  Cu107  1  0.57881184  0.91292824  0.34280579  1
  Cu+  Cu108  1  -0.00210211  -0.00384525  0.11655246  1
  Cu+  Cu109  1  0.00180487  0.50415050  0.11527470  1
  Cu+  Cu110  1  0.50138100  0.00114925  0.11759220  1
  Cu+  Cu111  1  0.49721200  0.49953842  0.11426296  1
  Cu+  Cu112  1  0.33299513  0.17026917  0.44743499  1
  Cu+  Cu113  1  0.33495463  0.66373270  0.45073251  1
  Cu+  Cu114  1  0.82934763  0.16447253  0.44773226  1
  Cu+  Cu115  1  0.83072728  0.66275233  0.44548166  1
  Cu+  Cu116  1  0.16003515  0.33016461  0.78068092  1
  Cu+  Cu117  1  0.16258751  0.83554122  0.78119138  1
  Cu+  Cu118  1  0.66735456  0.33357260  0.77563044  1
  Cu+  Cu119  1  0.66681817  0.83338260  0.77530234  1
  Te2-  Te120  1  0.00237024  0.00294312  0.39138032  1
  Te2-  Te121  1  -0.00390721  0.49903179  0.38811179  1
  Te2-  Te122  1  0.50153569  -0.00197590  0.39142217  1
  Te2-  Te123  1  0.50026422  0.49806278  0.38664861  1
  Te2-  Te124  1  0.33252557  0.16358520  0.72166958  1
  Te2-  Te125  1  0.33194830  0.66727588  0.72784942  1
  Te2-  Te126  1  0.83808096  0.17143443  0.72105515  1
  Te2-  Te127  1  0.83637704  0.67125595  0.71962236  1
  Te2-  Te128  1  0.17245351  0.33525185  0.05477761  1
  Te2-  Te129  1  0.16574025  0.83202261  0.05368243  1
  Te2-  Te130  1  0.66460685  0.32898956  0.05140436  1
  Te2-  Te131  1  0.66761786  0.83474544  0.04964559  1
  Te2-  Te132  1  0.49466439  0.24402849  0.87988074  1
  Te2-  Te133  1  0.49275688  0.74663640  0.88115017  1
  Te2-  Te134  1  0.99828014  0.24965743  0.88539514  1
  Te2-  Te135  1  0.99587411  0.74710445  0.88252051  1
  Te2-  Te136  1  0.25236662  0.00358061  0.88281487  1
  Te2-  Te137  1  0.25615528  0.50853623  0.88350541  1
  Te2-  Te138  1  0.75560501  0.00852620  0.88178573  1
  Te2-  Te139  1  0.75311243  0.50725193  0.88307828  1
  Te2-  Te140  1  0.25192327  0.24297095  0.88304011  1
  Te2-  Te141  1  0.25627240  0.74434896  0.88529537  1
  Te2-  Te142  1  0.75778060  0.25027615  0.88186342  1
  Te2-  Te143  1  0.75534623  0.74870605  0.88056473  1
  Te2-  Te144  1  0.32924660  0.41379628  0.21549971  1
  Te2-  Te145  1  0.32686629  0.91182160  0.21987658  1
  Te2-  Te146  1  0.82479278  0.40439788  0.21536739  1
  Te2-  Te147  1  0.83030195  0.91751254  0.21860343  1
  Te2-  Te148  1  0.09160420  0.17444024  0.21776840  1
  Te2-  Te149  1  0.08034755  0.66456276  0.21358754  1
  Te2-  Te150  1  0.58376457  0.16846341  0.21741683  1
  Te2-  Te151  1  0.58806813  0.66876811  0.21482268  1
  Te2-  Te152  1  0.09017253  0.41295517  0.21991455  1
  Te2-  Te153  1  0.08395658  0.91289497  0.21854339  1
  Te2-  Te154  1  0.58472095  0.40625159  0.21591397  1
  Te2-  Te155  1  0.58488452  0.91167554  0.21741911  1
  Te2-  Te156  1  0.16187058  0.08267202  0.54960388  1
  Te2-  Te157  1  0.15717384  0.58451673  0.55397285  1
  Te2-  Te158  1  0.66382086  0.08169034  0.55003188  1
  Te2-  Te159  1  0.66458331  0.58638412  0.54756266  1
  Te2-  Te160  1  0.41905577  0.33869848  0.55124081  1
  Te2-  Te161  1  0.42096229  0.84026982  0.55404101  1
  Te2-  Te162  1  0.91697905  0.34439387  0.54980499  1
  Te2-  Te163  1  0.92429054  0.84918607  0.54940043  1
  Te2-  Te164  1  0.42308125  0.08234395  0.54877333  1
  Te2-  Te165  1  0.41225725  0.57992007  0.55305904  1
  Te2-  Te166  1  0.92457329  0.08744999  0.54884794  1
  Te2-  Te167  1  0.92050492  0.58702884  0.54640769  1
  Te2-  Te168  1  -0.00192067  -0.00055566  0.88158227  1
  Te2-  Te169  1  -0.00199799  0.50044716  0.88218126  1
  Te2-  Te170  1  0.49928733  0.00065407  0.88144797  1
  Te2-  Te171  1  0.49937420  0.49928215  0.88104936  1
  Te2-  Te172  1  0.33297507  0.16564588  0.21525828  1
  Te2-  Te173  1  0.33338788  0.66520858  0.21573033  1
  Te2-  Te174  1  0.83234053  0.16558248  0.21674233  1
  Te2-  Te175  1  0.83145509  0.66521201  0.21628220  1
  Te2-  Te176  1  0.16483319  0.33250172  0.55110233  1
  Te2-  Te177  1  0.16569890  0.83344749  0.54835851  1
  Te2-  Te178  1  0.66623070  0.33490437  0.54856532  1
  Te2-  Te179  1  0.66557017  0.83293602  0.54974600  1
  Te2-  Te180  1  0.32378710  0.41067972  0.70786546  1
  Te2-  Te181  1  0.32587214  0.91592764  0.71023940  1
  Te2-  Te182  1  0.82787340  0.41785955  0.70934422  1
  Te2-  Te183  1  0.82773650  0.91682602  0.70919885  1
  Te2-  Te184  1  0.08613719  0.17268417  0.71146846  1
  Te2-  Te185  1  0.08377745  0.67557761  0.71028413  1
  Te2-  Te186  1  0.58634949  0.17428078  0.70771171  1
  Te2-  Te187  1  0.58528269  0.67361505  0.70547434  1
  Te2-  Te188  1  0.08441338  0.41337688  0.71079435  1
  Te2-  Te189  1  0.08556061  0.91568309  0.71193498  1
  Te2-  Te190  1  0.58886683  0.41501352  0.70572635  1
  Te2-  Te191  1  0.58795633  0.91462579  0.70636663  1
  Te2-  Te192  1  0.16094077  0.07849307  0.04562236  1
  Te2-  Te193  1  0.16166384  0.58007961  0.04538805  1
  Te2-  Te194  1  0.66277724  0.08145186  0.04670219  1
  Te2-  Te195  1  0.65839877  0.58084395  0.04336480  1
  Te2-  Te196  1  0.42018488  0.33786466  0.04420698  1
  Te2-  Te197  1  0.41984783  0.83968786  0.04686365  1
  Te2-  Te198  1  0.92072024  0.34057103  0.04421425  1
  Te2-  Te199  1  0.91742536  0.83622567  0.04654713  1
  Te2-  Te200  1  0.41869611  0.07918574  0.04588098  1
  Te2-  Te201  1  0.42118765  0.58290339  0.04480193  1
  Te2-  Te202  1  0.91982717  0.07947137  0.04530087  1
  Te2-  Te203  1  0.91849879  0.58037966  0.04382814  1
  Te2-  Te204  1  0.49343733  0.24617482  0.37850260  1
  Te2-  Te205  1  0.49412774  0.74367613  0.38014357  1
  Te2-  Te206  1  0.99148537  0.24389068  0.37773772  1
  Te2-  Te207  1  0.99377634  0.74366436  0.37457425  1
  Te2-  Te208  1  0.25395145  0.00664660  0.37546012  1
  Te2-  Te209  1  0.25361083  0.50518573  0.37972093  1
  Te2-  Te210  1  0.75021648  0.00386350  0.37781849  1
  Te2-  Te211  1  0.75174341  0.50303428  0.37730908  1
  Te2-  Te212  1  0.25256119  0.24937840  0.37956149  1
  Te2-  Te213  1  0.25074366  0.74204254  0.37805338  1
  Te2-  Te214  1  0.74913235  0.24409037  0.37854955  1
  Te2-  Te215  1  0.75136943  0.74454157  0.37621625  1
