# generated using pymatgen
data_Ti(CuTe)4
_symmetry_space_group_name_H-M   'P 1'
_cell_length_a   16.89142355
_cell_length_b   16.88817420
_cell_length_c   20.71543984
_cell_angle_alpha   90.03960310
_cell_angle_beta   89.93122425
_cell_angle_gamma   119.97395214
_symmetry_Int_Tables_number   1
_chemical_formula_structural   Ti(CuTe)4
_chemical_formula_sum   'Ti24 Cu96 Te96'
_cell_volume   5119.02628003
_cell_formula_units_Z   24
loop_
 _symmetry_equiv_pos_site_id
 _symmetry_equiv_pos_as_xyz
  1  'x, y, z'
loop_
 _atom_type_symbol
 _atom_type_oxidation_number
  Ti4+  4.0
  Cu+  1.0
  Te2-  -2.0
loop_
 _atom_site_type_symbol
 _atom_site_label
 _atom_site_symmetry_multiplicity
 _atom_site_fract_x
 _atom_site_fract_y
 _atom_site_fract_z
 _atom_site_occupancy
  Ti4+  Ti0  1  0.00301883  0.00209403  0.25651092  1
  Ti4+  Ti1  1  0.00280364  0.49998813  0.26218468  1
  Ti4+  Ti2  1  0.50204452  0.00164408  0.25523331  1
  Ti4+  Ti3  1  0.50416691  0.50245100  0.25402693  1
  Ti4+  Ti4  1  0.33070207  0.16469084  0.58906124  1
  Ti4+  Ti5  1  0.33399936  0.66725278  0.59175262  1
  Ti4+  Ti6  1  0.83413401  0.16454175  0.59329391  1
  Ti4+  Ti7  1  0.83524143  0.66411378  0.59154630  1
  Ti4+  Ti8  1  0.16519119  0.33646559  0.92496537  1
  Ti4+  Ti9  1  0.16081393  0.83213086  0.92782464  1
  Ti4+  Ti10  1  0.66668268  0.33209925  0.92227734  1
  Ti4+  Ti11  1  0.66276757  0.83275898  0.92258436  1
  Ti4+  Ti12  1  -0.00054903  -0.00157456  0.75672596  1
  Ti4+  Ti13  1  -0.00201218  0.49926669  0.75586025  1
  Ti4+  Ti14  1  0.49982753  -0.00034815  0.75519799  1
  Ti4+  Ti15  1  0.49753451  0.49998102  0.75448619  1
  Ti4+  Ti16  1  0.33329146  0.16771753  0.08546636  1
  Ti4+  Ti17  1  0.33290784  0.66844941  0.08881966  1
  Ti4+  Ti18  1  0.83414286  0.16798620  0.09055128  1
  Ti4+  Ti19  1  0.83076956  0.66617443  0.08872392  1
  Ti4+  Ti20  1  0.16798384  0.33209517  0.42224844  1
  Ti4+  Ti21  1  0.16774362  0.83381240  0.42160109  1
  Ti4+  Ti22  1  0.66851692  0.33462217  0.42275883  1
  Ti4+  Ti23  1  0.66758080  0.83403825  0.42254546  1
  Cu+  Cu24  1  0.85211045  0.42013252  0.47891698  1
  Cu+  Cu25  1  0.90990191  0.31735492  0.81044910  1
  Cu+  Cu26  1  0.24729882  0.98963579  0.14528803  1
  Cu+  Cu27  1  0.52410364  0.26216933  0.13740243  1
  Cu+  Cu28  1  0.02595092  0.26474995  0.14260606  1
  Cu+  Cu29  1  0.68324415  0.08896780  0.80982796  1
  Cu+  Cu30  1  0.40103668  0.59451856  0.80669472  1
  Cu+  Cu31  1  0.52442375  0.76249992  0.13883657  1
  Cu+  Cu32  1  0.08067238  0.65233946  0.48022965  1
  Cu+  Cu33  1  0.90420090  0.59367753  0.80939806  1
  Cu+  Cu34  1  0.01349637  0.75277903  0.14659394  1
  Cu+  Cu35  1  0.07069130  0.14146978  0.47394183  1
  Cu+  Cu36  1  0.16146278  0.08039627  0.16714588  1
  Cu+  Cu37  1  0.16340229  0.58293925  0.17342526  1
  Cu+  Cu38  1  0.66337874  0.08215115  0.16995402  1
  Cu+  Cu39  1  0.66119938  0.58119653  0.16756506  1
  Cu+  Cu40  1  0.42445001  0.33752947  0.16662676  1
  Cu+  Cu41  1  0.42341416  0.83735124  0.16807654  1
  Cu+  Cu42  1  0.92224489  0.33523952  0.17533135  1
  Cu+  Cu43  1  0.91972184  0.83564163  0.16955390  1
  Cu+  Cu44  1  0.42197563  0.08532757  0.16746608  1
  Cu+  Cu45  1  0.42319996  0.58809090  0.16910196  1
  Cu+  Cu46  1  0.92390722  0.08918716  0.17111375  1
  Cu+  Cu47  1  0.91826950  0.58180473  0.17547108  1
  Cu+  Cu48  1  0.49554690  0.24756623  0.50445780  1
  Cu+  Cu49  1  0.49817088  0.74830189  0.50583246  1
  Cu+  Cu50  1  0.99804938  0.24389650  0.50479812  1
  Cu+  Cu51  1  0.99796879  0.74372660  0.50368040  1
  Cu+  Cu52  1  0.25168744  0.00479353  0.50250850  1
  Cu+  Cu53  1  0.25489753  0.50312909  0.50504956  1
  Cu+  Cu54  1  0.74968007  0.00153981  0.50555528  1
  Cu+  Cu55  1  0.75763709  0.50164472  0.50399311  1
  Cu+  Cu56  1  0.24577372  0.24158377  0.50232745  1
  Cu+  Cu57  1  0.25267692  0.74704645  0.50500130  1
  Cu+  Cu58  1  0.75366587  0.24947286  0.50789811  1
  Cu+  Cu59  1  0.75293170  0.74931262  0.50554118  1
  Cu+  Cu60  1  0.32944188  0.42262650  0.83762551  1
  Cu+  Cu61  1  0.32811693  0.91589449  0.84064169  1
  Cu+  Cu62  1  0.82792324  0.41402758  0.83476818  1
  Cu+  Cu63  1  0.82878373  0.91327508  0.83689857  1
  Cu+  Cu64  1  0.08009998  0.16753991  0.83924037  1
  Cu+  Cu65  1  0.07672763  0.66994880  0.83936607  1
  Cu+  Cu66  1  0.58776079  0.16859827  0.83580737  1
  Cu+  Cu67  1  0.57569528  0.66760228  0.83603799  1
  Cu+  Cu68  1  0.08210604  0.41162528  0.83797512  1
  Cu+  Cu69  1  0.08078216  0.91254665  0.84095758  1
  Cu+  Cu70  1  0.58223212  0.41360333  0.83604941  1
  Cu+  Cu71  1  0.58593854  0.91556272  0.83641176  1
  Cu+  Cu72  1  0.16749580  0.08239933  0.67496582  1
  Cu+  Cu73  1  0.16822111  0.58475119  0.67636711  1
  Cu+  Cu74  1  0.66969049  0.08508398  0.68019897  1
  Cu+  Cu75  1  0.66855926  0.58194282  0.67329243  1
  Cu+  Cu76  1  0.41140683  0.32878063  0.67161522  1
  Cu+  Cu77  1  0.41481853  0.83241935  0.67449833  1
  Cu+  Cu78  1  0.91566295  0.32940214  0.68114941  1
  Cu+  Cu79  1  0.91827570  0.82929392  0.67564386  1
  Cu+  Cu80  1  0.41258678  0.08356835  0.67325257  1
  Cu+  Cu81  1  0.41375244  0.58567660  0.67875615  1
  Cu+  Cu82  1  0.91658211  0.08178741  0.67650948  1
  Cu+  Cu83  1  0.91547782  0.58341301  0.68060392  1
  Cu+  Cu84  1  0.00311050  0.25414823  0.01458232  1
  Cu+  Cu85  1  -0.00158469  0.74983811  0.01586536  1
  Cu+  Cu86  1  0.50292091  0.25115823  0.00837836  1
  Cu+  Cu87  1  0.50018504  0.75270394  0.00994977  1
  Cu+  Cu88  1  0.24565617  0.50049035  0.00934870  1
  Cu+  Cu89  1  0.24395089  0.99673520  0.01437991  1
  Cu+  Cu90  1  0.74793496  0.49832074  0.00789277  1
  Cu+  Cu91  1  0.74694477  0.99902176  0.00838196  1
  Cu+  Cu92  1  0.24759557  0.25349151  0.00548488  1
  Cu+  Cu93  1  0.24305738  0.75005610  0.00972905  1
  Cu+  Cu94  1  0.75021499  0.25058398  0.00914765  1
  Cu+  Cu95  1  0.74319703  0.74808316  0.00574192  1
  Cu+  Cu96  1  0.34070551  0.42034496  0.33722702  1
  Cu+  Cu97  1  0.33789993  0.91983429  0.33954590  1
  Cu+  Cu98  1  0.83945595  0.41926590  0.34879896  1
  Cu+  Cu99  1  0.83674772  0.92024668  0.34058262  1
  Cu+  Cu100  1  0.08421384  0.16544798  0.34494156  1
  Cu+  Cu101  1  0.08270361  0.66463152  0.35012235  1
  Cu+  Cu102  1  0.58311670  0.16646070  0.34038651  1
  Cu+  Cu103  1  0.58413463  0.66709830  0.34009251  1
  Cu+  Cu104  1  0.08616342  0.41776625  0.34551873  1
  Cu+  Cu105  1  0.08566199  0.91909133  0.34230463  1
  Cu+  Cu106  1  0.58442123  0.41870993  0.33955265  1
  Cu+  Cu107  1  0.58255336  0.91757947  0.34178168  1
  Cu+  Cu108  1  -0.00661851  -0.00204575  0.11308478  1
  Cu+  Cu109  1  -0.00324312  0.49888105  0.11976572  1
  Cu+  Cu110  1  0.50005843  0.00038441  0.11036811  1
  Cu+  Cu111  1  0.49448581  0.49846230  0.10962837  1
  Cu+  Cu112  1  0.33704300  0.16930609  0.44477514  1
  Cu+  Cu113  1  0.33677370  0.66675007  0.44826235  1
  Cu+  Cu114  1  0.83166639  0.16480581  0.45018077  1
  Cu+  Cu115  1  0.83112278  0.66754761  0.44853917  1
  Cu+  Cu116  1  0.16809517  0.32759704  0.78257702  1
  Cu+  Cu117  1  0.16846421  0.83459343  0.78480284  1
  Cu+  Cu118  1  0.65976249  0.33145977  0.77791119  1
  Cu+  Cu119  1  0.66787270  0.82952667  0.77932234  1
  Te2-  Te120  1  0.00032643  -0.00162642  0.38646925  1
  Te2-  Te121  1  0.00439326  0.49882688  0.39419561  1
  Te2-  Te122  1  0.50181142  0.00198489  0.38394419  1
  Te2-  Te123  1  0.50365090  0.50238912  0.38289577  1
  Te2-  Te124  1  0.33161688  0.16616607  0.71828364  1
  Te2-  Te125  1  0.33152294  0.66981195  0.72241668  1
  Te2-  Te126  1  0.83526169  0.16363727  0.72525755  1
  Te2-  Te127  1  0.83098515  0.66576187  0.72186463  1
  Te2-  Te128  1  0.17024856  0.33733441  0.05557802  1
  Te2-  Te129  1  0.16394586  0.83203928  0.06030513  1
  Te2-  Te130  1  0.66915338  0.33424003  0.05239965  1
  Te2-  Te131  1  0.66680226  0.83470375  0.05276981  1
  Te2-  Te132  1  0.49694056  0.24581318  0.88106597  1
  Te2-  Te133  1  0.48900393  0.74939515  0.88304966  1
  Te2-  Te134  1  0.99091953  0.24471218  0.88729561  1
  Te2-  Te135  1  0.98655455  0.74663158  0.88831696  1
  Te2-  Te136  1  0.24771576  0.00297125  0.88681177  1
  Te2-  Te137  1  0.24758189  0.51019902  0.88367528  1
  Te2-  Te138  1  0.75508348  0.00671450  0.88279484  1
  Te2-  Te139  1  0.74983970  0.50507375  0.88184466  1
  Te2-  Te140  1  0.25049343  0.25276404  0.87956624  1
  Te2-  Te141  1  0.24501420  0.74648526  0.88361921  1
  Te2-  Te142  1  0.75616924  0.24499193  0.88343381  1
  Te2-  Te143  1  0.74471837  0.74473967  0.87988323  1
  Te2-  Te144  1  0.33426694  0.41715083  0.21081743  1
  Te2-  Te145  1  0.32986031  0.91274862  0.21352666  1
  Te2-  Te146  1  0.83319949  0.41453702  0.22108051  1
  Te2-  Te147  1  0.83412746  0.91883922  0.21395475  1
  Te2-  Te148  1  0.09267489  0.17590625  0.21761517  1
  Te2-  Te149  1  0.08863101  0.67334170  0.22227720  1
  Te2-  Te150  1  0.58994919  0.17565402  0.21464617  1
  Te2-  Te151  1  0.59241414  0.67745710  0.21456603  1
  Te2-  Te152  1  0.09245193  0.41646230  0.21949533  1
  Te2-  Te153  1  0.08974404  0.91236866  0.21633945  1
  Te2-  Te154  1  0.59248670  0.41564369  0.21396833  1
  Te2-  Te155  1  0.59084235  0.91595889  0.21568626  1
  Te2-  Te156  1  0.15513639  0.07342294  0.54938760  1
  Te2-  Te157  1  0.16046280  0.57598024  0.55077706  1
  Te2-  Te158  1  0.66406385  0.08239180  0.55271575  1
  Te2-  Te159  1  0.66601492  0.57925972  0.54712193  1
  Te2-  Te160  1  0.41437279  0.33571835  0.54594138  1
  Te2-  Te161  1  0.41926591  0.83820443  0.54886016  1
  Te2-  Te162  1  0.92445413  0.33753544  0.55347478  1
  Te2-  Te163  1  0.92168156  0.83439859  0.54942722  1
  Te2-  Te164  1  0.41797683  0.07947653  0.54786347  1
  Te2-  Te165  1  0.42032214  0.58152818  0.55208077  1
  Te2-  Te166  1  0.91731102  0.07512431  0.55046538  1
  Te2-  Te167  1  0.92454972  0.57589426  0.55342236  1
  Te2-  Te168  1  -0.00340826  -0.00123696  0.88301946  1
  Te2-  Te169  1  -0.00243028  0.49885833  0.88312772  1
  Te2-  Te170  1  0.49865857  -0.00081100  0.88207492  1
  Te2-  Te171  1  0.49867308  0.49888707  0.88132812  1
  Te2-  Te172  1  0.33298112  0.16773293  0.21293346  1
  Te2-  Te173  1  0.33475399  0.66872178  0.21551610  1
  Te2-  Te174  1  0.83190563  0.16517539  0.21731102  1
  Te2-  Te175  1  0.83074869  0.66635820  0.21574313  1
  Te2-  Te176  1  0.16818198  0.33292553  0.54887305  1
  Te2-  Te177  1  0.16861190  0.83454124  0.54832957  1
  Te2-  Te178  1  0.66457931  0.33196587  0.54959113  1
  Te2-  Te179  1  0.66713210  0.83243040  0.54889798  1
  Te2-  Te180  1  0.32568009  0.41274786  0.70992251  1
  Te2-  Te181  1  0.32756500  0.91462976  0.71317499  1
  Te2-  Te182  1  0.82387505  0.41062382  0.70847082  1
  Te2-  Te183  1  0.82877096  0.91119352  0.71053061  1
  Te2-  Te184  1  0.08552901  0.17018775  0.71231785  1
  Te2-  Te185  1  0.08726762  0.67354309  0.71247630  1
  Te2-  Te186  1  0.58296476  0.17158300  0.70899744  1
  Te2-  Te187  1  0.58700491  0.67149708  0.70856406  1
  Te2-  Te188  1  0.08808607  0.41467516  0.71208337  1
  Te2-  Te189  1  0.08666720  0.91317602  0.71442506  1
  Te2-  Te190  1  0.58141492  0.41226363  0.70934524  1
  Te2-  Te191  1  0.58496060  0.91166065  0.71003050  1
  Te2-  Te192  1  0.15827785  0.08415204  0.04168497  1
  Te2-  Te193  1  0.15841943  0.58160518  0.04779771  1
  Te2-  Te194  1  0.66162680  0.08183210  0.04440539  1
  Te2-  Te195  1  0.65884270  0.57938738  0.04238598  1
  Te2-  Te196  1  0.41845922  0.33976758  0.03926184  1
  Te2-  Te197  1  0.41494564  0.83990349  0.04159035  1
  Te2-  Te198  1  0.91857168  0.34130325  0.04760646  1
  Te2-  Te199  1  0.91326908  0.83839300  0.04272850  1
  Te2-  Te200  1  0.41824977  0.07890868  0.03973978  1
  Te2-  Te201  1  0.41664870  0.58067833  0.04185213  1
  Te2-  Te202  1  0.91766281  0.08041701  0.04366176  1
  Te2-  Te203  1  0.91662394  0.57762328  0.04709156  1
  Te2-  Te204  1  0.49744914  0.24976381  0.37744396  1
  Te2-  Te205  1  0.49618502  0.74799881  0.37875425  1
  Te2-  Te206  1  0.99400292  0.24717205  0.37829061  1
  Te2-  Te207  1  0.99368757  0.74889231  0.37731466  1
  Te2-  Te208  1  0.25518134  0.00643970  0.37677354  1
  Te2-  Te209  1  0.25685898  0.50493527  0.37881822  1
  Te2-  Te210  1  0.75273614  0.00570136  0.37878379  1
  Te2-  Te211  1  0.75396495  0.50709031  0.37727103  1
  Te2-  Te212  1  0.25717080  0.25027127  0.37511186  1
  Te2-  Te213  1  0.25684403  0.74971165  0.37763171  1
  Te2-  Te214  1  0.75294292  0.24606298  0.37954745  1
  Te2-  Te215  1  0.75412687  0.74986621  0.37797063  1
