# generated using pymatgen
data_Ti(CuTe)4
_symmetry_space_group_name_H-M   'P 1'
_cell_length_a   16.89354398
_cell_length_b   16.89588743
_cell_length_c   20.71496030
_cell_angle_alpha   89.92444781
_cell_angle_beta   90.10547081
_cell_angle_gamma   120.02287862
_symmetry_Int_Tables_number   1
_chemical_formula_structural   Ti(CuTe)4
_chemical_formula_sum   'Ti24 Cu96 Te96'
_cell_volume   5119.35870575
_cell_formula_units_Z   24
loop_
 _symmetry_equiv_pos_site_id
 _symmetry_equiv_pos_as_xyz
  1  'x, y, z'
loop_
 _atom_type_symbol
 _atom_type_oxidation_number
  Ti4+  4.0
  Cu+  1.0
  Te2-  -2.0
loop_
 _atom_site_type_symbol
 _atom_site_label
 _atom_site_symmetry_multiplicity
 _atom_site_fract_x
 _atom_site_fract_y
 _atom_site_fract_z
 _atom_site_occupancy
  Ti4+  Ti0  1  -0.00066801  0.00013623  0.25747501  1
  Ti4+  Ti1  1  0.00133079  0.50213686  0.26236504  1
  Ti4+  Ti2  1  0.49958411  -0.00245045  0.25514405  1
  Ti4+  Ti3  1  0.49855882  0.49715865  0.25828997  1
  Ti4+  Ti4  1  0.33201870  0.16750502  0.59232451  1
  Ti4+  Ti5  1  0.33470700  0.66935971  0.58976513  1
  Ti4+  Ti6  1  0.83245145  0.16713189  0.58810574  1
  Ti4+  Ti7  1  0.83430081  0.66841489  0.58930968  1
  Ti4+  Ti8  1  0.16667353  0.33342648  0.92600199  1
  Ti4+  Ti9  1  0.16447459  0.83207132  0.92581825  1
  Ti4+  Ti10  1  0.66506622  0.33387946  0.92213643  1
  Ti4+  Ti11  1  0.66714739  0.83261179  0.92446739  1
  Ti4+  Ti12  1  0.00079442  0.00066408  0.75610666  1
  Ti4+  Ti13  1  0.00007450  0.50138538  0.75647912  1
  Ti4+  Ti14  1  0.50133201  0.00043535  0.75490542  1
  Ti4+  Ti15  1  0.50083340  0.49962945  0.75443307  1
  Ti4+  Ti16  1  0.33427477  0.16839410  0.08948221  1
  Ti4+  Ti17  1  0.33318436  0.66763599  0.08909064  1
  Ti4+  Ti18  1  0.83287640  0.16376333  0.08913567  1
  Ti4+  Ti19  1  0.83422843  0.66473928  0.09106286  1
  Ti4+  Ti20  1  0.16774664  0.33260295  0.42105481  1
  Ti4+  Ti21  1  0.16720104  0.83437549  0.42200470  1
  Ti4+  Ti22  1  0.66645180  0.33269435  0.42091114  1
  Ti4+  Ti23  1  0.66656833  0.83353776  0.42061280  1
  Cu+  Cu24  1  0.40303649  0.08630068  0.80914041  1
  Cu+  Cu25  1  0.07249198  0.93135330  0.47198979  1
  Cu+  Cu26  1  0.57105903  0.92939811  0.47050528  1
  Cu+  Cu27  1  0.40509952  0.31821027  0.81160781  1
  Cu+  Cu28  1  0.73821924  0.97291645  0.13987605  1
  Cu+  Cu29  1  0.90350534  0.59721244  0.80697264  1
  Cu+  Cu30  1  0.23645577  0.76021331  0.14175799  1
  Cu+  Cu31  1  0.07916473  0.42324315  0.47824250  1
  Cu+  Cu32  1  0.84126329  0.42153804  0.48234524  1
  Cu+  Cu33  1  0.23787526  0.26158088  0.14188762  1
  Cu+  Cu34  1  0.08056624  0.66033081  0.48367302  1
  Cu+  Cu35  1  0.57089159  0.42702943  0.47362268  1
  Cu+  Cu36  1  0.16569572  0.08687542  0.17211067  1
  Cu+  Cu37  1  0.16501573  0.58724909  0.17402611  1
  Cu+  Cu38  1  0.66480068  0.07473692  0.16964209  1
  Cu+  Cu39  1  0.66498458  0.57816123  0.17385690  1
  Cu+  Cu40  1  0.41455069  0.33563495  0.17190806  1
  Cu+  Cu41  1  0.41434371  0.83634659  0.16856098  1
  Cu+  Cu42  1  0.91759979  0.33472288  0.17487908  1
  Cu+  Cu43  1  0.92011805  0.83457642  0.17261398  1
  Cu+  Cu44  1  0.41969578  0.08190050  0.17010541  1
  Cu+  Cu45  1  0.41800903  0.58009806  0.17088850  1
  Cu+  Cu46  1  0.91374645  0.07588837  0.16987225  1
  Cu+  Cu47  1  0.91944246  0.58064710  0.17471570  1
  Cu+  Cu48  1  0.49717958  0.25241431  0.50497334  1
  Cu+  Cu49  1  0.49959265  0.75522642  0.50288112  1
  Cu+  Cu50  1  0.99784741  0.24952867  0.50160053  1
  Cu+  Cu51  1  0.99786557  0.75316303  0.50189301  1
  Cu+  Cu52  1  0.24688300  0.00241379  0.50492037  1
  Cu+  Cu53  1  0.25151249  0.50304579  0.50283579  1
  Cu+  Cu54  1  0.74633922  0.00195688  0.50164348  1
  Cu+  Cu55  1  0.74876049  0.50348562  0.50158069  1
  Cu+  Cu56  1  0.25410502  0.24809046  0.50355805  1
  Cu+  Cu57  1  0.25480279  0.74666075  0.50223207  1
  Cu+  Cu58  1  0.75495757  0.24677096  0.50037473  1
  Cu+  Cu59  1  0.75353846  0.74983731  0.50204642  1
  Cu+  Cu60  1  0.32910174  0.41327983  0.83856722  1
  Cu+  Cu61  1  0.33048599  0.91486251  0.83992879  1
  Cu+  Cu62  1  0.83112113  0.42154951  0.83654337  1
  Cu+  Cu63  1  0.83132639  0.91629664  0.83904523  1
  Cu+  Cu64  1  0.08464615  0.16995560  0.83877201  1
  Cu+  Cu65  1  0.07948664  0.66802231  0.83927574  1
  Cu+  Cu66  1  0.58054750  0.16851372  0.83518609  1
  Cu+  Cu67  1  0.58609074  0.67003194  0.83806715  1
  Cu+  Cu68  1  0.08544824  0.41582992  0.84021808  1
  Cu+  Cu69  1  0.08324112  0.91304162  0.83815196  1
  Cu+  Cu70  1  0.58252390  0.41116339  0.83443433  1
  Cu+  Cu71  1  0.58816497  0.91509187  0.83819504  1
  Cu+  Cu72  1  0.16653490  0.08369391  0.67688197  1
  Cu+  Cu73  1  0.17013281  0.58488061  0.67733656  1
  Cu+  Cu74  1  0.66969223  0.08315118  0.67271217  1
  Cu+  Cu75  1  0.66827587  0.58383953  0.67438609  1
  Cu+  Cu76  1  0.41652750  0.33183521  0.68093177  1
  Cu+  Cu77  1  0.41843123  0.83249068  0.67442823  1
  Cu+  Cu78  1  0.91811118  0.33258753  0.67535857  1
  Cu+  Cu79  1  0.91888789  0.83507513  0.67526124  1
  Cu+  Cu80  1  0.41478852  0.08541327  0.67881246  1
  Cu+  Cu81  1  0.41652833  0.58641705  0.67286532  1
  Cu+  Cu82  1  0.91551228  0.08543934  0.67207539  1
  Cu+  Cu83  1  0.91728315  0.58706036  0.67848018  1
  Cu+  Cu84  1  0.00174129  0.25029418  0.00983296  1
  Cu+  Cu85  1  0.00040906  0.74643838  0.01119562  1
  Cu+  Cu86  1  0.50186014  0.25150699  0.00858064  1
  Cu+  Cu87  1  0.50215937  0.75082269  0.00712743  1
  Cu+  Cu88  1  0.24932883  0.49839524  0.00924207  1
  Cu+  Cu89  1  0.25018033  0.99809149  0.01005787  1
  Cu+  Cu90  1  0.75063014  0.49778850  0.00797226  1
  Cu+  Cu91  1  0.74854895  0.99452643  0.01185537  1
  Cu+  Cu92  1  0.25009044  0.25402441  0.01372388  1
  Cu+  Cu93  1  0.24703215  0.75142041  0.01234841  1
  Cu+  Cu94  1  0.74923551  0.25195320  0.00513229  1
  Cu+  Cu95  1  0.74993059  0.75019440  0.00831551  1
  Cu+  Cu96  1  0.33506160  0.41315738  0.34230436  1
  Cu+  Cu97  1  0.33458022  0.91628508  0.34065272  1
  Cu+  Cu98  1  0.83696078  0.41758541  0.34946684  1
  Cu+  Cu99  1  0.83501229  0.91615903  0.34157844  1
  Cu+  Cu100  1  0.08498599  0.16507582  0.34091022  1
  Cu+  Cu101  1  0.08416030  0.66599713  0.34992423  1
  Cu+  Cu102  1  0.58339718  0.16321900  0.33804456  1
  Cu+  Cu103  1  0.58288384  0.66144060  0.34109739  1
  Cu+  Cu104  1  0.08349079  0.41981929  0.34714766  1
  Cu+  Cu105  1  0.08335524  0.92138199  0.34429907  1
  Cu+  Cu106  1  0.57903100  0.41502340  0.34468283  1
  Cu+  Cu107  1  0.58102055  0.91649289  0.34223099  1
  Cu+  Cu108  1  0.00215311  -0.00255359  0.11483151  1
  Cu+  Cu109  1  -0.00023707  0.49471528  0.11889170  1
  Cu+  Cu110  1  0.50302969  0.00341128  0.11140159  1
  Cu+  Cu111  1  0.50437484  0.50343206  0.11578881  1
  Cu+  Cu112  1  0.33616936  0.16422814  0.44797527  1
  Cu+  Cu113  1  0.33842958  0.66435026  0.44610030  1
  Cu+  Cu114  1  0.83628630  0.16257019  0.44384614  1
  Cu+  Cu115  1  0.83278942  0.66687320  0.44414733  1
  Cu+  Cu116  1  0.16443986  0.33365445  0.78281579  1
  Cu+  Cu117  1  0.16838287  0.83272162  0.78306858  1
  Cu+  Cu118  1  0.67009474  0.33078239  0.77841931  1
  Cu+  Cu119  1  0.66904123  0.83229747  0.78133277  1
  Te2-  Te120  1  -0.00172200  0.00246263  0.38813164  1
  Te2-  Te121  1  0.00126032  0.50159421  0.39573911  1
  Te2-  Te122  1  0.49857868  0.00067619  0.38560653  1
  Te2-  Te123  1  0.49783608  0.49917011  0.38928755  1
  Te2-  Te124  1  0.32994963  0.16582027  0.72420482  1
  Te2-  Te125  1  0.33542946  0.66849312  0.71850093  1
  Te2-  Te126  1  0.83369864  0.16729108  0.71673040  1
  Te2-  Te127  1  0.83280172  0.67002157  0.71914959  1
  Te2-  Te128  1  0.16509115  0.33545035  0.05665546  1
  Te2-  Te129  1  0.16439039  0.83440276  0.05629560  1
  Te2-  Te130  1  0.66692954  0.33290930  0.05076957  1
  Te2-  Te131  1  0.66477312  0.82827429  0.05541064  1
  Te2-  Te132  1  0.48735409  0.24347839  0.88278912  1
  Te2-  Te133  1  0.49547218  0.74723319  0.88169649  1
  Te2-  Te134  1  0.99534954  0.24785164  0.88388357  1
  Te2-  Te135  1  0.99021506  0.74699573  0.88518955  1
  Te2-  Te136  1  0.24997068  0.00554744  0.88423189  1
  Te2-  Te137  1  0.25358062  0.50459965  0.88348366  1
  Te2-  Te138  1  0.75389325  0.00522147  0.88521330  1
  Te2-  Te139  1  0.74884790  0.50788280  0.88207339  1
  Te2-  Te140  1  0.25094765  0.24400836  0.88625926  1
  Te2-  Te141  1  0.24856454  0.74653081  0.88454226  1
  Te2-  Te142  1  0.75060716  0.25052316  0.87837753  1
  Te2-  Te143  1  0.75371764  0.74773298  0.88245371  1
  Te2-  Te144  1  0.32408249  0.41369955  0.21716571  1
  Te2-  Te145  1  0.32510506  0.91499359  0.21538320  1
  Te2-  Te146  1  0.83027614  0.41428342  0.22154090  1
  Te2-  Te147  1  0.82551861  0.90784150  0.21614764  1
  Te2-  Te148  1  0.08197990  0.17311070  0.21551106  1
  Te2-  Te149  1  0.08574361  0.67582015  0.22162353  1
  Te2-  Te150  1  0.58816676  0.16785078  0.21243392  1
  Te2-  Te151  1  0.58549277  0.66802331  0.21540281  1
  Te2-  Te152  1  0.08675435  0.41829306  0.21914208  1
  Te2-  Te153  1  0.08799753  0.91831912  0.21720764  1
  Te2-  Te154  1  0.58240445  0.40998095  0.21771330  1
  Te2-  Te155  1  0.58167251  0.90627135  0.21538281  1
  Te2-  Te156  1  0.15816888  0.08242713  0.55086675  1
  Te2-  Te157  1  0.15717445  0.57845260  0.55140063  1
  Te2-  Te158  1  0.65828647  0.08244570  0.54734197  1
  Te2-  Te159  1  0.66114691  0.58309358  0.54844730  1
  Te2-  Te160  1  0.41870169  0.34172365  0.55297950  1
  Te2-  Te161  1  0.41919580  0.84333519  0.54888770  1
  Te2-  Te162  1  0.92320315  0.34468662  0.54963518  1
  Te2-  Te163  1  0.91954079  0.84176078  0.54918819  1
  Te2-  Te164  1  0.41640338  0.08285203  0.55037892  1
  Te2-  Te165  1  0.41963886  0.58503318  0.54639511  1
  Te2-  Te166  1  0.91635474  0.08154363  0.54546232  1
  Te2-  Te167  1  0.92132109  0.58069004  0.55078420  1
  Te2-  Te168  1  0.00053363  0.00012425  0.88237179  1
  Te2-  Te169  1  -0.00080435  0.49866213  0.88315529  1
  Te2-  Te170  1  0.50201189  -0.00044261  0.88169850  1
  Te2-  Te171  1  0.50096131  0.49965396  0.88132134  1
  Te2-  Te172  1  0.33533695  0.16596039  0.21617773  1
  Te2-  Te173  1  0.33591680  0.66740273  0.21582450  1
  Te2-  Te174  1  0.83331716  0.16459947  0.21601643  1
  Te2-  Te175  1  0.83409699  0.66532771  0.21736809  1
  Te2-  Te176  1  0.16775150  0.33285578  0.54811441  1
  Te2-  Te177  1  0.16903859  0.83243506  0.54975198  1
  Te2-  Te178  1  0.66836466  0.33180206  0.54861243  1
  Te2-  Te179  1  0.66859628  0.83366336  0.54740275  1
  Te2-  Te180  1  0.32752664  0.41629812  0.71079067  1
  Te2-  Te181  1  0.32824059  0.91271921  0.71157530  1
  Te2-  Te182  1  0.82880182  0.41405173  0.70906309  1
  Te2-  Te183  1  0.82962712  0.91607077  0.71165536  1
  Te2-  Te184  1  0.08490287  0.17257568  0.71206530  1
  Te2-  Te185  1  0.08909930  0.67415773  0.71193671  1
  Te2-  Te186  1  0.58814564  0.17213774  0.70806355  1
  Te2-  Te187  1  0.58622825  0.67179900  0.71102942  1
  Te2-  Te188  1  0.08676160  0.41543305  0.71342031  1
  Te2-  Te189  1  0.08749855  0.91415834  0.71240302  1
  Te2-  Te190  1  0.58951405  0.41438810  0.70865721  1
  Te2-  Te191  1  0.58779203  0.91465270  0.71178298  1
  Te2-  Te192  1  0.16166215  0.08041197  0.04471213  1
  Te2-  Te193  1  0.15970221  0.57895083  0.04614887  1
  Te2-  Te194  1  0.66205996  0.08140179  0.04190653  1
  Te2-  Te195  1  0.66350632  0.58028697  0.04634107  1
  Te2-  Te196  1  0.42255228  0.34150819  0.04505364  1
  Te2-  Te197  1  0.42064075  0.83959532  0.04219812  1
  Te2-  Te198  1  0.91783534  0.33633776  0.04703012  1
  Te2-  Te199  1  0.91943353  0.83617460  0.04625062  1
  Te2-  Te200  1  0.41984939  0.08183339  0.04417835  1
  Te2-  Te201  1  0.41920720  0.58129946  0.04499940  1
  Te2-  Te202  1  0.92124464  0.07963315  0.04369459  1
  Te2-  Te203  1  0.91915057  0.57733407  0.04833715  1
  Te2-  Te204  1  0.49371179  0.24294862  0.37698809  1
  Te2-  Te205  1  0.49480548  0.74446948  0.37532232  1
  Te2-  Te206  1  0.99520934  0.24628794  0.37463679  1
  Te2-  Te207  1  0.99334931  0.74844013  0.37507689  1
  Te2-  Te208  1  0.25535402  0.00684530  0.37732885  1
  Te2-  Te209  1  0.25627052  0.50562890  0.37587285  1
  Te2-  Te210  1  0.75341679  0.00521337  0.37415317  1
  Te2-  Te211  1  0.75245545  0.50653740  0.37450514  1
  Te2-  Te212  1  0.25347291  0.24465922  0.37836664  1
  Te2-  Te213  1  0.25636334  0.74822861  0.37683429  1
  Te2-  Te214  1  0.75218367  0.24428656  0.37488623  1
  Te2-  Te215  1  0.75237792  0.74670092  0.37642167  1
