# generated using pymatgen
data_Ti(CuTe)4
_symmetry_space_group_name_H-M   'P 1'
_cell_length_a   16.87819227
_cell_length_b   16.88148259
_cell_length_c   20.69240154
_cell_angle_alpha   90.04029791
_cell_angle_beta   90.00047732
_cell_angle_gamma   119.99351453
_symmetry_Int_Tables_number   1
_chemical_formula_structural   Ti(CuTe)4
_chemical_formula_sum   'Ti24 Cu96 Te96'
_cell_volume   5106.29942519
_cell_formula_units_Z   24
loop_
 _symmetry_equiv_pos_site_id
 _symmetry_equiv_pos_as_xyz
  1  'x, y, z'
loop_
 _atom_type_symbol
 _atom_type_oxidation_number
  Ti4+  4.0
  Cu+  1.0
  Te2-  -2.0
loop_
 _atom_site_type_symbol
 _atom_site_label
 _atom_site_symmetry_multiplicity
 _atom_site_fract_x
 _atom_site_fract_y
 _atom_site_fract_z
 _atom_site_occupancy
  Ti4+  Ti0  1  -0.00096729  -0.00023810  0.25905002  1
  Ti4+  Ti1  1  -0.00377791  0.49697144  0.25613234  1
  Ti4+  Ti2  1  0.49826850  -0.00077616  0.25951727  1
  Ti4+  Ti3  1  0.49581054  0.49759674  0.25923563  1
  Ti4+  Ti4  1  0.33606441  0.17185584  0.59200981  1
  Ti4+  Ti5  1  0.33331012  0.66738303  0.59343697  1
  Ti4+  Ti6  1  0.83296076  0.16294112  0.58805918  1
  Ti4+  Ti7  1  0.83661324  0.66543307  0.58807945  1
  Ti4+  Ti8  1  0.16920964  0.33412467  0.92481062  1
  Ti4+  Ti9  1  0.16821550  0.83472535  0.92345125  1
  Ti4+  Ti10  1  0.66532505  0.33216163  0.92614978  1
  Ti4+  Ti11  1  0.66709738  0.83393364  0.92324052  1
  Ti4+  Ti12  1  0.00068367  0.00094852  0.75486721  1
  Ti4+  Ti13  1  0.00163622  0.50121603  0.75576056  1
  Ti4+  Ti14  1  0.50055709  0.00049345  0.75350786  1
  Ti4+  Ti15  1  0.50053098  0.50001071  0.75451413  1
  Ti4+  Ti16  1  0.33411704  0.16824154  0.09023634  1
  Ti4+  Ti17  1  0.33318092  0.66520375  0.09186746  1
  Ti4+  Ti18  1  0.83393423  0.16828323  0.08856081  1
  Ti4+  Ti19  1  0.83362392  0.66739364  0.08822740  1
  Ti4+  Ti20  1  0.16871905  0.33452551  0.42313937  1
  Ti4+  Ti21  1  0.16325225  0.82951759  0.42203934  1
  Ti4+  Ti22  1  0.66592698  0.33398328  0.42206016  1
  Ti4+  Ti23  1  0.66603599  0.83599374  0.42095049  1
  Cu+  Cu24  1  0.41322457  0.58590029  0.81668331  1
  Cu+  Cu25  1  0.73404878  0.25160501  0.14308256  1
  Cu+  Cu26  1  0.41305610  0.82505832  0.81435037  1
  Cu+  Cu27  1  0.84987057  0.92178434  0.47401419  1
  Cu+  Cu28  1  0.07261532  0.63679485  0.47178866  1
  Cu+  Cu29  1  0.40672283  0.31090818  0.80865698  1
  Cu+  Cu30  1  0.56785719  0.92744222  0.47421176  1
  Cu+  Cu31  1  0.73603516  0.48262421  0.14171987  1
  Cu+  Cu32  1  0.08421609  0.15203747  0.47471747  1
  Cu+  Cu33  1  0.35936352  0.43275380  0.47792331  1
  Cu+  Cu34  1  0.17917840  0.59021393  0.81519085  1
  Cu+  Cu35  1  0.23381070  0.47179184  0.14242696  1
  Cu+  Cu36  1  0.16442570  0.08400723  0.17332309  1
  Cu+  Cu37  1  0.16337244  0.57731007  0.17253798  1
  Cu+  Cu38  1  0.66165587  0.08065747  0.17305433  1
  Cu+  Cu39  1  0.66327437  0.58092129  0.17203283  1
  Cu+  Cu40  1  0.41445450  0.33687555  0.17186006  1
  Cu+  Cu41  1  0.41912761  0.83652002  0.17502038  1
  Cu+  Cu42  1  0.91259278  0.33666821  0.16711064  1
  Cu+  Cu43  1  0.91704983  0.83844113  0.17179724  1
  Cu+  Cu44  1  0.41488242  0.08012897  0.17223055  1
  Cu+  Cu45  1  0.40893451  0.57411578  0.17360117  1
  Cu+  Cu46  1  0.91841235  0.08108716  0.17313902  1
  Cu+  Cu47  1  0.91446056  0.57988040  0.16882581  1
  Cu+  Cu48  1  0.49904190  0.25300458  0.50573742  1
  Cu+  Cu49  1  0.49698274  0.75394609  0.50476812  1
  Cu+  Cu50  1  0.99846679  0.24385436  0.50186879  1
  Cu+  Cu51  1  0.99717583  0.73976248  0.50017860  1
  Cu+  Cu52  1  0.25149665  0.00169620  0.50476029  1
  Cu+  Cu53  1  0.25690861  0.50485298  0.50535244  1
  Cu+  Cu54  1  0.75082599  0.00304486  0.49968432  1
  Cu+  Cu55  1  0.75341959  0.50377258  0.50254360  1
  Cu+  Cu56  1  0.25798735  0.25450222  0.50515907  1
  Cu+  Cu57  1  0.24534638  0.74414745  0.50522465  1
  Cu+  Cu58  1  0.75162646  0.24876615  0.50297702  1
  Cu+  Cu59  1  0.75473280  0.75024880  0.50189163  1
  Cu+  Cu60  1  0.32896508  0.41095547  0.83525422  1
  Cu+  Cu61  1  0.32997017  0.91617786  0.83493978  1
  Cu+  Cu62  1  0.83011576  0.41468942  0.84037696  1
  Cu+  Cu63  1  0.83111977  0.91528120  0.83723433  1
  Cu+  Cu64  1  0.08566539  0.16987044  0.83761077  1
  Cu+  Cu65  1  0.08779755  0.67266860  0.83617110  1
  Cu+  Cu66  1  0.58768127  0.17124428  0.83748331  1
  Cu+  Cu67  1  0.58694478  0.67337867  0.83456936  1
  Cu+  Cu68  1  0.08570462  0.41704663  0.83772345  1
  Cu+  Cu69  1  0.08592678  0.91683576  0.83738015  1
  Cu+  Cu70  1  0.58172588  0.41053973  0.83772998  1
  Cu+  Cu71  1  0.58644333  0.91502131  0.83478263  1
  Cu+  Cu72  1  0.16984190  0.08836601  0.67573060  1
  Cu+  Cu73  1  0.16804781  0.58329074  0.68247513  1
  Cu+  Cu74  1  0.66843814  0.08374614  0.67246227  1
  Cu+  Cu75  1  0.67288473  0.58571285  0.67178449  1
  Cu+  Cu76  1  0.41673566  0.33318886  0.68071116  1
  Cu+  Cu77  1  0.41508968  0.83326728  0.68173074  1
  Cu+  Cu78  1  0.91403461  0.32840055  0.67221483  1
  Cu+  Cu79  1  0.91738782  0.83063236  0.67090991  1
  Cu+  Cu80  1  0.41926563  0.08921029  0.67461119  1
  Cu+  Cu81  1  0.41905239  0.58658007  0.68259669  1
  Cu+  Cu82  1  0.91564258  0.08225393  0.67390382  1
  Cu+  Cu83  1  0.91649600  0.58233875  0.67371012  1
  Cu+  Cu84  1  0.00338711  0.25100390  0.00868111  1
  Cu+  Cu85  1  0.00400065  0.75474663  0.00598463  1
  Cu+  Cu86  1  0.49964358  0.25085674  0.00970957  1
  Cu+  Cu87  1  0.50347275  0.75223897  0.01041850  1
  Cu+  Cu88  1  0.25022380  0.49805615  0.01531795  1
  Cu+  Cu89  1  0.24927982  0.99864631  0.00727970  1
  Cu+  Cu90  1  0.74898277  0.49749026  0.01209923  1
  Cu+  Cu91  1  0.75116549  0.99885873  0.00634564  1
  Cu+  Cu92  1  0.25281769  0.25226330  0.00918406  1
  Cu+  Cu93  1  0.25190439  0.75379234  0.01092903  1
  Cu+  Cu94  1  0.74949314  0.25200267  0.01386293  1
  Cu+  Cu95  1  0.75022891  0.75363383  0.00618533  1
  Cu+  Cu96  1  0.33551441  0.42025427  0.34950243  1
  Cu+  Cu97  1  0.33239066  0.91534849  0.34179591  1
  Cu+  Cu98  1  0.83143717  0.41687595  0.34166951  1
  Cu+  Cu99  1  0.83630471  0.91944401  0.34519432  1
  Cu+  Cu100  1  0.08227952  0.16331471  0.34614944  1
  Cu+  Cu101  1  0.07932962  0.65963519  0.34291116  1
  Cu+  Cu102  1  0.58023712  0.16473451  0.34338078  1
  Cu+  Cu103  1  0.57849977  0.66425291  0.34009531  1
  Cu+  Cu104  1  0.08329757  0.41764128  0.34041918  1
  Cu+  Cu105  1  0.08129764  0.91584743  0.34005451  1
  Cu+  Cu106  1  0.58039736  0.41755544  0.34250962  1
  Cu+  Cu107  1  0.57885090  0.91935952  0.34629422  1
  Cu+  Cu108  1  0.00294929  0.00131506  0.11644261  1
  Cu+  Cu109  1  0.00296935  0.50526772  0.11212177  1
  Cu+  Cu110  1  0.49732495  -0.00142617  0.11650348  1
  Cu+  Cu111  1  0.50260486  0.50465779  0.11582193  1
  Cu+  Cu112  1  0.33467799  0.16166417  0.44936964  1
  Cu+  Cu113  1  0.33272938  0.66853131  0.44928415  1
  Cu+  Cu114  1  0.83453584  0.17169506  0.44397823  1
  Cu+  Cu115  1  0.83107013  0.66635135  0.44312901  1
  Cu+  Cu116  1  0.16054672  0.33015895  0.78017650  1
  Cu+  Cu117  1  0.16437423  0.83631593  0.77838043  1
  Cu+  Cu118  1  0.67071829  0.33528994  0.78233184  1
  Cu+  Cu119  1  0.67277657  0.83831271  0.77774702  1
  Te2-  Te120  1  0.00165888  -0.00213743  0.39114272  1
  Te2-  Te121  1  -0.00406735  0.49364619  0.38648613  1
  Te2-  Te122  1  0.49496489  0.00126806  0.39023014  1
  Te2-  Te123  1  0.50251037  0.50286784  0.38992884  1
  Te2-  Te124  1  0.33338104  0.16641489  0.72232098  1
  Te2-  Te125  1  0.33408664  0.66753009  0.72676303  1
  Te2-  Te126  1  0.83276294  0.16430851  0.71683688  1
  Te2-  Te127  1  0.83659116  0.66722529  0.71702601  1
  Te2-  Te128  1  0.16701392  0.33045007  0.05502225  1
  Te2-  Te129  1  0.16735946  0.83461656  0.05243451  1
  Te2-  Te130  1  0.66315830  0.33199394  0.05824311  1
  Te2-  Te131  1  0.66851089  0.83522248  0.05234050  1
  Te2-  Te132  1  0.49200787  0.24199257  0.88398400  1
  Te2-  Te133  1  0.49038161  0.74523178  0.88395995  1
  Te2-  Te134  1  0.99885246  0.25012998  0.88266571  1
  Te2-  Te135  1  0.99721379  0.74892597  0.88026090  1
  Te2-  Te136  1  0.25371496  0.00575635  0.88138014  1
  Te2-  Te137  1  0.25618087  0.50900979  0.88640293  1
  Te2-  Te138  1  0.75254899  0.00491519  0.88042359  1
  Te2-  Te139  1  0.74920902  0.50249267  0.88432239  1
  Te2-  Te140  1  0.25276995  0.24421868  0.88330851  1
  Te2-  Te141  1  0.25713672  0.74695631  0.88450464  1
  Te2-  Te142  1  0.75249204  0.24764874  0.88631493  1
  Te2-  Te143  1  0.75220616  0.74759839  0.88073495  1
  Te2-  Te144  1  0.32072920  0.40719639  0.22155791  1
  Te2-  Te145  1  0.32709965  0.91294510  0.21638597  1
  Te2-  Te146  1  0.82007916  0.41095993  0.21568312  1
  Te2-  Te147  1  0.82719477  0.91450552  0.21825492  1
  Te2-  Te148  1  0.08510658  0.17147711  0.21905100  1
  Te2-  Te149  1  0.08267112  0.66664846  0.21515161  1
  Te2-  Te150  1  0.58164034  0.17219822  0.21749745  1
  Te2-  Te151  1  0.57972361  0.66665425  0.21431007  1
  Te2-  Te152  1  0.07926731  0.40666697  0.21494129  1
  Te2-  Te153  1  0.08485398  0.91506445  0.21485274  1
  Te2-  Te154  1  0.58123880  0.41024014  0.21684483  1
  Te2-  Te155  1  0.58587223  0.91470031  0.21937164  1
  Te2-  Te156  1  0.16375289  0.08177405  0.54988241  1
  Te2-  Te157  1  0.16130266  0.57563286  0.55350793  1
  Te2-  Te158  1  0.65944110  0.08077290  0.54685398  1
  Te2-  Te159  1  0.66514261  0.58299339  0.54623711  1
  Te2-  Te160  1  0.42591466  0.34603075  0.55313338  1
  Te2-  Te161  1  0.41337136  0.83883792  0.55272997  1
  Te2-  Te162  1  0.91989350  0.33375418  0.54622527  1
  Te2-  Te163  1  0.92591603  0.83767959  0.54513720  1
  Te2-  Te164  1  0.41951282  0.08497856  0.54880748  1
  Te2-  Te165  1  0.42560869  0.58757658  0.55360811  1
  Te2-  Te166  1  0.92172963  0.07556045  0.54779854  1
  Te2-  Te167  1  0.91953119  0.57332660  0.54797194  1
  Te2-  Te168  1  0.00023775  0.00039366  0.88101925  1
  Te2-  Te169  1  0.00070539  0.50220206  0.88309999  1
  Te2-  Te170  1  0.50105978  0.00027136  0.88077664  1
  Te2-  Te171  1  0.50146169  0.50161576  0.88218118  1
  Te2-  Te172  1  0.33277998  0.16697540  0.21656389  1
  Te2-  Te173  1  0.33206220  0.66658837  0.21858458  1
  Te2-  Te174  1  0.83317434  0.16740921  0.21552172  1
  Te2-  Te175  1  0.83340509  0.66835477  0.21535484  1
  Te2-  Te176  1  0.16692179  0.33443639  0.55063439  1
  Te2-  Te177  1  0.16513147  0.83340247  0.54916207  1
  Te2-  Te178  1  0.66921819  0.33496665  0.54823560  1
  Te2-  Te179  1  0.66873198  0.83397359  0.54845104  1
  Te2-  Te180  1  0.32479743  0.41415264  0.70884803  1
  Te2-  Te181  1  0.32676458  0.91814808  0.70837635  1
  Te2-  Te182  1  0.83004650  0.41309326  0.71253305  1
  Te2-  Te183  1  0.82964152  0.91243429  0.70934775  1
  Te2-  Te184  1  0.08541165  0.17344633  0.71065826  1
  Te2-  Te185  1  0.08621599  0.67427673  0.70945883  1
  Te2-  Te186  1  0.58869286  0.17330121  0.71113708  1
  Te2-  Te187  1  0.59168744  0.67394972  0.70866338  1
  Te2-  Te188  1  0.08345325  0.41032333  0.71011824  1
  Te2-  Te189  1  0.08723857  0.91663300  0.70957810  1
  Te2-  Te190  1  0.59008707  0.41663726  0.71066284  1
  Te2-  Te191  1  0.58823402  0.91432771  0.70794618  1
  Te2-  Te192  1  0.16276231  0.08195828  0.04563001  1
  Te2-  Te193  1  0.16191913  0.58290977  0.04461880  1
  Te2-  Te194  1  0.66088394  0.07856381  0.04505400  1
  Te2-  Te195  1  0.66139724  0.58322975  0.04352856  1
  Te2-  Te196  1  0.42118695  0.34173722  0.04609735  1
  Te2-  Te197  1  0.42047083  0.83805209  0.04834311  1
  Te2-  Te198  1  0.92301267  0.34138512  0.04171582  1
  Te2-  Te199  1  0.91945791  0.83941658  0.04473842  1
  Te2-  Te200  1  0.41867488  0.08062249  0.04577350  1
  Te2-  Te201  1  0.42236571  0.58220185  0.04599254  1
  Te2-  Te202  1  0.91996163  0.08160297  0.04595015  1
  Te2-  Te203  1  0.92218594  0.58401455  0.04175877  1
  Te2-  Te204  1  0.49287871  0.24777326  0.37921450  1
  Te2-  Te205  1  0.49208787  0.74675707  0.37767903  1
  Te2-  Te206  1  0.99554504  0.24846463  0.37598633  1
  Te2-  Te207  1  0.99188953  0.74531806  0.37363403  1
  Te2-  Te208  1  0.25006216  0.00246731  0.37826398  1
  Te2-  Te209  1  0.25119333  0.50821520  0.37853132  1
  Te2-  Te210  1  0.75294969  0.00915486  0.37350616  1
  Te2-  Te211  1  0.75107522  0.50605608  0.37629582  1
  Te2-  Te212  1  0.25459129  0.24615946  0.37795008  1
  Te2-  Te213  1  0.25144085  0.74519276  0.37741355  1
  Te2-  Te214  1  0.75083582  0.24690601  0.37644623  1
  Te2-  Te215  1  0.74913170  0.74640234  0.37443737  1
