# generated using pymatgen
data_Ti(CuTe)4
_symmetry_space_group_name_H-M   'P 1'
_cell_length_a   16.84010187
_cell_length_b   16.83911414
_cell_length_c   20.63885040
_cell_angle_alpha   89.95475676
_cell_angle_beta   90.03488355
_cell_angle_gamma   120.00903581
_symmetry_Int_Tables_number   1
_chemical_formula_structural   Ti(CuTe)4
_chemical_formula_sum   'Ti24 Cu96 Te96'
_cell_volume   5068.04416895
_cell_formula_units_Z   24
loop_
 _symmetry_equiv_pos_site_id
 _symmetry_equiv_pos_as_xyz
  1  'x, y, z'
loop_
 _atom_type_symbol
 _atom_type_oxidation_number
  Ti4+  4.0
  Cu+  1.0
  Te2-  -2.0
loop_
 _atom_site_type_symbol
 _atom_site_label
 _atom_site_symmetry_multiplicity
 _atom_site_fract_x
 _atom_site_fract_y
 _atom_site_fract_z
 _atom_site_occupancy
  Ti4+  Ti0  1  0.00085767  0.00016767  0.25505619  1
  Ti4+  Ti1  1  0.00140109  0.50309408  0.26008579  1
  Ti4+  Ti2  1  0.50021454  -0.00176081  0.25846039  1
  Ti4+  Ti3  1  0.50229031  0.49918422  0.25420246  1
  Ti4+  Ti4  1  0.33201228  0.16753487  0.58987153  1
  Ti4+  Ti5  1  0.33442354  0.66933491  0.59143941  1
  Ti4+  Ti6  1  0.83465943  0.16830495  0.58934785  1
  Ti4+  Ti7  1  0.83071882  0.66406424  0.59123401  1
  Ti4+  Ti8  1  0.16403438  0.33525690  0.92436888  1
  Ti4+  Ti9  1  0.16563579  0.83236208  0.92547254  1
  Ti4+  Ti10  1  0.66582604  0.33268903  0.92847155  1
  Ti4+  Ti11  1  0.66426763  0.83582943  0.92350895  1
  Ti4+  Ti12  1  -0.00048873  -0.00076602  0.75705669  1
  Ti4+  Ti13  1  0.00005659  0.49948645  0.75754182  1
  Ti4+  Ti14  1  0.50063925  0.00046585  0.75580158  1
  Ti4+  Ti15  1  0.49974950  0.49961112  0.75815321  1
  Ti4+  Ti16  1  0.33321886  0.16733477  0.08738494  1
  Ti4+  Ti17  1  0.33314565  0.66589887  0.09053883  1
  Ti4+  Ti18  1  0.83255941  0.16579048  0.09130347  1
  Ti4+  Ti19  1  0.83368098  0.66656435  0.08690001  1
  Ti4+  Ti20  1  0.16703424  0.33039184  0.42193895  1
  Ti4+  Ti21  1  0.16746032  0.83234964  0.42075872  1
  Ti4+  Ti22  1  0.66727340  0.33490966  0.42116423  1
  Ti4+  Ti23  1  0.66627619  0.83321413  0.42315921  1
  Cu+  Cu24  1  0.74814716  0.48451862  0.14469024  1
  Cu+  Cu25  1  0.06645146  0.13772030  0.47465192  1
  Cu+  Cu26  1  0.57079794  0.43004779  0.47322016  1
  Cu+  Cu27  1  0.73965928  0.76035092  0.13590000  1
  Cu+  Cu28  1  0.84946350  0.42941510  0.47718161  1
  Cu+  Cu29  1  0.08061139  0.42588403  0.47843424  1
  Cu+  Cu30  1  0.23798452  0.26367115  0.13723688  1
  Cu+  Cu31  1  0.90436625  0.09631868  0.80635596  1
  Cu+  Cu32  1  0.57176738  0.93094920  0.47483040  1
  Cu+  Cu33  1  0.02227992  0.76077910  0.14018685  1
  Cu+  Cu34  1  0.51759793  0.25559864  0.14409634  1
  Cu+  Cu35  1  0.40328935  0.59593162  0.80575755  1
  Cu+  Cu36  1  0.16404230  0.08777383  0.16683351  1
  Cu+  Cu37  1  0.16624457  0.58186668  0.17386431  1
  Cu+  Cu38  1  0.66455583  0.07807871  0.17343281  1
  Cu+  Cu39  1  0.66375419  0.58042961  0.16561352  1
  Cu+  Cu40  1  0.41740030  0.33442159  0.16721820  1
  Cu+  Cu41  1  0.41906917  0.83302925  0.17374466  1
  Cu+  Cu42  1  0.91744753  0.33398881  0.17531271  1
  Cu+  Cu43  1  0.91804548  0.83581113  0.16591772  1
  Cu+  Cu44  1  0.42072003  0.08136150  0.17025487  1
  Cu+  Cu45  1  0.41985463  0.58283871  0.16940302  1
  Cu+  Cu46  1  0.92087209  0.08426313  0.17073510  1
  Cu+  Cu47  1  0.92334278  0.58341734  0.17010781  1
  Cu+  Cu48  1  0.49671614  0.25446976  0.50202283  1
  Cu+  Cu49  1  0.49876673  0.75454239  0.50541670  1
  Cu+  Cu50  1  0.99790095  0.24742067  0.50281670  1
  Cu+  Cu51  1  0.99929898  0.74963925  0.50300201  1
  Cu+  Cu52  1  0.25061841  0.00067200  0.50261251  1
  Cu+  Cu53  1  0.25371971  0.50528516  0.50522443  1
  Cu+  Cu54  1  0.74760856  0.00179512  0.50397802  1
  Cu+  Cu55  1  0.74947206  0.50534054  0.50250873  1
  Cu+  Cu56  1  0.24630430  0.24050693  0.50098570  1
  Cu+  Cu57  1  0.25298579  0.74863106  0.50287463  1
  Cu+  Cu58  1  0.75644322  0.25232469  0.50113832  1
  Cu+  Cu59  1  0.75054765  0.74719186  0.50402404  1
  Cu+  Cu60  1  0.33187674  0.42137602  0.83932915  1
  Cu+  Cu61  1  0.33162843  0.91560367  0.83901165  1
  Cu+  Cu62  1  0.83131526  0.41622848  0.84192807  1
  Cu+  Cu63  1  0.83093415  0.92128960  0.83824513  1
  Cu+  Cu64  1  0.07851302  0.16860157  0.83870339  1
  Cu+  Cu65  1  0.08286134  0.66839367  0.84073553  1
  Cu+  Cu66  1  0.58223843  0.16746269  0.84097104  1
  Cu+  Cu67  1  0.57816435  0.66821576  0.83886588  1
  Cu+  Cu68  1  0.08480877  0.41518496  0.83747015  1
  Cu+  Cu69  1  0.08288385  0.91204150  0.84011244  1
  Cu+  Cu70  1  0.58450458  0.41317070  0.84216123  1
  Cu+  Cu71  1  0.58567683  0.91551002  0.83570202  1
  Cu+  Cu72  1  0.16809765  0.08120924  0.67569708  1
  Cu+  Cu73  1  0.16734748  0.58378536  0.67644303  1
  Cu+  Cu74  1  0.66811243  0.08513754  0.67460643  1
  Cu+  Cu75  1  0.66786986  0.57921857  0.67697633  1
  Cu+  Cu76  1  0.41750808  0.33155428  0.67501514  1
  Cu+  Cu77  1  0.41833673  0.83404477  0.67599089  1
  Cu+  Cu78  1  0.91785698  0.33305680  0.67657254  1
  Cu+  Cu79  1  0.91642810  0.82832348  0.67472099  1
  Cu+  Cu80  1  0.41609079  0.08620433  0.67313049  1
  Cu+  Cu81  1  0.41508535  0.58664632  0.67851359  1
  Cu+  Cu82  1  0.91542151  0.08442360  0.67839380  1
  Cu+  Cu83  1  0.91396153  0.58177581  0.67607664  1
  Cu+  Cu84  1  -0.00089156  0.25026437  0.00917965  1
  Cu+  Cu85  1  0.00449434  0.75094909  0.01248045  1
  Cu+  Cu86  1  0.50367877  0.25138920  0.01484454  1
  Cu+  Cu87  1  0.49998422  0.74998073  0.00771684  1
  Cu+  Cu88  1  0.24944009  0.49947236  0.00908848  1
  Cu+  Cu89  1  0.24834995  0.99791544  0.00788454  1
  Cu+  Cu90  1  0.74779569  0.49635299  0.01492106  1
  Cu+  Cu91  1  0.74996747  0.99965671  0.00858096  1
  Cu+  Cu92  1  0.24428885  0.25242148  0.00950169  1
  Cu+  Cu93  1  0.24796103  0.74935564  0.00859739  1
  Cu+  Cu94  1  0.74879835  0.24937255  0.01043798  1
  Cu+  Cu95  1  0.74590424  0.75358282  0.00845652  1
  Cu+  Cu96  1  0.33587205  0.41480696  0.33999784  1
  Cu+  Cu97  1  0.33525618  0.91509919  0.34024633  1
  Cu+  Cu98  1  0.83711879  0.41829243  0.34774522  1
  Cu+  Cu99  1  0.83479785  0.91546660  0.33947057  1
  Cu+  Cu100  1  0.08422961  0.16144535  0.34550751  1
  Cu+  Cu101  1  0.08338678  0.66602928  0.34207063  1
  Cu+  Cu102  1  0.58309855  0.16465813  0.34222654  1
  Cu+  Cu103  1  0.58493551  0.66454455  0.33956598  1
  Cu+  Cu104  1  0.08267385  0.41853356  0.34842144  1
  Cu+  Cu105  1  0.08318965  0.91736414  0.33776802  1
  Cu+  Cu106  1  0.58173880  0.41713506  0.34357838  1
  Cu+  Cu107  1  0.58103670  0.91793192  0.34652354  1
  Cu+  Cu108  1  -0.00147115  -0.00101628  0.11098363  1
  Cu+  Cu109  1  0.00347874  0.49598726  0.11764832  1
  Cu+  Cu110  1  0.49970201  -0.00469719  0.11570632  1
  Cu+  Cu111  1  0.49711450  0.49886857  0.11014349  1
  Cu+  Cu112  1  0.33466619  0.16056948  0.44509962  1
  Cu+  Cu113  1  0.33646015  0.66743574  0.44661106  1
  Cu+  Cu114  1  0.83403068  0.16351504  0.44478925  1
  Cu+  Cu115  1  0.83836875  0.67259383  0.44602116  1
  Cu+  Cu116  1  0.16952249  0.33101033  0.78119205  1
  Cu+  Cu117  1  0.17020038  0.83242241  0.78357383  1
  Cu+  Cu118  1  0.66866860  0.33023625  0.78692716  1
  Cu+  Cu119  1  0.66884348  0.83097984  0.77986704  1
  Te2-  Te120  1  -0.00224299  -0.00577546  0.38602934  1
  Te2-  Te121  1  0.00293759  0.50452676  0.39242604  1
  Te2-  Te122  1  0.49757762  0.00158699  0.38952101  1
  Te2-  Te123  1  0.49899660  0.50144375  0.38499831  1
  Te2-  Te124  1  0.33291008  0.16669149  0.71902388  1
  Te2-  Te125  1  0.33145738  0.67031665  0.72197662  1
  Te2-  Te126  1  0.83186967  0.16840431  0.71973171  1
  Te2-  Te127  1  0.83253756  0.66477104  0.72051487  1
  Te2-  Te128  1  0.16259337  0.33620871  0.05550223  1
  Te2-  Te129  1  0.17108099  0.83548817  0.05697209  1
  Te2-  Te130  1  0.66911443  0.33129798  0.06166590  1
  Te2-  Te131  1  0.66323138  0.83605681  0.05458360  1
  Te2-  Te132  1  0.49334010  0.24582620  0.88801074  1
  Te2-  Te133  1  0.48991232  0.74952687  0.88227205  1
  Te2-  Te134  1  0.98951199  0.24901686  0.88346719  1
  Te2-  Te135  1  0.99208527  0.74511797  0.88643862  1
  Te2-  Te136  1  0.25152621  0.00421740  0.88231292  1
  Te2-  Te137  1  0.25089663  0.50982869  0.88353540  1
  Te2-  Te138  1  0.75117715  0.01060858  0.88296491  1
  Te2-  Te139  1  0.75224194  0.50505565  0.88799942  1
  Te2-  Te140  1  0.24930862  0.24998990  0.88188676  1
  Te2-  Te141  1  0.25192929  0.74698947  0.88263297  1
  Te2-  Te142  1  0.75106460  0.24702507  0.88435032  1
  Te2-  Te143  1  0.74937221  0.75025545  0.88133258  1
  Te2-  Te144  1  0.32870251  0.41452803  0.21438703  1
  Te2-  Te145  1  0.32955101  0.91432372  0.21422375  1
  Te2-  Te146  1  0.82811057  0.41384083  0.22033089  1
  Te2-  Te147  1  0.82766171  0.91401600  0.21348719  1
  Te2-  Te148  1  0.08734248  0.17590465  0.21849392  1
  Te2-  Te149  1  0.09118454  0.67637992  0.21631727  1
  Te2-  Te150  1  0.59032038  0.17278531  0.21687338  1
  Te2-  Te151  1  0.58818246  0.67279431  0.21396284  1
  Te2-  Te152  1  0.08562141  0.41491406  0.22119173  1
  Te2-  Te153  1  0.08984997  0.91772703  0.21125832  1
  Te2-  Te154  1  0.58966748  0.41108604  0.21586066  1
  Te2-  Te155  1  0.58638103  0.91141522  0.21995766  1
  Te2-  Te156  1  0.15653647  0.07389173  0.54954883  1
  Te2-  Te157  1  0.16034777  0.58244156  0.55051836  1
  Te2-  Te158  1  0.66137448  0.08636350  0.54856409  1
  Te2-  Te159  1  0.65599170  0.57942007  0.55056724  1
  Te2-  Te160  1  0.41481564  0.34179086  0.54834374  1
  Te2-  Te161  1  0.41874187  0.84370768  0.55025275  1
  Te2-  Te162  1  0.92405010  0.34465310  0.55006793  1
  Te2-  Te163  1  0.91808310  0.83578119  0.54890292  1
  Te2-  Te164  1  0.42050847  0.08557869  0.54639351  1
  Te2-  Te165  1  0.42094572  0.58438033  0.55073581  1
  Te2-  Te166  1  0.91646038  0.07714008  0.55049908  1
  Te2-  Te167  1  0.92102248  0.58128607  0.54959660  1
  Te2-  Te168  1  -0.00007394  -0.00091061  0.88418783  1
  Te2-  Te169  1  0.00037181  0.49924947  0.88434091  1
  Te2-  Te170  1  0.49997193  -0.00172457  0.88273726  1
  Te2-  Te171  1  0.50058704  0.49946170  0.88533311  1
  Te2-  Te172  1  0.33361215  0.16522177  0.21536926  1
  Te2-  Te173  1  0.33494889  0.66443598  0.21757397  1
  Te2-  Te174  1  0.83374929  0.16469612  0.21819978  1
  Te2-  Te175  1  0.83394436  0.66641067  0.21563637  1
  Te2-  Te176  1  0.16832264  0.33267661  0.54970985  1
  Te2-  Te177  1  0.16766236  0.83254734  0.54769351  1
  Te2-  Te178  1  0.66719388  0.33353665  0.54881859  1
  Te2-  Te179  1  0.66802334  0.83309469  0.55043960  1
  Te2-  Te180  1  0.32828374  0.41312759  0.71109201  1
  Te2-  Te181  1  0.32891516  0.91570515  0.71118644  1
  Te2-  Te182  1  0.82729657  0.41240164  0.71408012  1
  Te2-  Te183  1  0.82800611  0.91103046  0.71011568  1
  Te2-  Te184  1  0.08792338  0.17165475  0.71083765  1
  Te2-  Te185  1  0.08471182  0.67153520  0.71306692  1
  Te2-  Te186  1  0.58582126  0.17289053  0.71276091  1
  Te2-  Te187  1  0.58811724  0.67116862  0.71106037  1
  Te2-  Te188  1  0.08744587  0.41395050  0.71152112  1
  Te2-  Te189  1  0.08507664  0.91184908  0.71346715  1
  Te2-  Te190  1  0.58522305  0.41119414  0.71571247  1
  Te2-  Te191  1  0.58835949  0.91530523  0.70991173  1
  Te2-  Te192  1  0.15960149  0.07968571  0.04064936  1
  Te2-  Te193  1  0.16084982  0.58006789  0.04656064  1
  Te2-  Te194  1  0.66028781  0.07925598  0.04641449  1
  Te2-  Te195  1  0.65850624  0.58095347  0.03931454  1
  Te2-  Te196  1  0.41824174  0.34073758  0.03979257  1
  Te2-  Te197  1  0.41830094  0.83734053  0.04590927  1
  Te2-  Te198  1  0.91842293  0.33847031  0.04771969  1
  Te2-  Te199  1  0.91897845  0.84007511  0.03892700  1
  Te2-  Te200  1  0.41831380  0.07760904  0.04354936  1
  Te2-  Te201  1  0.41909559  0.58077373  0.04299186  1
  Te2-  Te202  1  0.91927826  0.08102176  0.04433973  1
  Te2-  Te203  1  0.92123513  0.57778601  0.04345608  1
  Te2-  Te204  1  0.49356266  0.24496252  0.37493626  1
  Te2-  Te205  1  0.49453719  0.74408789  0.37711197  1
  Te2-  Te206  1  0.99331417  0.24416045  0.37505285  1
  Te2-  Te207  1  0.99503586  0.74796615  0.37557602  1
  Te2-  Te208  1  0.25280089  0.00367211  0.37488491  1
  Te2-  Te209  1  0.25632223  0.50462143  0.37760876  1
  Te2-  Te210  1  0.75494413  0.00499604  0.37616941  1
  Te2-  Te211  1  0.75447368  0.50955131  0.37497503  1
  Te2-  Te212  1  0.25663708  0.24605574  0.37509170  1
  Te2-  Te213  1  0.25382901  0.74556550  0.37637433  1
  Te2-  Te214  1  0.75270510  0.24496142  0.37502619  1
  Te2-  Te215  1  0.75274048  0.74710615  0.37735657  1
