# generated using pymatgen
data_Ti(CuTe)4
_symmetry_space_group_name_H-M   'P 1'
_cell_length_a   16.89010582
_cell_length_b   16.88874690
_cell_length_c   20.70951024
_cell_angle_alpha   90.01871751
_cell_angle_beta   89.96124784
_cell_angle_gamma   119.99649694
_symmetry_Int_Tables_number   1
_chemical_formula_structural   Ti(CuTe)4
_chemical_formula_sum   'Ti24 Cu96 Te96'
_cell_volume   5116.17613525
_cell_formula_units_Z   24
loop_
 _symmetry_equiv_pos_site_id
 _symmetry_equiv_pos_as_xyz
  1  'x, y, z'
loop_
 _atom_type_symbol
 _atom_type_oxidation_number
  Ti4+  4.0
  Cu+  1.0
  Te2-  -2.0
loop_
 _atom_site_type_symbol
 _atom_site_label
 _atom_site_symmetry_multiplicity
 _atom_site_fract_x
 _atom_site_fract_y
 _atom_site_fract_z
 _atom_site_occupancy
  Ti4+  Ti0  1  0.00268233  -0.00042243  0.25572600  1
  Ti4+  Ti1  1  -0.00024131  0.49845364  0.25991827  1
  Ti4+  Ti2  1  0.49952849  -0.00254806  0.25665255  1
  Ti4+  Ti3  1  0.50361749  0.49938474  0.25940255  1
  Ti4+  Ti4  1  0.33346952  0.16972730  0.59049878  1
  Ti4+  Ti5  1  0.33239384  0.66806109  0.59012472  1
  Ti4+  Ti6  1  0.83506185  0.17135668  0.58894573  1
  Ti4+  Ti7  1  0.83192857  0.66724536  0.59631802  1
  Ti4+  Ti8  1  0.16782079  0.33171800  0.92517309  1
  Ti4+  Ti9  1  0.16476765  0.82989882  0.92389319  1
  Ti4+  Ti10  1  0.66600740  0.33189825  0.92468410  1
  Ti4+  Ti11  1  0.66513426  0.83485279  0.92000895  1
  Ti4+  Ti12  1  -0.00068737  0.00159522  0.75337580  1
  Ti4+  Ti13  1  -0.00067426  0.50182658  0.75668010  1
  Ti4+  Ti14  1  0.50063238  0.00028942  0.75317920  1
  Ti4+  Ti15  1  0.49720905  0.49841519  0.75441797  1
  Ti4+  Ti16  1  0.33259103  0.16456981  0.08779976  1
  Ti4+  Ti17  1  0.33351667  0.66626986  0.08892486  1
  Ti4+  Ti18  1  0.83447021  0.16663268  0.08893072  1
  Ti4+  Ti19  1  0.83182357  0.66478576  0.09030930  1
  Ti4+  Ti20  1  0.16686699  0.33364799  0.42078794  1
  Ti4+  Ti21  1  0.16708386  0.83269887  0.42368634  1
  Ti4+  Ti22  1  0.66564003  0.33320844  0.42287567  1
  Ti4+  Ti23  1  0.66843617  0.83413281  0.42221524  1
  Cu+  Cu24  1  0.91174890  0.82427042  0.81453304  1
  Cu+  Cu25  1  0.40320518  0.30837597  0.80711964  1
  Cu+  Cu26  1  0.02009149  0.75715105  0.14379866  1
  Cu+  Cu27  1  0.57401276  0.43047980  0.47776467  1
  Cu+  Cu28  1  0.74006005  0.47609303  0.14410004  1
  Cu+  Cu29  1  0.69023370  0.09604315  0.80268757  1
  Cu+  Cu30  1  0.02474261  0.26150978  0.14242666  1
  Cu+  Cu31  1  0.40475131  0.81112479  0.80430793  1
  Cu+  Cu32  1  0.90884929  0.58809760  0.81785136  1
  Cu+  Cu33  1  0.07904185  0.43017834  0.47643446  1
  Cu+  Cu34  1  0.67155336  0.58474957  0.81683183  1
  Cu+  Cu35  1  0.84668838  0.43021104  0.47925743  1
  Cu+  Cu36  1  0.16293461  0.07792127  0.16821793  1
  Cu+  Cu37  1  0.16533679  0.58148665  0.17177904  1
  Cu+  Cu38  1  0.66216634  0.07913634  0.17135978  1
  Cu+  Cu39  1  0.66337912  0.57484419  0.17246902  1
  Cu+  Cu40  1  0.42121398  0.33395653  0.17197984  1
  Cu+  Cu41  1  0.41871354  0.83580984  0.17061716  1
  Cu+  Cu42  1  0.92141736  0.33457238  0.17274745  1
  Cu+  Cu43  1  0.92242124  0.83586407  0.17032243  1
  Cu+  Cu44  1  0.41744652  0.07928574  0.17059516  1
  Cu+  Cu45  1  0.42203697  0.58484580  0.17277968  1
  Cu+  Cu46  1  0.92265319  0.08548592  0.17012799  1
  Cu+  Cu47  1  0.91614098  0.57967974  0.17289299  1
  Cu+  Cu48  1  0.49544933  0.25517624  0.50392742  1
  Cu+  Cu49  1  0.49843710  0.75098806  0.50478462  1
  Cu+  Cu50  1  0.99782168  0.25496678  0.50124674  1
  Cu+  Cu51  1  0.99876761  0.74949976  0.50850960  1
  Cu+  Cu52  1  0.25109246  0.00335279  0.50539218  1
  Cu+  Cu53  1  0.24984762  0.50544099  0.50328449  1
  Cu+  Cu54  1  0.75165868  0.00496899  0.50352442  1
  Cu+  Cu55  1  0.74983714  0.50598098  0.50775988  1
  Cu+  Cu56  1  0.25321985  0.25086365  0.50348689  1
  Cu+  Cu57  1  0.25254693  0.75025050  0.50456621  1
  Cu+  Cu58  1  0.75592349  0.25339916  0.50251867  1
  Cu+  Cu59  1  0.75192220  0.75109816  0.50768197  1
  Cu+  Cu60  1  0.32823202  0.40848667  0.83653562  1
  Cu+  Cu61  1  0.33043378  0.90954637  0.83573857  1
  Cu+  Cu62  1  0.82785975  0.41550572  0.83818982  1
  Cu+  Cu63  1  0.82734068  0.91480774  0.83253815  1
  Cu+  Cu64  1  0.08502213  0.17183652  0.83706016  1
  Cu+  Cu65  1  0.08326825  0.67181292  0.83708333  1
  Cu+  Cu66  1  0.58897231  0.16854459  0.83556313  1
  Cu+  Cu67  1  0.58439698  0.67265997  0.83322772  1
  Cu+  Cu68  1  0.08456753  0.41525661  0.84033650  1
  Cu+  Cu69  1  0.08344739  0.91427296  0.83624049  1
  Cu+  Cu70  1  0.58036954  0.41058314  0.83641433  1
  Cu+  Cu71  1  0.58405516  0.91610882  0.83209825  1
  Cu+  Cu72  1  0.16859258  0.08775474  0.67390650  1
  Cu+  Cu73  1  0.16700365  0.58545089  0.67586318  1
  Cu+  Cu74  1  0.67207596  0.08911863  0.67484109  1
  Cu+  Cu75  1  0.66705843  0.58427388  0.68318407  1
  Cu+  Cu76  1  0.41320898  0.33051394  0.67889847  1
  Cu+  Cu77  1  0.41431947  0.83067441  0.67614384  1
  Cu+  Cu78  1  0.91714916  0.33542479  0.67551846  1
  Cu+  Cu79  1  0.91460742  0.83142589  0.68252147  1
  Cu+  Cu80  1  0.41580380  0.08711128  0.67249623  1
  Cu+  Cu81  1  0.41168636  0.58364106  0.67247216  1
  Cu+  Cu82  1  0.91761301  0.08866153  0.67165518  1
  Cu+  Cu83  1  0.91406216  0.58532331  0.68440305  1
  Cu+  Cu84  1  0.00509704  0.25253018  0.01329468  1
  Cu+  Cu85  1  0.00008854  0.74931092  0.01487521  1
  Cu+  Cu86  1  0.50052623  0.24928430  0.00831945  1
  Cu+  Cu87  1  0.50071762  0.75150426  0.00568271  1
  Cu+  Cu88  1  0.25002927  0.49680479  0.00828760  1
  Cu+  Cu89  1  0.24722359  0.99488880  0.00662083  1
  Cu+  Cu90  1  0.74511191  0.49592843  0.01557568  1
  Cu+  Cu91  1  0.74808678  0.99901797  0.00458801  1
  Cu+  Cu92  1  0.24961948  0.24920691  0.00924364  1
  Cu+  Cu93  1  0.24740047  0.74772645  0.00860246  1
  Cu+  Cu94  1  0.74989905  0.25050530  0.00944219  1
  Cu+  Cu95  1  0.74594069  0.74978613  0.00838831  1
  Cu+  Cu96  1  0.33809607  0.41752638  0.34161826  1
  Cu+  Cu97  1  0.33579225  0.91629302  0.34044403  1
  Cu+  Cu98  1  0.83422997  0.41534782  0.34830732  1
  Cu+  Cu99  1  0.83841455  0.91805820  0.33938142  1
  Cu+  Cu100  1  0.08405300  0.16339548  0.34028977  1
  Cu+  Cu101  1  0.08207538  0.66485476  0.34444018  1
  Cu+  Cu102  1  0.57825465  0.15956130  0.34018858  1
  Cu+  Cu103  1  0.58636403  0.66466254  0.34266385  1
  Cu+  Cu104  1  0.08203863  0.41649658  0.34745947  1
  Cu+  Cu105  1  0.08244911  0.91515983  0.34174375  1
  Cu+  Cu106  1  0.58312355  0.41763207  0.34792536  1
  Cu+  Cu107  1  0.58263704  0.91698260  0.33972774  1
  Cu+  Cu108  1  -0.00348141  -0.00230199  0.11191706  1
  Cu+  Cu109  1  0.00156324  0.49960443  0.11699632  1
  Cu+  Cu110  1  0.49972987  -0.00086264  0.11345994  1
  Cu+  Cu111  1  0.49532150  0.49763142  0.11694638  1
  Cu+  Cu112  1  0.33082459  0.16349350  0.44738952  1
  Cu+  Cu113  1  0.33764897  0.66917642  0.44683457  1
  Cu+  Cu114  1  0.83323533  0.16370473  0.44468054  1
  Cu+  Cu115  1  0.83720504  0.67366300  0.45304426  1
  Cu+  Cu116  1  0.16347248  0.33570877  0.78149912  1
  Cu+  Cu117  1  0.17013964  0.83990703  0.77942461  1
  Cu+  Cu118  1  0.66484634  0.33082387  0.78009074  1
  Cu+  Cu119  1  0.66536485  0.83472078  0.77349562  1
  Te2-  Te120  1  0.00190287  -0.00053744  0.38461322  1
  Te2-  Te121  1  0.00040939  0.50159979  0.39165935  1
  Te2-  Te122  1  0.49918903  -0.00332803  0.38617616  1
  Te2-  Te123  1  0.50075099  0.50178048  0.39013846  1
  Te2-  Te124  1  0.33106388  0.16398449  0.72145320  1
  Te2-  Te125  1  0.33084479  0.66479686  0.72092662  1
  Te2-  Te126  1  0.83776956  0.17118661  0.71949224  1
  Te2-  Te127  1  0.83119605  0.66704676  0.72997491  1
  Te2-  Te128  1  0.17123634  0.33416444  0.05584629  1
  Te2-  Te129  1  0.16754030  0.83178251  0.05394732  1
  Te2-  Te130  1  0.66410123  0.32853917  0.05489067  1
  Te2-  Te131  1  0.66539530  0.83481299  0.04841566  1
  Te2-  Te132  1  0.49438071  0.24251008  0.88196617  1
  Te2-  Te133  1  0.49242322  0.74600244  0.87960329  1
  Te2-  Te134  1  0.99572956  0.24787881  0.88589429  1
  Te2-  Te135  1  0.98770850  0.74449377  0.88702630  1
  Te2-  Te136  1  0.25096362  -0.00084540  0.88015845  1
  Te2-  Te137  1  0.25409880  0.50235984  0.88219440  1
  Te2-  Te138  1  0.75396008  0.00739835  0.87874435  1
  Te2-  Te139  1  0.75109066  0.50817321  0.88771258  1
  Te2-  Te140  1  0.25126086  0.24063462  0.88354559  1
  Te2-  Te141  1  0.24915816  0.74117664  0.88256956  1
  Te2-  Te142  1  0.75647715  0.24940408  0.88329602  1
  Te2-  Te143  1  0.75301136  0.74542088  0.88254209  1
  Te2-  Te144  1  0.33360826  0.41526045  0.21547842  1
  Te2-  Te145  1  0.32733226  0.91183248  0.21493613  1
  Te2-  Te146  1  0.82753655  0.40938960  0.21991106  1
  Te2-  Te147  1  0.83244501  0.91539415  0.21297262  1
  Te2-  Te148  1  0.09250518  0.17383970  0.21469086  1
  Te2-  Te149  1  0.08705318  0.67057730  0.21792617  1
  Te2-  Te150  1  0.58510177  0.16999375  0.21481094  1
  Te2-  Te151  1  0.59049480  0.67001689  0.21666501  1
  Te2-  Te152  1  0.08957306  0.41521097  0.21983136  1
  Te2-  Te153  1  0.09097556  0.91270453  0.21611299  1
  Te2-  Te154  1  0.58715172  0.40783339  0.22055877  1
  Te2-  Te155  1  0.58623809  0.91166659  0.21442101  1
  Te2-  Te156  1  0.16240338  0.08373041  0.54823979  1
  Te2-  Te157  1  0.15833097  0.58386285  0.55031926  1
  Te2-  Te158  1  0.66427673  0.08623103  0.54797618  1
  Te2-  Te159  1  0.65935416  0.58355235  0.55464146  1
  Te2-  Te160  1  0.41815672  0.34496907  0.55231917  1
  Te2-  Te161  1  0.41938093  0.83966071  0.54964065  1
  Te2-  Te162  1  0.92342718  0.34870475  0.55006769  1
  Te2-  Te163  1  0.91867342  0.83688957  0.55456934  1
  Te2-  Te164  1  0.42071131  0.08646440  0.54689382  1
  Te2-  Te165  1  0.41678547  0.58158958  0.54690754  1
  Te2-  Te166  1  0.92109517  0.08731939  0.54581333  1
  Te2-  Te167  1  0.91980065  0.58252298  0.55580691  1
  Te2-  Te168  1  -0.00236101  0.00020660  0.88051674  1
  Te2-  Te169  1  -0.00060769  0.50031988  0.88374005  1
  Te2-  Te170  1  0.49939300  -0.00058293  0.88067880  1
  Te2-  Te171  1  0.49904362  0.50166484  0.88205237  1
  Te2-  Te172  1  0.33253291  0.16363364  0.21398565  1
  Te2-  Te173  1  0.33498186  0.66704984  0.21526906  1
  Te2-  Te174  1  0.83211666  0.16411374  0.21565465  1
  Te2-  Te175  1  0.83332959  0.66738828  0.21756978  1
  Te2-  Te176  1  0.16704037  0.33494065  0.54771129  1
  Te2-  Te177  1  0.16845032  0.83520602  0.55010533  1
  Te2-  Te178  1  0.66546465  0.33306969  0.55022441  1
  Te2-  Te179  1  0.66736343  0.83691147  0.54854240  1
  Te2-  Te180  1  0.32429515  0.41445391  0.70989347  1
  Te2-  Te181  1  0.32804907  0.91678064  0.70831868  1
  Te2-  Te182  1  0.82550783  0.41266373  0.71159229  1
  Te2-  Te183  1  0.82699882  0.91804354  0.70624415  1
  Te2-  Te184  1  0.08606528  0.17455822  0.71099767  1
  Te2-  Te185  1  0.08740230  0.67548895  0.71119420  1
  Te2-  Te186  1  0.58512495  0.17364157  0.70868070  1
  Te2-  Te187  1  0.58125000  0.67207198  0.70742480  1
  Te2-  Te188  1  0.08587479  0.41625652  0.71305807  1
  Te2-  Te189  1  0.08817693  0.91697777  0.70906350  1
  Te2-  Te190  1  0.58562191  0.41166595  0.70942105  1
  Te2-  Te191  1  0.58766746  0.91571922  0.70460594  1
  Te2-  Te192  1  0.16036384  0.07797505  0.04266802  1
  Te2-  Te193  1  0.16112515  0.57808451  0.04540000  1
  Te2-  Te194  1  0.66214076  0.08073449  0.04472807  1
  Te2-  Te195  1  0.65795807  0.58091167  0.04589945  1
  Te2-  Te196  1  0.41980919  0.33779569  0.04533120  1
  Te2-  Te197  1  0.41786087  0.83758690  0.04386556  1
  Te2-  Te198  1  0.91980222  0.34008273  0.04554580  1
  Te2-  Te199  1  0.91555389  0.83742739  0.04345903  1
  Te2-  Te200  1  0.41780443  0.07820345  0.04343702  1
  Te2-  Te201  1  0.42047523  0.58199255  0.04511520  1
  Te2-  Te202  1  0.91773781  0.07873520  0.04237283  1
  Te2-  Te203  1  0.91818507  0.57679726  0.04524101  1
  Te2-  Te204  1  0.49319660  0.24435651  0.37734288  1
  Te2-  Te205  1  0.49763639  0.74733820  0.37768159  1
  Te2-  Te206  1  0.99385391  0.24360505  0.37489533  1
  Te2-  Te207  1  0.99438595  0.74659919  0.38130902  1
  Te2-  Te208  1  0.25259354  0.00300454  0.37836805  1
  Te2-  Te209  1  0.25584429  0.50673395  0.37595137  1
  Te2-  Te210  1  0.75322923  0.00380078  0.37612837  1
  Te2-  Te211  1  0.75542671  0.50871272  0.37986586  1
  Te2-  Te212  1  0.25380191  0.24763995  0.37757939  1
  Te2-  Te213  1  0.25285628  0.74684890  0.37853542  1
  Te2-  Te214  1  0.74826140  0.24266818  0.37666895  1
  Te2-  Te215  1  0.75581244  0.74907994  0.38041525  1
