# generated using pymatgen
data_Ti(CuTe)4
_symmetry_space_group_name_H-M   'P 1'
_cell_length_a   16.87680627
_cell_length_b   16.87850902
_cell_length_c   20.69221768
_cell_angle_alpha   90.02739671
_cell_angle_beta   89.98612123
_cell_angle_gamma   119.98757595
_symmetry_Int_Tables_number   1
_chemical_formula_structural   Ti(CuTe)4
_chemical_formula_sum   'Ti24 Cu96 Te96'
_cell_volume   5105.24187699
_cell_formula_units_Z   24
loop_
 _symmetry_equiv_pos_site_id
 _symmetry_equiv_pos_as_xyz
  1  'x, y, z'
loop_
 _atom_type_symbol
 _atom_type_oxidation_number
  Ti4+  4.0
  Cu+  1.0
  Te2-  -2.0
loop_
 _atom_site_type_symbol
 _atom_site_label
 _atom_site_symmetry_multiplicity
 _atom_site_fract_x
 _atom_site_fract_y
 _atom_site_fract_z
 _atom_site_occupancy
  Ti4+  Ti0  1  0.00031554  0.00004210  0.25998712  1
  Ti4+  Ti1  1  0.00185796  0.50252714  0.25472760  1
  Ti4+  Ti2  1  0.49948321  -0.00263086  0.25816773  1
  Ti4+  Ti3  1  0.50136749  0.49776634  0.25644924  1
  Ti4+  Ti4  1  0.33559776  0.16623086  0.59339380  1
  Ti4+  Ti5  1  0.33394024  0.66721408  0.59436770  1
  Ti4+  Ti6  1  0.83091580  0.16622841  0.58965668  1
  Ti4+  Ti7  1  0.83536013  0.67191107  0.59002022  1
  Ti4+  Ti8  1  0.16476366  0.33121646  0.92213464  1
  Ti4+  Ti9  1  0.16744781  0.83126527  0.92433480  1
  Ti4+  Ti10  1  0.66189878  0.33218599  0.92461410  1
  Ti4+  Ti11  1  0.66708752  0.83480071  0.92801133  1
  Ti4+  Ti12  1  -0.00007602  0.00123340  0.75658578  1
  Ti4+  Ti13  1  0.00106522  0.50164953  0.75434322  1
  Ti4+  Ti14  1  0.49978293  0.00010211  0.75633246  1
  Ti4+  Ti15  1  0.49913860  0.49889511  0.75495268  1
  Ti4+  Ti16  1  0.33420648  0.16702027  0.09030003  1
  Ti4+  Ti17  1  0.33206961  0.66759652  0.08776895  1
  Ti4+  Ti18  1  0.83219542  0.16535902  0.08780404  1
  Ti4+  Ti19  1  0.83235998  0.66563478  0.08665810  1
  Ti4+  Ti20  1  0.16789040  0.33528358  0.42172872  1
  Ti4+  Ti21  1  0.16656228  0.83387245  0.42327370  1
  Ti4+  Ti22  1  0.66539385  0.33078422  0.42358308  1
  Ti4+  Ti23  1  0.66829145  0.83454114  0.42150079  1
  Cu+  Cu24  1  0.56719410  0.13733501  0.47412654  1
  Cu+  Cu25  1  0.40355371  0.31397048  0.80890478  1
  Cu+  Cu26  1  0.74543857  0.98217104  0.14472151  1
  Cu+  Cu27  1  0.51851058  0.25413192  0.14526502  1
  Cu+  Cu28  1  0.08040541  0.93176706  0.47739666  1
  Cu+  Cu29  1  0.74539638  0.48237875  0.14125248  1
  Cu+  Cu30  1  0.51326923  0.75264749  0.14524959  1
  Cu+  Cu31  1  0.23887828  0.76374122  0.13942350  1
  Cu+  Cu32  1  0.18568564  0.58822843  0.80825205  1
  Cu+  Cu33  1  0.41453137  0.81754828  0.81214799  1
  Cu+  Cu34  1  0.85129476  0.93032512  0.47630261  1
  Cu+  Cu35  1  0.40267860  0.08426815  0.81072034  1
  Cu+  Cu36  1  0.16412350  0.08047149  0.17400754  1
  Cu+  Cu37  1  0.16299656  0.58798538  0.16780558  1
  Cu+  Cu38  1  0.66504688  0.07886661  0.16939405  1
  Cu+  Cu39  1  0.66302570  0.57721457  0.16689146  1
  Cu+  Cu40  1  0.42248469  0.33582819  0.16980194  1
  Cu+  Cu41  1  0.41559077  0.83502546  0.16904899  1
  Cu+  Cu42  1  0.92141891  0.33818865  0.16759785  1
  Cu+  Cu43  1  0.92063722  0.83767270  0.17164882  1
  Cu+  Cu44  1  0.42048324  0.08224867  0.17233317  1
  Cu+  Cu45  1  0.41904713  0.58054007  0.17006469  1
  Cu+  Cu46  1  0.91689504  0.08024519  0.17222043  1
  Cu+  Cu47  1  0.91899219  0.58088592  0.16719755  1
  Cu+  Cu48  1  0.49869603  0.24337205  0.50737617  1
  Cu+  Cu49  1  0.49718536  0.75063532  0.50720002  1
  Cu+  Cu50  1  0.99756405  0.25204133  0.50212927  1
  Cu+  Cu51  1  0.99756486  0.75495813  0.50287932  1
  Cu+  Cu52  1  0.25294533  0.00448502  0.50568809  1
  Cu+  Cu53  1  0.25025309  0.50350361  0.50617907  1
  Cu+  Cu54  1  0.75401486  0.00626623  0.50200284  1
  Cu+  Cu55  1  0.75176168  0.50511579  0.50578146  1
  Cu+  Cu56  1  0.25544382  0.25429868  0.50546898  1
  Cu+  Cu57  1  0.25339246  0.74867406  0.50867783  1
  Cu+  Cu58  1  0.74305271  0.24180048  0.50401194  1
  Cu+  Cu59  1  0.75690120  0.75413202  0.50230811  1
  Cu+  Cu60  1  0.32713400  0.40963045  0.83435036  1
  Cu+  Cu61  1  0.32858828  0.91067469  0.83694697  1
  Cu+  Cu62  1  0.82891642  0.41792176  0.83777682  1
  Cu+  Cu63  1  0.83173714  0.92025061  0.84147075  1
  Cu+  Cu64  1  0.08284645  0.16987514  0.83597847  1
  Cu+  Cu65  1  0.08883740  0.66770904  0.83637690  1
  Cu+  Cu66  1  0.57862859  0.17116029  0.83613179  1
  Cu+  Cu67  1  0.58397704  0.66912176  0.83939017  1
  Cu+  Cu68  1  0.08536269  0.41626130  0.83586846  1
  Cu+  Cu69  1  0.08267191  0.91471008  0.83851399  1
  Cu+  Cu70  1  0.57930761  0.41123630  0.83693523  1
  Cu+  Cu71  1  0.58594672  0.91416476  0.84114506  1
  Cu+  Cu72  1  0.16787182  0.08415550  0.67629315  1
  Cu+  Cu73  1  0.17140969  0.58664695  0.68011960  1
  Cu+  Cu74  1  0.66899624  0.08374625  0.67515275  1
  Cu+  Cu75  1  0.67095842  0.58854177  0.67316602  1
  Cu+  Cu76  1  0.41880254  0.33043833  0.67965756  1
  Cu+  Cu77  1  0.41682432  0.83072346  0.68216126  1
  Cu+  Cu78  1  0.91229892  0.33111455  0.67124096  1
  Cu+  Cu79  1  0.91531923  0.83439532  0.67697879  1
  Cu+  Cu80  1  0.41756934  0.08468900  0.68169488  1
  Cu+  Cu81  1  0.41693435  0.58382251  0.67489627  1
  Cu+  Cu82  1  0.91414426  0.08477133  0.67423870  1
  Cu+  Cu83  1  0.91598507  0.58798054  0.67209526  1
  Cu+  Cu84  1  0.00085797  0.24977461  0.00461402  1
  Cu+  Cu85  1  0.00083632  0.75011562  0.00638214  1
  Cu+  Cu86  1  0.49960762  0.25086827  0.01548286  1
  Cu+  Cu87  1  0.50233612  0.75231668  0.01585611  1
  Cu+  Cu88  1  0.24648244  0.49490968  0.00585564  1
  Cu+  Cu89  1  0.24943986  0.99819322  0.00990544  1
  Cu+  Cu90  1  0.74523901  0.49645579  0.01149803  1
  Cu+  Cu91  1  0.74690106  0.99644267  0.01508656  1
  Cu+  Cu92  1  0.24609237  0.24902710  0.00783796  1
  Cu+  Cu93  1  0.24762748  0.75059878  0.01294093  1
  Cu+  Cu94  1  0.74760650  0.25044127  0.00501334  1
  Cu+  Cu95  1  0.75189830  0.75354533  0.00850884  1
  Cu+  Cu96  1  0.33631388  0.41904664  0.33921747  1
  Cu+  Cu97  1  0.33251202  0.91419195  0.34338075  1
  Cu+  Cu98  1  0.83640762  0.41858551  0.33963873  1
  Cu+  Cu99  1  0.83577672  0.91829049  0.34742258  1
  Cu+  Cu100  1  0.08449643  0.16733319  0.34155076  1
  Cu+  Cu101  1  0.08426503  0.66536734  0.34055093  1
  Cu+  Cu102  1  0.58027500  0.16113282  0.34707182  1
  Cu+  Cu103  1  0.58110426  0.66332556  0.34140165  1
  Cu+  Cu104  1  0.08552932  0.42149369  0.33694935  1
  Cu+  Cu105  1  0.08281127  0.91873164  0.34806296  1
  Cu+  Cu106  1  0.58206612  0.41512844  0.34331928  1
  Cu+  Cu107  1  0.58236915  0.91409070  0.34346881  1
  Cu+  Cu108  1  0.00330669  0.00274760  0.11642392  1
  Cu+  Cu109  1  -0.00082161  0.49721310  0.10861116  1
  Cu+  Cu110  1  0.50082968  0.00147122  0.11347332  1
  Cu+  Cu111  1  0.49737662  0.49937214  0.11088419  1
  Cu+  Cu112  1  0.33435486  0.17138590  0.45041289  1
  Cu+  Cu113  1  0.33415105  0.66531979  0.45178830  1
  Cu+  Cu114  1  0.83788298  0.17449260  0.44513533  1
  Cu+  Cu115  1  0.83193007  0.66240322  0.44597621  1
  Cu+  Cu116  1  0.16236348  0.33229241  0.77668808  1
  Cu+  Cu117  1  0.15894052  0.83094902  0.78119577  1
  Cu+  Cu118  1  0.67115323  0.33796386  0.78032261  1
  Cu+  Cu119  1  0.67115969  0.83177789  0.78553299  1
  Te2-  Te120  1  0.00230868  0.00477033  0.39163348  1
  Te2-  Te121  1  0.00093902  0.50045722  0.38338565  1
  Te2-  Te122  1  0.49711831  -0.00637219  0.38824173  1
  Te2-  Te123  1  0.50012998  0.49864600  0.38495096  1
  Te2-  Te124  1  0.33116605  0.16450959  0.72510708  1
  Te2-  Te125  1  0.33650365  0.66503990  0.72662622  1
  Te2-  Te126  1  0.83341341  0.16831612  0.71852864  1
  Te2-  Te127  1  0.83448623  0.66946855  0.71905179  1
  Te2-  Te128  1  0.16410600  0.33164362  0.05107617  1
  Te2-  Te129  1  0.16406730  0.83390859  0.05454493  1
  Te2-  Te130  1  0.66624009  0.33074241  0.05662332  1
  Te2-  Te131  1  0.66784097  0.83131809  0.06020996  1
  Te2-  Te132  1  0.48522670  0.24332475  0.88668424  1
  Te2-  Te133  1  0.49342756  0.74417108  0.88786305  1
  Te2-  Te134  1  0.99404146  0.24827094  0.87890011  1
  Te2-  Te135  1  0.99779466  0.74572061  0.88029445  1
  Te2-  Te136  1  0.25009275  0.00387159  0.88388370  1
  Te2-  Te137  1  0.25609987  0.50464852  0.88051801  1
  Te2-  Te138  1  0.75146657  0.00624121  0.88787457  1
  Te2-  Te139  1  0.74631897  0.50248241  0.88364030  1
  Te2-  Te140  1  0.24862308  0.24083882  0.88198301  1
  Te2-  Te141  1  0.25618004  0.74363167  0.88560591  1
  Te2-  Te142  1  0.74699013  0.24829254  0.87953000  1
  Te2-  Te143  1  0.75232838  0.75069392  0.88272622  1
  Te2-  Te144  1  0.33097836  0.41285178  0.21331941  1
  Te2-  Te145  1  0.32677513  0.91477976  0.21724299  1
  Te2-  Te146  1  0.82794930  0.41089424  0.21373777  1
  Te2-  Te147  1  0.82687967  0.90988300  0.21950457  1
  Te2-  Te148  1  0.08485052  0.16994560  0.21585958  1
  Te2-  Te149  1  0.08486542  0.67726271  0.21475052  1
  Te2-  Te150  1  0.59037147  0.17028493  0.21909796  1
  Te2-  Te151  1  0.59002098  0.67096936  0.21523306  1
  Te2-  Te152  1  0.08924552  0.41945183  0.21101534  1
  Te2-  Te153  1  0.08588687  0.91416996  0.22026681  1
  Te2-  Te154  1  0.59071594  0.41007949  0.21691382  1
  Te2-  Te155  1  0.58655624  0.90958508  0.21700284  1
  Te2-  Te156  1  0.16382022  0.08636808  0.55044152  1
  Te2-  Te157  1  0.16242314  0.58190648  0.55295174  1
  Te2-  Te158  1  0.65620143  0.07339784  0.54954378  1
  Te2-  Te159  1  0.66437639  0.58668705  0.54719627  1
  Te2-  Te160  1  0.42260982  0.33635329  0.55160723  1
  Te2-  Te161  1  0.42000960  0.83920163  0.55457043  1
  Te2-  Te162  1  0.91324973  0.33596656  0.54509040  1
  Te2-  Te163  1  0.92432282  0.84936114  0.55094218  1
  Te2-  Te164  1  0.41792597  0.07498431  0.55399424  1
  Te2-  Te165  1  0.41892658  0.58206363  0.54939206  1
  Te2-  Te166  1  0.92328960  0.08518604  0.54832199  1
  Te2-  Te167  1  0.92101748  0.58681873  0.54632873  1
  Te2-  Te168  1  0.00082505  0.00167180  0.88298327  1
  Te2-  Te169  1  -0.00202783  0.49843160  0.88158004  1
  Te2-  Te170  1  0.50014474  0.00116881  0.88401040  1
  Te2-  Te171  1  0.49694144  0.49874358  0.88202107  1
  Te2-  Te172  1  0.33423849  0.16650137  0.21730027  1
  Te2-  Te173  1  0.33275396  0.66463234  0.21531409  1
  Te2-  Te174  1  0.83537766  0.16942011  0.21488278  1
  Te2-  Te175  1  0.83348088  0.66558319  0.21355231  1
  Te2-  Te176  1  0.16584075  0.33460084  0.54837983  1
  Te2-  Te177  1  0.16685621  0.83384707  0.55020045  1
  Te2-  Te178  1  0.66875120  0.33614507  0.55028174  1
  Te2-  Te179  1  0.66828133  0.83572413  0.54833807  1
  Te2-  Te180  1  0.32671052  0.41281153  0.70758826  1
  Te2-  Te181  1  0.32483374  0.91182976  0.71037197  1
  Te2-  Te182  1  0.82983840  0.41805605  0.70977774  1
  Te2-  Te183  1  0.82758359  0.91617364  0.71374835  1
  Te2-  Te184  1  0.08495423  0.17222167  0.70973593  1
  Te2-  Te185  1  0.08576788  0.67445451  0.70923667  1
  Te2-  Te186  1  0.58937223  0.17389366  0.71029917  1
  Te2-  Te187  1  0.58599927  0.67218080  0.71267442  1
  Te2-  Te188  1  0.08313522  0.41215386  0.70764571  1
  Te2-  Te189  1  0.08566790  0.91460660  0.71166021  1
  Te2-  Te190  1  0.59108418  0.41813742  0.70986776  1
  Te2-  Te191  1  0.58901000  0.91492419  0.71398790  1
  Te2-  Te192  1  0.16196520  0.08018844  0.04672633  1
  Te2-  Te193  1  0.15952626  0.57775808  0.04093905  1
  Te2-  Te194  1  0.65860265  0.08155449  0.04281849  1
  Te2-  Te195  1  0.65875835  0.58245861  0.04097383  1
  Te2-  Te196  1  0.41586260  0.33940683  0.04328327  1
  Te2-  Te197  1  0.42009757  0.84286506  0.04224195  1
  Te2-  Te198  1  0.91735853  0.33627618  0.04099347  1
  Te2-  Te199  1  0.92120696  0.83955499  0.04492681  1
  Te2-  Te200  1  0.41879228  0.07822302  0.04476995  1
  Te2-  Te201  1  0.41620444  0.57850094  0.04254597  1
  Te2-  Te202  1  0.92078404  0.08077242  0.04409650  1
  Te2-  Te203  1  0.91910150  0.57971641  0.04015862  1
  Te2-  Te204  1  0.49214827  0.24531736  0.37928300  1
  Te2-  Te205  1  0.49435315  0.74528436  0.37993554  1
  Te2-  Te206  1  0.99714021  0.25117037  0.37503076  1
  Te2-  Te207  1  0.99430119  0.74566966  0.37651652  1
  Te2-  Te208  1  0.25583873  0.00763925  0.37873664  1
  Te2-  Te209  1  0.25408603  0.50664159  0.37801251  1
  Te2-  Te210  1  0.75284570  0.00865288  0.37574492  1
  Te2-  Te211  1  0.75185562  0.50257246  0.37849268  1
  Te2-  Te212  1  0.25446969  0.24941075  0.37814632  1
  Te2-  Te213  1  0.25202573  0.74584197  0.38128826  1
  Te2-  Te214  1  0.75397566  0.24826509  0.37616037  1
  Te2-  Te215  1  0.75194954  0.74505400  0.37606109  1
