# generated using pymatgen
data_Ti(CuTe)4
_symmetry_space_group_name_H-M   'P 1'
_cell_length_a   16.89014942
_cell_length_b   16.89551895
_cell_length_c   20.72278135
_cell_angle_alpha   90.11747659
_cell_angle_beta   89.96211541
_cell_angle_gamma   119.97302841
_symmetry_Int_Tables_number   1
_chemical_formula_structural   Ti(CuTe)4
_chemical_formula_sum   'Ti24 Cu96 Te96'
_cell_volume   5122.72122937
_cell_formula_units_Z   24
loop_
 _symmetry_equiv_pos_site_id
 _symmetry_equiv_pos_as_xyz
  1  'x, y, z'
loop_
 _atom_type_symbol
 _atom_type_oxidation_number
  Ti4+  4.0
  Cu+  1.0
  Te2-  -2.0
loop_
 _atom_site_type_symbol
 _atom_site_label
 _atom_site_symmetry_multiplicity
 _atom_site_fract_x
 _atom_site_fract_y
 _atom_site_fract_z
 _atom_site_occupancy
  Ti4+  Ti0  1  0.00101133  0.00113201  0.25544471  1
  Ti4+  Ti1  1  -0.00055049  0.49998001  0.25743776  1
  Ti4+  Ti2  1  0.50045199  0.00101813  0.25547517  1
  Ti4+  Ti3  1  0.50065181  0.50233289  0.26020769  1
  Ti4+  Ti4  1  0.33077588  0.16401518  0.58802628  1
  Ti4+  Ti5  1  0.33225019  0.66569182  0.59371961  1
  Ti4+  Ti6  1  0.83094551  0.16439438  0.59057733  1
  Ti4+  Ti7  1  0.83049941  0.66645084  0.59317018  1
  Ti4+  Ti8  1  0.16572706  0.33208483  0.92423685  1
  Ti4+  Ti9  1  0.16884239  0.83172516  0.92323240  1
  Ti4+  Ti10  1  0.66786269  0.33290316  0.92401609  1
  Ti4+  Ti11  1  0.66866029  0.83083709  0.92508693  1
  Ti4+  Ti12  1  -0.00015864  0.00049222  0.75626189  1
  Ti4+  Ti13  1  -0.00157922  0.49861857  0.75364235  1
  Ti4+  Ti14  1  0.49901196  -0.00012709  0.75629329  1
  Ti4+  Ti15  1  0.50015559  0.50095943  0.75493538  1
  Ti4+  Ti16  1  0.33355062  0.16605442  0.08827088  1
  Ti4+  Ti17  1  0.33492985  0.66753021  0.08961310  1
  Ti4+  Ti18  1  0.83438569  0.16806623  0.08767352  1
  Ti4+  Ti19  1  0.83421397  0.66744844  0.08959513  1
  Ti4+  Ti20  1  0.16538748  0.33395244  0.42218811  1
  Ti4+  Ti21  1  0.16768880  0.83638739  0.42340945  1
  Ti4+  Ti22  1  0.66646431  0.33375918  0.42203054  1
  Ti4+  Ti23  1  0.66671240  0.83417358  0.42379273  1
  Cu+  Cu24  1  0.06898930  0.14202486  0.47159627  1
  Cu+  Cu25  1  0.91335382  0.81575982  0.80919802  1
  Cu+  Cu26  1  0.68359980  0.58729637  0.80993728  1
  Cu+  Cu27  1  0.23800403  0.97531748  0.13875607  1
  Cu+  Cu28  1  0.17928117  0.58505935  0.81073849  1
  Cu+  Cu29  1  0.90547734  0.30969280  0.80570609  1
  Cu+  Cu30  1  0.41332130  0.81432628  0.80938063  1
  Cu+  Cu31  1  0.74263670  0.26284151  0.14175548  1
  Cu+  Cu32  1  0.01983585  0.26245666  0.14207501  1
  Cu+  Cu33  1  0.74115274  0.98169895  0.14103996  1
  Cu+  Cu34  1  0.57084730  0.14184915  0.47160025  1
  Cu+  Cu35  1  0.57061194  0.64480834  0.47710062  1
  Cu+  Cu36  1  0.16529002  0.07935994  0.16890747  1
  Cu+  Cu37  1  0.16580860  0.58353971  0.17169221  1
  Cu+  Cu38  1  0.66452127  0.08395305  0.16814427  1
  Cu+  Cu39  1  0.66494432  0.58557911  0.17401815  1
  Cu+  Cu40  1  0.41861449  0.33863353  0.17289517  1
  Cu+  Cu41  1  0.42014096  0.83790775  0.16921676  1
  Cu+  Cu42  1  0.91990180  0.34048335  0.16909071  1
  Cu+  Cu43  1  0.91888221  0.83788316  0.16937442  1
  Cu+  Cu44  1  0.41419716  0.07930518  0.16940112  1
  Cu+  Cu45  1  0.42085452  0.58552402  0.17407950  1
  Cu+  Cu46  1  0.91952938  0.08392733  0.16869563  1
  Cu+  Cu47  1  0.91767803  0.58304861  0.17155318  1
  Cu+  Cu48  1  0.49742837  0.24357032  0.50211293  1
  Cu+  Cu49  1  0.49717281  0.74636116  0.50690785  1
  Cu+  Cu50  1  0.99689575  0.24504345  0.50443563  1
  Cu+  Cu51  1  0.99811265  0.75270922  0.50740969  1
  Cu+  Cu52  1  0.25168360  0.00515789  0.50237236  1
  Cu+  Cu53  1  0.24907512  0.50498565  0.50553387  1
  Cu+  Cu54  1  0.75172545  0.00522877  0.50396651  1
  Cu+  Cu55  1  0.74900555  0.50457063  0.50523443  1
  Cu+  Cu56  1  0.24403028  0.24405128  0.50250852  1
  Cu+  Cu57  1  0.25052102  0.75028509  0.50817769  1
  Cu+  Cu58  1  0.74589765  0.24513252  0.50471281  1
  Cu+  Cu59  1  0.74625346  0.74524541  0.50686095  1
  Cu+  Cu60  1  0.33076525  0.41456863  0.83669328  1
  Cu+  Cu61  1  0.33264050  0.91177041  0.83690314  1
  Cu+  Cu62  1  0.82912537  0.40846225  0.83533807  1
  Cu+  Cu63  1  0.83316316  0.91142518  0.83853621  1
  Cu+  Cu64  1  0.08522441  0.17123936  0.83823840  1
  Cu+  Cu65  1  0.09034778  0.67186927  0.83345995  1
  Cu+  Cu66  1  0.58588935  0.17084875  0.83835485  1
  Cu+  Cu67  1  0.59051130  0.66976743  0.83577117  1
  Cu+  Cu68  1  0.08171332  0.41053382  0.83632507  1
  Cu+  Cu69  1  0.08495794  0.91393837  0.83856900  1
  Cu+  Cu70  1  0.58703922  0.41652575  0.83722290  1
  Cu+  Cu71  1  0.58351512  0.91302876  0.84016867  1
  Cu+  Cu72  1  0.16733721  0.08599837  0.67323210  1
  Cu+  Cu73  1  0.16758820  0.58446456  0.68066260  1
  Cu+  Cu74  1  0.66614100  0.08548696  0.67543901  1
  Cu+  Cu75  1  0.66706384  0.58540042  0.68098710  1
  Cu+  Cu76  1  0.41263102  0.32857909  0.67007074  1
  Cu+  Cu77  1  0.41330613  0.82939822  0.68050534  1
  Cu+  Cu78  1  0.91221331  0.32798226  0.67646226  1
  Cu+  Cu79  1  0.91304948  0.83062547  0.68019844  1
  Cu+  Cu80  1  0.41574928  0.08600122  0.67366690  1
  Cu+  Cu81  1  0.41480817  0.58351421  0.67695210  1
  Cu+  Cu82  1  0.91735566  0.08673091  0.67569979  1
  Cu+  Cu83  1  0.91276874  0.58333849  0.67477925  1
  Cu+  Cu84  1  0.00364889  0.25352684  0.01222389  1
  Cu+  Cu85  1  0.00298441  0.75110853  0.00831924  1
  Cu+  Cu86  1  0.50250590  0.25255290  0.00765328  1
  Cu+  Cu87  1  0.50309570  0.74973111  0.00961574  1
  Cu+  Cu88  1  0.24943465  0.49776734  0.00915413  1
  Cu+  Cu89  1  0.24916132  0.99531388  0.01000956  1
  Cu+  Cu90  1  0.74913840  0.49800014  0.00866394  1
  Cu+  Cu91  1  0.74885559  0.99485064  0.01114438  1
  Cu+  Cu92  1  0.25002029  0.25136114  0.00828261  1
  Cu+  Cu93  1  0.25222294  0.75044933  0.00912412  1
  Cu+  Cu94  1  0.74977249  0.25242096  0.01234153  1
  Cu+  Cu95  1  0.75071544  0.74960959  0.01103572  1
  Cu+  Cu96  1  0.33632183  0.42298561  0.34285930  1
  Cu+  Cu97  1  0.33401944  0.91858036  0.34190465  1
  Cu+  Cu98  1  0.83573511  0.41946621  0.34185798  1
  Cu+  Cu99  1  0.83424098  0.91943755  0.34141852  1
  Cu+  Cu100  1  0.08102717  0.16499120  0.34277699  1
  Cu+  Cu101  1  0.08186823  0.66480965  0.34277290  1
  Cu+  Cu102  1  0.58304854  0.16474990  0.34279477  1
  Cu+  Cu103  1  0.58205141  0.66463302  0.34819165  1
  Cu+  Cu104  1  0.08197114  0.41904352  0.34147949  1
  Cu+  Cu105  1  0.08510281  0.91925201  0.34166741  1
  Cu+  Cu106  1  0.58439323  0.42200900  0.34218939  1
  Cu+  Cu107  1  0.58552537  0.91961325  0.34132702  1
  Cu+  Cu108  1  0.00219494  0.00144823  0.11129619  1
  Cu+  Cu109  1  0.00453145  0.50820828  0.11458834  1
  Cu+  Cu110  1  0.49997489  0.00124708  0.11126410  1
  Cu+  Cu111  1  0.50065207  0.50060623  0.11822247  1
  Cu+  Cu112  1  0.33579583  0.17370339  0.44498300  1
  Cu+  Cu113  1  0.33297542  0.67138594  0.45127518  1
  Cu+  Cu114  1  0.83464944  0.17120438  0.44763549  1
  Cu+  Cu115  1  0.83691693  0.66986042  0.45094568  1
  Cu+  Cu116  1  0.17005880  0.33321825  0.77980218  1
  Cu+  Cu117  1  0.16863232  0.83780294  0.77938778  1
  Cu+  Cu118  1  0.66371025  0.33245282  0.77975947  1
  Cu+  Cu119  1  0.66879253  0.83787642  0.78276377  1
  Te2-  Te120  1  -0.00112258  -0.00189818  0.38539003  1
  Te2-  Te121  1  -0.00040973  0.50046889  0.38644520  1
  Te2-  Te122  1  0.49900106  -0.00215335  0.38544634  1
  Te2-  Te123  1  0.49866888  0.49844562  0.39134084  1
  Te2-  Te124  1  0.33157400  0.16619715  0.71711533  1
  Te2-  Te125  1  0.33294873  0.66381094  0.72617950  1
  Te2-  Te126  1  0.82985482  0.16277099  0.72134385  1
  Te2-  Te127  1  0.83324220  0.66481542  0.72575202  1
  Te2-  Te128  1  0.16960341  0.33422642  0.05483036  1
  Te2-  Te129  1  0.16674226  0.82933898  0.05341206  1
  Te2-  Te130  1  0.66543547  0.33445375  0.05453427  1
  Te2-  Te131  1  0.66659972  0.82972842  0.05536703  1
  Te2-  Te132  1  0.49694671  0.24993826  0.88186277  1
  Te2-  Te133  1  0.49608573  0.74156952  0.88375562  1
  Te2-  Te134  1  0.99140778  0.24389488  0.88500759  1
  Te2-  Te135  1  0.99589424  0.74252547  0.88237632  1
  Te2-  Te136  1  0.25333795  0.00115151  0.88241559  1
  Te2-  Te137  1  0.25345102  0.50434551  0.88290403  1
  Te2-  Te138  1  0.75267117  0.00027467  0.88339570  1
  Te2-  Te139  1  0.75828857  0.50527774  0.88246278  1
  Te2-  Te140  1  0.25277169  0.24785593  0.88250746  1
  Te2-  Te141  1  0.25720218  0.74317633  0.88328751  1
  Te2-  Te142  1  0.75238874  0.24265813  0.88508761  1
  Te2-  Te143  1  0.75760195  0.74287913  0.88502681  1
  Te2-  Te144  1  0.32936562  0.41741270  0.21726933  1
  Te2-  Te145  1  0.32661800  0.91100902  0.21572784  1
  Te2-  Te146  1  0.82550701  0.41546009  0.21618887  1
  Te2-  Te147  1  0.82766438  0.91403270  0.21534392  1
  Te2-  Te148  1  0.08951287  0.17330978  0.21516616  1
  Te2-  Te149  1  0.08540800  0.67110266  0.21646466  1
  Te2-  Te150  1  0.58387639  0.17317345  0.21515002  1
  Te2-  Te151  1  0.58730253  0.67455128  0.22119252  1
  Te2-  Te152  1  0.08902860  0.41555572  0.21598176  1
  Te2-  Te153  1  0.08531213  0.91138966  0.21571306  1
  Te2-  Te154  1  0.58667700  0.41716769  0.21672744  1
  Te2-  Te155  1  0.58719390  0.91427319  0.21535035  1
  Te2-  Te156  1  0.15567901  0.07552327  0.54804581  1
  Te2-  Te157  1  0.16083225  0.58230242  0.55355517  1
  Te2-  Te158  1  0.65658728  0.07613922  0.54995168  1
  Te2-  Te159  1  0.65669472  0.57739409  0.55399852  1
  Te2-  Te160  1  0.41555979  0.33314672  0.54380028  1
  Te2-  Te161  1  0.41889384  0.83608188  0.55302598  1
  Te2-  Te162  1  0.91579847  0.33378004  0.54888893  1
  Te2-  Te163  1  0.91430084  0.83689110  0.55285461  1
  Te2-  Te164  1  0.41769013  0.07562896  0.54836826  1
  Te2-  Te165  1  0.41587780  0.57654876  0.55126013  1
  Te2-  Te166  1  0.91757527  0.07650204  0.55016106  1
  Te2-  Te167  1  0.91688068  0.58270829  0.54915952  1
  Te2-  Te168  1  0.00274402  0.00168713  0.88305433  1
  Te2-  Te169  1  0.00044230  0.50126876  0.88083346  1
  Te2-  Te170  1  0.50139334  0.00142826  0.88311605  1
  Te2-  Te171  1  0.50007837  0.49983171  0.88185531  1
  Te2-  Te172  1  0.33408415  0.16864600  0.21498142  1
  Te2-  Te173  1  0.33489617  0.66980412  0.21560788  1
  Te2-  Te174  1  0.83445099  0.16941994  0.21553036  1
  Te2-  Te175  1  0.83512265  0.66961171  0.21556782  1
  Te2-  Te176  1  0.16598822  0.33480061  0.54886977  1
  Te2-  Te177  1  0.16721692  0.83673333  0.54947001  1
  Te2-  Te178  1  0.66568823  0.33465179  0.54871748  1
  Te2-  Te179  1  0.66709215  0.83625736  0.55051633  1
  Te2-  Te180  1  0.32822664  0.41298875  0.71006322  1
  Te2-  Te181  1  0.32727309  0.91623526  0.71010708  1
  Te2-  Te182  1  0.82474913  0.41316342  0.70886012  1
  Te2-  Te183  1  0.82711534  0.91674305  0.71164974  1
  Te2-  Te184  1  0.08579128  0.17260531  0.71204842  1
  Te2-  Te185  1  0.08298336  0.67308470  0.70812552  1
  Te2-  Te186  1  0.58413144  0.17190967  0.71211759  1
  Te2-  Te187  1  0.58455612  0.67526871  0.71026866  1
  Te2-  Te188  1  0.08488670  0.41091686  0.70865781  1
  Te2-  Te189  1  0.08654572  0.91569462  0.71050363  1
  Te2-  Te190  1  0.58248026  0.41143819  0.70935139  1
  Te2-  Te191  1  0.58643761  0.91487577  0.71196640  1
  Te2-  Te192  1  0.16168772  0.08079071  0.04188001  1
  Te2-  Te193  1  0.16284641  0.58097023  0.04496023  1
  Te2-  Te194  1  0.66060633  0.07947456  0.04104867  1
  Te2-  Te195  1  0.66150044  0.58001497  0.04704623  1
  Te2-  Te196  1  0.41944814  0.33869730  0.04607564  1
  Te2-  Te197  1  0.42201732  0.83909221  0.04339843  1
  Te2-  Te198  1  0.92160723  0.34324649  0.04256283  1
  Te2-  Te199  1  0.92126771  0.83915620  0.04361879  1
  Te2-  Te200  1  0.42169442  0.08213923  0.04225958  1
  Te2-  Te201  1  0.41988402  0.58010269  0.04698080  1
  Te2-  Te202  1  0.92118186  0.08066116  0.04155680  1
  Te2-  Te203  1  0.91954179  0.58115886  0.04469831  1
  Te2-  Te204  1  0.49539146  0.25018391  0.37481983  1
  Te2-  Te205  1  0.49405554  0.74998634  0.37936535  1
  Te2-  Te206  1  0.99325439  0.24893011  0.37676455  1
  Te2-  Te207  1  0.99615468  0.74961382  0.37997314  1
  Te2-  Te208  1  0.25418864  0.00824462  0.37709629  1
  Te2-  Te209  1  0.25120386  0.50712783  0.37977987  1
  Te2-  Te210  1  0.75351506  0.00699001  0.37851064  1
  Te2-  Te211  1  0.75325409  0.50682101  0.37938218  1
  Te2-  Te212  1  0.25375272  0.25096328  0.37521129  1
  Te2-  Te213  1  0.25209149  0.74889266  0.38051641  1
  Te2-  Te214  1  0.75446257  0.24929208  0.37705443  1
  Te2-  Te215  1  0.75521124  0.74974007  0.37952918  1
