# generated using pymatgen
data_Ti(CuTe)4
_symmetry_space_group_name_H-M   'P 1'
_cell_length_a   16.89587418
_cell_length_b   16.89372061
_cell_length_c   20.71311862
_cell_angle_alpha   89.96552938
_cell_angle_beta   90.02145885
_cell_angle_gamma   120.01082779
_symmetry_Int_Tables_number   1
_chemical_formula_structural   Ti(CuTe)4
_chemical_formula_sum   'Ti24 Cu96 Te96'
_cell_volume   5119.58340914
_cell_formula_units_Z   24
loop_
 _symmetry_equiv_pos_site_id
 _symmetry_equiv_pos_as_xyz
  1  'x, y, z'
loop_
 _atom_type_symbol
 _atom_type_oxidation_number
  Ti4+  4.0
  Cu+  1.0
  Te2-  -2.0
loop_
 _atom_site_type_symbol
 _atom_site_label
 _atom_site_symmetry_multiplicity
 _atom_site_fract_x
 _atom_site_fract_y
 _atom_site_fract_z
 _atom_site_occupancy
  Ti4+  Ti0  1  -0.00414872  -0.00162745  0.25862909  1
  Ti4+  Ti1  1  -0.00190981  0.49992688  0.26179899  1
  Ti4+  Ti2  1  0.49600500  -0.00144226  0.25734271  1
  Ti4+  Ti3  1  0.50020511  0.50137295  0.25679069  1
  Ti4+  Ti4  1  0.33744806  0.16892254  0.58768805  1
  Ti4+  Ti5  1  0.33809822  0.66970650  0.58816620  1
  Ti4+  Ti6  1  0.83726516  0.17196904  0.59512018  1
  Ti4+  Ti7  1  0.83630782  0.66889249  0.59415644  1
  Ti4+  Ti8  1  0.16789900  0.33094891  0.92196361  1
  Ti4+  Ti9  1  0.16250626  0.82884104  0.92421864  1
  Ti4+  Ti10  1  0.66470579  0.33066205  0.92361336  1
  Ti4+  Ti11  1  0.66726389  0.83414740  0.92393852  1
  Ti4+  Ti12  1  0.00122656  0.00043424  0.75191511  1
  Ti4+  Ti13  1  0.00244335  0.50253541  0.75422047  1
  Ti4+  Ti14  1  0.50124733  0.00049835  0.75479965  1
  Ti4+  Ti15  1  0.50052499  0.49848678  0.75502864  1
  Ti4+  Ti16  1  0.33274809  0.16435086  0.08859924  1
  Ti4+  Ti17  1  0.33100312  0.66540722  0.08886449  1
  Ti4+  Ti18  1  0.83368914  0.16561957  0.09096046  1
  Ti4+  Ti19  1  0.83043347  0.66548809  0.08995737  1
  Ti4+  Ti20  1  0.16785987  0.33414834  0.42098174  1
  Ti4+  Ti21  1  0.16673911  0.83343760  0.42178755  1
  Ti4+  Ti22  1  0.66683990  0.33389584  0.42298417  1
  Ti4+  Ti23  1  0.66577892  0.83394950  0.42386013  1
  Cu+  Cu24  1  0.91460913  0.32713642  0.81693305  1
  Cu+  Cu25  1  0.73570678  0.76275814  0.14090569  1
  Cu+  Cu26  1  0.91321602  0.08728420  0.81363961  1
  Cu+  Cu27  1  0.23398979  0.75870128  0.14216393  1
  Cu+  Cu28  1  0.35783419  0.92985842  0.47259688  1
  Cu+  Cu29  1  0.08128245  0.42767652  0.47809429  1
  Cu+  Cu30  1  0.90644174  0.58738951  0.81199127  1
  Cu+  Cu31  1  0.90688955  0.81858892  0.80981535  1
  Cu+  Cu32  1  0.67982980  0.08916027  0.81198416  1
  Cu+  Cu33  1  0.40329675  0.30538741  0.80413650  1
  Cu+  Cu34  1  0.35897679  0.43067370  0.47085264  1
  Cu+  Cu35  1  0.85148707  0.43020647  0.47966058  1
  Cu+  Cu36  1  0.16235854  0.07993696  0.17250993  1
  Cu+  Cu37  1  0.16214437  0.58419374  0.17342902  1
  Cu+  Cu38  1  0.66308371  0.08131306  0.17344306  1
  Cu+  Cu39  1  0.66238379  0.58664413  0.17049113  1
  Cu+  Cu40  1  0.41756715  0.33488354  0.17214874  1
  Cu+  Cu41  1  0.41062420  0.83454172  0.17045644  1
  Cu+  Cu42  1  0.91596316  0.33459807  0.17557537  1
  Cu+  Cu43  1  0.90972404  0.83460201  0.17185770  1
  Cu+  Cu44  1  0.41631987  0.07945488  0.17052322  1
  Cu+  Cu45  1  0.41764670  0.58039229  0.17055134  1
  Cu+  Cu46  1  0.91661762  0.07995213  0.17230065  1
  Cu+  Cu47  1  0.91288373  0.57663215  0.17385639  1
  Cu+  Cu48  1  0.49634233  0.24975078  0.50177374  1
  Cu+  Cu49  1  0.49797199  0.74961690  0.50241831  1
  Cu+  Cu50  1  0.99737303  0.25281909  0.50517064  1
  Cu+  Cu51  1  0.99727952  0.75044380  0.50668478  1
  Cu+  Cu52  1  0.25681571  0.00319110  0.50195181  1
  Cu+  Cu53  1  0.25638833  0.50478211  0.50150550  1
  Cu+  Cu54  1  0.75171158  0.00414780  0.50853209  1
  Cu+  Cu55  1  0.75570782  0.50503143  0.50687891  1
  Cu+  Cu56  1  0.25918253  0.25561123  0.50155422  1
  Cu+  Cu57  1  0.25838076  0.75527851  0.50115570  1
  Cu+  Cu58  1  0.75610761  0.25456984  0.50651744  1
  Cu+  Cu59  1  0.75369570  0.75255387  0.50818766  1
  Cu+  Cu60  1  0.33157931  0.40927946  0.83589701  1
  Cu+  Cu61  1  0.32899875  0.91047678  0.83848319  1
  Cu+  Cu62  1  0.82714220  0.41401719  0.83567099  1
  Cu+  Cu63  1  0.82645315  0.91209334  0.83414056  1
  Cu+  Cu64  1  0.08737196  0.17334521  0.83196133  1
  Cu+  Cu65  1  0.08308495  0.67145085  0.83573531  1
  Cu+  Cu66  1  0.58637289  0.16883619  0.83589507  1
  Cu+  Cu67  1  0.58391853  0.66851880  0.83802754  1
  Cu+  Cu68  1  0.08812047  0.41442644  0.83483416  1
  Cu+  Cu69  1  0.08092162  0.90900372  0.83424941  1
  Cu+  Cu70  1  0.57828124  0.40818484  0.83580840  1
  Cu+  Cu71  1  0.58688680  0.91699975  0.83644013  1
  Cu+  Cu72  1  0.17197053  0.08548586  0.66901496  1
  Cu+  Cu73  1  0.17497844  0.58895855  0.67175389  1
  Cu+  Cu74  1  0.67262173  0.08766072  0.68166983  1
  Cu+  Cu75  1  0.67150924  0.58572668  0.67558748  1
  Cu+  Cu76  1  0.41625392  0.33076051  0.67648791  1
  Cu+  Cu77  1  0.41813928  0.83337867  0.67336891  1
  Cu+  Cu78  1  0.91978752  0.33547790  0.68383959  1
  Cu+  Cu79  1  0.91739306  0.83190427  0.68047477  1
  Cu+  Cu80  1  0.41688337  0.08268124  0.67266131  1
  Cu+  Cu81  1  0.41822261  0.58527661  0.67265837  1
  Cu+  Cu82  1  0.91827897  0.08710819  0.68066598  1
  Cu+  Cu83  1  0.91989742  0.58856227  0.68204906  1
  Cu+  Cu84  1  0.00175990  0.25001524  0.00984525  1
  Cu+  Cu85  1  -0.00289706  0.74557127  0.01052066  1
  Cu+  Cu86  1  0.50023572  0.24764583  0.00822943  1
  Cu+  Cu87  1  0.49992979  0.74963464  0.00729473  1
  Cu+  Cu88  1  0.24831493  0.49546538  0.00598505  1
  Cu+  Cu89  1  0.24734153  0.99454426  0.00689446  1
  Cu+  Cu90  1  0.74717455  0.49568577  0.00846340  1
  Cu+  Cu91  1  0.75151897  0.99977422  0.01053001  1
  Cu+  Cu92  1  0.24930436  0.24878743  0.00661522  1
  Cu+  Cu93  1  0.24404212  0.74724898  0.01231918  1
  Cu+  Cu94  1  0.75036956  0.25083870  0.01109231  1
  Cu+  Cu95  1  0.74789604  0.75126474  0.01268723  1
  Cu+  Cu96  1  0.33793498  0.41785889  0.34287473  1
  Cu+  Cu97  1  0.33376931  0.91707717  0.34422094  1
  Cu+  Cu98  1  0.83542114  0.41630785  0.34980851  1
  Cu+  Cu99  1  0.83305495  0.91783568  0.34361246  1
  Cu+  Cu100  1  0.07934817  0.16133323  0.34136884  1
  Cu+  Cu101  1  0.07920938  0.66456300  0.34384282  1
  Cu+  Cu102  1  0.58031268  0.16437940  0.34175023  1
  Cu+  Cu103  1  0.58375829  0.66655621  0.34236480  1
  Cu+  Cu104  1  0.07975470  0.41667792  0.34731488  1
  Cu+  Cu105  1  0.07670144  0.91616048  0.34094522  1
  Cu+  Cu106  1  0.58329695  0.41856882  0.33977166  1
  Cu+  Cu107  1  0.58050420  0.91725583  0.34079612  1
  Cu+  Cu108  1  0.00235583  -0.00038996  0.11588213  1
  Cu+  Cu109  1  -0.00202945  0.49596254  0.11890560  1
  Cu+  Cu110  1  0.50195488  -0.00154069  0.11493141  1
  Cu+  Cu111  1  0.49753332  0.49600756  0.11382747  1
  Cu+  Cu112  1  0.32972580  0.16482085  0.44362503  1
  Cu+  Cu113  1  0.33261224  0.66699295  0.44312935  1
  Cu+  Cu114  1  0.83032576  0.16366719  0.45171797  1
  Cu+  Cu115  1  0.83013675  0.66801259  0.45138631  1
  Cu+  Cu116  1  0.17166863  0.33733609  0.77602538  1
  Cu+  Cu117  1  0.17263156  0.83821514  0.77891954  1
  Cu+  Cu118  1  0.66453429  0.33229573  0.77860589  1
  Cu+  Cu119  1  0.66016600  0.82850176  0.77963119  1
  Te2-  Te120  1  -0.00304366  -0.00117066  0.38801967  1
  Te2-  Te121  1  0.00112712  0.50248458  0.39408713  1
  Te2-  Te122  1  0.50052301  0.00062032  0.38762961  1
  Te2-  Te123  1  0.50404036  0.50219902  0.38724333  1
  Te2-  Te124  1  0.33366255  0.16334563  0.71794291  1
  Te2-  Te125  1  0.33810142  0.66904063  0.71710735  1
  Te2-  Te126  1  0.83729791  0.17017456  0.72814005  1
  Te2-  Te127  1  0.83269515  0.66677401  0.72632377  1
  Te2-  Te128  1  0.16750862  0.33140684  0.05029061  1
  Te2-  Te129  1  0.16176450  0.83132491  0.05450602  1
  Te2-  Te130  1  0.66488097  0.33101674  0.05196204  1
  Te2-  Te131  1  0.66380065  0.83462253  0.05368879  1
  Te2-  Te132  1  0.49181058  0.24021784  0.88204138  1
  Te2-  Te133  1  0.49670999  0.74965119  0.88102505  1
  Te2-  Te134  1  0.99089351  0.24449495  0.88360473  1
  Te2-  Te135  1  0.98540597  0.74153659  0.88449512  1
  Te2-  Te136  1  0.24758489  -0.00137557  0.88060853  1
  Te2-  Te137  1  0.25428600  0.50154719  0.87981126  1
  Te2-  Te138  1  0.75655479  0.01017247  0.88433722  1
  Te2-  Te139  1  0.74680150  0.50281533  0.88215829  1
  Te2-  Te140  1  0.25086993  0.24011968  0.88084445  1
  Te2-  Te141  1  0.24807822  0.74318868  0.88464512  1
  Te2-  Te142  1  0.75543298  0.24511527  0.88470043  1
  Te2-  Te143  1  0.75087430  0.74517208  0.88478124  1
  Te2-  Te144  1  0.32863392  0.41388568  0.21611007  1
  Te2-  Te145  1  0.32177355  0.91364831  0.21726821  1
  Te2-  Te146  1  0.82647525  0.41169224  0.22236185  1
  Te2-  Te147  1  0.82081939  0.91403930  0.21798875  1
  Te2-  Te148  1  0.08383786  0.16973639  0.21579972  1
  Te2-  Te149  1  0.08043951  0.67265073  0.21792111  1
  Te2-  Te150  1  0.58317631  0.16995488  0.21596585  1
  Te2-  Te151  1  0.58358784  0.67594492  0.21668842  1
  Te2-  Te152  1  0.08430784  0.41614695  0.21949361  1
  Te2-  Te153  1  0.07872789  0.91085933  0.21500879  1
  Te2-  Te154  1  0.58688545  0.41762388  0.21402301  1
  Te2-  Te155  1  0.57993660  0.91200974  0.21474416  1
  Te2-  Te156  1  0.16780061  0.08479724  0.54320762  1
  Te2-  Te157  1  0.16581681  0.58679338  0.54616339  1
  Te2-  Te158  1  0.66759701  0.08772680  0.55392222  1
  Te2-  Te159  1  0.66630404  0.58328539  0.54994262  1
  Te2-  Te160  1  0.42593117  0.34380670  0.54971946  1
  Te2-  Te161  1  0.42634248  0.84393617  0.54791594  1
  Te2-  Te162  1  0.92503930  0.34795310  0.55467190  1
  Te2-  Te163  1  0.92115042  0.84008561  0.55340335  1
  Te2-  Te164  1  0.42622195  0.08376182  0.54736905  1
  Te2-  Te165  1  0.42512025  0.58305859  0.54714191  1
  Te2-  Te166  1  0.92057721  0.08617589  0.55250171  1
  Te2-  Te167  1  0.92581754  0.58500549  0.55430051  1
  Te2-  Te168  1  0.00052492  0.00058620  0.87966278  1
  Te2-  Te169  1  0.00098264  0.49941739  0.88189334  1
  Te2-  Te170  1  0.49854727  -0.00161626  0.88187263  1
  Te2-  Te171  1  0.49981871  0.49875980  0.88163339  1
  Te2-  Te172  1  0.33205376  0.16504888  0.21469039  1
  Te2-  Te173  1  0.33263090  0.66531680  0.21557294  1
  Te2-  Te174  1  0.83211723  0.16489804  0.21691351  1
  Te2-  Te175  1  0.83064591  0.66496940  0.21658399  1
  Te2-  Te176  1  0.16910582  0.33466945  0.54851307  1
  Te2-  Te177  1  0.16903653  0.83472312  0.54841867  1
  Te2-  Te178  1  0.66567336  0.33436923  0.54990666  1
  Te2-  Te179  1  0.66647360  0.83469140  0.55012399  1
  Te2-  Te180  1  0.32939391  0.41565504  0.70829256  1
  Te2-  Te181  1  0.32987187  0.91391358  0.71061422  1
  Te2-  Te182  1  0.82673035  0.41521935  0.70870724  1
  Te2-  Te183  1  0.82571048  0.91376003  0.70743037  1
  Te2-  Te184  1  0.09169045  0.17442544  0.70623892  1
  Te2-  Te185  1  0.09286038  0.67603087  0.70980462  1
  Te2-  Te186  1  0.58607077  0.17384784  0.70940403  1
  Te2-  Te187  1  0.58703680  0.67086543  0.71124016  1
  Te2-  Te188  1  0.09284379  0.41950549  0.70838324  1
  Te2-  Te189  1  0.09065611  0.91646922  0.70767642  1
  Te2-  Te190  1  0.58879366  0.41486425  0.70900249  1
  Te2-  Te191  1  0.58783558  0.91431152  0.70940223  1
  Te2-  Te192  1  0.16140651  0.07878303  0.04471831  1
  Te2-  Te193  1  0.15835579  0.57513286  0.04542833  1
  Te2-  Te194  1  0.66205733  0.08043124  0.04628963  1
  Te2-  Te195  1  0.65876202  0.57819167  0.04338898  1
  Te2-  Te196  1  0.41848872  0.33599061  0.04466556  1
  Te2-  Te197  1  0.41753301  0.83750967  0.04291833  1
  Te2-  Te198  1  0.91988978  0.33791298  0.04787489  1
  Te2-  Te199  1  0.91958742  0.83854459  0.04470446  1
  Te2-  Te200  1  0.41739536  0.07712627  0.04427501  1
  Te2-  Te201  1  0.41767348  0.57998914  0.04437824  1
  Te2-  Te202  1  0.92063149  0.08019437  0.04630457  1
  Te2-  Te203  1  0.91548645  0.57666341  0.04772937  1
  Te2-  Te204  1  0.49497360  0.24900685  0.37668432  1
  Te2-  Te205  1  0.49475478  0.74775685  0.37695184  1
  Te2-  Te206  1  0.99295119  0.24461631  0.37880442  1
  Te2-  Te207  1  0.99271998  0.74749107  0.38079487  1
  Te2-  Te208  1  0.24835015  0.00439835  0.37485202  1
  Te2-  Te209  1  0.25384954  0.50663235  0.37357265  1
  Te2-  Te210  1  0.75025649  0.00530946  0.38053281  1
  Te2-  Te211  1  0.75247348  0.50695336  0.37898480  1
  Te2-  Te212  1  0.25088032  0.24559397  0.37455947  1
  Te2-  Te213  1  0.25044976  0.74483756  0.37470437  1
  Te2-  Te214  1  0.75010125  0.24361326  0.37964587  1
  Te2-  Te215  1  0.75246547  0.74863160  0.38089718  1
