# generated using pymatgen
data_Ti(CuTe)4
_symmetry_space_group_name_H-M   'P 1'
_cell_length_a   16.85464915
_cell_length_b   16.85678318
_cell_length_c   20.65897279
_cell_angle_alpha   89.98023451
_cell_angle_beta   90.04220477
_cell_angle_gamma   120.00863641
_symmetry_Int_Tables_number   1
_chemical_formula_structural   Ti(CuTe)4
_chemical_formula_sum   'Ti24 Cu96 Te96'
_cell_volume   5082.71610378
_cell_formula_units_Z   24
loop_
 _symmetry_equiv_pos_site_id
 _symmetry_equiv_pos_as_xyz
  1  'x, y, z'
loop_
 _atom_type_symbol
 _atom_type_oxidation_number
  Ti4+  4.0
  Cu+  1.0
  Te2-  -2.0
loop_
 _atom_site_type_symbol
 _atom_site_label
 _atom_site_symmetry_multiplicity
 _atom_site_fract_x
 _atom_site_fract_y
 _atom_site_fract_z
 _atom_site_occupancy
  Ti4+  Ti0  1  -0.00064399  -0.00049266  0.25896476  1
  Ti4+  Ti1  1  -0.00178758  0.49555187  0.25845945  1
  Ti4+  Ti2  1  0.50046273  0.00012356  0.26010947  1
  Ti4+  Ti3  1  0.50446956  0.50153580  0.25615348  1
  Ti4+  Ti4  1  0.33204980  0.16745470  0.59168813  1
  Ti4+  Ti5  1  0.33242269  0.66626514  0.58949387  1
  Ti4+  Ti6  1  0.83603356  0.17020021  0.59630014  1
  Ti4+  Ti7  1  0.83520097  0.67037602  0.59044783  1
  Ti4+  Ti8  1  0.16482759  0.33155569  0.92530822  1
  Ti4+  Ti9  1  0.16597566  0.83083475  0.92172097  1
  Ti4+  Ti10  1  0.66404275  0.33377765  0.92143931  1
  Ti4+  Ti11  1  0.66403647  0.83281989  0.92346983  1
  Ti4+  Ti12  1  0.00171932  0.00297459  0.75480007  1
  Ti4+  Ti13  1  0.00019416  0.50223657  0.75524522  1
  Ti4+  Ti14  1  0.49954039  -0.00201889  0.75131546  1
  Ti4+  Ti15  1  0.50093075  0.49930070  0.75542692  1
  Ti4+  Ti16  1  0.33383341  0.16516760  0.08939729  1
  Ti4+  Ti17  1  0.33333131  0.66678199  0.08820120  1
  Ti4+  Ti18  1  0.83609161  0.16819902  0.08987500  1
  Ti4+  Ti19  1  0.83049152  0.66498835  0.08916880  1
  Ti4+  Ti20  1  0.16733787  0.33487317  0.42418514  1
  Ti4+  Ti21  1  0.16591298  0.83357605  0.42138714  1
  Ti4+  Ti22  1  0.66808144  0.33225805  0.42539453  1
  Ti4+  Ti23  1  0.66806079  0.83335211  0.42375777  1
  Cu+  Cu24  1  0.40327784  0.80749558  0.80415687  1
  Cu+  Cu25  1  0.73873927  0.76373405  0.14019963  1
  Cu+  Cu26  1  0.90903648  0.08919715  0.81390075  1
  Cu+  Cu27  1  0.73693664  0.47385558  0.13891154  1
  Cu+  Cu28  1  0.90160447  0.59669010  0.80474888  1
  Cu+  Cu29  1  0.40323718  0.31360504  0.80825378  1
  Cu+  Cu30  1  0.67092799  0.08551530  0.81484951  1
  Cu+  Cu31  1  0.06782932  0.42771242  0.47607189  1
  Cu+  Cu32  1  0.91039041  0.32528686  0.81643106  1
  Cu+  Cu33  1  0.07167648  0.93026853  0.47326759  1
  Cu+  Cu34  1  0.40377055  0.08387212  0.80586294  1
  Cu+  Cu35  1  0.02819334  0.26270024  0.14420419  1
  Cu+  Cu36  1  0.16484238  0.07851925  0.17310822  1
  Cu+  Cu37  1  0.16502034  0.57974526  0.17163691  1
  Cu+  Cu38  1  0.66393879  0.08256300  0.17302361  1
  Cu+  Cu39  1  0.66324966  0.58088811  0.16819501  1
  Cu+  Cu40  1  0.42000764  0.33545762  0.17056021  1
  Cu+  Cu41  1  0.41913466  0.83666982  0.17203623  1
  Cu+  Cu42  1  0.92416060  0.33646801  0.17047396  1
  Cu+  Cu43  1  0.91334554  0.83548808  0.17245319  1
  Cu+  Cu44  1  0.42025349  0.08211470  0.17294559  1
  Cu+  Cu45  1  0.41990808  0.58333118  0.16961646  1
  Cu+  Cu46  1  0.92415633  0.08684235  0.17122327  1
  Cu+  Cu47  1  0.91185213  0.57454491  0.17097005  1
  Cu+  Cu48  1  0.49871890  0.25091028  0.50817737  1
  Cu+  Cu49  1  0.49873886  0.74963520  0.50548700  1
  Cu+  Cu50  1  0.99861344  0.25403123  0.50911787  1
  Cu+  Cu51  1  0.99809399  0.75399220  0.50348585  1
  Cu+  Cu52  1  0.24632233  0.00268871  0.50432690  1
  Cu+  Cu53  1  0.24637271  0.50275489  0.50355804  1
  Cu+  Cu54  1  0.75236759  0.00157013  0.51033439  1
  Cu+  Cu55  1  0.75355534  0.50247715  0.50653881  1
  Cu+  Cu56  1  0.25570519  0.25232230  0.50560563  1
  Cu+  Cu57  1  0.25410158  0.74951194  0.50286668  1
  Cu+  Cu58  1  0.75269481  0.24920834  0.50980149  1
  Cu+  Cu59  1  0.75319565  0.74919033  0.50385522  1
  Cu+  Cu60  1  0.33180287  0.41344572  0.83858378  1
  Cu+  Cu61  1  0.32802282  0.90904701  0.83186655  1
  Cu+  Cu62  1  0.83053615  0.42138613  0.83532402  1
  Cu+  Cu63  1  0.83151380  0.91545260  0.83728197  1
  Cu+  Cu64  1  0.08314613  0.17138343  0.83612909  1
  Cu+  Cu65  1  0.07882182  0.66954832  0.83395372  1
  Cu+  Cu66  1  0.58124209  0.17237560  0.82931845  1
  Cu+  Cu67  1  0.58511431  0.67000626  0.83673270  1
  Cu+  Cu68  1  0.08424976  0.41228743  0.83666048  1
  Cu+  Cu69  1  0.08495597  0.91422800  0.83477000  1
  Cu+  Cu70  1  0.58131057  0.41225986  0.83481882  1
  Cu+  Cu71  1  0.58127984  0.90827230  0.83144274  1
  Cu+  Cu72  1  0.16749780  0.08514252  0.67396384  1
  Cu+  Cu73  1  0.16910615  0.58468603  0.67352654  1
  Cu+  Cu74  1  0.67067176  0.08410832  0.68285436  1
  Cu+  Cu75  1  0.66971378  0.58599323  0.67228327  1
  Cu+  Cu76  1  0.41724620  0.32973346  0.67974255  1
  Cu+  Cu77  1  0.41521749  0.82716026  0.67590711  1
  Cu+  Cu78  1  0.91759968  0.33453038  0.68399413  1
  Cu+  Cu79  1  0.91860574  0.83472653  0.67416719  1
  Cu+  Cu80  1  0.41453907  0.08465411  0.67626601  1
  Cu+  Cu81  1  0.41746844  0.58497903  0.67154106  1
  Cu+  Cu82  1  0.91780985  0.08852338  0.68221304  1
  Cu+  Cu83  1  0.91683152  0.59144519  0.67657058  1
  Cu+  Cu84  1  0.00192485  0.25059541  0.01573577  1
  Cu+  Cu85  1  0.00082961  0.74971547  0.00758996  1
  Cu+  Cu86  1  0.49922238  0.24884532  0.00831852  1
  Cu+  Cu87  1  0.49948827  0.75107384  0.00722763  1
  Cu+  Cu88  1  0.24764107  0.49692071  0.00784427  1
  Cu+  Cu89  1  0.25054756  0.99630653  0.00736519  1
  Cu+  Cu90  1  0.74813197  0.49712432  0.01073428  1
  Cu+  Cu91  1  0.74894844  1.00051365  0.00990706  1
  Cu+  Cu92  1  0.24744754  0.24720563  0.01040640  1
  Cu+  Cu93  1  0.24863467  0.74946422  0.00572994  1
  Cu+  Cu94  1  0.75045573  0.25126236  0.00864086  1
  Cu+  Cu95  1  0.74868188  0.75439848  0.01168716  1
  Cu+  Cu96  1  0.33906417  0.41831908  0.34011898  1
  Cu+  Cu97  1  0.33682979  0.91754145  0.34196981  1
  Cu+  Cu98  1  0.83351725  0.41181032  0.34274471  1
  Cu+  Cu99  1  0.83391403  0.91796836  0.34285724  1
  Cu+  Cu100  1  0.08541551  0.16688323  0.34485101  1
  Cu+  Cu101  1  0.08293999  0.66242629  0.34096663  1
  Cu+  Cu102  1  0.58247571  0.16272990  0.34444434  1
  Cu+  Cu103  1  0.58512610  0.66529655  0.34075906  1
  Cu+  Cu104  1  0.08140555  0.41630222  0.34800566  1
  Cu+  Cu105  1  0.07962444  0.91787544  0.34534934  1
  Cu+  Cu106  1  0.58544372  0.41792371  0.34173749  1
  Cu+  Cu107  1  0.58281519  0.91921812  0.34286848  1
  Cu+  Cu108  1  0.00245836  -0.00063573  0.11581148  1
  Cu+  Cu109  1  0.00300645  0.50466869  0.11456949  1
  Cu+  Cu110  1  0.49898972  -0.00143339  0.11623145  1
  Cu+  Cu111  1  0.49421043  0.49693011  0.11135186  1
  Cu+  Cu112  1  0.33704078  0.16590949  0.44967402  1
  Cu+  Cu113  1  0.33742037  0.66598904  0.44685182  1
  Cu+  Cu114  1  0.83230378  0.16288138  0.45503928  1
  Cu+  Cu115  1  0.83192787  0.66281532  0.44738878  1
  Cu+  Cu116  1  0.17254764  0.33860091  0.77959209  1
  Cu+  Cu117  1  0.16591797  0.83366799  0.77568596  1
  Cu+  Cu118  1  0.66887447  0.33641308  0.77520296  1
  Cu+  Cu119  1  0.67018450  0.82999054  0.77815784  1
  Te2-  Te120  1  -0.00223896  0.00252573  0.38952571  1
  Te2-  Te121  1  -0.00270655  0.49966876  0.38914753  1
  Te2-  Te122  1  0.49939812  -0.00113189  0.38990654  1
  Te2-  Te123  1  0.50319039  0.50074973  0.38520892  1
  Te2-  Te124  1  0.32954084  0.16393598  0.72440034  1
  Te2-  Te125  1  0.33191961  0.66146435  0.72044533  1
  Te2-  Te126  1  0.83441011  0.16946961  0.73043053  1
  Te2-  Te127  1  0.83154257  0.67188809  0.72146444  1
  Te2-  Te128  1  0.16986256  0.33388098  0.05571774  1
  Te2-  Te129  1  0.16586063  0.83113810  0.05061329  1
  Te2-  Te130  1  0.66414611  0.32991664  0.05155991  1
  Te2-  Te131  1  0.66322145  0.83570969  0.05388161  1
  Te2-  Te132  1  0.48790473  0.24277966  0.88212022  1
  Te2-  Te133  1  0.49012165  0.74289870  0.88146749  1
  Te2-  Te134  1  0.98804771  0.24431413  0.88758203  1
  Te2-  Te135  1  0.99097124  0.74843476  0.88196780  1
  Te2-  Te136  1  0.25234869  0.00385545  0.88093838  1
  Te2-  Te137  1  0.25092950  0.50112145  0.88158841  1
  Te2-  Te138  1  0.75095162  0.00785432  0.88338510  1
  Te2-  Te139  1  0.74897724  0.50749835  0.88316982  1
  Te2-  Te140  1  0.24856622  0.24214439  0.88387952  1
  Te2-  Te141  1  0.24829794  0.74043370  0.87912387  1
  Te2-  Te142  1  0.75088004  0.24661802  0.88197261  1
  Te2-  Te143  1  0.75201895  0.74964354  0.88426004  1
  Te2-  Te144  1  0.33277873  0.41588403  0.21440118  1
  Te2-  Te145  1  0.32885039  0.91409086  0.21610739  1
  Te2-  Te146  1  0.82492961  0.40512695  0.21618500  1
  Te2-  Te147  1  0.82614111  0.91862091  0.21650244  1
  Te2-  Te148  1  0.09239063  0.17369333  0.21864957  1
  Te2-  Te149  1  0.08117066  0.66516898  0.21462856  1
  Te2-  Te150  1  0.58741479  0.17258931  0.21839038  1
  Te2-  Te151  1  0.58772916  0.67518496  0.21461574  1
  Te2-  Te152  1  0.09115510  0.41372755  0.22036739  1
  Te2-  Te153  1  0.08121716  0.91062002  0.21821896  1
  Te2-  Te154  1  0.58778699  0.41105462  0.21532473  1
  Te2-  Te155  1  0.58702902  0.91504856  0.21675320  1
  Te2-  Te156  1  0.15892678  0.08502188  0.54881966  1
  Te2-  Te157  1  0.15785972  0.58326593  0.54834565  1
  Te2-  Te158  1  0.66509309  0.08204981  0.55539673  1
  Te2-  Te159  1  0.66367314  0.58192504  0.54706277  1
  Te2-  Te160  1  0.42070671  0.34012493  0.55317885  1
  Te2-  Te161  1  0.42006024  0.83894542  0.54948262  1
  Te2-  Te162  1  0.91901850  0.34336017  0.55617184  1
  Te2-  Te163  1  0.91946679  0.84457756  0.54885584  1
  Te2-  Te164  1  0.41511156  0.08021043  0.54903744  1
  Te2-  Te165  1  0.41615609  0.57952679  0.54589447  1
  Te2-  Te166  1  0.92158466  0.08594343  0.55443679  1
  Te2-  Te167  1  0.92259875  0.58638529  0.54964854  1
  Te2-  Te168  1  0.00165164  -0.00003823  0.88230497  1
  Te2-  Te169  1  0.00069431  0.49998066  0.88318236  1
  Te2-  Te170  1  0.49999130  0.00009135  0.87994094  1
  Te2-  Te171  1  0.50136753  0.50108173  0.88290440  1
  Te2-  Te172  1  0.33507260  0.16647941  0.21601572  1
  Te2-  Te173  1  0.33487696  0.66694744  0.21480505  1
  Te2-  Te174  1  0.83438930  0.16677241  0.21675972  1
  Te2-  Te175  1  0.83266142  0.66470030  0.21661206  1
  Te2-  Te176  1  0.16963737  0.33549701  0.55133585  1
  Te2-  Te177  1  0.16797968  0.83336943  0.54842718  1
  Te2-  Te178  1  0.66782288  0.33458249  0.55223873  1
  Te2-  Te179  1  0.66723395  0.83131459  0.55059132  1
  Te2-  Te180  1  0.32915321  0.41532134  0.70978212  1
  Te2-  Te181  1  0.32568480  0.91138170  0.70456806  1
  Te2-  Te182  1  0.82698880  0.41823126  0.70745279  1
  Te2-  Te183  1  0.82843829  0.91461918  0.70953773  1
  Te2-  Te184  1  0.09073666  0.17752327  0.70979133  1
  Te2-  Te185  1  0.08875774  0.67422650  0.70771663  1
  Te2-  Te186  1  0.58712407  0.17466145  0.70383145  1
  Te2-  Te187  1  0.58605033  0.67112505  0.70984510  1
  Te2-  Te188  1  0.08976584  0.41654827  0.71023528  1
  Te2-  Te189  1  0.08742780  0.91596361  0.70903535  1
  Te2-  Te190  1  0.59020240  0.41656361  0.70811703  1
  Te2-  Te191  1  0.58796753  0.91038054  0.70559565  1
  Te2-  Te192  1  0.16144985  0.07712494  0.04565714  1
  Te2-  Te193  1  0.16102190  0.57976279  0.04418041  1
  Te2-  Te194  1  0.66221560  0.08267140  0.04621833  1
  Te2-  Te195  1  0.65803452  0.58023756  0.04093687  1
  Te2-  Te196  1  0.41839562  0.33736786  0.04352010  1
  Te2-  Te197  1  0.41824914  0.83915005  0.04419473  1
  Te2-  Te198  1  0.91973544  0.34186836  0.04376061  1
  Te2-  Te199  1  0.92052619  0.83858595  0.04492407  1
  Te2-  Te200  1  0.42007631  0.07928580  0.04510391  1
  Te2-  Te201  1  0.41858924  0.58051904  0.04234631  1
  Te2-  Te202  1  0.91889389  0.07731393  0.04422879  1
  Te2-  Te203  1  0.91953960  0.58071034  0.04350820  1
  Te2-  Te204  1  0.49695873  0.24819876  0.38057775  1
  Te2-  Te205  1  0.49730346  0.74806723  0.37797790  1
  Te2-  Te206  1  0.99317466  0.24442578  0.38155410  1
  Te2-  Te207  1  0.99334678  0.74403510  0.37612514  1
  Te2-  Te208  1  0.25379949  0.00607375  0.37658866  1
  Te2-  Te209  1  0.25602532  0.50582754  0.37617310  1
  Te2-  Te210  1  0.75255507  0.00587739  0.38203930  1
  Te2-  Te211  1  0.75464824  0.50314031  0.37903437  1
  Te2-  Te212  1  0.25555611  0.25000094  0.37968800  1
  Te2-  Te213  1  0.25267012  0.74708944  0.37704927  1
  Te2-  Te214  1  0.75242150  0.24376407  0.38282770  1
  Te2-  Te215  1  0.75456128  0.74784201  0.37764346  1
