# generated using pymatgen
data_Ti(CuTe)4
_symmetry_space_group_name_H-M   'P 1'
_cell_length_a   16.88425634
_cell_length_b   16.88437261
_cell_length_c   20.70558678
_cell_angle_alpha   90.02877921
_cell_angle_beta   89.98254597
_cell_angle_gamma   119.99351653
_symmetry_Int_Tables_number   1
_chemical_formula_structural   Ti(CuTe)4
_chemical_formula_sum   'Ti24 Cu96 Te96'
_cell_volume   5112.26494461
_cell_formula_units_Z   24
loop_
 _symmetry_equiv_pos_site_id
 _symmetry_equiv_pos_as_xyz
  1  'x, y, z'
loop_
 _atom_type_symbol
 _atom_type_oxidation_number
  Ti4+  4.0
  Cu+  1.0
  Te2-  -2.0
loop_
 _atom_site_type_symbol
 _atom_site_label
 _atom_site_symmetry_multiplicity
 _atom_site_fract_x
 _atom_site_fract_y
 _atom_site_fract_z
 _atom_site_occupancy
  Ti4+  Ti0  1  0.00128438  0.00025254  0.25916081  1
  Ti4+  Ti1  1  0.00367247  0.50161611  0.25474979  1
  Ti4+  Ti2  1  0.50281033  0.00008696  0.25965089  1
  Ti4+  Ti3  1  0.50172576  0.50030076  0.25266787  1
  Ti4+  Ti4  1  0.33213922  0.16463660  0.59175087  1
  Ti4+  Ti5  1  0.33208336  0.66532642  0.59277999  1
  Ti4+  Ti6  1  0.83049523  0.16668437  0.59379844  1
  Ti4+  Ti7  1  0.83383617  0.66827976  0.59049925  1
  Ti4+  Ti8  1  0.16517257  0.32918633  0.92300074  1
  Ti4+  Ti9  1  0.16672124  0.83102558  0.92750274  1
  Ti4+  Ti10  1  0.66272898  0.33204387  0.92586458  1
  Ti4+  Ti11  1  0.66627078  0.83730057  0.92317975  1
  Ti4+  Ti12  1  -0.00095695  0.00193015  0.75563889  1
  Ti4+  Ti13  1  -0.00046466  0.50156342  0.75641290  1
  Ti4+  Ti14  1  0.49791617  -0.00265567  0.75596509  1
  Ti4+  Ti15  1  0.49868488  0.49757127  0.75611312  1
  Ti4+  Ti16  1  0.33354978  0.16639629  0.08894339  1
  Ti4+  Ti17  1  0.33386203  0.66500135  0.08602982  1
  Ti4+  Ti18  1  0.83245995  0.16725215  0.08986527  1
  Ti4+  Ti19  1  0.83379421  0.66787045  0.08529357  1
  Ti4+  Ti20  1  0.16902842  0.33555701  0.42295655  1
  Ti4+  Ti21  1  0.16629680  0.83449483  0.42209792  1
  Ti4+  Ti22  1  0.66719052  0.33190069  0.42348275  1
  Ti4+  Ti23  1  0.66733026  0.83318144  0.42304932  1
  Cu+  Cu24  1  0.67721356  0.09329327  0.81277498  1
  Cu+  Cu25  1  0.40308868  0.80868642  0.80765295  1
  Cu+  Cu26  1  0.07131837  0.92907381  0.47613792  1
  Cu+  Cu27  1  0.23961977  0.47607180  0.13550750  1
  Cu+  Cu28  1  0.57043066  0.14153467  0.47782485  1
  Cu+  Cu29  1  0.40235345  0.30509938  0.80625648  1
  Cu+  Cu30  1  0.90918663  0.09791567  0.80661507  1
  Cu+  Cu31  1  0.01568173  0.76190036  0.14353044  1
  Cu+  Cu32  1  0.51789229  0.25492056  0.14401287  1
  Cu+  Cu33  1  0.52253186  0.76155388  0.13915627  1
  Cu+  Cu34  1  0.74817619  0.48680267  0.14096246  1
  Cu+  Cu35  1  0.25128753  0.75954239  0.14552602  1
  Cu+  Cu36  1  0.16366316  0.08107008  0.17198880  1
  Cu+  Cu37  1  0.16459101  0.57951536  0.16531064  1
  Cu+  Cu38  1  0.66526639  0.08312787  0.17262108  1
  Cu+  Cu39  1  0.66268383  0.57925110  0.16411815  1
  Cu+  Cu40  1  0.42235754  0.33721090  0.16667256  1
  Cu+  Cu41  1  0.42415925  0.83855020  0.17038761  1
  Cu+  Cu42  1  0.92130431  0.33788549  0.16851462  1
  Cu+  Cu43  1  0.92207691  0.83992322  0.17019854  1
  Cu+  Cu44  1  0.42128160  0.08401818  0.17244395  1
  Cu+  Cu45  1  0.41889650  0.58145081  0.16468823  1
  Cu+  Cu46  1  0.91784364  0.08281193  0.17380104  1
  Cu+  Cu47  1  0.92233191  0.58437887  0.16626940  1
  Cu+  Cu48  1  0.49827918  0.24433418  0.50634384  1
  Cu+  Cu49  1  0.49664904  0.74894843  0.50664495  1
  Cu+  Cu50  1  0.99885867  0.25087724  0.50706659  1
  Cu+  Cu51  1  0.99619917  0.75289646  0.50320476  1
  Cu+  Cu52  1  0.24672783  0.00367720  0.50345796  1
  Cu+  Cu53  1  0.25131500  0.50449424  0.50578862  1
  Cu+  Cu54  1  0.75019798  0.00271993  0.50704444  1
  Cu+  Cu55  1  0.75360487  0.50436742  0.50546910  1
  Cu+  Cu56  1  0.25418879  0.25180314  0.50516743  1
  Cu+  Cu57  1  0.25194410  0.74838697  0.50691951  1
  Cu+  Cu58  1  0.74539602  0.24292269  0.50617969  1
  Cu+  Cu59  1  0.75123893  0.74701311  0.50387553  1
  Cu+  Cu60  1  0.33061662  0.40722443  0.83752076  1
  Cu+  Cu61  1  0.32921322  0.90794809  0.83946314  1
  Cu+  Cu62  1  0.83101091  0.41834935  0.83848457  1
  Cu+  Cu63  1  0.83151357  0.92381638  0.83585116  1
  Cu+  Cu64  1  0.08170986  0.17070194  0.83580811  1
  Cu+  Cu65  1  0.08455804  0.67024700  0.84008457  1
  Cu+  Cu66  1  0.58394366  0.17303802  0.83730602  1
  Cu+  Cu67  1  0.58399320  0.67035206  0.83762589  1
  Cu+  Cu68  1  0.08387765  0.41590876  0.83722104  1
  Cu+  Cu69  1  0.08350907  0.91489948  0.84080752  1
  Cu+  Cu70  1  0.57660887  0.40922244  0.83921841  1
  Cu+  Cu71  1  0.58281505  0.91425468  0.83584303  1
  Cu+  Cu72  1  0.16609704  0.08330152  0.67605271  1
  Cu+  Cu73  1  0.16779732  0.58601045  0.67583949  1
  Cu+  Cu74  1  0.66559347  0.08316152  0.68247422  1
  Cu+  Cu75  1  0.67037489  0.58492663  0.67419601  1
  Cu+  Cu76  1  0.41535114  0.32668234  0.67840558  1
  Cu+  Cu77  1  0.41234395  0.82628177  0.67961115  1
  Cu+  Cu78  1  0.91333632  0.33306789  0.67539535  1
  Cu+  Cu79  1  0.91580551  0.83195118  0.67469234  1
  Cu+  Cu80  1  0.41281927  0.08004637  0.67554189  1
  Cu+  Cu81  1  0.41507611  0.58336331  0.67479232  1
  Cu+  Cu82  1  0.91390375  0.08686198  0.67941432  1
  Cu+  Cu83  1  0.91707718  0.58854066  0.67377282  1
  Cu+  Cu84  1  -0.00052652  0.24863842  0.00869156  1
  Cu+  Cu85  1  0.00339162  0.75228194  0.01383571  1
  Cu+  Cu86  1  0.50062218  0.25022203  0.01399582  1
  Cu+  Cu87  1  0.50290632  0.75314216  0.01102316  1
  Cu+  Cu88  1  0.24755875  0.49195094  0.00722944  1
  Cu+  Cu89  1  0.24846399  0.99542190  0.00898600  1
  Cu+  Cu90  1  0.74471999  0.49722725  0.01089323  1
  Cu+  Cu91  1  0.74777252  1.00146854  0.01009022  1
  Cu+  Cu92  1  0.24621205  0.24598890  0.00746623  1
  Cu+  Cu93  1  0.24775935  0.74865745  0.01476610  1
  Cu+  Cu94  1  0.74729871  0.25007855  0.00940607  1
  Cu+  Cu95  1  0.75098300  0.75645614  0.00497220  1
  Cu+  Cu96  1  0.33616949  0.41958261  0.33833047  1
  Cu+  Cu97  1  0.33676012  0.91788463  0.34394910  1
  Cu+  Cu98  1  0.83750546  0.41835145  0.34096224  1
  Cu+  Cu99  1  0.83638384  0.91755442  0.34271945  1
  Cu+  Cu100  1  0.08477714  0.16621096  0.34276515  1
  Cu+  Cu101  1  0.08533479  0.66645344  0.34058016  1
  Cu+  Cu102  1  0.58299737  0.16370128  0.34920834  1
  Cu+  Cu103  1  0.58267078  0.66584639  0.33822053  1
  Cu+  Cu104  1  0.08626045  0.41919476  0.34082082  1
  Cu+  Cu105  1  0.08217462  0.91813926  0.34718378  1
  Cu+  Cu106  1  0.58486710  0.41750946  0.34038778  1
  Cu+  Cu107  1  0.58481667  0.91670344  0.34332182  1
  Cu+  Cu108  1  0.00014589  0.00495301  0.11620902  1
  Cu+  Cu109  1  -0.00099570  0.49840905  0.10839686  1
  Cu+  Cu110  1  0.50079789  0.00160136  0.11557292  1
  Cu+  Cu111  1  0.50037854  0.50011473  0.10599813  1
  Cu+  Cu112  1  0.33545377  0.17077252  0.44834054  1
  Cu+  Cu113  1  0.33477065  0.66744263  0.44977256  1
  Cu+  Cu114  1  0.83802668  0.16943230  0.45127014  1
  Cu+  Cu115  1  0.83158788  0.66348411  0.44607956  1
  Cu+  Cu116  1  0.16880967  0.34001359  0.77995749  1
  Cu+  Cu117  1  0.16411224  0.83580230  0.78438372  1
  Cu+  Cu118  1  0.67044612  0.34071642  0.78278323  1
  Cu+  Cu119  1  0.66823643  0.82950739  0.77945284  1
  Te2-  Te120  1  -0.00004541  0.00249446  0.38946961  1
  Te2-  Te121  1  0.00287456  0.50132378  0.38301497  1
  Te2-  Te122  1  0.50051026  -0.00354695  0.38974094  1
  Te2-  Te123  1  0.50155703  0.50047272  0.38074148  1
  Te2-  Te124  1  0.32980401  0.16036324  0.72219408  1
  Te2-  Te125  1  0.33029733  0.66081244  0.72395786  1
  Te2-  Te126  1  0.83167987  0.17069899  0.72548022  1
  Te2-  Te127  1  0.83371956  0.66844035  0.71978398  1
  Te2-  Te128  1  0.16383441  0.32715176  0.05333522  1
  Te2-  Te129  1  0.16835493  0.83406667  0.05962439  1
  Te2-  Te130  1  0.66665337  0.33247883  0.05743395  1
  Te2-  Te131  1  0.66932302  0.83690935  0.05365181  1
  Te2-  Te132  1  0.48874453  0.24140287  0.88665106  1
  Te2-  Te133  1  0.49298268  0.74639144  0.88388606  1
  Te2-  Te134  1  0.99151353  0.24880761  0.88305194  1
  Te2-  Te135  1  0.99573081  0.74789537  0.88659781  1
  Te2-  Te136  1  0.25300142  0.00065882  0.88316969  1
  Te2-  Te137  1  0.25257200  0.49906726  0.88008280  1
  Te2-  Te138  1  0.75319891  0.01321281  0.88398290  1
  Te2-  Te139  1  0.74609649  0.50148418  0.88312732  1
  Te2-  Te140  1  0.24771701  0.23804308  0.88200556  1
  Te2-  Te141  1  0.25073863  0.74052276  0.88695949  1
  Te2-  Te142  1  0.75363009  0.25030694  0.88357354  1
  Te2-  Te143  1  0.75352220  0.75498313  0.87910842  1
  Te2-  Te144  1  0.32875891  0.41197250  0.21208890  1
  Te2-  Te145  1  0.33046948  0.91634160  0.21771367  1
  Te2-  Te146  1  0.83058906  0.41421688  0.21447047  1
  Te2-  Te147  1  0.83038909  0.91422172  0.21679447  1
  Te2-  Te148  1  0.08663363  0.17113018  0.21676295  1
  Te2-  Te149  1  0.09139050  0.67693970  0.21415623  1
  Te2-  Te150  1  0.59025863  0.17367992  0.22095040  1
  Te2-  Te151  1  0.58942678  0.67325381  0.21187887  1
  Te2-  Te152  1  0.08810278  0.41243411  0.21442874  1
  Te2-  Te153  1  0.09062299  0.91503817  0.21954254  1
  Te2-  Te154  1  0.59108513  0.41251775  0.21433463  1
  Te2-  Te155  1  0.59142855  0.91572449  0.21724286  1
  Te2-  Te156  1  0.15891319  0.08405453  0.55017726  1
  Te2-  Te157  1  0.16045929  0.58112178  0.55035904  1
  Te2-  Te158  1  0.65603240  0.07496271  0.55434235  1
  Te2-  Te159  1  0.66184536  0.58028799  0.54861064  1
  Te2-  Te160  1  0.42098782  0.33534093  0.55109799  1
  Te2-  Te161  1  0.41836564  0.83763396  0.55287276  1
  Te2-  Te162  1  0.91451948  0.33601360  0.54955533  1
  Te2-  Te163  1  0.91777235  0.84317357  0.54928673  1
  Te2-  Te164  1  0.41413311  0.07361408  0.54983504  1
  Te2-  Te165  1  0.41879995  0.58079764  0.54944054  1
  Te2-  Te166  1  0.91741353  0.08298209  0.55246474  1
  Te2-  Te167  1  0.92191959  0.58506500  0.54802809  1
  Te2-  Te168  1  -0.00004820  0.00132367  0.88264237  1
  Te2-  Te169  1  -0.00052857  0.50010740  0.88266027  1
  Te2-  Te170  1  0.50003859  0.00177692  0.88347709  1
  Te2-  Te171  1  0.49961040  0.50145689  0.88286656  1
  Te2-  Te172  1  0.33452245  0.16838837  0.21577999  1
  Te2-  Te173  1  0.33465868  0.66654021  0.21439525  1
  Te2-  Te174  1  0.83546462  0.16976963  0.21584964  1
  Te2-  Te175  1  0.83317340  0.66699163  0.21290130  1
  Te2-  Te176  1  0.16829414  0.33538913  0.54905925  1
  Te2-  Te177  1  0.16572002  0.83368348  0.54862314  1
  Te2-  Te178  1  0.66790574  0.33515284  0.55015915  1
  Te2-  Te179  1  0.66635238  0.83175064  0.54892373  1
  Te2-  Te180  1  0.32739987  0.41237489  0.70973513  1
  Te2-  Te181  1  0.32441688  0.91060773  0.71239784  1
  Te2-  Te182  1  0.82825655  0.41788684  0.71151434  1
  Te2-  Te183  1  0.82689361  0.91383628  0.70927813  1
  Te2-  Te184  1  0.08709688  0.17515110  0.70978106  1
  Te2-  Te185  1  0.08592521  0.67372225  0.71364565  1
  Te2-  Te186  1  0.58202396  0.17218948  0.71151863  1
  Te2-  Te187  1  0.58471935  0.66921221  0.71122021  1
  Te2-  Te188  1  0.08396242  0.41477040  0.71056856  1
  Te2-  Te189  1  0.08431266  0.91419794  0.71346320  1
  Te2-  Te190  1  0.58756002  0.41445291  0.71139063  1
  Te2-  Te191  1  0.58501085  0.91018539  0.70966611  1
  Te2-  Te192  1  0.16055960  0.07728697  0.04585139  1
  Te2-  Te193  1  0.15909934  0.57541884  0.03909083  1
  Te2-  Te194  1  0.65916277  0.08150338  0.04649119  1
  Te2-  Te195  1  0.66077302  0.58582710  0.03837445  1
  Te2-  Te196  1  0.41618050  0.33847465  0.04085434  1
  Te2-  Te197  1  0.42008232  0.84151441  0.04290126  1
  Te2-  Te198  1  0.91836120  0.33802017  0.04262054  1
  Te2-  Te199  1  0.92012919  0.84231424  0.04300830  1
  Te2-  Te200  1  0.41836651  0.07775339  0.04508751  1
  Te2-  Te201  1  0.42006315  0.57922077  0.03748353  1
  Te2-  Te202  1  0.91745280  0.08006198  0.04643427  1
  Te2-  Te203  1  0.91817955  0.57821162  0.03906273  1
  Te2-  Te204  1  0.49465179  0.24843626  0.37846170  1
  Te2-  Te205  1  0.49526628  0.74680540  0.37903687  1
  Te2-  Te206  1  0.99722712  0.24925531  0.37938804  1
  Te2-  Te207  1  0.99384727  0.74507323  0.37615703  1
  Te2-  Te208  1  0.25560157  0.00785216  0.37719753  1
  Te2-  Te209  1  0.25525300  0.50717000  0.37848191  1
  Te2-  Te210  1  0.75474783  0.00620695  0.38051446  1
  Te2-  Te211  1  0.75354955  0.50352337  0.37834764  1
  Te2-  Te212  1  0.25521418  0.25021125  0.37820307  1
  Te2-  Te213  1  0.25374185  0.74825700  0.38005945  1
  Te2-  Te214  1  0.75645600  0.24839236  0.37885351  1
  Te2-  Te215  1  0.75223278  0.74678990  0.37744025  1
