# generated using pymatgen
data_Ti(CuTe)4
_symmetry_space_group_name_H-M   'P 1'
_cell_length_a   16.88751035
_cell_length_b   16.88897202
_cell_length_c   20.70922411
_cell_angle_alpha   89.97021122
_cell_angle_beta   90.01917669
_cell_angle_gamma   120.01265732
_symmetry_Int_Tables_number   1
_chemical_formula_structural   Ti(CuTe)4
_chemical_formula_sum   'Ti24 Cu96 Te96'
_cell_volume   5114.55482090
_cell_formula_units_Z   24
loop_
 _symmetry_equiv_pos_site_id
 _symmetry_equiv_pos_as_xyz
  1  'x, y, z'
loop_
 _atom_type_symbol
 _atom_type_oxidation_number
  Ti4+  4.0
  Cu+  1.0
  Te2-  -2.0
loop_
 _atom_site_type_symbol
 _atom_site_label
 _atom_site_symmetry_multiplicity
 _atom_site_fract_x
 _atom_site_fract_y
 _atom_site_fract_z
 _atom_site_occupancy
  Ti4+  Ti0  1  0.00023693  0.00027340  0.25612857  1
  Ti4+  Ti1  1  0.00137490  0.50234486  0.25728167  1
  Ti4+  Ti2  1  0.50182007  -0.00266944  0.25740094  1
  Ti4+  Ti3  1  0.49867715  0.49914052  0.25893009  1
  Ti4+  Ti4  1  0.33891097  0.16890325  0.58851633  1
  Ti4+  Ti5  1  0.33663034  0.66967177  0.59431104  1
  Ti4+  Ti6  1  0.83889093  0.16772014  0.59146105  1
  Ti4+  Ti7  1  0.83461142  0.66923898  0.59176035  1
  Ti4+  Ti8  1  0.16368867  0.33168287  0.92610670  1
  Ti4+  Ti9  1  0.16167873  0.83075046  0.92279027  1
  Ti4+  Ti10  1  0.66420160  0.33260636  0.92259371  1
  Ti4+  Ti11  1  0.66187000  0.83192921  0.92392902  1
  Ti4+  Ti12  1  0.00114428  0.00162780  0.75655329  1
  Ti4+  Ti13  1  0.00046736  0.50144350  0.75416438  1
  Ti4+  Ti14  1  0.50117691  -0.00012445  0.75418705  1
  Ti4+  Ti15  1  0.50108190  0.50036997  0.75516598  1
  Ti4+  Ti16  1  0.33129854  0.16579838  0.08754429  1
  Ti4+  Ti17  1  0.33081997  0.66536218  0.08956198  1
  Ti4+  Ti18  1  0.82980563  0.16335130  0.08797009  1
  Ti4+  Ti19  1  0.83317163  0.66663720  0.08939898  1
  Ti4+  Ti20  1  0.16580220  0.33223796  0.42315689  1
  Ti4+  Ti21  1  0.16987135  0.83397542  0.42371252  1
  Ti4+  Ti22  1  0.66583840  0.33372337  0.42043495  1
  Ti4+  Ti23  1  0.67005542  0.83406670  0.42413938  1
  Cu+  Cu24  1  0.86249834  0.93122688  0.47420893  1
  Cu+  Cu25  1  0.57469632  0.43084100  0.47410310  1
  Cu+  Cu26  1  0.90278844  0.81880674  0.81070298  1
  Cu+  Cu27  1  0.40165769  0.58546351  0.80980873  1
  Cu+  Cu28  1  0.90105128  0.58747801  0.80694087  1
  Cu+  Cu29  1  0.73655351  0.97396528  0.13994469  1
  Cu+  Cu30  1  0.40316227  0.81685037  0.81124302  1
  Cu+  Cu31  1  0.02403398  0.76193896  0.14220370  1
  Cu+  Cu32  1  0.36206044  0.92921928  0.47395955  1
  Cu+  Cu33  1  0.24543191  0.26373426  0.14178617  1
  Cu+  Cu34  1  0.01041707  0.25825059  0.14570932  1
  Cu+  Cu35  1  0.90438989  0.09393770  0.80989284  1
  Cu+  Cu36  1  0.16388905  0.08632830  0.16784774  1
  Cu+  Cu37  1  0.16241404  0.58168889  0.17064525  1
  Cu+  Cu38  1  0.66183362  0.07298696  0.16970697  1
  Cu+  Cu39  1  0.66357624  0.58097333  0.17367047  1
  Cu+  Cu40  1  0.41673166  0.33699240  0.17162966  1
  Cu+  Cu41  1  0.41738492  0.83489318  0.17138787  1
  Cu+  Cu42  1  0.91882258  0.33797867  0.17103841  1
  Cu+  Cu43  1  0.92109609  0.83632588  0.16993865  1
  Cu+  Cu44  1  0.41716033  0.07974744  0.17102129  1
  Cu+  Cu45  1  0.41827338  0.58247470  0.17216313  1
  Cu+  Cu46  1  0.91404504  0.07845422  0.16818356  1
  Cu+  Cu47  1  0.92368520  0.58820933  0.17099920  1
  Cu+  Cu48  1  0.49779609  0.25370811  0.50007522  1
  Cu+  Cu49  1  0.49870222  0.74896494  0.50799153  1
  Cu+  Cu50  1  0.99820987  0.24714222  0.50542448  1
  Cu+  Cu51  1  0.99872838  0.74955193  0.50642158  1
  Cu+  Cu52  1  0.25957184  0.00265449  0.50373165  1
  Cu+  Cu53  1  0.25252515  0.50147320  0.50807561  1
  Cu+  Cu54  1  0.76156051  0.00345768  0.50561160  1
  Cu+  Cu55  1  0.74859162  0.50302350  0.50421396  1
  Cu+  Cu56  1  0.25267540  0.24850432  0.50326490  1
  Cu+  Cu57  1  0.25947588  0.75595900  0.50718582  1
  Cu+  Cu58  1  0.75363097  0.25003805  0.50402332  1
  Cu+  Cu59  1  0.76008174  0.75559913  0.50464419  1
  Cu+  Cu60  1  0.32920489  0.41395465  0.83925649  1
  Cu+  Cu61  1  0.32773428  0.91275663  0.83661111  1
  Cu+  Cu62  1  0.82798347  0.41637164  0.83625310  1
  Cu+  Cu63  1  0.82814894  0.91768729  0.83883803  1
  Cu+  Cu64  1  0.08025165  0.16974622  0.83947289  1
  Cu+  Cu65  1  0.07745571  0.66955685  0.83442579  1
  Cu+  Cu66  1  0.58373746  0.16969134  0.83665943  1
  Cu+  Cu67  1  0.57808683  0.66749459  0.83604636  1
  Cu+  Cu68  1  0.08246418  0.41266802  0.83712247  1
  Cu+  Cu69  1  0.07872530  0.91000728  0.83634889  1
  Cu+  Cu70  1  0.58399942  0.41245862  0.83578816  1
  Cu+  Cu71  1  0.57993332  0.91109903  0.83590919  1
  Cu+  Cu72  1  0.17614499  0.08846154  0.67268669  1
  Cu+  Cu73  1  0.17038414  0.58582569  0.67598562  1
  Cu+  Cu74  1  0.67412880  0.08563421  0.67355300  1
  Cu+  Cu75  1  0.66923477  0.58430605  0.67473463  1
  Cu+  Cu76  1  0.41936524  0.33307456  0.67348540  1
  Cu+  Cu77  1  0.41786498  0.83211482  0.68152860  1
  Cu+  Cu78  1  0.91942453  0.33283482  0.67425280  1
  Cu+  Cu79  1  0.91852819  0.83365613  0.68084871  1
  Cu+  Cu80  1  0.42023134  0.08660758  0.67178016  1
  Cu+  Cu81  1  0.41567706  0.58497726  0.68121258  1
  Cu+  Cu82  1  0.92042346  0.08799766  0.68045706  1
  Cu+  Cu83  1  0.91534327  0.58560972  0.67801287  1
  Cu+  Cu84  1  -0.00118999  0.24843978  0.01450143  1
  Cu+  Cu85  1  -0.00102206  0.74976551  0.01251200  1
  Cu+  Cu86  1  0.50021873  0.24987109  0.00637122  1
  Cu+  Cu87  1  0.49615245  0.74900869  0.01060703  1
  Cu+  Cu88  1  0.24773702  0.49740662  0.01085546  1
  Cu+  Cu89  1  0.24683637  0.99601046  0.00590228  1
  Cu+  Cu90  1  0.74671851  0.49595442  0.00803600  1
  Cu+  Cu91  1  0.74336315  0.99464346  0.01122743  1
  Cu+  Cu92  1  0.24658200  0.25096082  0.01243475  1
  Cu+  Cu93  1  0.24527695  0.74819420  0.00805433  1
  Cu+  Cu94  1  0.74438273  0.25041413  0.00563774  1
  Cu+  Cu95  1  0.74502663  0.74853989  0.00865410  1
  Cu+  Cu96  1  0.33366633  0.41658770  0.34307214  1
  Cu+  Cu97  1  0.33976626  0.91728036  0.34561572  1
  Cu+  Cu98  1  0.83708551  0.41961920  0.33945806  1
  Cu+  Cu99  1  0.83729942  0.91747578  0.34515360  1
  Cu+  Cu100  1  0.08079257  0.16640105  0.34179060  1
  Cu+  Cu101  1  0.08395204  0.66543530  0.34313429  1
  Cu+  Cu102  1  0.58332732  0.16358512  0.33880358  1
  Cu+  Cu103  1  0.58255790  0.66381788  0.34379452  1
  Cu+  Cu104  1  0.08091422  0.41752160  0.34345837  1
  Cu+  Cu105  1  0.08326419  0.91598404  0.34111391  1
  Cu+  Cu106  1  0.58024216  0.41769943  0.34491834  1
  Cu+  Cu107  1  0.58433705  0.91529818  0.34259013  1
  Cu+  Cu108  1  -0.00015157  -0.00123997  0.11161132  1
  Cu+  Cu109  1  -0.00361790  0.49821700  0.11351948  1
  Cu+  Cu110  1  0.49607040  -0.00017814  0.11370091  1
  Cu+  Cu111  1  0.50216162  0.50206909  0.11625876  1
  Cu+  Cu112  1  0.33026378  0.16426198  0.44507112  1
  Cu+  Cu113  1  0.33198165  0.66296695  0.45289283  1
  Cu+  Cu114  1  0.83014298  0.16670441  0.44834852  1
  Cu+  Cu115  1  0.83691485  0.66570396  0.44833050  1
  Cu+  Cu116  1  0.16724320  0.33308433  0.78208657  1
  Cu+  Cu117  1  0.16787795  0.83601031  0.77825251  1
  Cu+  Cu118  1  0.66616434  0.33027529  0.77805988  1
  Cu+  Cu119  1  0.66672632  0.83199677  0.78032055  1
  Te2-  Te120  1  0.00487363  0.00187797  0.38616930  1
  Te2-  Te121  1  -0.00024182  0.50102242  0.38636408  1
  Te2-  Te122  1  0.50671073  0.00156995  0.38794040  1
  Te2-  Te123  1  0.49735230  0.50038782  0.38951916  1
  Te2-  Te124  1  0.33934453  0.16904843  0.71777584  1
  Te2-  Te125  1  0.33130210  0.66639675  0.72688752  1
  Te2-  Te126  1  0.83592630  0.17016730  0.72258999  1
  Te2-  Te127  1  0.83124679  0.66715697  0.72399451  1
  Te2-  Te128  1  0.16467322  0.33425494  0.05815277  1
  Te2-  Te129  1  0.16637317  0.83328202  0.05300954  1
  Te2-  Te130  1  0.66344073  0.33199871  0.05202178  1
  Te2-  Te131  1  0.66100034  0.82807037  0.05404930  1
  Te2-  Te132  1  0.49208803  0.24568050  0.88080566  1
  Te2-  Te133  1  0.48548003  0.74288224  0.88446584  1
  Te2-  Te134  1  0.98954369  0.24734837  0.88649393  1
  Te2-  Te135  1  0.98429915  0.74268589  0.88480120  1
  Te2-  Te136  1  0.24758525  0.00074898  0.87982099  1
  Te2-  Te137  1  0.24855303  0.50456251  0.88471725  1
  Te2-  Te138  1  0.74632768  0.00496821  0.88420487  1
  Te2-  Te139  1  0.74947847  0.50782984  0.88261339  1
  Te2-  Te140  1  0.24868056  0.24670497  0.88500983  1
  Te2-  Te141  1  0.24467957  0.74133634  0.88194539  1
  Te2-  Te142  1  0.75196783  0.24874380  0.88006692  1
  Te2-  Te143  1  0.74606359  0.74440946  0.88237422  1
  Te2-  Te144  1  0.32490832  0.41538973  0.21744934  1
  Te2-  Te145  1  0.32961521  0.91317232  0.21860871  1
  Te2-  Te146  1  0.83102972  0.41823676  0.21332676  1
  Te2-  Te147  1  0.82749432  0.91051978  0.21730116  1
  Te2-  Te148  1  0.08528790  0.17571808  0.21553530  1
  Te2-  Te149  1  0.09242472  0.67730551  0.21735436  1
  Te2-  Te150  1  0.58711040  0.16735352  0.21282411  1
  Te2-  Te151  1  0.58563278  0.67095831  0.21779516  1
  Te2-  Te152  1  0.08897808  0.41550560  0.21751864  1
  Te2-  Te153  1  0.09088337  0.91854007  0.21489869  1
  Te2-  Te154  1  0.58354546  0.41275987  0.21776529  1
  Te2-  Te155  1  0.58461923  0.90530952  0.21689470  1
  Te2-  Te156  1  0.16769222  0.08040947  0.54684032  1
  Te2-  Te157  1  0.16711911  0.58607789  0.54996384  1
  Te2-  Te158  1  0.66887452  0.08090624  0.54736925  1
  Te2-  Te159  1  0.66228575  0.58663684  0.54892493  1
  Te2-  Te160  1  0.42023163  0.34351412  0.54813011  1
  Te2-  Te161  1  0.42728180  0.84374825  0.55439016  1
  Te2-  Te162  1  0.92180617  0.33876773  0.54874610  1
  Te2-  Te163  1  0.92671709  0.84381449  0.55331763  1
  Te2-  Te164  1  0.42978154  0.08619041  0.54646330  1
  Te2-  Te165  1  0.42030297  0.58197693  0.55417494  1
  Te2-  Te166  1  0.92896397  0.08237707  0.55348222  1
  Te2-  Te167  1  0.91662840  0.58131803  0.55064670  1
  Te2-  Te168  1  -0.00105645  -0.00060367  0.88400578  1
  Te2-  Te169  1  -0.00161215  0.49945282  0.88095399  1
  Te2-  Te170  1  0.49820268  -0.00032987  0.88110280  1
  Te2-  Te171  1  0.49990440  0.49807667  0.88210171  1
  Te2-  Te172  1  0.33315430  0.16537835  0.21443068  1
  Te2-  Te173  1  0.33196708  0.66567934  0.21569939  1
  Te2-  Te174  1  0.83246642  0.16678859  0.21539578  1
  Te2-  Te175  1  0.83367371  0.66753697  0.21614521  1
  Te2-  Te176  1  0.16807666  0.33200376  0.54938380  1
  Te2-  Te177  1  0.16822387  0.83459258  0.55049988  1
  Te2-  Te178  1  0.66708493  0.33292114  0.54730734  1
  Te2-  Te179  1  0.66956851  0.83405825  0.55082783  1
  Te2-  Te180  1  0.32817399  0.41176726  0.71154069  1
  Te2-  Te181  1  0.32888322  0.91681000  0.70896418  1
  Te2-  Te182  1  0.82804907  0.41260828  0.70866499  1
  Te2-  Te183  1  0.82751424  0.91511249  0.71074981  1
  Te2-  Te184  1  0.09273361  0.17429842  0.71217654  1
  Te2-  Te185  1  0.08834813  0.67484556  0.70832992  1
  Te2-  Te186  1  0.58926761  0.17125934  0.70969942  1
  Te2-  Te187  1  0.58892147  0.67376421  0.70959824  1
  Te2-  Te188  1  0.08840941  0.41565918  0.71144706  1
  Te2-  Te189  1  0.09092808  0.91901898  0.70986260  1
  Te2-  Te190  1  0.58824551  0.41510695  0.71006917  1
  Te2-  Te191  1  0.59103768  0.91624108  0.70975791  1
  Te2-  Te192  1  0.15862120  0.07762170  0.04126914  1
  Te2-  Te193  1  0.15828045  0.57863727  0.04471822  1
  Te2-  Te194  1  0.65708146  0.08051881  0.04291797  1
  Te2-  Te195  1  0.66081219  0.57934971  0.04647501  1
  Te2-  Te196  1  0.41937359  0.33895223  0.04408177  1
  Te2-  Te197  1  0.41502573  0.83773785  0.04509056  1
  Te2-  Te198  1  0.91399232  0.33676283  0.04354279  1
  Te2-  Te199  1  0.91521195  0.83858911  0.04286787  1
  Te2-  Te200  1  0.41654309  0.07961029  0.04359695  1
  Te2-  Te201  1  0.41761421  0.57903580  0.04595014  1
  Te2-  Te202  1  0.91593818  0.07543193  0.04119481  1
  Te2-  Te203  1  0.91629045  0.57771093  0.04378349  1
  Te2-  Te204  1  0.49354663  0.24417825  0.37389414  1
  Te2-  Te205  1  0.49638566  0.74678191  0.38204682  1
  Te2-  Te206  1  0.99327608  0.24742721  0.37931982  1
  Te2-  Te207  1  0.99721186  0.74794774  0.37988817  1
  Te2-  Te208  1  0.25395850  0.00485395  0.37607103  1
  Te2-  Te209  1  0.25165386  0.50439250  0.38077102  1
  Te2-  Te210  1  0.75446912  0.00636702  0.37805375  1
  Te2-  Te211  1  0.75378016  0.50633556  0.37648599  1
  Te2-  Te212  1  0.25125898  0.24644853  0.37689775  1
  Te2-  Te213  1  0.25418016  0.74558439  0.37997927  1
  Te2-  Te214  1  0.75323838  0.24936107  0.37672702  1
  Te2-  Te215  1  0.75359000  0.74535897  0.37814022  1
