# generated using pymatgen
data_Ti(CuTe)4
_symmetry_space_group_name_H-M   'P 1'
_cell_length_a   16.85424724
_cell_length_b   16.85546303
_cell_length_c   20.66136879
_cell_angle_alpha   90.04926426
_cell_angle_beta   89.94212680
_cell_angle_gamma   119.97574672
_symmetry_Int_Tables_number   1
_chemical_formula_structural   Ti(CuTe)4
_chemical_formula_sum   'Ti24 Cu96 Te96'
_cell_volume   5084.46892663
_cell_formula_units_Z   24
loop_
 _symmetry_equiv_pos_site_id
 _symmetry_equiv_pos_as_xyz
  1  'x, y, z'
loop_
 _atom_type_symbol
 _atom_type_oxidation_number
  Ti4+  4.0
  Cu+  1.0
  Te2-  -2.0
loop_
 _atom_site_type_symbol
 _atom_site_label
 _atom_site_symmetry_multiplicity
 _atom_site_fract_x
 _atom_site_fract_y
 _atom_site_fract_z
 _atom_site_occupancy
  Ti4+  Ti0  1  -0.00163768  0.00067543  0.25933707  1
  Ti4+  Ti1  1  -0.00143397  0.50118877  0.25559619  1
  Ti4+  Ti2  1  0.49688204  0.00095149  0.25901575  1
  Ti4+  Ti3  1  0.49607219  0.49665356  0.25703603  1
  Ti4+  Ti4  1  0.33486402  0.16473080  0.59193437  1
  Ti4+  Ti5  1  0.33598331  0.66465607  0.58860317  1
  Ti4+  Ti6  1  0.83659889  0.16791027  0.58915458  1
  Ti4+  Ti7  1  0.83336759  0.66415659  0.58891922  1
  Ti4+  Ti8  1  0.16830297  0.33267763  0.92745505  1
  Ti4+  Ti9  1  0.16813138  0.83559376  0.92347319  1
  Ti4+  Ti10  1  0.66758472  0.33426640  0.92847035  1
  Ti4+  Ti11  1  0.66790169  0.83579773  0.92511981  1
  Ti4+  Ti12  1  0.00268515  0.00105374  0.75602257  1
  Ti4+  Ti13  1  -0.00039035  0.49974788  0.75669982  1
  Ti4+  Ti14  1  0.50011995  -0.00023064  0.75546845  1
  Ti4+  Ti15  1  0.50003926  0.49944949  0.75824915  1
  Ti4+  Ti16  1  0.33305301  0.16850030  0.09000278  1
  Ti4+  Ti17  1  0.33190931  0.66598327  0.08951045  1
  Ti4+  Ti18  1  0.83359417  0.16816018  0.08943140  1
  Ti4+  Ti19  1  0.83265375  0.66649475  0.08939959  1
  Ti4+  Ti20  1  0.16487312  0.33298592  0.42184889  1
  Ti4+  Ti21  1  0.16663757  0.83518679  0.42049967  1
  Ti4+  Ti22  1  0.66641596  0.33484972  0.42188369  1
  Ti4+  Ti23  1  0.66433300  0.83225583  0.41808852  1
  Cu+  Cu24  1  0.23700635  0.47992094  0.14347474  1
  Cu+  Cu25  1  0.51439571  0.25285671  0.14420529  1
  Cu+  Cu26  1  0.35180268  0.92262583  0.47558345  1
  Cu+  Cu27  1  0.19560586  0.09881814  0.80847949  1
  Cu+  Cu28  1  0.57948938  0.64776935  0.47269603  1
  Cu+  Cu29  1  0.74167547  0.48121783  0.14329356  1
  Cu+  Cu30  1  0.58237677  0.15240066  0.47721784  1
  Cu+  Cu31  1  0.84780638  0.91883263  0.47590420  1
  Cu+  Cu32  1  0.23658499  0.25565371  0.14476324  1
  Cu+  Cu33  1  0.34800612  0.41663325  0.47848701  1
  Cu+  Cu34  1  0.08035513  0.14902446  0.47826248  1
  Cu+  Cu35  1  0.85953161  0.42726909  0.47198936  1
  Cu+  Cu36  1  0.16029669  0.08334535  0.17135143  1
  Cu+  Cu37  1  0.16302588  0.58038230  0.16974650  1
  Cu+  Cu38  1  0.66517449  0.08535902  0.17201557  1
  Cu+  Cu39  1  0.66454831  0.58013980  0.17052631  1
  Cu+  Cu40  1  0.41497172  0.33571441  0.16819281  1
  Cu+  Cu41  1  0.41278069  0.83616844  0.17224160  1
  Cu+  Cu42  1  0.91545548  0.33731688  0.16884695  1
  Cu+  Cu43  1  0.91488223  0.83646335  0.17220563  1
  Cu+  Cu44  1  0.41802127  0.08081378  0.17276342  1
  Cu+  Cu45  1  0.41256209  0.57895947  0.17123561  1
  Cu+  Cu46  1  0.91543642  0.08279020  0.17281921  1
  Cu+  Cu47  1  0.91562898  0.58090246  0.16998660  1
  Cu+  Cu48  1  0.49620852  0.24279123  0.50230776  1
  Cu+  Cu49  1  0.49355722  0.74006212  0.49690312  1
  Cu+  Cu50  1  0.99571976  0.24289444  0.50062000  1
  Cu+  Cu51  1  0.99531952  0.74473134  0.50038414  1
  Cu+  Cu52  1  0.25554205  0.00184833  0.50263945  1
  Cu+  Cu53  1  0.25812421  0.50433483  0.49987806  1
  Cu+  Cu54  1  0.75636977  0.00414318  0.49842138  1
  Cu+  Cu55  1  0.75821391  0.50366846  0.50000899  1
  Cu+  Cu56  1  0.25246018  0.24574695  0.50697182  1
  Cu+  Cu57  1  0.25222454  0.74926820  0.50214081  1
  Cu+  Cu58  1  0.75642356  0.25313270  0.50361749  1
  Cu+  Cu59  1  0.75112345  0.74558619  0.50116587  1
  Cu+  Cu60  1  0.33085293  0.41543763  0.84142964  1
  Cu+  Cu61  1  0.32941105  0.91429986  0.83669968  1
  Cu+  Cu62  1  0.83042390  0.41710297  0.84132573  1
  Cu+  Cu63  1  0.82959188  0.91671266  0.83814873  1
  Cu+  Cu64  1  0.09043933  0.16961644  0.83965503  1
  Cu+  Cu65  1  0.08445310  0.66979030  0.83764721  1
  Cu+  Cu66  1  0.58395032  0.16908734  0.84137935  1
  Cu+  Cu67  1  0.58565848  0.67069469  0.83933792  1
  Cu+  Cu68  1  0.08566043  0.41784237  0.84149631  1
  Cu+  Cu69  1  0.09159046  0.92144752  0.83705125  1
  Cu+  Cu70  1  0.58508225  0.41606833  0.84344933  1
  Cu+  Cu71  1  0.58691987  0.91760084  0.83814824  1
  Cu+  Cu72  1  0.17081318  0.08509904  0.68046131  1
  Cu+  Cu73  1  0.17003856  0.58324813  0.67210768  1
  Cu+  Cu74  1  0.66956605  0.08650110  0.67454232  1
  Cu+  Cu75  1  0.66754036  0.58138531  0.67428955  1
  Cu+  Cu76  1  0.41622709  0.33251335  0.67859809  1
  Cu+  Cu77  1  0.41687592  0.83088687  0.67267820  1
  Cu+  Cu78  1  0.91656445  0.33304212  0.67528822  1
  Cu+  Cu79  1  0.91363447  0.83005079  0.67442264  1
  Cu+  Cu80  1  0.41690538  0.08223093  0.67818650  1
  Cu+  Cu81  1  0.41601777  0.58121474  0.67640586  1
  Cu+  Cu82  1  0.91733296  0.08424279  0.67630899  1
  Cu+  Cu83  1  0.91457780  0.58139754  0.67422236  1
  Cu+  Cu84  1  0.00120325  0.24987823  0.00891966  1
  Cu+  Cu85  1  0.00414429  0.75491173  0.00584516  1
  Cu+  Cu86  1  0.50376105  0.25221072  0.01539387  1
  Cu+  Cu87  1  0.50371161  0.75456895  0.00783141  1
  Cu+  Cu88  1  0.24971962  0.49655999  0.01429440  1
  Cu+  Cu89  1  0.24930263  0.99906293  0.00909994  1
  Cu+  Cu90  1  0.74749952  0.49694261  0.01476646  1
  Cu+  Cu91  1  0.74864422  0.99794557  0.00821737  1
  Cu+  Cu92  1  0.24882048  0.25073128  0.01539853  1
  Cu+  Cu93  1  0.24882904  0.75327567  0.00608764  1
  Cu+  Cu94  1  0.75102399  0.25165363  0.00884045  1
  Cu+  Cu95  1  0.74947671  0.75446142  0.00745101  1
  Cu+  Cu96  1  0.33204341  0.41671881  0.34832463  1
  Cu+  Cu97  1  0.33598359  0.92231996  0.34606204  1
  Cu+  Cu98  1  0.83587503  0.42254452  0.34431033  1
  Cu+  Cu99  1  0.83505050  0.92037343  0.34546128  1
  Cu+  Cu100  1  0.07812373  0.16415482  0.34818851  1
  Cu+  Cu101  1  0.08009946  0.66647886  0.33729580  1
  Cu+  Cu102  1  0.57838903  0.16591006  0.34776193  1
  Cu+  Cu103  1  0.57571004  0.66050827  0.34322642  1
  Cu+  Cu104  1  0.08023769  0.41826900  0.33990039  1
  Cu+  Cu105  1  0.08099306  0.91834362  0.34003486  1
  Cu+  Cu106  1  0.58077148  0.41673497  0.34175159  1
  Cu+  Cu107  1  0.57946646  0.91743670  0.33856046  1
  Cu+  Cu108  1  -0.00487259  -0.00238122  0.11665627  1
  Cu+  Cu109  1  0.00182278  0.50393591  0.11081161  1
  Cu+  Cu110  1  0.50341608  -0.00318438  0.11679752  1
  Cu+  Cu111  1  0.50339496  0.50719413  0.11401614  1
  Cu+  Cu112  1  0.33176442  0.16622733  0.44616205  1
  Cu+  Cu113  1  0.32685612  0.66632262  0.44168104  1
  Cu+  Cu114  1  0.82968568  0.16703516  0.44273945  1
  Cu+  Cu115  1  0.83308698  0.66800773  0.44100031  1
  Cu+  Cu116  1  0.16369563  0.33492751  0.78540850  1
  Cu+  Cu117  1  0.16452383  0.82896756  0.77888729  1
  Cu+  Cu118  1  0.66659895  0.33251904  0.78697120  1
  Cu+  Cu119  1  0.66378863  0.83192712  0.78134315  1
  Te2-  Te120  1  -0.00016415  -0.00201874  0.39206127  1
  Te2-  Te121  1  0.00321707  0.50431037  0.38624413  1
  Te2-  Te122  1  0.50158874  -0.00031397  0.39147370  1
  Te2-  Te123  1  0.49849564  0.49631225  0.38917606  1
  Te2-  Te124  1  0.33825757  0.16795958  0.72208568  1
  Te2-  Te125  1  0.33442019  0.66603674  0.71714317  1
  Te2-  Te126  1  0.83479380  0.16755405  0.71754184  1
  Te2-  Te127  1  0.83298145  0.66489113  0.71748826  1
  Te2-  Te128  1  0.16278640  0.33090817  0.05984039  1
  Te2-  Te129  1  0.16707089  0.83454606  0.05303806  1
  Te2-  Te130  1  0.66929957  0.33126223  0.06115991  1
  Te2-  Te131  1  0.66671642  0.83463547  0.05504733  1
  Te2-  Te132  1  0.49561204  0.24786343  0.88861619  1
  Te2-  Te133  1  0.49594496  0.74967570  0.88200226  1
  Te2-  Te134  1  0.99878422  0.24731112  0.88274105  1
  Te2-  Te135  1  0.99735064  0.75251210  0.87990108  1
  Te2-  Te136  1  0.25984541  0.01096400  0.88354020  1
  Te2-  Te137  1  0.25294051  0.50443326  0.88766824  1
  Te2-  Te138  1  0.75434447  0.00835664  0.88263776  1
  Te2-  Te139  1  0.75288935  0.50629961  0.88814977  1
  Te2-  Te140  1  0.25812478  0.24812500  0.88811720  1
  Te2-  Te141  1  0.25231802  0.74758273  0.88101247  1
  Te2-  Te142  1  0.75255276  0.24866174  0.88347348  1
  Te2-  Te143  1  0.75407073  0.74957304  0.88203649  1
  Te2-  Te144  1  0.32058295  0.40943828  0.21997568  1
  Te2-  Te145  1  0.32489338  0.91575041  0.21903796  1
  Te2-  Te146  1  0.82410793  0.41154587  0.21801734  1
  Te2-  Te147  1  0.82679742  0.91521692  0.21874267  1
  Te2-  Te148  1  0.08305775  0.17453718  0.22057748  1
  Te2-  Te149  1  0.08457886  0.67119312  0.21150037  1
  Te2-  Te150  1  0.58762686  0.17497052  0.22058173  1
  Te2-  Te151  1  0.58181883  0.66660532  0.21610498  1
  Te2-  Te152  1  0.08197364  0.41061413  0.21507987  1
  Te2-  Te153  1  0.08439285  0.91636863  0.21449298  1
  Te2-  Te154  1  0.58393201  0.40967543  0.21634947  1
  Te2-  Te155  1  0.58197219  0.91593495  0.21346786  1
  Te2-  Te156  1  0.16223495  0.07605170  0.55247332  1
  Te2-  Te157  1  0.16597615  0.58027216  0.54541293  1
  Te2-  Te158  1  0.66468880  0.07959142  0.54769993  1
  Te2-  Te159  1  0.66119515  0.57497236  0.54714958  1
  Te2-  Te160  1  0.42384013  0.33733174  0.55159649  1
  Te2-  Te161  1  0.42438811  0.83710796  0.54627606  1
  Te2-  Te162  1  0.92616266  0.34088076  0.54847497  1
  Te2-  Te163  1  0.92075586  0.83726411  0.54811174  1
  Te2-  Te164  1  0.42342964  0.07680080  0.55191217  1
  Te2-  Te165  1  0.42463377  0.57526440  0.54955227  1
  Te2-  Te166  1  0.92253132  0.07647656  0.55022237  1
  Te2-  Te167  1  0.92397031  0.57983849  0.54866760  1
  Te2-  Te168  1  -0.00041525  -0.00053571  0.88269238  1
  Te2-  Te169  1  0.00020264  0.50193425  0.88344180  1
  Te2-  Te170  1  0.49888514  -0.00111816  0.88200955  1
  Te2-  Te171  1  0.50079450  0.50237340  0.88487425  1
  Te2-  Te172  1  0.33089787  0.16645502  0.21777219  1
  Te2-  Te173  1  0.33158349  0.66762480  0.21677759  1
  Te2-  Te174  1  0.83277232  0.16938586  0.21634758  1
  Te2-  Te175  1  0.83294232  0.66787056  0.21672939  1
  Te2-  Te176  1  0.16697877  0.33390314  0.54935607  1
  Te2-  Te177  1  0.16464655  0.83085475  0.54756372  1
  Te2-  Te178  1  0.66676285  0.33381972  0.54939869  1
  Te2-  Te179  1  0.66537314  0.83259893  0.54558760  1
  Te2-  Te180  1  0.32686605  0.41249500  0.71472298  1
  Te2-  Te181  1  0.32769836  0.91155808  0.71015954  1
  Te2-  Te182  1  0.82723352  0.41320033  0.71390133  1
  Te2-  Te183  1  0.82952128  0.91474417  0.71195913  1
  Te2-  Te184  1  0.08734229  0.17465185  0.71208218  1
  Te2-  Te185  1  0.08566355  0.66942323  0.70969408  1
  Te2-  Te186  1  0.58708555  0.17315767  0.71362052  1
  Te2-  Te187  1  0.58636028  0.67022533  0.71194008  1
  Te2-  Te188  1  0.08658178  0.41498877  0.71332163  1
  Te2-  Te189  1  0.08480028  0.91105297  0.70966364  1
  Te2-  Te190  1  0.58623961  0.41298087  0.71563740  1
  Te2-  Te191  1  0.58710734  0.91541060  0.71043314  1
  Te2-  Te192  1  0.15918894  0.07836229  0.04514660  1
  Te2-  Te193  1  0.16118749  0.58262376  0.04199956  1
  Te2-  Te194  1  0.66174884  0.08175111  0.04506236  1
  Te2-  Te195  1  0.66087490  0.58410188  0.04327939  1
  Te2-  Te196  1  0.42171620  0.34358918  0.04247312  1
  Te2-  Te197  1  0.41720231  0.83768602  0.04551434  1
  Te2-  Te198  1  0.92093819  0.34041803  0.04305963  1
  Te2-  Te199  1  0.91832915  0.83814072  0.04549213  1
  Te2-  Te200  1  0.41854572  0.07945823  0.04664201  1
  Te2-  Te201  1  0.42233650  0.58408948  0.04410557  1
  Te2-  Te202  1  0.91854604  0.08042633  0.04613061  1
  Te2-  Te203  1  0.92174345  0.58413399  0.04262015  1
  Te2-  Te204  1  0.49058979  0.24915433  0.37656314  1
  Te2-  Te205  1  0.49023061  0.74754398  0.37138972  1
  Te2-  Te206  1  0.99112224  0.24979413  0.37494761  1
  Te2-  Te207  1  0.99427174  0.74884166  0.37446489  1
  Te2-  Te208  1  0.25016336  0.00886467  0.37582384  1
  Te2-  Te209  1  0.24904794  0.50624248  0.37382223  1
  Te2-  Te210  1  0.74879999  0.00690729  0.37268242  1
  Te2-  Te211  1  0.74975817  0.50797737  0.37398768  1
  Te2-  Te212  1  0.25106032  0.24432568  0.37778142  1
  Te2-  Te213  1  0.25022107  0.74766461  0.37366335  1
  Te2-  Te214  1  0.75291287  0.24904305  0.37488793  1
  Te2-  Te215  1  0.75033914  0.74506966  0.37243430  1
