# generated using pymatgen
data_Ti(CuTe)4
_symmetry_space_group_name_H-M   'P 1'
_cell_length_a   16.87537867
_cell_length_b   16.87389715
_cell_length_c   20.68672416
_cell_angle_alpha   89.96243618
_cell_angle_beta   90.03526863
_cell_angle_gamma   120.00646621
_symmetry_Int_Tables_number   1
_chemical_formula_structural   Ti(CuTe)4
_chemical_formula_sum   'Ti24 Cu96 Te96'
_cell_volume   5101.08853200
_cell_formula_units_Z   24
loop_
 _symmetry_equiv_pos_site_id
 _symmetry_equiv_pos_as_xyz
  1  'x, y, z'
loop_
 _atom_type_symbol
 _atom_type_oxidation_number
  Ti4+  4.0
  Cu+  1.0
  Te2-  -2.0
loop_
 _atom_site_type_symbol
 _atom_site_label
 _atom_site_symmetry_multiplicity
 _atom_site_fract_x
 _atom_site_fract_y
 _atom_site_fract_z
 _atom_site_occupancy
  Ti4+  Ti0  1  0.00226562  0.00173325  0.25581647  1
  Ti4+  Ti1  1  0.00298693  0.50312795  0.25636544  1
  Ti4+  Ti2  1  0.50392066  -0.00060011  0.26245042  1
  Ti4+  Ti3  1  0.50049907  0.49888088  0.25826533  1
  Ti4+  Ti4  1  0.33219393  0.16604467  0.58994227  1
  Ti4+  Ti5  1  0.33106279  0.66508880  0.59062472  1
  Ti4+  Ti6  1  0.83303789  0.16517527  0.59085914  1
  Ti4+  Ti7  1  0.83391739  0.66728082  0.58862756  1
  Ti4+  Ti8  1  0.16582424  0.33320195  0.92699661  1
  Ti4+  Ti9  1  0.16497200  0.83461995  0.92501395  1
  Ti4+  Ti10  1  0.66381120  0.33484742  0.92326277  1
  Ti4+  Ti11  1  0.66406644  0.83303110  0.92646080  1
  Ti4+  Ti12  1  0.00026758  -0.00077975  0.75756105  1
  Ti4+  Ti13  1  -0.00133316  0.50010345  0.75607916  1
  Ti4+  Ti14  1  0.49914806  0.00005600  0.75620707  1
  Ti4+  Ti15  1  0.50002214  0.49880351  0.75552327  1
  Ti4+  Ti16  1  0.33325766  0.16743507  0.09117464  1
  Ti4+  Ti17  1  0.33214077  0.66666201  0.08886747  1
  Ti4+  Ti18  1  0.83132370  0.16473457  0.08799442  1
  Ti4+  Ti19  1  0.83601005  0.66777707  0.08976361  1
  Ti4+  Ti20  1  0.16765009  0.33265410  0.42212535  1
  Ti4+  Ti21  1  0.16620302  0.83177573  0.42076483  1
  Ti4+  Ti22  1  0.66788879  0.33392689  0.42003185  1
  Ti4+  Ti23  1  0.66900024  0.83456526  0.42001262  1
  Cu+  Cu24  1  0.73752021  0.97522869  0.14092326  1
  Cu+  Cu25  1  0.07188563  0.92615628  0.47242429  1
  Cu+  Cu26  1  0.33695169  0.91698680  0.48501542  1
  Cu+  Cu27  1  0.90277030  0.59780954  0.80556918  1
  Cu+  Cu28  1  0.02920133  0.76572569  0.14183341  1
  Cu+  Cu29  1  0.57871624  0.15752576  0.48080396  1
  Cu+  Cu30  1  0.01494506  0.26058693  0.14162073  1
  Cu+  Cu31  1  0.57864750  0.92060954  0.48135646  1
  Cu+  Cu32  1  0.07133263  0.64373363  0.47405404  1
  Cu+  Cu33  1  0.40159636  0.09567886  0.80696030  1
  Cu+  Cu34  1  0.24602186  0.26445718  0.14259822  1
  Cu+  Cu35  1  0.57267148  0.42887292  0.47326034  1
  Cu+  Cu36  1  0.16603140  0.08692544  0.17008657  1
  Cu+  Cu37  1  0.16385408  0.58357070  0.16896540  1
  Cu+  Cu38  1  0.66353755  0.07608201  0.17244473  1
  Cu+  Cu39  1  0.66443011  0.57884177  0.17330093  1
  Cu+  Cu40  1  0.41816168  0.33711708  0.17336625  1
  Cu+  Cu41  1  0.41943343  0.83536863  0.17364145  1
  Cu+  Cu42  1  0.92019938  0.33811186  0.16912608  1
  Cu+  Cu43  1  0.92535874  0.83636606  0.16990791  1
  Cu+  Cu44  1  0.42136693  0.08306004  0.17660932  1
  Cu+  Cu45  1  0.41815492  0.58213025  0.17056300  1
  Cu+  Cu46  1  0.91659384  0.08161597  0.16737679  1
  Cu+  Cu47  1  0.92621507  0.59000862  0.17085376  1
  Cu+  Cu48  1  0.49807151  0.25213395  0.50125699  1
  Cu+  Cu49  1  0.49821283  0.74782347  0.50230662  1
  Cu+  Cu50  1  0.99783122  0.24749707  0.50484620  1
  Cu+  Cu51  1  0.99602000  0.74727145  0.50053261  1
  Cu+  Cu52  1  0.24810334  0.00381429  0.50125746  1
  Cu+  Cu53  1  0.25026514  0.50151467  0.50411426  1
  Cu+  Cu54  1  0.75320045  0.00431231  0.50169377  1
  Cu+  Cu55  1  0.74892184  0.50382121  0.50091566  1
  Cu+  Cu56  1  0.25038064  0.24617726  0.50326452  1
  Cu+  Cu57  1  0.24831981  0.74091846  0.50086234  1
  Cu+  Cu58  1  0.75302609  0.24591892  0.50114792  1
  Cu+  Cu59  1  0.75379481  0.74895185  0.50075273  1
  Cu+  Cu60  1  0.33059642  0.41409025  0.84021353  1
  Cu+  Cu61  1  0.33080201  0.92054616  0.83848464  1
  Cu+  Cu62  1  0.83012882  0.42143884  0.83682087  1
  Cu+  Cu63  1  0.82940520  0.91718510  0.84128925  1
  Cu+  Cu64  1  0.08483411  0.16939786  0.84179936  1
  Cu+  Cu65  1  0.07801866  0.66835803  0.83859332  1
  Cu+  Cu66  1  0.57771944  0.16921220  0.83707540  1
  Cu+  Cu67  1  0.58187433  0.66844759  0.83959980  1
  Cu+  Cu68  1  0.08366864  0.41325000  0.84022732  1
  Cu+  Cu69  1  0.08396809  0.91381144  0.83894179  1
  Cu+  Cu70  1  0.58418445  0.41325985  0.83586210  1
  Cu+  Cu71  1  0.58483120  0.91428656  0.84008109  1
  Cu+  Cu72  1  0.16605955  0.08133831  0.67677960  1
  Cu+  Cu73  1  0.16712600  0.58258621  0.67573222  1
  Cu+  Cu74  1  0.66878900  0.08202260  0.67685133  1
  Cu+  Cu75  1  0.66626680  0.58241745  0.67435443  1
  Cu+  Cu76  1  0.41745801  0.33272779  0.67519939  1
  Cu+  Cu77  1  0.41633707  0.83050464  0.67674162  1
  Cu+  Cu78  1  0.91577862  0.32908908  0.67388513  1
  Cu+  Cu79  1  0.91813037  0.83395559  0.67454291  1
  Cu+  Cu80  1  0.41508303  0.08346240  0.67914173  1
  Cu+  Cu81  1  0.41440232  0.58312484  0.67462590  1
  Cu+  Cu82  1  0.91640554  0.08425960  0.67496884  1
  Cu+  Cu83  1  0.91542642  0.58513250  0.67644476  1
  Cu+  Cu84  1  0.00148158  0.25095271  0.01258241  1
  Cu+  Cu85  1  0.00379652  0.75151525  0.01347979  1
  Cu+  Cu86  1  0.50079391  0.24976132  0.00919622  1
  Cu+  Cu87  1  0.49986971  0.75159820  0.00898264  1
  Cu+  Cu88  1  0.24782165  0.49875614  0.00848730  1
  Cu+  Cu89  1  0.25187889  1.00042097  0.01022467  1
  Cu+  Cu90  1  0.74897889  0.49765586  0.00790991  1
  Cu+  Cu91  1  0.74282055  0.99403453  0.01310685  1
  Cu+  Cu92  1  0.24798614  0.25183020  0.01422924  1
  Cu+  Cu93  1  0.24899718  0.75153502  0.00670893  1
  Cu+  Cu94  1  0.74423270  0.25011354  0.00446067  1
  Cu+  Cu95  1  0.74724367  0.75085474  0.00899927  1
  Cu+  Cu96  1  0.33581166  0.41579063  0.34279627  1
  Cu+  Cu97  1  0.33804387  0.91721713  0.35025603  1
  Cu+  Cu98  1  0.83790220  0.41984478  0.33724611  1
  Cu+  Cu99  1  0.83661290  0.91750664  0.33877640  1
  Cu+  Cu100  1  0.08405126  0.16679637  0.34180612  1
  Cu+  Cu101  1  0.08267698  0.66423464  0.34544308  1
  Cu+  Cu102  1  0.58615313  0.16404069  0.34787339  1
  Cu+  Cu103  1  0.58416161  0.66366706  0.33992178  1
  Cu+  Cu104  1  0.08365099  0.41820093  0.34060572  1
  Cu+  Cu105  1  0.08357034  0.91897537  0.34429130  1
  Cu+  Cu106  1  0.58170429  0.41822637  0.34454974  1
  Cu+  Cu107  1  0.58609459  0.91886027  0.34911853  1
  Cu+  Cu108  1  -0.00173479  -0.00112928  0.11141969  1
  Cu+  Cu109  1  -0.00260217  0.49858912  0.11184083  1
  Cu+  Cu110  1  0.49663881  -0.00088844  0.11917053  1
  Cu+  Cu111  1  0.50320274  0.50455583  0.11529122  1
  Cu+  Cu112  1  0.33462994  0.16868049  0.44423657  1
  Cu+  Cu113  1  0.33666943  0.66174125  0.44557048  1
  Cu+  Cu114  1  0.83949796  0.16884679  0.44539907  1
  Cu+  Cu115  1  0.83236902  0.66630022  0.44231053  1
  Cu+  Cu116  1  0.16744715  0.33309538  0.78466674  1
  Cu+  Cu117  1  0.16857830  0.83054916  0.78179198  1
  Cu+  Cu118  1  0.66915872  0.33095684  0.77886687  1
  Cu+  Cu119  1  0.66814927  0.83045613  0.78424188  1
  Te2-  Te120  1  -0.00007157  0.00196118  0.38605343  1
  Te2-  Te121  1  -0.00052492  0.49765304  0.38698974  1
  Te2-  Te122  1  0.50268475  0.00004363  0.39580144  1
  Te2-  Te123  1  0.49931047  0.50137295  0.38903304  1
  Te2-  Te124  1  0.33166466  0.16774535  0.71975745  1
  Te2-  Te125  1  0.33199865  0.66530299  0.71908923  1
  Te2-  Te126  1  0.83343453  0.16559778  0.71982666  1
  Te2-  Te127  1  0.83163522  0.66849499  0.71857839  1
  Te2-  Te128  1  0.16668670  0.33660399  0.05912692  1
  Te2-  Te129  1  0.17087629  0.83604187  0.05533774  1
  Te2-  Te130  1  0.66557426  0.33350658  0.05234945  1
  Te2-  Te131  1  0.66240900  0.82844618  0.05759100  1
  Te2-  Te132  1  0.48869916  0.24837530  0.88333510  1
  Te2-  Te133  1  0.49258289  0.74705679  0.88349374  1
  Te2-  Te134  1  0.99429010  0.24667670  0.88556961  1
  Te2-  Te135  1  0.99055184  0.74855217  0.88581227  1
  Te2-  Te136  1  0.25035753  0.00881888  0.88437227  1
  Te2-  Te137  1  0.25177085  0.50386944  0.88297470  1
  Te2-  Te138  1  0.75041597  0.00553306  0.88618418  1
  Te2-  Te139  1  0.74977691  0.50956803  0.88212331  1
  Te2-  Te140  1  0.25209466  0.24775173  0.88694423  1
  Te2-  Te141  1  0.24928856  0.74975836  0.88024890  1
  Te2-  Te142  1  0.74849828  0.25020086  0.87822309  1
  Te2-  Te143  1  0.75004996  0.74810553  0.88307353  1
  Te2-  Te144  1  0.32640472  0.41594658  0.21729084  1
  Te2-  Te145  1  0.33343756  0.91541102  0.22166606  1
  Te2-  Te146  1  0.83311953  0.41949568  0.21169576  1
  Te2-  Te147  1  0.83057978  0.91135300  0.21302699  1
  Te2-  Te148  1  0.08725092  0.17704367  0.21575218  1
  Te2-  Te149  1  0.09399869  0.67788462  0.21794738  1
  Te2-  Te150  1  0.58997760  0.16932252  0.21996422  1
  Te2-  Te151  1  0.58596153  0.66931167  0.21434687  1
  Te2-  Te152  1  0.09019358  0.41715414  0.21487009  1
  Te2-  Te153  1  0.09388444  0.91991879  0.21695826  1
  Te2-  Te154  1  0.58528727  0.41193388  0.21765219  1
  Te2-  Te155  1  0.58625430  0.90875444  0.22074297  1
  Te2-  Te156  1  0.15830125  0.08014939  0.55027100  1
  Te2-  Te157  1  0.15666188  0.57477376  0.54959133  1
  Te2-  Te158  1  0.65636847  0.07721019  0.55059223  1
  Te2-  Te159  1  0.65990199  0.58299769  0.54826225  1
  Te2-  Te160  1  0.41762072  0.33908363  0.54890751  1
  Te2-  Te161  1  0.41980662  0.84087845  0.55032346  1
  Te2-  Te162  1  0.91843075  0.33623253  0.54800760  1
  Te2-  Te163  1  0.91976685  0.84091064  0.54812937  1
  Te2-  Te164  1  0.41972439  0.07909936  0.55072831  1
  Te2-  Te165  1  0.41807229  0.58149551  0.54827193  1
  Te2-  Te166  1  0.91870189  0.07973164  0.54885698  1
  Te2-  Te167  1  0.91664102  0.57735118  0.54837481  1
  Te2-  Te168  1  -0.00084660  -0.00078462  0.88389186  1
  Te2-  Te169  1  -0.00115690  0.49878918  0.88290766  1
  Te2-  Te170  1  0.49999564  0.00030242  0.88289856  1
  Te2-  Te171  1  0.50028710  0.49907845  0.88199420  1
  Te2-  Te172  1  0.33503675  0.16697029  0.21832679  1
  Te2-  Te173  1  0.33293624  0.66526403  0.21550372  1
  Te2-  Te174  1  0.83489205  0.16871996  0.21582294  1
  Te2-  Te175  1  0.83464568  0.66719373  0.21663150  1
  Te2-  Te176  1  0.16681089  0.33210051  0.54844962  1
  Te2-  Te177  1  0.16625808  0.83149736  0.54951470  1
  Te2-  Te178  1  0.66899092  0.33310725  0.54794356  1
  Te2-  Te179  1  0.66857694  0.83347764  0.54738391  1
  Te2-  Te180  1  0.32768017  0.41310749  0.71247353  1
  Te2-  Te181  1  0.32647177  0.91137495  0.71062300  1
  Te2-  Te182  1  0.82782592  0.41236236  0.70867728  1
  Te2-  Te183  1  0.82884550  0.91448622  0.71328175  1
  Te2-  Te184  1  0.08587838  0.17127205  0.71404762  1
  Te2-  Te185  1  0.08674096  0.67253018  0.71049121  1
  Te2-  Te186  1  0.58757287  0.17208217  0.70941927  1
  Te2-  Te187  1  0.58458438  0.67085345  0.71188698  1
  Te2-  Te188  1  0.08455266  0.41300060  0.71333400  1
  Te2-  Te189  1  0.08649762  0.91231510  0.71306356  1
  Te2-  Te190  1  0.58702578  0.41282060  0.71021327  1
  Te2-  Te191  1  0.58562047  0.91279677  0.71379800  1
  Te2-  Te192  1  0.16021353  0.07906913  0.04422351  1
  Te2-  Te193  1  0.15996020  0.58133594  0.04311102  1
  Te2-  Te194  1  0.65777681  0.08135582  0.04510571  1
  Te2-  Te195  1  0.66341977  0.58124376  0.04635869  1
  Te2-  Te196  1  0.42101107  0.34018379  0.04610187  1
  Te2-  Te197  1  0.41833534  0.83947416  0.04643658  1
  Te2-  Te198  1  0.91455439  0.33715332  0.04158206  1
  Te2-  Te199  1  0.91836545  0.83959157  0.04291601  1
  Te2-  Te200  1  0.42019837  0.08155960  0.04873677  1
  Te2-  Te201  1  0.41820879  0.58065848  0.04421039  1
  Te2-  Te202  1  0.91734028  0.07769481  0.04050315  1
  Te2-  Te203  1  0.91902173  0.57894829  0.04327884  1
  Te2-  Te204  1  0.49382730  0.24526630  0.37389754  1
  Te2-  Te205  1  0.49530036  0.74493671  0.37527643  1
  Te2-  Te206  1  0.99615399  0.24856485  0.37707742  1
  Te2-  Te207  1  0.99265825  0.74679807  0.37316392  1
  Te2-  Te208  1  0.25544139  0.00762297  0.37473105  1
  Te2-  Te209  1  0.25336455  0.50435993  0.37734485  1
  Te2-  Te210  1  0.75896935  0.00891895  0.37493601  1
  Te2-  Te211  1  0.75489481  0.50622437  0.37400845  1
  Te2-  Te212  1  0.25351238  0.24597873  0.37709242  1
  Te2-  Te213  1  0.25504184  0.74447677  0.37505081  1
  Te2-  Te214  1  0.75868791  0.25070020  0.37479527  1
  Te2-  Te215  1  0.75413349  0.74773188  0.37485733  1
