# generated using pymatgen
data_Ti(CuTe)4
_symmetry_space_group_name_H-M   'P 1'
_cell_length_a   16.88990634
_cell_length_b   16.89038024
_cell_length_c   20.71226782
_cell_angle_alpha   90.00067268
_cell_angle_beta   90.00267978
_cell_angle_gamma   119.99772933
_symmetry_Int_Tables_number   1
_chemical_formula_structural   Ti(CuTe)4
_chemical_formula_sum   'Ti24 Cu96 Te96'
_cell_volume   5117.22942514
_cell_formula_units_Z   24
loop_
 _symmetry_equiv_pos_site_id
 _symmetry_equiv_pos_as_xyz
  1  'x, y, z'
loop_
 _atom_type_symbol
 _atom_type_oxidation_number
  Ti4+  4.0
  Cu+  1.0
  Te2-  -2.0
loop_
 _atom_site_type_symbol
 _atom_site_label
 _atom_site_symmetry_multiplicity
 _atom_site_fract_x
 _atom_site_fract_y
 _atom_site_fract_z
 _atom_site_occupancy
  Ti4+  Ti0  1  -0.00072660  0.00207471  0.25505723  1
  Ti4+  Ti1  1  -0.00311613  0.49916120  0.25624881  1
  Ti4+  Ti2  1  0.49911950  -0.00340564  0.25860017  1
  Ti4+  Ti3  1  0.49874305  0.49656698  0.26151291  1
  Ti4+  Ti4  1  0.33483171  0.16756463  0.59235555  1
  Ti4+  Ti5  1  0.33846301  0.66700746  0.59295423  1
  Ti4+  Ti6  1  0.83535540  0.16802374  0.58834614  1
  Ti4+  Ti7  1  0.83747894  0.66869455  0.58683502  1
  Ti4+  Ti8  1  0.16577709  0.33473556  0.92820396  1
  Ti4+  Ti9  1  0.16698270  0.83473414  0.92199946  1
  Ti4+  Ti10  1  0.66380125  0.33285538  0.92450065  1
  Ti4+  Ti11  1  0.66317674  0.83126593  0.92472909  1
  Ti4+  Ti12  1  0.00028476  0.00026937  0.75614915  1
  Ti4+  Ti13  1  0.00163376  0.50013603  0.75572889  1
  Ti4+  Ti14  1  0.50051336  0.00147561  0.75362977  1
  Ti4+  Ti15  1  0.50283583  0.50173633  0.75657080  1
  Ti4+  Ti16  1  0.33200755  0.16770080  0.08937683  1
  Ti4+  Ti17  1  0.33291403  0.66789479  0.09104499  1
  Ti4+  Ti18  1  0.83075700  0.16412433  0.08678363  1
  Ti4+  Ti19  1  0.83197954  0.66484200  0.08895846  1
  Ti4+  Ti20  1  0.16750128  0.33258536  0.42331322  1
  Ti4+  Ti21  1  0.16599354  0.83286172  0.42118673  1
  Ti4+  Ti22  1  0.66807161  0.33302355  0.42145841  1
  Ti4+  Ti23  1  0.66685387  0.83346015  0.41998121  1
  Cu+  Cu24  1  0.35246824  0.42135314  0.47891680  1
  Cu+  Cu25  1  0.00859812  0.25757500  0.14646932  1
  Cu+  Cu26  1  0.40753017  0.82153182  0.81133700  1
  Cu+  Cu27  1  0.57543315  0.92602478  0.47652917  1
  Cu+  Cu28  1  0.85933966  0.42889994  0.47248866  1
  Cu+  Cu29  1  0.58130754  0.65529861  0.47954433  1
  Cu+  Cu30  1  0.40446240  0.58713280  0.81278584  1
  Cu+  Cu31  1  0.73400757  0.47380542  0.14029252  1
  Cu+  Cu32  1  0.85571256  0.92905536  0.47144280  1
  Cu+  Cu33  1  0.40593601  0.09523070  0.80789611  1
  Cu+  Cu34  1  0.24344175  0.26414500  0.14300839  1
  Cu+  Cu35  1  0.73614883  0.97599213  0.13983576  1
  Cu+  Cu36  1  0.16386251  0.08813108  0.16850570  1
  Cu+  Cu37  1  0.16371407  0.58422587  0.17129666  1
  Cu+  Cu38  1  0.66097470  0.07358112  0.17050961  1
  Cu+  Cu39  1  0.66455881  0.57670788  0.17426771  1
  Cu+  Cu40  1  0.41436499  0.33699264  0.17292144  1
  Cu+  Cu41  1  0.41832107  0.83610772  0.17288067  1
  Cu+  Cu42  1  0.91853498  0.34074991  0.16831378  1
  Cu+  Cu43  1  0.91828371  0.83671101  0.16908077  1
  Cu+  Cu44  1  0.41681394  0.08097500  0.17260074  1
  Cu+  Cu45  1  0.41634898  0.58189347  0.17550300  1
  Cu+  Cu46  1  0.91554656  0.07922080  0.16716101  1
  Cu+  Cu47  1  0.91026728  0.57644774  0.17029792  1
  Cu+  Cu48  1  0.49760208  0.24683557  0.50546497  1
  Cu+  Cu49  1  0.49580047  0.74723562  0.50273070  1
  Cu+  Cu50  1  0.99699172  0.24781594  0.50305493  1
  Cu+  Cu51  1  0.99759537  0.75028783  0.50024843  1
  Cu+  Cu52  1  0.25113671  0.00190644  0.50552252  1
  Cu+  Cu53  1  0.25788227  0.50047165  0.50506616  1
  Cu+  Cu54  1  0.75347016  0.00441717  0.50086345  1
  Cu+  Cu55  1  0.75748769  0.50296836  0.50074238  1
  Cu+  Cu56  1  0.25534556  0.24980771  0.50617873  1
  Cu+  Cu57  1  0.25255721  0.74986584  0.50532145  1
  Cu+  Cu58  1  0.75754604  0.25372010  0.50174132  1
  Cu+  Cu59  1  0.75638404  0.75078606  0.49993419  1
  Cu+  Cu60  1  0.32964282  0.41609107  0.84110721  1
  Cu+  Cu61  1  0.32801164  0.91711047  0.83414558  1
  Cu+  Cu62  1  0.83086525  0.41768335  0.83911366  1
  Cu+  Cu63  1  0.83003601  0.91604117  0.83962366  1
  Cu+  Cu64  1  0.08365195  0.16863030  0.84183067  1
  Cu+  Cu65  1  0.08546714  0.66915853  0.83586588  1
  Cu+  Cu66  1  0.57966911  0.17153642  0.83611842  1
  Cu+  Cu67  1  0.58039932  0.66997186  0.83685140  1
  Cu+  Cu68  1  0.08298781  0.41431279  0.84010973  1
  Cu+  Cu69  1  0.08407546  0.91545799  0.83643007  1
  Cu+  Cu70  1  0.58701295  0.41650237  0.83801274  1
  Cu+  Cu71  1  0.58225888  0.91173018  0.83627732  1
  Cu+  Cu72  1  0.16997818  0.08623125  0.67575078  1
  Cu+  Cu73  1  0.17195488  0.58242018  0.67649813  1
  Cu+  Cu74  1  0.67200515  0.08747345  0.67204332  1
  Cu+  Cu75  1  0.67388323  0.58577521  0.67279682  1
  Cu+  Cu76  1  0.41939348  0.33316269  0.67783528  1
  Cu+  Cu77  1  0.42053822  0.83238211  0.68079332  1
  Cu+  Cu78  1  0.91764015  0.33308574  0.67499545  1
  Cu+  Cu79  1  0.91645912  0.83333491  0.67240062  1
  Cu+  Cu80  1  0.41606158  0.08612896  0.67872935  1
  Cu+  Cu81  1  0.42045307  0.58522385  0.68253024  1
  Cu+  Cu82  1  0.91652335  0.08462893  0.67418395  1
  Cu+  Cu83  1  0.91881877  0.58431875  0.67218203  1
  Cu+  Cu84  1  0.00064092  0.24994077  0.01502262  1
  Cu+  Cu85  1  0.00301143  0.75132398  0.00552058  1
  Cu+  Cu86  1  0.49885262  0.25085559  0.00889119  1
  Cu+  Cu87  1  0.49866278  0.75004919  0.01089476  1
  Cu+  Cu88  1  0.24899440  0.49978724  0.01197334  1
  Cu+  Cu89  1  0.24948446  0.99861225  0.00687057  1
  Cu+  Cu90  1  0.74643939  0.49443390  0.01288101  1
  Cu+  Cu91  1  0.74384262  0.99340244  0.01144997  1
  Cu+  Cu92  1  0.24768642  0.25370367  0.01440750  1
  Cu+  Cu93  1  0.25083474  0.75460528  0.00769164  1
  Cu+  Cu94  1  0.74510311  0.24920669  0.00575740  1
  Cu+  Cu95  1  0.74708841  0.74921437  0.00755871  1
  Cu+  Cu96  1  0.33572908  0.41605815  0.35022786  1
  Cu+  Cu97  1  0.33454003  0.91588656  0.34218578  1
  Cu+  Cu98  1  0.83575025  0.41740625  0.34394483  1
  Cu+  Cu99  1  0.83602380  0.91957421  0.34258887  1
  Cu+  Cu100  1  0.08197975  0.16674016  0.34165913  1
  Cu+  Cu101  1  0.08083403  0.66520174  0.33950894  1
  Cu+  Cu102  1  0.58104722  0.16049027  0.34107264  1
  Cu+  Cu103  1  0.58001915  0.66105278  0.34775317  1
  Cu+  Cu104  1  0.08102234  0.41687135  0.34182333  1
  Cu+  Cu105  1  0.08319663  0.91967685  0.33887974  1
  Cu+  Cu106  1  0.57998853  0.41295278  0.34370155  1
  Cu+  Cu107  1  0.58010454  0.91601324  0.34642107  1
  Cu+  Cu108  1  0.00047340  -0.00412529  0.11047912  1
  Cu+  Cu109  1  0.00280553  0.50726965  0.11345138  1
  Cu+  Cu110  1  0.49677193  0.00173775  0.11548793  1
  Cu+  Cu111  1  0.50190115  0.50588577  0.11975022  1
  Cu+  Cu112  1  0.33240124  0.16239739  0.44958643  1
  Cu+  Cu113  1  0.32552029  0.66289796  0.44961096  1
  Cu+  Cu114  1  0.83482956  0.16809659  0.44388903  1
  Cu+  Cu115  1  0.83464108  0.66621590  0.44168927  1
  Cu+  Cu116  1  0.16476028  0.33044139  0.78587242  1
  Cu+  Cu117  1  0.16117441  0.83025919  0.77779913  1
  Cu+  Cu118  1  0.67129893  0.33570664  0.78082544  1
  Cu+  Cu119  1  0.67119363  0.83473302  0.78096073  1
  Te2-  Te120  1  0.00263787  0.00235397  0.38531794  1
  Te2-  Te121  1  0.00241951  0.50218496  0.38653672  1
  Te2-  Te122  1  0.49725353  -0.00139165  0.38975579  1
  Te2-  Te123  1  0.50199709  0.49675243  0.39373526  1
  Te2-  Te124  1  0.33304928  0.16908402  0.72280471  1
  Te2-  Te125  1  0.33467018  0.66627248  0.72459535  1
  Te2-  Te126  1  0.83530076  0.16810914  0.71713990  1
  Te2-  Te127  1  0.83843143  0.66863944  0.71553822  1
  Te2-  Te128  1  0.16568385  0.33697659  0.06057354  1
  Te2-  Te129  1  0.16629797  0.83455685  0.05113343  1
  Te2-  Te130  1  0.66222168  0.32783256  0.05542130  1
  Te2-  Te131  1  0.66287401  0.82765164  0.05523364  1
  Te2-  Te132  1  0.48966695  0.24983257  0.88336481  1
  Te2-  Te133  1  0.48625843  0.74393926  0.88491343  1
  Te2-  Te134  1  0.99482334  0.24767453  0.88724845  1
  Te2-  Te135  1  0.99570383  0.74741202  0.87969016  1
  Te2-  Te136  1  0.25169900  0.00867994  0.88126946  1
  Te2-  Te137  1  0.25008172  0.50732753  0.88606767  1
  Te2-  Te138  1  0.74795911  0.00244077  0.88430679  1
  Te2-  Te139  1  0.75184149  0.50534774  0.88616405  1
  Te2-  Te140  1  0.25176658  0.24976836  0.88713609  1
  Te2-  Te141  1  0.25252933  0.74663596  0.88186650  1
  Te2-  Te142  1  0.74807287  0.24704732  0.87987876  1
  Te2-  Te143  1  0.74813798  0.74619570  0.88152566  1
  Te2-  Te144  1  0.32510000  0.41487317  0.22261348  1
  Te2-  Te145  1  0.32777277  0.91305565  0.21664536  1
  Te2-  Te146  1  0.82244125  0.40832118  0.21708042  1
  Te2-  Te147  1  0.82602926  0.91184604  0.21550915  1
  Te2-  Te148  1  0.08614212  0.17849627  0.21600680  1
  Te2-  Te149  1  0.08007895  0.66921272  0.21359613  1
  Te2-  Te150  1  0.58612494  0.16712682  0.21514312  1
  Te2-  Te151  1  0.58491514  0.66609365  0.21948472  1
  Te2-  Te152  1  0.08766696  0.41627021  0.21612103  1
  Te2-  Te153  1  0.08670224  0.91988142  0.21269626  1
  Te2-  Te154  1  0.58096196  0.40628226  0.21778709  1
  Te2-  Te155  1  0.58436172  0.90674154  0.21939078  1
  Te2-  Te156  1  0.16383223  0.08292642  0.54978737  1
  Te2-  Te157  1  0.16978873  0.58065944  0.54975824  1
  Te2-  Te158  1  0.66246331  0.08455664  0.54639636  1
  Te2-  Te159  1  0.66451441  0.57864722  0.54681838  1
  Te2-  Te160  1  0.42598427  0.34163732  0.55204764  1
  Te2-  Te161  1  0.42081154  0.83939190  0.55233815  1
  Te2-  Te162  1  0.92564146  0.34257425  0.54911836  1
  Te2-  Te163  1  0.92384517  0.84298186  0.54662990  1
  Te2-  Te164  1  0.41903543  0.08020587  0.55168677  1
  Te2-  Te165  1  0.42653513  0.57881418  0.55409975  1
  Te2-  Te166  1  0.92251613  0.08115604  0.54830731  1
  Te2-  Te167  1  0.92634244  0.58364362  0.54646696  1
  Te2-  Te168  1  -0.00123398  -0.00142105  0.88253952  1
  Te2-  Te169  1  -0.00028313  0.50118098  0.88203045  1
  Te2-  Te170  1  0.49919508  0.00050975  0.88093499  1
  Te2-  Te171  1  0.50131471  0.50065684  0.88341365  1
  Te2-  Te172  1  0.33224435  0.16579344  0.21628994  1
  Te2-  Te173  1  0.33149562  0.66687188  0.21744121  1
  Te2-  Te174  1  0.83306529  0.16807523  0.21406252  1
  Te2-  Te175  1  0.83482282  0.66911487  0.21580431  1
  Te2-  Te176  1  0.16601731  0.33117722  0.55019001  1
  Te2-  Te177  1  0.16587151  0.83267129  0.54736864  1
  Te2-  Te178  1  0.66882545  0.33394347  0.54813507  1
  Te2-  Te179  1  0.66811023  0.83348453  0.54822725  1
  Te2-  Te180  1  0.32844575  0.41255670  0.71362947  1
  Te2-  Te181  1  0.32659057  0.91249092  0.70712434  1
  Te2-  Te182  1  0.83044892  0.41575700  0.71160756  1
  Te2-  Te183  1  0.82956992  0.91523971  0.71174387  1
  Te2-  Te184  1  0.08616645  0.17206648  0.71410387  1
  Te2-  Te185  1  0.08872218  0.67081554  0.70923166  1
  Te2-  Te186  1  0.58917056  0.17458965  0.70920114  1
  Te2-  Te187  1  0.59313645  0.67446804  0.71026822  1
  Te2-  Te188  1  0.08724075  0.41290612  0.71357393  1
  Te2-  Te189  1  0.08620545  0.91561284  0.70998988  1
  Te2-  Te190  1  0.58998335  0.41660803  0.71211972  1
  Te2-  Te191  1  0.59252875  0.91864320  0.71003248  1
  Te2-  Te192  1  0.16039404  0.07995350  0.04196493  1
  Te2-  Te193  1  0.16224154  0.58407217  0.04485697  1
  Te2-  Te194  1  0.65716294  0.07935961  0.04330341  1
  Te2-  Te195  1  0.65904401  0.57967012  0.04620126  1
  Te2-  Te196  1  0.42017662  0.34179098  0.04630705  1
  Te2-  Te197  1  0.41904471  0.83982353  0.04675586  1
  Te2-  Te198  1  0.91505892  0.33831648  0.04236158  1
  Te2-  Te199  1  0.91746578  0.83562221  0.04259941  1
  Te2-  Te200  1  0.41782792  0.08139204  0.04552878  1
  Te2-  Te201  1  0.41831940  0.58050588  0.04850602  1
  Te2-  Te202  1  0.91720824  0.07627657  0.04070465  1
  Te2-  Te203  1  0.91972128  0.58126331  0.04287568  1
  Te2-  Te204  1  0.49444119  0.24350987  0.37945494  1
  Te2-  Te205  1  0.49022764  0.74357839  0.37660296  1
  Te2-  Te206  1  0.99505667  0.24831711  0.37728484  1
  Te2-  Te207  1  0.99530389  0.74952869  0.37425187  1
  Te2-  Te208  1  0.25248814  0.00441976  0.37803609  1
  Te2-  Te209  1  0.25142122  0.50544598  0.37809351  1
  Te2-  Te210  1  0.75308795  0.00782582  0.37392550  1
  Te2-  Te211  1  0.75119806  0.50539425  0.37442821  1
  Te2-  Te212  1  0.25139080  0.24312016  0.37884805  1
  Te2-  Te213  1  0.25070561  0.74572406  0.37812234  1
  Te2-  Te214  1  0.75175847  0.24483250  0.37512225  1
  Te2-  Te215  1  0.75383656  0.74679374  0.37280557  1
