# generated using pymatgen
data_Ti(CuTe)4
_symmetry_space_group_name_H-M   'P 1'
_cell_length_a   16.89505864
_cell_length_b   16.89616190
_cell_length_c   20.71922386
_cell_angle_alpha   90.00738084
_cell_angle_beta   89.99653006
_cell_angle_gamma   119.98738590
_symmetry_Int_Tables_number   1
_chemical_formula_structural   Ti(CuTe)4
_chemical_formula_sum   'Ti24 Cu96 Te96'
_cell_volume   5122.79603893
_cell_formula_units_Z   24
loop_
 _symmetry_equiv_pos_site_id
 _symmetry_equiv_pos_as_xyz
  1  'x, y, z'
loop_
 _atom_type_symbol
 _atom_type_oxidation_number
  Ti4+  4.0
  Cu+  1.0
  Te2-  -2.0
loop_
 _atom_site_type_symbol
 _atom_site_label
 _atom_site_symmetry_multiplicity
 _atom_site_fract_x
 _atom_site_fract_y
 _atom_site_fract_z
 _atom_site_occupancy
  Ti4+  Ti0  1  0.00089887  -0.00012910  0.25529084  1
  Ti4+  Ti1  1  -0.00566202  0.49891835  0.25555375  1
  Ti4+  Ti2  1  0.49893486  0.00092141  0.25810161  1
  Ti4+  Ti3  1  0.49672658  0.49814792  0.25870449  1
  Ti4+  Ti4  1  0.33567916  0.16566303  0.59289788  1
  Ti4+  Ti5  1  0.33680875  0.66656376  0.58691785  1
  Ti4+  Ti6  1  0.83564014  0.16738000  0.59404945  1
  Ti4+  Ti7  1  0.83331958  0.66657409  0.59258633  1
  Ti4+  Ti8  1  0.16770637  0.33510589  0.92418409  1
  Ti4+  Ti9  1  0.16599168  0.83543461  0.92447746  1
  Ti4+  Ti10  1  0.66762218  0.33333331  0.92553349  1
  Ti4+  Ti11  1  0.66561405  0.83404904  0.92353531  1
  Ti4+  Ti12  1  0.00192377  0.00005666  0.75522135  1
  Ti4+  Ti13  1  0.00095927  0.50105631  0.75524887  1
  Ti4+  Ti14  1  0.50074786  -0.00018047  0.75561280  1
  Ti4+  Ti15  1  0.50085123  0.50005538  0.75667809  1
  Ti4+  Ti16  1  0.33243968  0.16783479  0.08839186  1
  Ti4+  Ti17  1  0.33292408  0.66739083  0.08807775  1
  Ti4+  Ti18  1  0.83254032  0.16728439  0.08804311  1
  Ti4+  Ti19  1  0.83367655  0.66644537  0.08709822  1
  Ti4+  Ti20  1  0.16481639  0.33296761  0.42140643  1
  Ti4+  Ti21  1  0.16782340  0.83401469  0.42284619  1
  Ti4+  Ti22  1  0.66574488  0.33314608  0.42525664  1
  Ti4+  Ti23  1  0.66553853  0.83205406  0.42025858  1
  Cu+  Cu24  1  0.23671199  0.26126885  0.14001040  1
  Cu+  Cu25  1  0.58045256  0.64853578  0.47466115  1
  Cu+  Cu26  1  0.73694159  0.48503813  0.14473955  1
  Cu+  Cu27  1  0.91352782  0.32034024  0.81198133  1
  Cu+  Cu28  1  0.34911437  0.41843365  0.47598682  1
  Cu+  Cu29  1  0.73383920  0.25476212  0.14146387  1
  Cu+  Cu30  1  0.01433489  0.75445334  0.14206201  1
  Cu+  Cu31  1  0.40709996  0.09477946  0.81028258  1
  Cu+  Cu32  1  0.24494489  0.98714024  0.14476767  1
  Cu+  Cu33  1  0.68279884  0.08842264  0.80994733  1
  Cu+  Cu34  1  0.35960711  0.92956784  0.47516807  1
  Cu+  Cu35  1  0.90468931  0.59457520  0.80839179  1
  Cu+  Cu36  1  0.16237165  0.08252261  0.16807914  1
  Cu+  Cu37  1  0.16248187  0.58160497  0.16900452  1
  Cu+  Cu38  1  0.66284392  0.08503757  0.17173889  1
  Cu+  Cu39  1  0.66043152  0.57939896  0.17161695  1
  Cu+  Cu40  1  0.41209042  0.33680361  0.17024308  1
  Cu+  Cu41  1  0.41526484  0.83506300  0.17111188  1
  Cu+  Cu42  1  0.90885478  0.33430823  0.16802578  1
  Cu+  Cu43  1  0.92212526  0.83707690  0.16762917  1
  Cu+  Cu44  1  0.41768679  0.07907048  0.17074305  1
  Cu+  Cu45  1  0.41630489  0.58169672  0.17183034  1
  Cu+  Cu46  1  0.91768994  0.08118160  0.16917573  1
  Cu+  Cu47  1  0.91529918  0.57783950  0.16734582  1
  Cu+  Cu48  1  0.49731857  0.24686851  0.50701451  1
  Cu+  Cu49  1  0.49699309  0.74253055  0.49893767  1
  Cu+  Cu50  1  0.99610760  0.24971646  0.50590749  1
  Cu+  Cu51  1  0.99763048  0.74765941  0.50717554  1
  Cu+  Cu52  1  0.25761661  0.00129970  0.50626100  1
  Cu+  Cu53  1  0.25546313  0.50205017  0.49995129  1
  Cu+  Cu54  1  0.75217389  0.00295416  0.50547327  1
  Cu+  Cu55  1  0.75325576  0.50303736  0.50692657  1
  Cu+  Cu56  1  0.25220006  0.24835355  0.50634410  1
  Cu+  Cu57  1  0.25786915  0.75391815  0.50206503  1
  Cu+  Cu58  1  0.75302363  0.24932357  0.50928093  1
  Cu+  Cu59  1  0.75142179  0.74641201  0.50423517  1
  Cu+  Cu60  1  0.33207376  0.41597729  0.83934400  1
  Cu+  Cu61  1  0.33016375  0.92040687  0.83720113  1
  Cu+  Cu62  1  0.83220525  0.41702085  0.83792477  1
  Cu+  Cu63  1  0.83169367  0.91629832  0.83686517  1
  Cu+  Cu64  1  0.08780436  0.16989865  0.83722747  1
  Cu+  Cu65  1  0.07959620  0.66996323  0.83679736  1
  Cu+  Cu66  1  0.58516972  0.16818619  0.83736879  1
  Cu+  Cu67  1  0.58220746  0.66972495  0.83862880  1
  Cu+  Cu68  1  0.08697597  0.41413421  0.83663300  1
  Cu+  Cu69  1  0.08682376  0.91610762  0.83741118  1
  Cu+  Cu70  1  0.58673204  0.41738205  0.83909585  1
  Cu+  Cu71  1  0.58792060  0.91544560  0.83719249  1
  Cu+  Cu72  1  0.17075200  0.08268291  0.67503357  1
  Cu+  Cu73  1  0.17210743  0.58620634  0.66970729  1
  Cu+  Cu74  1  0.67215791  0.08496702  0.68072452  1
  Cu+  Cu75  1  0.66875072  0.58421129  0.67678113  1
  Cu+  Cu76  1  0.41715358  0.33082686  0.67805843  1
  Cu+  Cu77  1  0.41749136  0.83037620  0.67190861  1
  Cu+  Cu78  1  0.91684643  0.33125335  0.68162018  1
  Cu+  Cu79  1  0.91710339  0.83114901  0.67519389  1
  Cu+  Cu80  1  0.41555568  0.08308909  0.68113000  1
  Cu+  Cu81  1  0.41642865  0.58242143  0.67398931  1
  Cu+  Cu82  1  0.91853814  0.08549125  0.67574373  1
  Cu+  Cu83  1  0.91579288  0.58656090  0.67994997  1
  Cu+  Cu84  1  0.00302189  0.25100355  0.00757081  1
  Cu+  Cu85  1  0.00238365  0.75307311  0.01236267  1
  Cu+  Cu86  1  0.50038626  0.25045490  0.00976128  1
  Cu+  Cu87  1  0.50250914  0.75264003  0.00735846  1
  Cu+  Cu88  1  0.25103446  0.49975686  0.00679777  1
  Cu+  Cu89  1  0.24939870  0.99978829  0.01387032  1
  Cu+  Cu90  1  0.75046913  0.49881564  0.01478612  1
  Cu+  Cu91  1  0.74807183  0.99726839  0.00800352  1
  Cu+  Cu92  1  0.24948620  0.25491891  0.01189833  1
  Cu+  Cu93  1  0.24904267  0.75281700  0.00589823  1
  Cu+  Cu94  1  0.74869029  0.25118863  0.01278235  1
  Cu+  Cu95  1  0.74614529  0.75160644  0.00613364  1
  Cu+  Cu96  1  0.33239757  0.41655219  0.34645255  1
  Cu+  Cu97  1  0.33639724  0.91957081  0.34630758  1
  Cu+  Cu98  1  0.83094902  0.41653714  0.34272402  1
  Cu+  Cu99  1  0.83567372  0.91761128  0.33921726  1
  Cu+  Cu100  1  0.08022845  0.16438204  0.34118229  1
  Cu+  Cu101  1  0.07813064  0.66365671  0.34059955  1
  Cu+  Cu102  1  0.58267146  0.16590524  0.34429790  1
  Cu+  Cu103  1  0.58101376  0.66269881  0.34550357  1
  Cu+  Cu104  1  0.07517063  0.41490419  0.33865713  1
  Cu+  Cu105  1  0.08227248  0.91748950  0.34180575  1
  Cu+  Cu106  1  0.58080516  0.41557381  0.34378373  1
  Cu+  Cu107  1  0.58317404  0.91861682  0.34014590  1
  Cu+  Cu108  1  -0.00409449  -0.00047332  0.11039539  1
  Cu+  Cu109  1  0.00359552  0.49765005  0.11178196  1
  Cu+  Cu110  1  0.50082180  -0.00389909  0.11520975  1
  Cu+  Cu111  1  0.49887675  0.50253651  0.11455008  1
  Cu+  Cu112  1  0.32997352  0.16463492  0.45042798  1
  Cu+  Cu113  1  0.32886056  0.66438617  0.44246356  1
  Cu+  Cu114  1  0.83169656  0.16511345  0.45112074  1
  Cu+  Cu115  1  0.83626483  0.66752615  0.44952016  1
  Cu+  Cu116  1  0.16994731  0.33321690  0.78081459  1
  Cu+  Cu117  1  0.16894470  0.83116535  0.78000611  1
  Cu+  Cu118  1  0.66658183  0.33369091  0.78228180  1
  Cu+  Cu119  1  0.66935900  0.83059118  0.78037447  1
  Te2-  Te120  1  -0.00050655  -0.00036124  0.38395069  1
  Te2-  Te121  1  -0.00374941  0.49925612  0.38423509  1
  Te2-  Te122  1  0.50333464  0.00138933  0.38828262  1
  Te2-  Te123  1  0.49878047  0.49693951  0.39045125  1
  Te2-  Te124  1  0.33299586  0.16691069  0.72346823  1
  Te2-  Te125  1  0.33499726  0.66627517  0.71570762  1
  Te2-  Te126  1  0.83715438  0.16617560  0.72688579  1
  Te2-  Te127  1  0.83210724  0.66877225  0.72346253  1
  Te2-  Te128  1  0.16576888  0.33736535  0.05492090  1
  Te2-  Te129  1  0.16824359  0.83356221  0.05639252  1
  Te2-  Te130  1  0.66315183  0.33221253  0.05706412  1
  Te2-  Te131  1  0.66566660  0.83364428  0.05290957  1
  Te2-  Te132  1  0.49568615  0.24907308  0.88373462  1
  Te2-  Te133  1  0.49369852  0.74938616  0.88178997  1
  Te2-  Te134  1  0.99428942  0.24408604  0.88216380  1
  Te2-  Te135  1  0.99208054  0.74994637  0.88491145  1
  Te2-  Te136  1  0.25215797  0.00978064  0.88609875  1
  Te2-  Te137  1  0.25338581  0.50614075  0.88124971  1
  Te2-  Te138  1  0.75723227  0.00893326  0.88288979  1
  Te2-  Te139  1  0.75317068  0.50630617  0.88678015  1
  Te2-  Te140  1  0.25377239  0.24896057  0.88519406  1
  Te2-  Te141  1  0.24973864  0.75053148  0.87961139  1
  Te2-  Te142  1  0.75490684  0.24626869  0.88528107  1
  Te2-  Te143  1  0.75113291  0.74817395  0.88072374  1
  Te2-  Te144  1  0.32320794  0.41453554  0.21874055  1
  Te2-  Te145  1  0.32506837  0.91119418  0.21895684  1
  Te2-  Te146  1  0.81698830  0.41019611  0.21678205  1
  Te2-  Te147  1  0.83043866  0.91286028  0.21311173  1
  Te2-  Te148  1  0.08456195  0.17330568  0.21528111  1
  Te2-  Te149  1  0.08475321  0.67166593  0.21476816  1
  Te2-  Te150  1  0.58260371  0.17485327  0.21829784  1
  Te2-  Te151  1  0.58384295  0.66849347  0.21805496  1
  Te2-  Te152  1  0.07735299  0.41230828  0.21234136  1
  Te2-  Te153  1  0.08985645  0.91197087  0.21589327  1
  Te2-  Te154  1  0.57976224  0.40845868  0.21744976  1
  Te2-  Te155  1  0.58457999  0.91688370  0.21406739  1
  Te2-  Te156  1  0.16620127  0.07980687  0.54889946  1
  Te2-  Te157  1  0.16741096  0.58336629  0.54364104  1
  Te2-  Te158  1  0.66423255  0.08127495  0.55359596  1
  Te2-  Te159  1  0.65986167  0.57677178  0.55112058  1
  Te2-  Te160  1  0.42284402  0.33909895  0.55209584  1
  Te2-  Te161  1  0.42765647  0.83999964  0.54644871  1
  Te2-  Te162  1  0.92030065  0.33928656  0.55453140  1
  Te2-  Te163  1  0.91834459  0.83727335  0.54932110  1
  Te2-  Te164  1  0.42544009  0.08094557  0.55391897  1
  Te2-  Te165  1  0.42345287  0.57584716  0.54814205  1
  Te2-  Te166  1  0.92033969  0.08187720  0.54997942  1
  Te2-  Te167  1  0.91980662  0.58082271  0.55311766  1
  Te2-  Te168  1  0.00100393  0.00055351  0.88124363  1
  Te2-  Te169  1  0.00302689  0.50066968  0.88268938  1
  Te2-  Te170  1  0.49964445  -0.00197699  0.88297082  1
  Te2-  Te171  1  0.50098191  0.50110270  0.88277063  1
  Te2-  Te172  1  0.33291973  0.16608505  0.21562158  1
  Te2-  Te173  1  0.33060295  0.66588402  0.21413580  1
  Te2-  Te174  1  0.83328478  0.16555455  0.21478507  1
  Te2-  Te175  1  0.83267337  0.66650893  0.21447726  1
  Te2-  Te176  1  0.16664131  0.33414588  0.54835745  1
  Te2-  Te177  1  0.16776493  0.83152018  0.54954051  1
  Te2-  Te178  1  0.66736888  0.33359394  0.55141531  1
  Te2-  Te179  1  0.66623950  0.83232157  0.54714535  1
  Te2-  Te180  1  0.32945398  0.41362619  0.71242165  1
  Te2-  Te181  1  0.32835010  0.91038955  0.71003881  1
  Te2-  Te182  1  0.82645520  0.41375532  0.71090067  1
  Te2-  Te183  1  0.83005644  0.91491120  0.71061063  1
  Te2-  Te184  1  0.08907572  0.17200116  0.71089392  1
  Te2-  Te185  1  0.08927189  0.67263577  0.70927421  1
  Te2-  Te186  1  0.58866404  0.17416961  0.71044291  1
  Te2-  Te187  1  0.58546213  0.67107680  0.71170316  1
  Te2-  Te188  1  0.09031258  0.41748539  0.70979728  1
  Te2-  Te189  1  0.08729528  0.91294031  0.71165375  1
  Te2-  Te190  1  0.58748060  0.41439002  0.71298652  1
  Te2-  Te191  1  0.58629440  0.91204205  0.71059201  1
  Te2-  Te192  1  0.15879815  0.08199503  0.04149372  1
  Te2-  Te193  1  0.16264437  0.58233695  0.04201254  1
  Te2-  Te194  1  0.65957928  0.07892240  0.04407748  1
  Te2-  Te195  1  0.66000000  0.58191284  0.04405443  1
  Te2-  Te196  1  0.42163249  0.34187546  0.04395533  1
  Te2-  Te197  1  0.41827650  0.83870768  0.04405205  1
  Te2-  Te198  1  0.92129288  0.33971087  0.04143784  1
  Te2-  Te199  1  0.91618960  0.83941471  0.04132976  1
  Te2-  Te200  1  0.42139282  0.08135428  0.04455249  1
  Te2-  Te201  1  0.41999088  0.58273958  0.04504253  1
  Te2-  Te202  1  0.91832922  0.08131961  0.04295116  1
  Te2-  Te203  1  0.92311149  0.58049743  0.04097404  1
  Te2-  Te204  1  0.49325288  0.24609678  0.38111930  1
  Te2-  Te205  1  0.49265584  0.74781736  0.37326614  1
  Te2-  Te206  1  0.99238049  0.24649698  0.37907765  1
  Te2-  Te207  1  0.99519957  0.74847778  0.38008352  1
  Te2-  Te208  1  0.25173367  0.00669008  0.37874812  1
  Te2-  Te209  1  0.24637871  0.50405970  0.37334060  1
  Te2-  Te210  1  0.75289422  0.00464236  0.37827925  1
  Te2-  Te211  1  0.75055357  0.50502585  0.38054165  1
  Te2-  Te212  1  0.24991974  0.24448511  0.37837041  1
  Te2-  Te213  1  0.24966598  0.74567142  0.37480055  1
  Te2-  Te214  1  0.75205014  0.24757736  0.38209523  1
  Te2-  Te215  1  0.75407024  0.74740904  0.37657608  1
