# generated using pymatgen
data_Ti(CuTe)4
_symmetry_space_group_name_H-M   'P 1'
_cell_length_a   16.84594729
_cell_length_b   16.84372944
_cell_length_c   20.64436486
_cell_angle_alpha   89.98281623
_cell_angle_beta   89.98152209
_cell_angle_gamma   119.99690197
_symmetry_Int_Tables_number   1
_chemical_formula_structural   Ti(CuTe)4
_chemical_formula_sum   'Ti24 Cu96 Te96'
_cell_volume   5073.16893673
_cell_formula_units_Z   24
loop_
 _symmetry_equiv_pos_site_id
 _symmetry_equiv_pos_as_xyz
  1  'x, y, z'
loop_
 _atom_type_symbol
 _atom_type_oxidation_number
  Ti4+  4.0
  Cu+  1.0
  Te2-  -2.0
loop_
 _atom_site_type_symbol
 _atom_site_label
 _atom_site_symmetry_multiplicity
 _atom_site_fract_x
 _atom_site_fract_y
 _atom_site_fract_z
 _atom_site_occupancy
  Ti4+  Ti0  1  0.00166844  0.00198657  0.25673015  1
  Ti4+  Ti1  1  -0.00399125  0.49850240  0.25811560  1
  Ti4+  Ti2  1  0.50088536  -0.00025495  0.25773135  1
  Ti4+  Ti3  1  0.49689623  0.50054883  0.25499360  1
  Ti4+  Ti4  1  0.33307796  0.16846313  0.59205384  1
  Ti4+  Ti5  1  0.33398152  0.67062826  0.59494251  1
  Ti4+  Ti6  1  0.83264254  0.16595743  0.58949825  1
  Ti4+  Ti7  1  0.83563838  0.66880407  0.58965218  1
  Ti4+  Ti8  1  0.16709350  0.33190636  0.92361740  1
  Ti4+  Ti9  1  0.16796173  0.83004624  0.92895974  1
  Ti4+  Ti10  1  0.66933445  0.33170134  0.92316470  1
  Ti4+  Ti11  1  0.66818592  0.83514518  0.92365335  1
  Ti4+  Ti12  1  -0.00035282  -0.00034777  0.75770433  1
  Ti4+  Ti13  1  0.00024507  0.50014939  0.75664004  1
  Ti4+  Ti14  1  0.50112111  0.00064285  0.75626000  1
  Ti4+  Ti15  1  0.49863492  0.49983157  0.75404350  1
  Ti4+  Ti16  1  0.33171543  0.16631094  0.08564910  1
  Ti4+  Ti17  1  0.33605760  0.66622498  0.08826238  1
  Ti4+  Ti18  1  0.83146042  0.16627936  0.09109194  1
  Ti4+  Ti19  1  0.83370082  0.66503245  0.08692416  1
  Ti4+  Ti20  1  0.16581309  0.33287284  0.42243386  1
  Ti4+  Ti21  1  0.16572193  0.83249136  0.42385120  1
  Ti4+  Ti22  1  0.66626389  0.33296221  0.42177198  1
  Ti4+  Ti23  1  0.66562019  0.83425615  0.42318556  1
  Cu+  Cu24  1  0.41341097  0.81850038  0.81363485  1
  Cu+  Cu25  1  0.23539771  0.26337068  0.13815660  1
  Cu+  Cu26  1  0.85790816  0.42792265  0.47472730  1
  Cu+  Cu27  1  0.69316597  0.09461078  0.80528253  1
  Cu+  Cu28  1  0.57021562  0.93120528  0.47598560  1
  Cu+  Cu29  1  0.85713233  0.93031999  0.47231079  1
  Cu+  Cu30  1  0.73398346  0.26325310  0.14138860  1
  Cu+  Cu31  1  0.18557085  0.59029642  0.81157760  1
  Cu+  Cu32  1  0.52830973  0.76556259  0.14018660  1
  Cu+  Cu33  1  0.01054219  0.75367316  0.14751163  1
  Cu+  Cu34  1  0.24882181  0.75390266  0.15188947  1
  Cu+  Cu35  1  0.24372979  0.98989950  0.14595093  1
  Cu+  Cu36  1  0.16192320  0.08515337  0.16629527  1
  Cu+  Cu37  1  0.16067213  0.57952636  0.16971305  1
  Cu+  Cu38  1  0.66435771  0.08591355  0.17157992  1
  Cu+  Cu39  1  0.66252875  0.58144269  0.16764721  1
  Cu+  Cu40  1  0.41012303  0.33612202  0.16620431  1
  Cu+  Cu41  1  0.42408181  0.83715115  0.17019891  1
  Cu+  Cu42  1  0.90893004  0.33327371  0.17266306  1
  Cu+  Cu43  1  0.91700416  0.83556105  0.16924022  1
  Cu+  Cu44  1  0.41838594  0.08086158  0.16690244  1
  Cu+  Cu45  1  0.42474711  0.58660727  0.16645747  1
  Cu+  Cu46  1  0.91757427  0.08132173  0.17154589  1
  Cu+  Cu47  1  0.91759893  0.57912184  0.16915277  1
  Cu+  Cu48  1  0.49557216  0.24936208  0.50464254  1
  Cu+  Cu49  1  0.49544099  0.75593787  0.50600299  1
  Cu+  Cu50  1  0.99676725  0.24799720  0.50263596  1
  Cu+  Cu51  1  0.99559855  0.74878672  0.50360510  1
  Cu+  Cu52  1  0.25095968  0.00275904  0.50649528  1
  Cu+  Cu53  1  0.24782280  0.50069659  0.50818311  1
  Cu+  Cu54  1  0.74973104  0.00204410  0.50361107  1
  Cu+  Cu55  1  0.75565778  0.50196356  0.50290145  1
  Cu+  Cu56  1  0.25163581  0.24935163  0.50473742  1
  Cu+  Cu57  1  0.25123615  0.74939251  0.50875705  1
  Cu+  Cu58  1  0.75430495  0.25173325  0.50320911  1
  Cu+  Cu59  1  0.75707122  0.75464459  0.50301950  1
  Cu+  Cu60  1  0.32977862  0.41147748  0.83667873  1
  Cu+  Cu61  1  0.32940335  0.90939632  0.83979602  1
  Cu+  Cu62  1  0.82964624  0.41122063  0.83719065  1
  Cu+  Cu63  1  0.83158888  0.91478866  0.83794362  1
  Cu+  Cu64  1  0.08565883  0.16736510  0.83965026  1
  Cu+  Cu65  1  0.08770060  0.66786666  0.84071413  1
  Cu+  Cu66  1  0.59365822  0.17036541  0.83599957  1
  Cu+  Cu67  1  0.58292204  0.66699298  0.83632279  1
  Cu+  Cu68  1  0.08634347  0.41554530  0.83821564  1
  Cu+  Cu69  1  0.08396586  0.91445573  0.84335229  1
  Cu+  Cu70  1  0.58447354  0.41689539  0.83655052  1
  Cu+  Cu71  1  0.58947584  0.91740968  0.83663834  1
  Cu+  Cu72  1  0.16883755  0.08413064  0.67528312  1
  Cu+  Cu73  1  0.17006962  0.58781128  0.68267375  1
  Cu+  Cu74  1  0.66962229  0.08549958  0.67731735  1
  Cu+  Cu75  1  0.67005940  0.58639126  0.67085134  1
  Cu+  Cu76  1  0.41364774  0.33090794  0.67389409  1
  Cu+  Cu77  1  0.41364851  0.83314875  0.68340573  1
  Cu+  Cu78  1  0.91461945  0.33271894  0.67493558  1
  Cu+  Cu79  1  0.91696238  0.83260421  0.67540674  1
  Cu+  Cu80  1  0.41437172  0.08617109  0.67613298  1
  Cu+  Cu81  1  0.41468454  0.58452292  0.67521008  1
  Cu+  Cu82  1  0.91503141  0.08278634  0.67485538  1
  Cu+  Cu83  1  0.91393349  0.58308800  0.67555284  1
  Cu+  Cu84  1  0.00045148  0.24871876  0.00709862  1
  Cu+  Cu85  1  0.00327108  0.74887295  0.01546533  1
  Cu+  Cu86  1  0.50292066  0.24987386  0.00413252  1
  Cu+  Cu87  1  0.50593364  0.75164093  0.01188913  1
  Cu+  Cu88  1  0.25107613  0.49786366  0.00752660  1
  Cu+  Cu89  1  0.24929350  0.99550711  0.01445877  1
  Cu+  Cu90  1  0.74966694  0.49701964  0.00501488  1
  Cu+  Cu91  1  0.74929733  0.99930695  0.00812764  1
  Cu+  Cu92  1  0.24748341  0.25224046  0.01005304  1
  Cu+  Cu93  1  0.25015068  0.74853951  0.01845873  1
  Cu+  Cu94  1  0.74683699  0.24981788  0.01293157  1
  Cu+  Cu95  1  0.74799330  0.74949718  0.00572611  1
  Cu+  Cu96  1  0.33288739  0.41873858  0.33943434  1
  Cu+  Cu97  1  0.33332898  0.91326335  0.34440708  1
  Cu+  Cu98  1  0.83447692  0.41663010  0.34646131  1
  Cu+  Cu99  1  0.83864734  0.91819570  0.34438766  1
  Cu+  Cu100  1  0.08440180  0.16655792  0.34093802  1
  Cu+  Cu101  1  0.08222574  0.66581813  0.34470694  1
  Cu+  Cu102  1  0.58076925  0.16453321  0.34269897  1
  Cu+  Cu103  1  0.57926472  0.66492358  0.34132945  1
  Cu+  Cu104  1  0.08033808  0.41627188  0.34090460  1
  Cu+  Cu105  1  0.08392940  0.91683952  0.34233835  1
  Cu+  Cu106  1  0.57730806  0.41553615  0.33758271  1
  Cu+  Cu107  1  0.58007018  0.91636332  0.34633481  1
  Cu+  Cu108  1  -0.00397841  -0.00233068  0.11080640  1
  Cu+  Cu109  1  -0.00098861  0.49435628  0.11292748  1
  Cu+  Cu110  1  0.50194184  0.00048341  0.11215785  1
  Cu+  Cu111  1  0.50280347  0.49652732  0.10976561  1
  Cu+  Cu112  1  0.33075509  0.16518016  0.44852050  1
  Cu+  Cu113  1  0.32941409  0.66101695  0.45324876  1
  Cu+  Cu114  1  0.83375664  0.16645038  0.44489935  1
  Cu+  Cu115  1  0.82802373  0.66272431  0.44494168  1
  Cu+  Cu116  1  0.16499974  0.32987325  0.78090776  1
  Cu+  Cu117  1  0.16181659  0.83345696  0.78660001  1
  Cu+  Cu118  1  0.66311797  0.33675327  0.78064048  1
  Cu+  Cu119  1  0.66929260  0.82895584  0.78018954  1
  Te2-  Te120  1  0.00549969  0.00294171  0.38708226  1
  Te2-  Te121  1  0.00194488  0.50085356  0.38837360  1
  Te2-  Te122  1  0.49763002  0.00097411  0.38821884  1
  Te2-  Te123  1  0.49765097  0.49965799  0.38391610  1
  Te2-  Te124  1  0.33246540  0.16803200  0.72189282  1
  Te2-  Te125  1  0.33615181  0.66696678  0.72769212  1
  Te2-  Te126  1  0.83706942  0.16876830  0.71994018  1
  Te2-  Te127  1  0.83306278  0.66739773  0.71860867  1
  Te2-  Te128  1  0.16351192  0.33485578  0.05450023  1
  Te2-  Te129  1  0.16767427  0.83155642  0.06271626  1
  Te2-  Te130  1  0.66425726  0.33494962  0.05436807  1
  Te2-  Te131  1  0.67278208  0.83608259  0.05467384  1
  Te2-  Te132  1  0.49965288  0.24596527  0.87813312  1
  Te2-  Te133  1  0.49498764  0.74592754  0.88463816  1
  Te2-  Te134  1  0.99602883  0.24763399  0.88129383  1
  Te2-  Te135  1  0.99788929  0.74512628  0.88765602  1
  Te2-  Te136  1  0.25364184  0.00000048  0.88699290  1
  Te2-  Te137  1  0.25729153  0.50593444  0.88238664  1
  Te2-  Te138  1  0.75810859  0.00894780  0.88251212  1
  Te2-  Te139  1  0.75319375  0.50284618  0.87970458  1
  Te2-  Te140  1  0.25330906  0.24550649  0.88386514  1
  Te2-  Te141  1  0.25678011  0.74228253  0.88950325  1
  Te2-  Te142  1  0.75966616  0.24602005  0.88564411  1
  Te2-  Te143  1  0.75069206  0.74682912  0.88041138  1
  Te2-  Te144  1  0.32341506  0.41898193  0.21296144  1
  Te2-  Te145  1  0.32567732  0.91192856  0.21774930  1
  Te2-  Te146  1  0.82200770  0.41542203  0.21899878  1
  Te2-  Te147  1  0.82997391  0.91390129  0.21753387  1
  Te2-  Te148  1  0.08545377  0.17523786  0.21535530  1
  Te2-  Te149  1  0.08773930  0.67545322  0.21860285  1
  Te2-  Te150  1  0.58151941  0.17309975  0.21681745  1
  Te2-  Te151  1  0.59081679  0.67623378  0.21558383  1
  Te2-  Te152  1  0.07998928  0.41284116  0.21451440  1
  Te2-  Te153  1  0.08851493  0.91369266  0.21592123  1
  Te2-  Te154  1  0.57875634  0.41209596  0.21122432  1
  Te2-  Te155  1  0.59091885  0.91677516  0.21863573  1
  Te2-  Te156  1  0.16112806  0.08144909  0.54921855  1
  Te2-  Te157  1  0.16235793  0.58253598  0.55562557  1
  Te2-  Te158  1  0.65979778  0.08350248  0.54993653  1
  Te2-  Te159  1  0.66640777  0.58403200  0.54417198  1
  Te2-  Te160  1  0.41941950  0.34063570  0.54825869  1
  Te2-  Te161  1  0.41827358  0.84542778  0.55569654  1
  Te2-  Te162  1  0.92290438  0.34007848  0.54953321  1
  Te2-  Te163  1  0.92495007  0.84434998  0.54957837  1
  Te2-  Te164  1  0.41936832  0.08221648  0.55021128  1
  Te2-  Te165  1  0.41876279  0.58650287  0.54883852  1
  Te2-  Te166  1  0.92065566  0.08089799  0.54868068  1
  Te2-  Te167  1  0.92422383  0.58215664  0.54967068  1
  Te2-  Te168  1  -0.00092869  -0.00119819  0.88465044  1
  Te2-  Te169  1  -0.00146082  0.49716742  0.88393916  1
  Te2-  Te170  1  0.50119033  0.00002590  0.88388997  1
  Te2-  Te171  1  0.49900435  0.49862536  0.88102023  1
  Te2-  Te172  1  0.33271919  0.16645891  0.21373762  1
  Te2-  Te173  1  0.33243176  0.66463823  0.21626030  1
  Te2-  Te174  1  0.83266171  0.16472667  0.21825047  1
  Te2-  Te175  1  0.83133950  0.66496684  0.21445811  1
  Te2-  Te176  1  0.16482973  0.33141867  0.54932277  1
  Te2-  Te177  1  0.16469515  0.83362549  0.55050419  1
  Te2-  Te178  1  0.66559881  0.33312985  0.54879016  1
  Te2-  Te179  1  0.66583566  0.83276065  0.55064267  1
  Te2-  Te180  1  0.32616738  0.41371760  0.70999500  1
  Te2-  Te181  1  0.32560462  0.91712968  0.71351700  1
  Te2-  Te182  1  0.82745164  0.41373829  0.71131332  1
  Te2-  Te183  1  0.82844093  0.91382499  0.71118048  1
  Te2-  Te184  1  0.08503049  0.17051304  0.71200411  1
  Te2-  Te185  1  0.08370553  0.67423421  0.71345310  1
  Te2-  Te186  1  0.58516163  0.17331345  0.70964725  1
  Te2-  Te187  1  0.58567569  0.67175209  0.70903239  1
  Te2-  Te188  1  0.08523379  0.41273707  0.71056643  1
  Te2-  Te189  1  0.08606914  0.91455390  0.71481798  1
  Te2-  Te190  1  0.58527576  0.41591841  0.70858223  1
  Te2-  Te191  1  0.58794561  0.91318506  0.70960630  1
  Te2-  Te192  1  0.15761034  0.07828193  0.03939153  1
  Te2-  Te193  1  0.16056084  0.57592313  0.04317595  1
  Te2-  Te194  1  0.65954458  0.07786641  0.04414527  1
  Te2-  Te195  1  0.66247938  0.58001049  0.04083615  1
  Te2-  Te196  1  0.42093969  0.33826624  0.03902519  1
  Te2-  Te197  1  0.42352410  0.84147563  0.04257536  1
  Te2-  Te198  1  0.91947677  0.33733192  0.04429496  1
  Te2-  Te199  1  0.91804695  0.83820784  0.04161552  1
  Te2-  Te200  1  0.42228657  0.08148381  0.04082025  1
  Te2-  Te201  1  0.42085738  0.57833555  0.04054141  1
  Te2-  Te202  1  0.91788911  0.08080662  0.04494196  1
  Te2-  Te203  1  0.91837695  0.57537926  0.04247122  1
  Te2-  Te204  1  0.49356465  0.24728494  0.37774898  1
  Te2-  Te205  1  0.49134714  0.74524134  0.37917505  1
  Te2-  Te206  1  0.99415800  0.24649187  0.37608837  1
  Te2-  Te207  1  0.99308858  0.74704554  0.37748876  1
  Te2-  Te208  1  0.25363428  0.00460852  0.37870457  1
  Te2-  Te209  1  0.24977177  0.50487904  0.37951426  1
  Te2-  Te210  1  0.75377056  0.00667850  0.37555988  1
  Te2-  Te211  1  0.74790937  0.50421615  0.37476699  1
  Te2-  Te212  1  0.25363715  0.24894399  0.37740624  1
  Te2-  Te213  1  0.25182756  0.74457925  0.38145446  1
  Te2-  Te214  1  0.75054489  0.24368108  0.37616417  1
  Te2-  Te215  1  0.74972810  0.74614984  0.37603006  1
