# generated using pymatgen
data_Ti(CuTe)4
_symmetry_space_group_name_H-M   'P 1'
_cell_length_a   16.87130156
_cell_length_b   16.86910278
_cell_length_c   20.68109403
_cell_angle_alpha   89.99134182
_cell_angle_beta   89.98214976
_cell_angle_gamma   119.99117846
_symmetry_Int_Tables_number   1
_chemical_formula_structural   Ti(CuTe)4
_chemical_formula_sum   'Ti24 Cu96 Te96'
_cell_volume   5097.80551802
_cell_formula_units_Z   24
loop_
 _symmetry_equiv_pos_site_id
 _symmetry_equiv_pos_as_xyz
  1  'x, y, z'
loop_
 _atom_type_symbol
 _atom_type_oxidation_number
  Ti4+  4.0
  Cu+  1.0
  Te2-  -2.0
loop_
 _atom_site_type_symbol
 _atom_site_label
 _atom_site_symmetry_multiplicity
 _atom_site_fract_x
 _atom_site_fract_y
 _atom_site_fract_z
 _atom_site_occupancy
  Ti4+  Ti0  1  -0.00107823  -0.00150716  0.26020661  1
  Ti4+  Ti1  1  0.00268778  0.49767996  0.25470983  1
  Ti4+  Ti2  1  0.50213857  0.00006292  0.25824089  1
  Ti4+  Ti3  1  0.50161559  0.49836347  0.25636960  1
  Ti4+  Ti4  1  0.33586698  0.16409474  0.59039994  1
  Ti4+  Ti5  1  0.33548923  0.66621070  0.59269807  1
  Ti4+  Ti6  1  0.83402330  0.16586474  0.59230715  1
  Ti4+  Ti7  1  0.83626256  0.66945833  0.58973458  1
  Ti4+  Ti8  1  0.16508738  0.33551170  0.92573672  1
  Ti4+  Ti9  1  0.16235113  0.83619188  0.92313494  1
  Ti4+  Ti10  1  0.66362427  0.33563440  0.92258949  1
  Ti4+  Ti11  1  0.66265101  0.83410054  0.92844099  1
  Ti4+  Ti12  1  0.00080639  -0.00075196  0.75759096  1
  Ti4+  Ti13  1  -0.00085430  0.50049307  0.75478006  1
  Ti4+  Ti14  1  0.49968116  0.00075407  0.75768678  1
  Ti4+  Ti15  1  0.49852014  0.50050110  0.75592534  1
  Ti4+  Ti16  1  0.33463152  0.16849042  0.09091743  1
  Ti4+  Ti17  1  0.33058844  0.66608401  0.08673011  1
  Ti4+  Ti18  1  0.83161222  0.16698914  0.08682785  1
  Ti4+  Ti19  1  0.83143934  0.66763684  0.08881661  1
  Ti4+  Ti20  1  0.16736512  0.33282649  0.42303664  1
  Ti4+  Ti21  1  0.16793773  0.83333620  0.41982171  1
  Ti4+  Ti22  1  0.66664571  0.33095635  0.42235498  1
  Ti4+  Ti23  1  0.66787724  0.83352240  0.42240815  1
  Cu+  Cu24  1  0.40323107  0.59764638  0.81020427  1
  Cu+  Cu25  1  0.90170372  0.59725463  0.80419612  1
  Cu+  Cu26  1  0.24714041  0.48261456  0.14112007  1
  Cu+  Cu27  1  0.51188953  0.75234591  0.14538216  1
  Cu+  Cu28  1  0.01501393  0.25047035  0.14154704  1
  Cu+  Cu29  1  0.57950171  0.14575136  0.47556909  1
  Cu+  Cu30  1  0.74636785  0.98588690  0.14503379  1
  Cu+  Cu31  1  0.35110025  0.91920063  0.47567822  1
  Cu+  Cu32  1  0.40195530  0.09678389  0.80774084  1
  Cu+  Cu33  1  0.52810304  0.26087020  0.14035422  1
  Cu+  Cu34  1  0.08242456  0.92654667  0.47815102  1
  Cu+  Cu35  1  0.85175995  0.92923612  0.47702997  1
  Cu+  Cu36  1  0.16441309  0.07912135  0.17379758  1
  Cu+  Cu37  1  0.16115694  0.57461871  0.16559724  1
  Cu+  Cu38  1  0.66201161  0.07818533  0.16768247  1
  Cu+  Cu39  1  0.66284591  0.58022024  0.16923871  1
  Cu+  Cu40  1  0.42495504  0.33463254  0.16964004  1
  Cu+  Cu41  1  0.41932275  0.83631729  0.16916759  1
  Cu+  Cu42  1  0.92384191  0.33738177  0.16543107  1
  Cu+  Cu43  1  0.91733877  0.83470587  0.17312191  1
  Cu+  Cu44  1  0.42306580  0.08676960  0.17346502  1
  Cu+  Cu45  1  0.41867058  0.57894890  0.16918224  1
  Cu+  Cu46  1  0.91833121  0.07912135  0.17161930  1
  Cu+  Cu47  1  0.91855654  0.58209056  0.17028912  1
  Cu+  Cu48  1  0.49960745  0.24348374  0.50337642  1
  Cu+  Cu49  1  0.49699806  0.74499911  0.50565213  1
  Cu+  Cu50  1  0.99795344  0.24910418  0.50506673  1
  Cu+  Cu51  1  0.99592979  0.75015903  0.50079808  1
  Cu+  Cu52  1  0.25669362  0.00439354  0.50049555  1
  Cu+  Cu53  1  0.25487254  0.50152405  0.50670667  1
  Cu+  Cu54  1  0.75517377  0.00451701  0.50397652  1
  Cu+  Cu55  1  0.75446216  0.50391372  0.50489480  1
  Cu+  Cu56  1  0.25329100  0.24919647  0.50456216  1
  Cu+  Cu57  1  0.25538858  0.74812293  0.50339905  1
  Cu+  Cu58  1  0.74992346  0.24564012  0.50561759  1
  Cu+  Cu59  1  0.75587235  0.75249676  0.50295266  1
  Cu+  Cu60  1  0.33015862  0.42153113  0.83823392  1
  Cu+  Cu61  1  0.32945905  0.92265836  0.83816413  1
  Cu+  Cu62  1  0.83015613  0.42217374  0.83571306  1
  Cu+  Cu63  1  0.83085850  0.91918170  0.84258695  1
  Cu+  Cu64  1  0.08204869  0.16873899  0.84059108  1
  Cu+  Cu65  1  0.07649354  0.66931900  0.83619730  1
  Cu+  Cu66  1  0.57720892  0.17003918  0.83796307  1
  Cu+  Cu67  1  0.57676265  0.66843624  0.84017299  1
  Cu+  Cu68  1  0.08332797  0.41354962  0.83875238  1
  Cu+  Cu69  1  0.08431469  0.91490180  0.83703544  1
  Cu+  Cu70  1  0.58267786  0.41351579  0.83549638  1
  Cu+  Cu71  1  0.58484678  0.91614449  0.84223648  1
  Cu+  Cu72  1  0.16859703  0.08163379  0.67643013  1
  Cu+  Cu73  1  0.16930440  0.58150916  0.67434961  1
  Cu+  Cu74  1  0.67059996  0.08268631  0.67794354  1
  Cu+  Cu75  1  0.66772093  0.58429683  0.67324023  1
  Cu+  Cu76  1  0.41750803  0.33141552  0.67369686  1
  Cu+  Cu77  1  0.41941770  0.83149590  0.67687118  1
  Cu+  Cu78  1  0.91654103  0.32995052  0.67445816  1
  Cu+  Cu79  1  0.91775906  0.83458383  0.67703056  1
  Cu+  Cu80  1  0.41652827  0.08338428  0.68031472  1
  Cu+  Cu81  1  0.41412089  0.58437864  0.68066441  1
  Cu+  Cu82  1  0.91630251  0.08379801  0.67706907  1
  Cu+  Cu83  1  0.91509872  0.58657292  0.67555341  1
  Cu+  Cu84  1  0.00077008  0.25218618  0.01258011  1
  Cu+  Cu85  1  -0.00114372  0.75328643  0.00771559  1
  Cu+  Cu86  1  0.50168011  0.25138560  0.01239317  1
  Cu+  Cu87  1  0.49901435  0.75331007  0.01580475  1
  Cu+  Cu88  1  0.24537040  0.49846025  0.01281993  1
  Cu+  Cu89  1  0.24734366  0.99990422  0.00905226  1
  Cu+  Cu90  1  0.74758747  0.50085066  0.00639091  1
  Cu+  Cu91  1  0.74433785  0.99764728  0.01589632  1
  Cu+  Cu92  1  0.24717301  0.25133900  0.00818054  1
  Cu+  Cu93  1  0.24348267  0.75388255  0.00417156  1
  Cu+  Cu94  1  0.74572211  0.25215054  0.00338700  1
  Cu+  Cu95  1  0.74673996  0.75299759  0.00940352  1
  Cu+  Cu96  1  0.33608359  0.41692994  0.34026682  1
  Cu+  Cu97  1  0.33662284  0.91750539  0.34505878  1
  Cu+  Cu98  1  0.83842349  0.41793243  0.33759190  1
  Cu+  Cu99  1  0.83484475  0.91763478  0.34832540  1
  Cu+  Cu100  1  0.08181450  0.16523421  0.34362890  1
  Cu+  Cu101  1  0.08378133  0.66210451  0.33706895  1
  Cu+  Cu102  1  0.58282557  0.16394938  0.34678993  1
  Cu+  Cu103  1  0.58015408  0.66285950  0.34178410  1
  Cu+  Cu104  1  0.08508998  0.41755466  0.34151305  1
  Cu+  Cu105  1  0.08000365  0.91487549  0.34745961  1
  Cu+  Cu106  1  0.58368557  0.41668923  0.34164704  1
  Cu+  Cu107  1  0.58296096  0.91372115  0.34377614  1
  Cu+  Cu108  1  0.00339413  -0.00175068  0.11663983  1
  Cu+  Cu109  1  -0.00487390  0.50198758  0.10979731  1
  Cu+  Cu110  1  0.49444895  -0.00090396  0.11398706  1
  Cu+  Cu111  1  0.49991037  0.49831386  0.11051004  1
  Cu+  Cu112  1  0.33632800  0.17266822  0.44638062  1
  Cu+  Cu113  1  0.33188024  0.66178654  0.44906129  1
  Cu+  Cu114  1  0.83647869  0.17119996  0.44750534  1
  Cu+  Cu115  1  0.82900349  0.66144807  0.44566946  1
  Cu+  Cu116  1  0.16763054  0.32893528  0.78309653  1
  Cu+  Cu117  1  0.16956719  0.82928792  0.77908537  1
  Cu+  Cu118  1  0.66965879  0.33154690  0.77873094  1
  Cu+  Cu119  1  0.67090714  0.83139344  0.78648810  1
  Te2-  Te120  1  0.00148485  0.00187961  0.39195326  1
  Te2-  Te121  1  0.00166813  0.49914851  0.38391469  1
  Te2-  Te122  1  0.50217117  -0.00265420  0.39015493  1
  Te2-  Te123  1  0.50025109  0.49804996  0.38516356  1
  Te2-  Te124  1  0.33323783  0.16790699  0.72050389  1
  Te2-  Te125  1  0.33146991  0.66801381  0.72351534  1
  Te2-  Te126  1  0.83507135  0.16687547  0.72154529  1
  Te2-  Te127  1  0.83136308  0.66923462  0.71981670  1
  Te2-  Te128  1  0.16630626  0.33250418  0.05776733  1
  Te2-  Te129  1  0.16295448  0.83531581  0.05240591  1
  Te2-  Te130  1  0.66906708  0.33706624  0.05302852  1
  Te2-  Te131  1  0.66452623  0.83230396  0.06078889  1
  Te2-  Te132  1  0.48864483  0.24947403  0.88487421  1
  Te2-  Te133  1  0.48927644  0.74995450  0.88797235  1
  Te2-  Te134  1  0.99355220  0.24766320  0.88550917  1
  Te2-  Te135  1  0.98793886  0.74941542  0.88208346  1
  Te2-  Te136  1  0.24925746  0.01130294  0.88350311  1
  Te2-  Te137  1  0.24899584  0.50921573  0.88542268  1
  Te2-  Te138  1  0.75062288  0.00592870  0.88872703  1
  Te2-  Te139  1  0.74846133  0.50950282  0.88092667  1
  Te2-  Te140  1  0.25161907  0.25210443  0.88226959  1
  Te2-  Te141  1  0.24719304  0.75151904  0.87813283  1
  Te2-  Te142  1  0.74851621  0.25142108  0.87758884  1
  Te2-  Te143  1  0.74643308  0.74869431  0.88326159  1
  Te2-  Te144  1  0.32942225  0.40856427  0.21423195  1
  Te2-  Te145  1  0.33252847  0.91641216  0.21702160  1
  Te2-  Te146  1  0.83179933  0.41241539  0.21176869  1
  Te2-  Te147  1  0.82593437  0.91051236  0.22032265  1
  Te2-  Te148  1  0.08796599  0.17082822  0.21777495  1
  Te2-  Te149  1  0.08825891  0.66869117  0.21151065  1
  Te2-  Te150  1  0.59319047  0.17388961  0.21864550  1
  Te2-  Te151  1  0.58813384  0.67193715  0.21589502  1
  Te2-  Te152  1  0.09076327  0.40844417  0.21513646  1
  Te2-  Te153  1  0.08380429  0.91256966  0.21964505  1
  Te2-  Te154  1  0.59232432  0.41464215  0.21575146  1
  Te2-  Te155  1  0.58800955  0.91065089  0.21753537  1
  Te2-  Te156  1  0.16299439  0.08135313  0.54992417  1
  Te2-  Te157  1  0.16506357  0.58113694  0.54837010  1
  Te2-  Te158  1  0.66032139  0.07495093  0.55155025  1
  Te2-  Te159  1  0.66547706  0.58425358  0.54718368  1
  Te2-  Te160  1  0.42149958  0.33409674  0.54772038  1
  Te2-  Te161  1  0.42516335  0.83979429  0.55088418  1
  Te2-  Te162  1  0.91788610  0.33651303  0.54857238  1
  Te2-  Te163  1  0.92471054  0.84625286  0.55047097  1
  Te2-  Te164  1  0.42299961  0.07524624  0.55157233  1
  Te2-  Te165  1  0.42135009  0.57977104  0.55333718  1
  Te2-  Te166  1  0.92432860  0.08263371  0.55113056  1
  Te2-  Te167  1  0.92256859  0.58436327  0.54848153  1
  Te2-  Te168  1  0.00011317  0.00017873  0.88393993  1
  Te2-  Te169  1  -0.00163177  0.50036787  0.88170117  1
  Te2-  Te170  1  0.49820917  0.00142086  0.88449292  1
  Te2-  Te171  1  0.49870140  0.49885262  0.88303048  1
  Te2-  Te172  1  0.33372353  0.16624080  0.21804959  1
  Te2-  Te173  1  0.33170707  0.66483638  0.21430914  1
  Te2-  Te174  1  0.83349418  0.16778884  0.21449870  1
  Te2-  Te175  1  0.83242388  0.66414884  0.21515335  1
  Te2-  Te176  1  0.16760865  0.33231182  0.54932148  1
  Te2-  Te177  1  0.16750119  0.83226114  0.54746337  1
  Te2-  Te178  1  0.66860162  0.33471296  0.54949404  1
  Te2-  Te179  1  0.66768994  0.83332123  0.54934086  1
  Te2-  Te180  1  0.32651717  0.41079352  0.71029701  1
  Te2-  Te181  1  0.32813252  0.91122617  0.71030722  1
  Te2-  Te182  1  0.82815085  0.41357287  0.70774320  1
  Te2-  Te183  1  0.82824332  0.91472539  0.71461371  1
  Te2-  Te184  1  0.08676439  0.17070120  0.71280413  1
  Te2-  Te185  1  0.08758488  0.67167477  0.70809752  1
  Te2-  Te186  1  0.58885089  0.17240714  0.71033368  1
  Te2-  Te187  1  0.58721068  0.67330880  0.71204330  1
  Te2-  Te188  1  0.08561623  0.41281323  0.71275046  1
  Te2-  Te189  1  0.08742124  0.91245142  0.71197747  1
  Te2-  Te190  1  0.58628329  0.41507562  0.71042595  1
  Te2-  Te191  1  0.58738795  0.91388850  0.71649855  1
  Te2-  Te192  1  0.16162387  0.08280344  0.04719302  1
  Te2-  Te193  1  0.15768923  0.58382816  0.04001966  1
  Te2-  Te194  1  0.65718091  0.08374453  0.04223552  1
  Te2-  Te195  1  0.65923388  0.58194149  0.04322027  1
  Te2-  Te196  1  0.41734881  0.33993581  0.04285017  1
  Te2-  Te197  1  0.41263959  0.84002101  0.04268948  1
  Te2-  Te198  1  0.91538676  0.33981327  0.03953146  1
  Te2-  Te199  1  0.91700965  0.84073440  0.04605124  1
  Te2-  Te200  1  0.41725295  0.07948828  0.04507012  1
  Te2-  Te201  1  0.41858631  0.57908660  0.04104664  1
  Te2-  Te202  1  0.91907189  0.07899985  0.04354086  1
  Te2-  Te203  1  0.91736641  0.58281149  0.04256698  1
  Te2-  Te204  1  0.49350778  0.24694849  0.37626672  1
  Te2-  Te205  1  0.49382213  0.74477025  0.37957172  1
  Te2-  Te206  1  0.99479968  0.24776892  0.37831709  1
  Te2-  Te207  1  0.99426162  0.74207922  0.37481082  1
  Te2-  Te208  1  0.25417331  0.00815395  0.37371748  1
  Te2-  Te209  1  0.25484020  0.50463833  0.37871609  1
  Te2-  Te210  1  0.75279335  0.00821782  0.37735387  1
  Te2-  Te211  1  0.75377885  0.50230916  0.37731516  1
  Te2-  Te212  1  0.25290185  0.24682821  0.37739263  1
  Te2-  Te213  1  0.25283532  0.74467460  0.37575987  1
  Te2-  Te214  1  0.75628731  0.24851563  0.37694107  1
  Te2-  Te215  1  0.75100386  0.74403285  0.37625515  1
