# generated using pymatgen
data_Ti(CuTe)4
_symmetry_space_group_name_H-M   'P 1'
_cell_length_a   16.88491299
_cell_length_b   16.88884740
_cell_length_c   20.70852375
_cell_angle_alpha   90.02008763
_cell_angle_beta   90.01838677
_cell_angle_gamma   120.00522478
_symmetry_Int_Tables_number   1
_chemical_formula_structural   Ti(CuTe)4
_chemical_formula_sum   'Ti24 Cu96 Te96'
_cell_volume   5113.94019912
_cell_formula_units_Z   24
loop_
 _symmetry_equiv_pos_site_id
 _symmetry_equiv_pos_as_xyz
  1  'x, y, z'
loop_
 _atom_type_symbol
 _atom_type_oxidation_number
  Ti4+  4.0
  Cu+  1.0
  Te2-  -2.0
loop_
 _atom_site_type_symbol
 _atom_site_label
 _atom_site_symmetry_multiplicity
 _atom_site_fract_x
 _atom_site_fract_y
 _atom_site_fract_z
 _atom_site_occupancy
  Ti4+  Ti0  1  -0.00278400  -0.00095728  0.25671232  1
  Ti4+  Ti1  1  -0.00142330  0.49914769  0.25628361  1
  Ti4+  Ti2  1  0.49639961  -0.00233167  0.25635857  1
  Ti4+  Ti3  1  0.49793604  0.49829215  0.26066638  1
  Ti4+  Ti4  1  0.33569317  0.17113959  0.59114002  1
  Ti4+  Ti5  1  0.33004025  0.66522613  0.59292308  1
  Ti4+  Ti6  1  0.83319813  0.16788076  0.59120243  1
  Ti4+  Ti7  1  0.83463492  0.66491870  0.59053933  1
  Ti4+  Ti8  1  0.17119635  0.33370066  0.92559856  1
  Ti4+  Ti9  1  0.16732438  0.83538721  0.92268876  1
  Ti4+  Ti10  1  0.67044050  0.33284551  0.92811056  1
  Ti4+  Ti11  1  0.66640029  0.83199040  0.91957721  1
  Ti4+  Ti12  1  0.00158684  -0.00051849  0.75298159  1
  Ti4+  Ti13  1  0.00014713  0.50039490  0.75796429  1
  Ti4+  Ti14  1  0.50209653  0.00154750  0.75363994  1
  Ti4+  Ti15  1  0.49969749  0.50123525  0.75664278  1
  Ti4+  Ti16  1  0.33519509  0.16706599  0.08912961  1
  Ti4+  Ti17  1  0.33302127  0.66659967  0.09017866  1
  Ti4+  Ti18  1  0.83444192  0.16587295  0.08604116  1
  Ti4+  Ti19  1  0.83418321  0.66716245  0.08872978  1
  Ti4+  Ti20  1  0.16654993  0.33383890  0.42215001  1
  Ti4+  Ti21  1  0.16477916  0.83175812  0.42358956  1
  Ti4+  Ti22  1  0.66609463  0.33348469  0.42193039  1
  Ti4+  Ti23  1  0.66532579  0.83373178  0.42245860  1
  Cu+  Cu24  1  0.57872499  0.42830107  0.47831470  1
  Cu+  Cu25  1  0.69052615  0.09672426  0.80658897  1
  Cu+  Cu26  1  0.73789997  0.48417855  0.14610499  1
  Cu+  Cu27  1  0.19134195  0.09520089  0.80468078  1
  Cu+  Cu28  1  0.23587764  0.76097582  0.13965904  1
  Cu+  Cu29  1  0.90701937  0.81059546  0.80425962  1
  Cu+  Cu30  1  0.40756299  0.81960819  0.80871439  1
  Cu+  Cu31  1  0.06977993  0.63926257  0.47245481  1
  Cu+  Cu32  1  0.73902303  0.25157699  0.14508822  1
  Cu+  Cu33  1  0.34949819  0.42864251  0.47903495  1
  Cu+  Cu34  1  0.23833766  0.47734801  0.14346464  1
  Cu+  Cu35  1  0.40361686  0.58898727  0.81033765  1
  Cu+  Cu36  1  0.16318343  0.08150148  0.17170721  1
  Cu+  Cu37  1  0.16413813  0.58304448  0.17026618  1
  Cu+  Cu38  1  0.66129410  0.07937367  0.16931076  1
  Cu+  Cu39  1  0.66314235  0.58045821  0.17360278  1
  Cu+  Cu40  1  0.41742157  0.33592299  0.17259507  1
  Cu+  Cu41  1  0.41141966  0.83533637  0.17066510  1
  Cu+  Cu42  1  0.91555291  0.33552269  0.16736103  1
  Cu+  Cu43  1  0.91682221  0.83850644  0.17055197  1
  Cu+  Cu44  1  0.41645282  0.07896145  0.16954048  1
  Cu+  Cu45  1  0.41225681  0.57670340  0.17371635  1
  Cu+  Cu46  1  0.91741377  0.07926890  0.16909919  1
  Cu+  Cu47  1  0.91549907  0.57997605  0.16967250  1
  Cu+  Cu48  1  0.49743358  0.25398842  0.50359230  1
  Cu+  Cu49  1  0.49685101  0.74939785  0.50627582  1
  Cu+  Cu50  1  0.99597198  0.25063719  0.50483305  1
  Cu+  Cu51  1  0.99862858  0.74220368  0.50475582  1
  Cu+  Cu52  1  0.25086272  0.00414211  0.50631226  1
  Cu+  Cu53  1  0.25321338  0.50518383  0.50449427  1
  Cu+  Cu54  1  0.74879370  0.00401813  0.50516534  1
  Cu+  Cu55  1  0.75233827  0.50527251  0.50352908  1
  Cu+  Cu56  1  0.25557457  0.25363267  0.50396221  1
  Cu+  Cu57  1  0.24386532  0.74371967  0.50624854  1
  Cu+  Cu58  1  0.75197984  0.24847927  0.50515426  1
  Cu+  Cu59  1  0.75238564  0.75108559  0.50444223  1
  Cu+  Cu60  1  0.33004462  0.41721288  0.83933542  1
  Cu+  Cu61  1  0.32931938  0.91403301  0.83531756  1
  Cu+  Cu62  1  0.83208805  0.41555699  0.84188340  1
  Cu+  Cu63  1  0.83021539  0.90860839  0.83169887  1
  Cu+  Cu64  1  0.09246183  0.16820119  0.83682455  1
  Cu+  Cu65  1  0.08607195  0.67092559  0.83782573  1
  Cu+  Cu66  1  0.59246522  0.17131756  0.83852877  1
  Cu+  Cu67  1  0.58110736  0.67037305  0.83412079  1
  Cu+  Cu68  1  0.08655036  0.41687705  0.84041067  1
  Cu+  Cu69  1  0.08592112  0.91715626  0.83391449  1
  Cu+  Cu70  1  0.58746910  0.41765351  0.84218372  1
  Cu+  Cu71  1  0.58629710  0.91637225  0.83214375  1
  Cu+  Cu72  1  0.17293220  0.08819203  0.67680074  1
  Cu+  Cu73  1  0.16588325  0.58291823  0.67659041  1
  Cu+  Cu74  1  0.67176737  0.08767884  0.67797617  1
  Cu+  Cu75  1  0.66886217  0.58361111  0.67585114  1
  Cu+  Cu76  1  0.41738988  0.33497432  0.67820234  1
  Cu+  Cu77  1  0.41358390  0.83040364  0.67834913  1
  Cu+  Cu78  1  0.91433192  0.33141922  0.67631760  1
  Cu+  Cu79  1  0.91688925  0.82872997  0.67535384  1
  Cu+  Cu80  1  0.41859823  0.08831104  0.67365424  1
  Cu+  Cu81  1  0.41371946  0.58425738  0.68146881  1
  Cu+  Cu82  1  0.91584670  0.08521366  0.67233889  1
  Cu+  Cu83  1  0.91584541  0.58227065  0.67636019  1
  Cu+  Cu84  1  0.00651425  0.25024568  0.00749313  1
  Cu+  Cu85  1  0.00188806  0.75371994  0.00731446  1
  Cu+  Cu86  1  0.50532909  0.25144267  0.01016519  1
  Cu+  Cu87  1  0.50264595  0.75117340  0.00720516  1
  Cu+  Cu88  1  0.25123426  0.49710967  0.01497720  1
  Cu+  Cu89  1  0.25095024  1.00033766  0.00719312  1
  Cu+  Cu90  1  0.75083672  0.49683095  0.01614552  1
  Cu+  Cu91  1  0.75092957  0.99702332  0.00329766  1
  Cu+  Cu92  1  0.25422725  0.25257980  0.00918365  1
  Cu+  Cu93  1  0.25005264  0.75379066  0.01192182  1
  Cu+  Cu94  1  0.75141094  0.25067228  0.01436727  1
  Cu+  Cu95  1  0.74952440  0.74989589  0.00525010  1
  Cu+  Cu96  1  0.33408858  0.41659178  0.34869124  1
  Cu+  Cu97  1  0.33266304  0.91685395  0.34206621  1
  Cu+  Cu98  1  0.83222174  0.41513452  0.34286880  1
  Cu+  Cu99  1  0.83380691  0.91900713  0.34042817  1
  Cu+  Cu100  1  0.07953808  0.16226135  0.34034574  1
  Cu+  Cu101  1  0.08083923  0.66285241  0.34439876  1
  Cu+  Cu102  1  0.58139130  0.16222853  0.34177689  1
  Cu+  Cu103  1  0.58072846  0.66422336  0.34302052  1
  Cu+  Cu104  1  0.08273379  0.41686128  0.34108815  1
  Cu+  Cu105  1  0.07981277  0.91845395  0.34051369  1
  Cu+  Cu106  1  0.58159809  0.41735688  0.34867984  1
  Cu+  Cu107  1  0.57964102  0.91719263  0.33958023  1
  Cu+  Cu108  1  0.00227591  0.00080315  0.11282206  1
  Cu+  Cu109  1  0.00072366  0.50011162  0.11209254  1
  Cu+  Cu110  1  0.50098015  -0.00170108  0.11201554  1
  Cu+  Cu111  1  0.50157570  0.50312884  0.11758193  1
  Cu+  Cu112  1  0.33150215  0.16302612  0.44787047  1
  Cu+  Cu113  1  0.33515992  0.67184002  0.44989100  1
  Cu+  Cu114  1  0.83376885  0.16598787  0.44800322  1
  Cu+  Cu115  1  0.83503149  0.67241935  0.44768675  1
  Cu+  Cu116  1  0.16028180  0.33017644  0.78318747  1
  Cu+  Cu117  1  0.16714098  0.83375753  0.77798532  1
  Cu+  Cu118  1  0.66608957  0.33652803  0.78576323  1
  Cu+  Cu119  1  0.66925372  0.83559199  0.77370022  1
  Te2-  Te120  1  -0.00276595  -0.00085714  0.38628753  1
  Te2-  Te121  1  -0.00269258  0.49549648  0.38626431  1
  Te2-  Te122  1  0.49721006  -0.00200162  0.38538793  1
  Te2-  Te123  1  0.50025548  0.50234906  0.39258316  1
  Te2-  Te124  1  0.33869760  0.17049679  0.72167448  1
  Te2-  Te125  1  0.32867661  0.66561105  0.72500827  1
  Te2-  Te126  1  0.83735842  0.16807205  0.72248183  1
  Te2-  Te127  1  0.83288291  0.66339979  0.72098660  1
  Te2-  Te128  1  0.16866477  0.33027182  0.05619033  1
  Te2-  Te129  1  0.16551628  0.83663139  0.05304103  1
  Te2-  Te130  1  0.66680138  0.33119951  0.06043534  1
  Te2-  Te131  1  0.66797722  0.83319849  0.04813647  1
  Te2-  Te132  1  0.50055026  0.24770716  0.88392200  1
  Te2-  Te133  1  0.48931442  0.74652158  0.88155065  1
  Te2-  Te134  1  1.00178067  0.24653835  0.88116811  1
  Te2-  Te135  1  0.99454132  0.74743455  0.88131565  1
  Te2-  Te136  1  0.25627223  0.00785731  0.88100658  1
  Te2-  Te137  1  0.25294825  0.50821966  0.88773836  1
  Te2-  Te138  1  0.75640775  0.00374744  0.87724498  1
  Te2-  Te139  1  0.75451656  0.50450775  0.88869720  1
  Te2-  Te140  1  0.26108206  0.25023592  0.88344583  1
  Te2-  Te141  1  0.25228961  0.74618449  0.88476117  1
  Te2-  Te142  1  0.75971321  0.24815976  0.88697334  1
  Te2-  Te143  1  0.74881411  0.74094464  0.87947152  1
  Te2-  Te144  1  0.32399133  0.40847973  0.22076883  1
  Te2-  Te145  1  0.32109053  0.91323215  0.21635579  1
  Te2-  Te146  1  0.82244127  0.41059992  0.21682146  1
  Te2-  Te147  1  0.82431188  0.91314769  0.21499084  1
  Te2-  Te148  1  0.08434181  0.17133525  0.21476931  1
  Te2-  Te149  1  0.08262126  0.67163937  0.21691551  1
  Te2-  Te150  1  0.58287978  0.17168851  0.21610296  1
  Te2-  Te151  1  0.58175122  0.66758431  0.21672393  1
  Te2-  Te152  1  0.08272834  0.41126042  0.21496381  1
  Te2-  Te153  1  0.08406245  0.91325943  0.21501710  1
  Te2-  Te154  1  0.58336734  0.41031269  0.22094292  1
  Te2-  Te155  1  0.58105511  0.91177457  0.21342247  1
  Te2-  Te156  1  0.16488415  0.08662003  0.55010621  1
  Te2-  Te157  1  0.15671583  0.57444416  0.55071328  1
  Te2-  Te158  1  0.66053630  0.08242384  0.55165346  1
  Te2-  Te159  1  0.66102242  0.58346496  0.55016362  1
  Te2-  Te160  1  0.42384843  0.34828490  0.55236364  1
  Te2-  Te161  1  0.41336054  0.83440358  0.55057845  1
  Te2-  Te162  1  0.91879219  0.34022966  0.55065953  1
  Te2-  Te163  1  0.92125851  0.83451861  0.54803800  1
  Te2-  Te164  1  0.42085830  0.08613956  0.54778321  1
  Te2-  Te165  1  0.42117436  0.58280558  0.55381781  1
  Te2-  Te166  1  0.91825365  0.08206246  0.54694158  1
  Te2-  Te167  1  0.91758784  0.57361189  0.55046159  1
  Te2-  Te168  1  -0.00177086  -0.00161191  0.88043217  1
  Te2-  Te169  1  0.00252130  0.50190151  0.88418836  1
  Te2-  Te170  1  0.50018644  -0.00047267  0.88114928  1
  Te2-  Te171  1  0.50148809  0.50207861  0.88356333  1
  Te2-  Te172  1  0.33274103  0.16497822  0.21519975  1
  Te2-  Te173  1  0.33267483  0.66677894  0.21757682  1
  Te2-  Te174  1  0.83249890  0.16508505  0.21301768  1
  Te2-  Te175  1  0.83428695  0.66866595  0.21569510  1
  Te2-  Te176  1  0.16593573  0.33447466  0.54903631  1
  Te2-  Te177  1  0.16715266  0.83588283  0.55039838  1
  Te2-  Te178  1  0.66780102  0.33478038  0.54873378  1
  Te2-  Te179  1  0.66683356  0.83469887  0.54869550  1
  Te2-  Te180  1  0.32510958  0.41222546  0.71296040  1
  Te2-  Te181  1  0.32843813  0.91783642  0.70854837  1
  Te2-  Te182  1  0.82771272  0.41354881  0.71550607  1
  Te2-  Te183  1  0.82945712  0.91452386  0.70517222  1
  Te2-  Te184  1  0.08574706  0.17299284  0.70947979  1
  Te2-  Te185  1  0.08556903  0.67188570  0.71186256  1
  Te2-  Te186  1  0.58791553  0.17580382  0.71149690  1
  Te2-  Te187  1  0.58761648  0.67303367  0.70812409  1
  Te2-  Te188  1  0.08465681  0.41357158  0.71344925  1
  Te2-  Te189  1  0.08960261  0.91476250  0.70633270  1
  Te2-  Te190  1  0.58709076  0.41535511  0.71481015  1
  Te2-  Te191  1  0.58706423  0.91389921  0.70522562  1
  Te2-  Te192  1  0.16352703  0.08219388  0.04463701  1
  Te2-  Te193  1  0.16076962  0.58076279  0.04272948  1
  Te2-  Te194  1  0.66150138  0.07692419  0.04141111  1
  Te2-  Te195  1  0.66115519  0.58093806  0.04536879  1
  Te2-  Te196  1  0.42364650  0.34029061  0.04664546  1
  Te2-  Te197  1  0.42162061  0.83904002  0.04365260  1
  Te2-  Te198  1  0.92513473  0.33964135  0.04130619  1
  Te2-  Te199  1  0.91821869  0.83900282  0.04397783  1
  Te2-  Te200  1  0.42067135  0.08048021  0.04371008  1
  Te2-  Te201  1  0.42306387  0.58294142  0.04634503  1
  Te2-  Te202  1  0.92028378  0.07963970  0.04243340  1
  Te2-  Te203  1  0.92418429  0.58403337  0.04332395  1
  Te2-  Te204  1  0.49268937  0.24406987  0.37711211  1
  Te2-  Te205  1  0.49353483  0.74753467  0.37900766  1
  Te2-  Te206  1  0.99452568  0.24715583  0.37805659  1
  Te2-  Te207  1  0.99360506  0.74803175  0.37723217  1
  Te2-  Te208  1  0.24917132  0.00305395  0.37919608  1
  Te2-  Te209  1  0.25204533  0.50779722  0.37774511  1
  Te2-  Te210  1  0.74944275  0.00452145  0.37807390  1
  Te2-  Te211  1  0.75486999  0.50771221  0.37709436  1
  Te2-  Te212  1  0.24942749  0.24356103  0.37754519  1
  Te2-  Te213  1  0.25233051  0.74711198  0.37857231  1
  Te2-  Te214  1  0.75103776  0.24540209  0.37881279  1
  Te2-  Te215  1  0.75156808  0.74866767  0.37770435  1
