# generated using pymatgen
data_Ti(CuTe)4
_symmetry_space_group_name_H-M   'P 1'
_cell_length_a   16.90063221
_cell_length_b   16.90007012
_cell_length_c   20.72402025
_cell_angle_alpha   90.00181252
_cell_angle_beta   90.00084733
_cell_angle_gamma   119.99536662
_symmetry_Int_Tables_number   1
_chemical_formula_structural   Ti(CuTe)4
_chemical_formula_sum   'Ti24 Cu96 Te96'
_cell_volume   5126.44581513
_cell_formula_units_Z   24
loop_
 _symmetry_equiv_pos_site_id
 _symmetry_equiv_pos_as_xyz
  1  'x, y, z'
loop_
 _atom_type_symbol
 _atom_type_oxidation_number
  Ti4+  4.0
  Cu+  1.0
  Te2-  -2.0
loop_
 _atom_site_type_symbol
 _atom_site_label
 _atom_site_symmetry_multiplicity
 _atom_site_fract_x
 _atom_site_fract_y
 _atom_site_fract_z
 _atom_site_occupancy
  Ti4+  Ti0  1  -0.00368298  -0.00154461  0.26087025  1
  Ti4+  Ti1  1  -0.00308739  0.50175098  0.25883256  1
  Ti4+  Ti2  1  0.49584428  -0.00152258  0.25511191  1
  Ti4+  Ti3  1  0.50145069  0.50041545  0.25757224  1
  Ti4+  Ti4  1  0.33471991  0.16865840  0.58806618  1
  Ti4+  Ti5  1  0.33248157  0.66536306  0.58938810  1
  Ti4+  Ti6  1  0.83538701  0.16698755  0.58889500  1
  Ti4+  Ti7  1  0.83419556  0.66840879  0.59802963  1
  Ti4+  Ti8  1  0.16649906  0.33382494  0.92244673  1
  Ti4+  Ti9  1  0.16836516  0.83264537  0.92346627  1
  Ti4+  Ti10  1  0.66940821  0.33318277  0.92323188  1
  Ti4+  Ti11  1  0.66835200  0.83270154  0.92544866  1
  Ti4+  Ti12  1  0.00070089  0.00104931  0.75541157  1
  Ti4+  Ti13  1  0.00196223  0.49859892  0.75362656  1
  Ti4+  Ti14  1  0.50048747  0.00024404  0.75415427  1
  Ti4+  Ti15  1  0.50092230  0.50068850  0.75537965  1
  Ti4+  Ti16  1  0.33398900  0.16680617  0.08819533  1
  Ti4+  Ti17  1  0.33241990  0.66771591  0.08905376  1
  Ti4+  Ti18  1  0.83425735  0.16631200  0.09020209  1
  Ti4+  Ti19  1  0.83236515  0.66539605  0.08985899  1
  Ti4+  Ti20  1  0.16686286  0.33555027  0.41799365  1
  Ti4+  Ti21  1  0.16469401  0.83308270  0.42340715  1
  Ti4+  Ti22  1  0.66532532  0.33252971  0.42334498  1
  Ti4+  Ti23  1  0.66597853  0.83333278  0.42303856  1
  Cu+  Cu24  1  0.73896555  0.75931842  0.14450641  1
  Cu+  Cu25  1  0.23535487  0.76080787  0.14142398  1
  Cu+  Cu26  1  0.07395739  0.42759415  0.47336294  1
  Cu+  Cu27  1  0.73697179  0.47639875  0.14126394  1
  Cu+  Cu28  1  0.18871971  0.59221399  0.80615617  1
  Cu+  Cu29  1  0.91319943  0.82430587  0.81748517  1
  Cu+  Cu30  1  0.08194372  0.15952580  0.47853870  1
  Cu+  Cu31  1  0.35172348  0.42678553  0.47342127  1
  Cu+  Cu32  1  0.90800398  0.31119283  0.80597322  1
  Cu+  Cu33  1  0.85021837  0.92039044  0.47846493  1
  Cu+  Cu34  1  0.67916762  0.58933792  0.81587523  1
  Cu+  Cu35  1  0.91699688  0.58446828  0.81960353  1
  Cu+  Cu36  1  0.16419668  0.08177533  0.17349135  1
  Cu+  Cu37  1  0.16328509  0.58804728  0.17243287  1
  Cu+  Cu38  1  0.66316308  0.08117088  0.17094675  1
  Cu+  Cu39  1  0.66269982  0.58057796  0.16998254  1
  Cu+  Cu40  1  0.41855806  0.33572296  0.17066328  1
  Cu+  Cu41  1  0.41137896  0.83614968  0.16912512  1
  Cu+  Cu42  1  0.91562370  0.33477256  0.17320511  1
  Cu+  Cu43  1  0.91265208  0.83684808  0.17282143  1
  Cu+  Cu44  1  0.41693139  0.08125684  0.16851958  1
  Cu+  Cu45  1  0.41790153  0.58254984  0.17137698  1
  Cu+  Cu46  1  0.91580208  0.07981551  0.17381554  1
  Cu+  Cu47  1  0.91333126  0.57667087  0.17064116  1
  Cu+  Cu48  1  0.49782569  0.24871968  0.50264815  1
  Cu+  Cu49  1  0.49619975  0.74791255  0.50290870  1
  Cu+  Cu50  1  0.99445624  0.24968689  0.49938606  1
  Cu+  Cu51  1  0.99673073  0.74901909  0.50974832  1
  Cu+  Cu52  1  0.25104020  0.00202148  0.50284687  1
  Cu+  Cu53  1  0.25217137  0.50602865  0.49988175  1
  Cu+  Cu54  1  0.75506497  0.00188663  0.50223997  1
  Cu+  Cu55  1  0.75009699  0.50103385  0.51104384  1
  Cu+  Cu56  1  0.25722048  0.24964909  0.49909573  1
  Cu+  Cu57  1  0.24955933  0.74784322  0.50413368  1
  Cu+  Cu58  1  0.75102301  0.24840611  0.50354048  1
  Cu+  Cu59  1  0.75330821  0.74993046  0.50991679  1
  Cu+  Cu60  1  0.32999959  0.41491449  0.83632111  1
  Cu+  Cu61  1  0.33270202  0.91513097  0.83645150  1
  Cu+  Cu62  1  0.82796782  0.40940561  0.83436540  1
  Cu+  Cu63  1  0.82942118  0.91306135  0.83828855  1
  Cu+  Cu64  1  0.08517589  0.17141581  0.83585631  1
  Cu+  Cu65  1  0.09277137  0.67290999  0.83490518  1
  Cu+  Cu66  1  0.58568540  0.16811365  0.83577434  1
  Cu+  Cu67  1  0.58814818  0.67099590  0.83838325  1
  Cu+  Cu68  1  0.08686499  0.41271383  0.83345441  1
  Cu+  Cu69  1  0.08596509  0.91524715  0.83711583  1
  Cu+  Cu70  1  0.58775159  0.41675686  0.83701640  1
  Cu+  Cu71  1  0.58548645  0.91647300  0.83826311  1
  Cu+  Cu72  1  0.17117726  0.08781690  0.67275752  1
  Cu+  Cu73  1  0.17086339  0.58347405  0.67716737  1
  Cu+  Cu74  1  0.66903941  0.08415475  0.67284295  1
  Cu+  Cu75  1  0.67086634  0.58706868  0.68380190  1
  Cu+  Cu76  1  0.41550998  0.33200148  0.67231755  1
  Cu+  Cu77  1  0.41531894  0.83127783  0.67353351  1
  Cu+  Cu78  1  0.91696593  0.32984961  0.67698227  1
  Cu+  Cu79  1  0.91536430  0.83214883  0.68484949  1
  Cu+  Cu80  1  0.41572554  0.08538024  0.67191141  1
  Cu+  Cu81  1  0.41430976  0.58235157  0.67402007  1
  Cu+  Cu82  1  0.91855652  0.08623348  0.67451766  1
  Cu+  Cu83  1  0.91604259  0.58538635  0.68493424  1
  Cu+  Cu84  1  0.00267136  0.25107256  0.00839357  1
  Cu+  Cu85  1  0.00220816  0.75019453  0.01034119  1
  Cu+  Cu86  1  0.50346490  0.25272394  0.00681827  1
  Cu+  Cu87  1  0.50341796  0.74978935  0.00824508  1
  Cu+  Cu88  1  0.24841556  0.49800419  0.00734561  1
  Cu+  Cu89  1  0.25018374  0.99911137  0.00719820  1
  Cu+  Cu90  1  0.75090705  0.49660109  0.01340864  1
  Cu+  Cu91  1  0.75242599  0.99761304  0.00908158  1
  Cu+  Cu92  1  0.24856574  0.25082396  0.00705961  1
  Cu+  Cu93  1  0.24829850  0.75058489  0.01184752  1
  Cu+  Cu94  1  0.75268104  0.25145625  0.00785919  1
  Cu+  Cu95  1  0.74984241  0.75120382  0.01546072  1
  Cu+  Cu96  1  0.33717027  0.41978805  0.34395586  1
  Cu+  Cu97  1  0.33213280  0.91595761  0.33958740  1
  Cu+  Cu98  1  0.83243472  0.41801289  0.34381748  1
  Cu+  Cu99  1  0.83335061  0.91633156  0.34886593  1
  Cu+  Cu100  1  0.07886027  0.16361885  0.34687316  1
  Cu+  Cu101  1  0.07948826  0.66583372  0.34324963  1
  Cu+  Cu102  1  0.57973098  0.16233280  0.33892358  1
  Cu+  Cu103  1  0.58269521  0.66536523  0.34296224  1
  Cu+  Cu104  1  0.08114364  0.42239257  0.34424022  1
  Cu+  Cu105  1  0.07811610  0.91571484  0.34356323  1
  Cu+  Cu106  1  0.58334633  0.41817995  0.34263843  1
  Cu+  Cu107  1  0.57746116  0.91655974  0.33830590  1
  Cu+  Cu108  1  0.00349514  0.00192174  0.11820703  1
  Cu+  Cu109  1  0.00137591  0.49646591  0.11643983  1
  Cu+  Cu110  1  0.50253321  0.00157712  0.11221673  1
  Cu+  Cu111  1  0.49426166  0.49742585  0.11406945  1
  Cu+  Cu112  1  0.33635312  0.16256982  0.44404274  1
  Cu+  Cu113  1  0.33553522  0.67370852  0.44510272  1
  Cu+  Cu114  1  0.82657213  0.16404398  0.44464499  1
  Cu+  Cu115  1  0.83163058  0.66264528  0.45645761  1
  Cu+  Cu116  1  0.17097178  0.33111936  0.77758052  1
  Cu+  Cu117  1  0.17265156  0.84031048  0.77947274  1
  Cu+  Cu118  1  0.66021006  0.32825731  0.77900329  1
  Cu+  Cu119  1  0.66429284  0.83545508  0.78235040  1
  Te2-  Te120  1  -0.00070358  -0.00103275  0.39284311  1
  Te2-  Te121  1  -0.00374325  0.50230530  0.38918365  1
  Te2-  Te122  1  0.49619677  -0.00138316  0.38393590  1
  Te2-  Te123  1  0.50264489  0.50144433  0.38773938  1
  Te2-  Te124  1  0.33501336  0.16829373  0.71658751  1
  Te2-  Te125  1  0.33671705  0.66807122  0.71976069  1
  Te2-  Te126  1  0.83238108  0.16370032  0.71905152  1
  Te2-  Te127  1  0.83473107  0.66789874  0.73157487  1
  Te2-  Te128  1  0.16736077  0.33383669  0.05089403  1
  Te2-  Te129  1  0.16660652  0.83557095  0.05347570  1
  Te2-  Te130  1  0.66665456  0.32940927  0.05329056  1
  Te2-  Te131  1  0.66624164  0.83434030  0.05612398  1
  Te2-  Te132  1  0.49965232  0.24999862  0.88075083  1
  Te2-  Te133  1  0.49865391  0.74783753  0.88242286  1
  Te2-  Te134  1  0.99211166  0.24467430  0.88221015  1
  Te2-  Te135  1  0.99314406  0.74423983  0.88456723  1
  Te2-  Te136  1  0.25216051  0.00273847  0.88133934  1
  Te2-  Te137  1  0.25545502  0.50790472  0.88141725  1
  Te2-  Te138  1  0.75362036  0.00275783  0.88322044  1
  Te2-  Te139  1  0.75771283  0.50877715  0.88592409  1
  Te2-  Te140  1  0.25186763  0.24785087  0.88120510  1
  Te2-  Te141  1  0.25741254  0.74799083  0.88431618  1
  Te2-  Te142  1  0.75316903  0.24367294  0.88199299  1
  Te2-  Te143  1  0.75697083  0.74434645  0.88825865  1
  Te2-  Te144  1  0.33067866  0.41542044  0.21694342  1
  Te2-  Te145  1  0.32125081  0.91484612  0.21429256  1
  Te2-  Te146  1  0.82304058  0.40990192  0.21805661  1
  Te2-  Te147  1  0.82193821  0.91320710  0.22133255  1
  Te2-  Te148  1  0.08302428  0.16855352  0.21950479  1
  Te2-  Te149  1  0.07985374  0.67495792  0.21713932  1
  Te2-  Te150  1  0.58365820  0.16992612  0.21345803  1
  Te2-  Te151  1  0.58568629  0.67345377  0.21683397  1
  Te2-  Te152  1  0.08476996  0.41949514  0.21710489  1
  Te2-  Te153  1  0.07982252  0.91256554  0.21739300  1
  Te2-  Te154  1  0.58586591  0.41181308  0.21660999  1
  Te2-  Te155  1  0.57978883  0.91163619  0.21260378  1
  Te2-  Te156  1  0.16107178  0.08042086  0.54720085  1
  Te2-  Te157  1  0.15882557  0.57984733  0.55003849  1
  Te2-  Te158  1  0.66543537  0.07990739  0.54690972  1
  Te2-  Te159  1  0.66458700  0.58408661  0.55618485  1
  Te2-  Te160  1  0.42381788  0.34274658  0.54680925  1
  Te2-  Te161  1  0.41756690  0.83594696  0.54781074  1
  Te2-  Te162  1  0.91926305  0.34038602  0.54976608  1
  Te2-  Te163  1  0.92270359  0.84148261  0.55700333  1
  Te2-  Te164  1  0.41842624  0.08148686  0.54639899  1
  Te2-  Te165  1  0.42077005  0.58047119  0.54806187  1
  Te2-  Te166  1  0.92428502  0.08052946  0.54873040  1
  Te2-  Te167  1  0.91797114  0.58241875  0.55695975  1
  Te2-  Te168  1  0.00181736  0.00184032  0.88236476  1
  Te2-  Te169  1  0.00182209  0.49914006  0.88167353  1
  Te2-  Te170  1  0.50084433  0.00042496  0.88075007  1
  Te2-  Te171  1  0.49947963  0.49907243  0.88234257  1
  Te2-  Te172  1  0.33391104  0.16661491  0.21436624  1
  Te2-  Te173  1  0.33319716  0.66731053  0.21569646  1
  Te2-  Te174  1  0.83123613  0.16544826  0.21601920  1
  Te2-  Te175  1  0.83246734  0.66610655  0.21697839  1
  Te2-  Te176  1  0.16763940  0.33336446  0.54585619  1
  Te2-  Te177  1  0.16777138  0.83435118  0.54942041  1
  Te2-  Te178  1  0.66524072  0.33036002  0.54944241  1
  Te2-  Te179  1  0.66456879  0.83366682  0.54986527  1
  Te2-  Te180  1  0.32938648  0.41400453  0.70986760  1
  Te2-  Te181  1  0.32935363  0.91531365  0.70936552  1
  Te2-  Te182  1  0.82643782  0.41173024  0.70834696  1
  Te2-  Te183  1  0.82683582  0.91670065  0.71146949  1
  Te2-  Te184  1  0.08737850  0.17254293  0.70955481  1
  Te2-  Te185  1  0.08956222  0.67444180  0.70886726  1
  Te2-  Te186  1  0.58591471  0.17110163  0.70876040  1
  Te2-  Te187  1  0.58436262  0.67379530  0.71126648  1
  Te2-  Te188  1  0.08883858  0.41152091  0.70704386  1
  Te2-  Te189  1  0.08982193  0.91788341  0.70995212  1
  Te2-  Te190  1  0.58525088  0.41293851  0.70960943  1
  Te2-  Te191  1  0.58585567  0.91416837  0.71057554  1
  Te2-  Te192  1  0.16216175  0.08104014  0.04570496  1
  Te2-  Te193  1  0.16009794  0.57878974  0.04471290  1
  Te2-  Te194  1  0.66398558  0.08067004  0.04360284  1
  Te2-  Te195  1  0.65894115  0.57767564  0.04315341  1
  Te2-  Te196  1  0.41905206  0.33818314  0.04371984  1
  Te2-  Te197  1  0.42153362  0.83897524  0.04213087  1
  Te2-  Te198  1  0.92079680  0.33840392  0.04622054  1
  Te2-  Te199  1  0.92210741  0.83954791  0.04595822  1
  Te2-  Te200  1  0.42041036  0.08189811  0.04212763  1
  Te2-  Te201  1  0.41783487  0.58067623  0.04481341  1
  Te2-  Te202  1  0.92146365  0.08116681  0.04703205  1
  Te2-  Te203  1  0.92246160  0.58111408  0.04483954  1
  Te2-  Te204  1  0.49504856  0.24726386  0.37603894  1
  Te2-  Te205  1  0.49490506  0.74796056  0.37658158  1
  Te2-  Te206  1  0.99135240  0.24922764  0.37326794  1
  Te2-  Te207  1  0.99114454  0.74668477  0.38265525  1
  Te2-  Te208  1  0.24956700  0.00341393  0.37617175  1
  Te2-  Te209  1  0.25407573  0.51001015  0.37330203  1
  Te2-  Te210  1  0.74730066  0.00433886  0.37542430  1
  Te2-  Te211  1  0.75174946  0.50603515  0.38320144  1
  Te2-  Te212  1  0.25285670  0.24658084  0.37275959  1
  Te2-  Te213  1  0.24971996  0.74710238  0.37738114  1
  Te2-  Te214  1  0.74973957  0.24660355  0.37670278  1
  Te2-  Te215  1  0.75131575  0.74431335  0.38218035  1
