# generated using pymatgen
data_Ti(CuTe)4
_symmetry_space_group_name_H-M   'P 1'
_cell_length_a   16.89009431
_cell_length_b   16.88686652
_cell_length_c   20.70712764
_cell_angle_alpha   89.98201595
_cell_angle_beta   89.98545171
_cell_angle_gamma   120.00085176
_symmetry_Int_Tables_number   1
_chemical_formula_structural   Ti(CuTe)4
_chemical_formula_sum   'Ti24 Cu96 Te96'
_cell_volume   5114.79037757
_cell_formula_units_Z   24
loop_
 _symmetry_equiv_pos_site_id
 _symmetry_equiv_pos_as_xyz
  1  'x, y, z'
loop_
 _atom_type_symbol
 _atom_type_oxidation_number
  Ti4+  4.0
  Cu+  1.0
  Te2-  -2.0
loop_
 _atom_site_type_symbol
 _atom_site_label
 _atom_site_symmetry_multiplicity
 _atom_site_fract_x
 _atom_site_fract_y
 _atom_site_fract_z
 _atom_site_occupancy
  Ti4+  Ti0  1  -0.00096380  0.00348053  0.25361158  1
  Ti4+  Ti1  1  -0.00003101  0.50259067  0.25473380  1
  Ti4+  Ti2  1  0.49782207  -0.00195074  0.25749012  1
  Ti4+  Ti3  1  0.50022676  0.49939970  0.25802809  1
  Ti4+  Ti4  1  0.33479085  0.16651984  0.59230285  1
  Ti4+  Ti5  1  0.33369382  0.66318041  0.59136653  1
  Ti4+  Ti6  1  0.82995877  0.16505626  0.59317207  1
  Ti4+  Ti7  1  0.83341063  0.66616671  0.59063033  1
  Ti4+  Ti8  1  0.16932911  0.33627082  0.92580543  1
  Ti4+  Ti9  1  0.16934947  0.83429156  0.92106756  1
  Ti4+  Ti10  1  0.66545141  0.33166441  0.92927328  1
  Ti4+  Ti11  1  0.66838733  0.83482151  0.92366975  1
  Ti4+  Ti12  1  -0.00079864  -0.00074719  0.75435393  1
  Ti4+  Ti13  1  0.00166892  0.49980235  0.75673855  1
  Ti4+  Ti14  1  0.49971097  -0.00067509  0.75620764  1
  Ti4+  Ti15  1  0.49988765  0.49805300  0.75752271  1
  Ti4+  Ti16  1  0.33331136  0.16812387  0.08797088  1
  Ti4+  Ti17  1  0.33279888  0.66832780  0.08854720  1
  Ti4+  Ti18  1  0.83403049  0.16525024  0.08582592  1
  Ti4+  Ti19  1  0.83407389  0.66677086  0.08558123  1
  Ti4+  Ti20  1  0.16762368  0.33508416  0.42326788  1
  Ti4+  Ti21  1  0.16440917  0.83300787  0.42222810  1
  Ti4+  Ti22  1  0.66505583  0.33049174  0.42359590  1
  Ti4+  Ti23  1  0.66625407  0.83355336  0.42171356  1
  Cu+  Cu24  1  0.23741727  0.76468146  0.13719609  1
  Cu+  Cu25  1  0.19266138  0.59480687  0.80669818  1
  Cu+  Cu26  1  0.50817492  0.25382624  0.15084028  1
  Cu+  Cu27  1  0.01437120  0.26017129  0.14172645  1
  Cu+  Cu28  1  0.40941392  0.09557475  0.81017106  1
  Cu+  Cu29  1  0.74652117  0.25139667  0.15000978  1
  Cu+  Cu30  1  0.68600051  0.09465118  0.81134792  1
  Cu+  Cu31  1  0.74365181  0.48934997  0.14629193  1
  Cu+  Cu32  1  0.35850438  0.42766447  0.47574981  1
  Cu+  Cu33  1  0.73788207  0.97816258  0.13922756  1
  Cu+  Cu34  1  0.56991576  0.13999667  0.47710883  1
  Cu+  Cu35  1  0.24451867  0.26293587  0.14202477  1
  Cu+  Cu36  1  0.16271978  0.08783432  0.16722774  1
  Cu+  Cu37  1  0.16426316  0.58899339  0.16798945  1
  Cu+  Cu38  1  0.66053020  0.07678066  0.16853194  1
  Cu+  Cu39  1  0.66393065  0.58119958  0.16923714  1
  Cu+  Cu40  1  0.41859792  0.34040018  0.17004344  1
  Cu+  Cu41  1  0.41241563  0.83535162  0.17020669  1
  Cu+  Cu42  1  0.92173531  0.34141582  0.16689785  1
  Cu+  Cu43  1  0.91844887  0.83824735  0.16640742  1
  Cu+  Cu44  1  0.41915762  0.08085708  0.16983700  1
  Cu+  Cu45  1  0.41721697  0.58258496  0.17151342  1
  Cu+  Cu46  1  0.91892061  0.08060062  0.16442902  1
  Cu+  Cu47  1  0.91781035  0.58083456  0.16638809  1
  Cu+  Cu48  1  0.49608509  0.24186543  0.50524846  1
  Cu+  Cu49  1  0.49698416  0.74608141  0.50421684  1
  Cu+  Cu50  1  0.99622633  0.25024012  0.50692224  1
  Cu+  Cu51  1  0.99495957  0.74723389  0.50424725  1
  Cu+  Cu52  1  0.25023550  0.00096726  0.50574135  1
  Cu+  Cu53  1  0.25583734  0.50181592  0.50474647  1
  Cu+  Cu54  1  0.74915248  0.00226923  0.50539895  1
  Cu+  Cu55  1  0.75200309  0.50312414  0.50619325  1
  Cu+  Cu56  1  0.25624412  0.25467815  0.50550840  1
  Cu+  Cu57  1  0.24711089  0.74486592  0.50637640  1
  Cu+  Cu58  1  0.74479343  0.24158565  0.50621080  1
  Cu+  Cu59  1  0.75016545  0.74709006  0.50393562  1
  Cu+  Cu60  1  0.33096984  0.41372580  0.83923243  1
  Cu+  Cu61  1  0.32934050  0.91738844  0.83528629  1
  Cu+  Cu62  1  0.83115827  0.41540398  0.84159831  1
  Cu+  Cu63  1  0.83077306  0.91627953  0.83650183  1
  Cu+  Cu64  1  0.08543443  0.16878798  0.83945587  1
  Cu+  Cu65  1  0.09267490  0.66897219  0.83599406  1
  Cu+  Cu66  1  0.58444414  0.16960452  0.84090913  1
  Cu+  Cu67  1  0.58349137  0.66825538  0.83893387  1
  Cu+  Cu68  1  0.09033091  0.42055128  0.83899690  1
  Cu+  Cu69  1  0.08499358  0.91579324  0.83457585  1
  Cu+  Cu70  1  0.58383480  0.41410643  0.84152703  1
  Cu+  Cu71  1  0.59053648  0.91926942  0.83763758  1
  Cu+  Cu72  1  0.16944199  0.08533251  0.67471990  1
  Cu+  Cu73  1  0.17094850  0.58178370  0.67798463  1
  Cu+  Cu74  1  0.66818923  0.08405049  0.68139338  1
  Cu+  Cu75  1  0.67062083  0.58334640  0.67517664  1
  Cu+  Cu76  1  0.41833956  0.33118833  0.67681157  1
  Cu+  Cu77  1  0.41455785  0.82785137  0.67408343  1
  Cu+  Cu78  1  0.91246928  0.33009556  0.67654380  1
  Cu+  Cu79  1  0.91384263  0.82981693  0.67309621  1
  Cu+  Cu80  1  0.41486046  0.08325960  0.68106623  1
  Cu+  Cu81  1  0.41520212  0.57940761  0.67640505  1
  Cu+  Cu82  1  0.91378622  0.08385964  0.67591533  1
  Cu+  Cu83  1  0.91449562  0.58391820  0.67441440  1
  Cu+  Cu84  1  0.00529529  0.25213312  0.01108729  1
  Cu+  Cu85  1  0.00315976  0.75043631  0.00268895  1
  Cu+  Cu86  1  0.50157132  0.25028831  0.01679086  1
  Cu+  Cu87  1  0.50455144  0.75312287  0.00726417  1
  Cu+  Cu88  1  0.25106931  0.50076182  0.00900809  1
  Cu+  Cu89  1  0.25001876  0.99854611  0.00586583  1
  Cu+  Cu90  1  0.74751496  0.49553368  0.01577176  1
  Cu+  Cu91  1  0.74930108  0.99602792  0.01090461  1
  Cu+  Cu92  1  0.24888259  0.25301723  0.01309376  1
  Cu+  Cu93  1  0.25008701  0.75347466  0.00948005  1
  Cu+  Cu94  1  0.74730758  0.24906573  0.01648789  1
  Cu+  Cu95  1  0.75034383  0.75180697  0.00587031  1
  Cu+  Cu96  1  0.33650901  0.41853231  0.34712430  1
  Cu+  Cu97  1  0.33225181  0.91658384  0.34296662  1
  Cu+  Cu98  1  0.83416205  0.41666616  0.34254260  1
  Cu+  Cu99  1  0.83418500  0.91993258  0.33925985  1
  Cu+  Cu100  1  0.08095523  0.16810146  0.34082549  1
  Cu+  Cu101  1  0.08043499  0.66665946  0.33982200  1
  Cu+  Cu102  1  0.58161197  0.16248257  0.34836558  1
  Cu+  Cu103  1  0.58259041  0.66494204  0.34107659  1
  Cu+  Cu104  1  0.08187091  0.41972335  0.34032717  1
  Cu+  Cu105  1  0.08062302  0.92020112  0.33875676  1
  Cu+  Cu106  1  0.58172338  0.41514104  0.34452882  1
  Cu+  Cu107  1  0.58251095  0.91703032  0.34194914  1
  Cu+  Cu108  1  0.00203503  -0.00397233  0.10758690  1
  Cu+  Cu109  1  0.00263324  0.50309861  0.10922700  1
  Cu+  Cu110  1  0.49688594  -0.00258918  0.11252196  1
  Cu+  Cu111  1  0.50218617  0.50791025  0.11431416  1
  Cu+  Cu112  1  0.32690080  0.16312372  0.44993835  1
  Cu+  Cu113  1  0.33225198  0.66896834  0.44903225  1
  Cu+  Cu114  1  0.83608063  0.16694047  0.45042146  1
  Cu+  Cu115  1  0.83156424  0.66608183  0.44752041  1
  Cu+  Cu116  1  0.16441788  0.32980577  0.78315828  1
  Cu+  Cu117  1  0.16056158  0.82990387  0.77710370  1
  Cu+  Cu118  1  0.66996340  0.33750789  0.78591367  1
  Cu+  Cu119  1  0.66550749  0.82922078  0.78081786  1
  Te2-  Te120  1  -0.00117967  0.00280598  0.38224955  1
  Te2-  Te121  1  -0.00036405  0.50210035  0.38329449  1
  Te2-  Te122  1  0.49656440  -0.00511431  0.38749789  1
  Te2-  Te123  1  0.50364857  0.50162318  0.38805150  1
  Te2-  Te124  1  0.33245616  0.16752967  0.72279815  1
  Te2-  Te125  1  0.33714007  0.66539376  0.72191787  1
  Te2-  Te126  1  0.83427442  0.16727025  0.72402821  1
  Te2-  Te127  1  0.83437315  0.66705094  0.72015760  1
  Te2-  Te128  1  0.16935627  0.33886264  0.05845999  1
  Te2-  Te129  1  0.16492614  0.83531917  0.05174330  1
  Te2-  Te130  1  0.66555827  0.33113768  0.06316164  1
  Te2-  Te131  1  0.66678787  0.83023759  0.05469183  1
  Te2-  Te132  1  0.49264531  0.24715948  0.88840436  1
  Te2-  Te133  1  0.49728245  0.75104547  0.88155936  1
  Te2-  Te134  1  0.99930353  0.25155727  0.88364981  1
  Te2-  Te135  1  1.00005475  0.74673192  0.87695712  1
  Te2-  Te136  1  0.25217259  0.00857046  0.88076337  1
  Te2-  Te137  1  0.25945089  0.50953097  0.88358846  1
  Te2-  Te138  1  0.75838397  0.00970699  0.88452422  1
  Te2-  Te139  1  0.75053103  0.50150243  0.88819491  1
  Te2-  Te140  1  0.25245112  0.24781166  0.88634671  1
  Te2-  Te141  1  0.26074829  0.75127609  0.88290377  1
  Te2-  Te142  1  0.75396360  0.24756480  0.88789742  1
  Te2-  Te143  1  0.75273726  0.74843587  0.88047892  1
  Te2-  Te144  1  0.32685315  0.41585729  0.21918129  1
  Te2-  Te145  1  0.32452430  0.91591472  0.21664510  1
  Te2-  Te146  1  0.82317879  0.41151747  0.21642527  1
  Te2-  Te147  1  0.82572736  0.91284969  0.21316167  1
  Te2-  Te148  1  0.08774351  0.18106913  0.21519949  1
  Te2-  Te149  1  0.08273366  0.67591477  0.21386100  1
  Te2-  Te150  1  0.58840354  0.17434599  0.22034107  1
  Te2-  Te151  1  0.58573068  0.66911825  0.21497038  1
  Te2-  Te152  1  0.08979274  0.42005630  0.21396102  1
  Te2-  Te153  1  0.08619980  0.91997711  0.21215933  1
  Te2-  Te154  1  0.58799764  0.41092536  0.21850010  1
  Te2-  Te155  1  0.58160937  0.90961010  0.21560957  1
  Te2-  Te156  1  0.16547313  0.08532702  0.54847174  1
  Te2-  Te157  1  0.16280044  0.57654440  0.55085704  1
  Te2-  Te158  1  0.65529735  0.07394832  0.55402241  1
  Te2-  Te159  1  0.66082539  0.57958732  0.54946710  1
  Te2-  Te160  1  0.42603805  0.33967135  0.55064835  1
  Te2-  Te161  1  0.41686399  0.83406776  0.54828188  1
  Te2-  Te162  1  0.91342289  0.33587344  0.55048922  1
  Te2-  Te163  1  0.91790325  0.83801314  0.54759823  1
  Te2-  Te164  1  0.41702101  0.07445439  0.55341333  1
  Te2-  Te165  1  0.42428361  0.57949679  0.55075906  1
  Te2-  Te166  1  0.91703346  0.08149414  0.54980496  1
  Te2-  Te167  1  0.91972344  0.57975206  0.54896172  1
  Te2-  Te168  1  0.00021440  -0.00103213  0.88061819  1
  Te2-  Te169  1  0.00124456  0.50104085  0.88361628  1
  Te2-  Te170  1  0.49873081  -0.00249516  0.88344654  1
  Te2-  Te171  1  0.50014301  0.49995806  0.88386841  1
  Te2-  Te172  1  0.33286865  0.16676634  0.21564007  1
  Te2-  Te173  1  0.33235504  0.66660259  0.21543721  1
  Te2-  Te174  1  0.83460767  0.16778243  0.21430719  1
  Te2-  Te175  1  0.83540448  0.66900870  0.21276807  1
  Te2-  Te176  1  0.16533974  0.33293617  0.55011728  1
  Te2-  Te177  1  0.16397703  0.83138804  0.54857221  1
  Te2-  Te178  1  0.66617114  0.33295064  0.55014328  1
  Te2-  Te179  1  0.66619918  0.83205047  0.54792631  1
  Te2-  Te180  1  0.32764885  0.41045729  0.71323220  1
  Te2-  Te181  1  0.32671973  0.90974584  0.70958188  1
  Te2-  Te182  1  0.82865023  0.41515387  0.71482190  1
  Te2-  Te183  1  0.82719449  0.91313660  0.71047895  1
  Te2-  Te184  1  0.08508412  0.17132955  0.71187092  1
  Te2-  Te185  1  0.08586890  0.67013562  0.70861919  1
  Te2-  Te186  1  0.58694291  0.17478823  0.71326078  1
  Te2-  Te187  1  0.58565666  0.66876553  0.71209345  1
  Te2-  Te188  1  0.08371930  0.40983480  0.71163752  1
  Te2-  Te189  1  0.08487192  0.91412399  0.70822426  1
  Te2-  Te190  1  0.58780807  0.41392567  0.71463402  1
  Te2-  Te191  1  0.58427919  0.91076769  0.71092666  1
  Te2-  Te192  1  0.16129654  0.07977579  0.04067913  1
  Te2-  Te193  1  0.16124013  0.58115589  0.04117035  1
  Te2-  Te194  1  0.65766823  0.07650098  0.04195983  1
  Te2-  Te195  1  0.66020072  0.58189452  0.04220561  1
  Te2-  Te196  1  0.42151228  0.34362594  0.04334156  1
  Te2-  Te197  1  0.42172185  0.84007911  0.04316348  1
  Te2-  Te198  1  0.92120377  0.34093033  0.04012706  1
  Te2-  Te199  1  0.92064827  0.83780160  0.03969686  1
  Te2-  Te200  1  0.41779624  0.07771222  0.04345957  1
  Te2-  Te201  1  0.42037803  0.58352693  0.04480162  1
  Te2-  Te202  1  0.92245297  0.07946127  0.03851213  1
  Te2-  Te203  1  0.92172876  0.58140193  0.03984852  1
  Te2-  Te204  1  0.49122720  0.24509593  0.37883391  1
  Te2-  Te205  1  0.49400210  0.74633383  0.37773616  1
  Te2-  Te206  1  0.99533872  0.25094268  0.37950664  1
  Te2-  Te207  1  0.99367325  0.74973090  0.37716135  1
  Te2-  Te208  1  0.25011107  0.00484211  0.37851005  1
  Te2-  Te209  1  0.25182171  0.50724397  0.37768742  1
  Te2-  Te210  1  0.75196651  0.00641929  0.37864860  1
  Te2-  Te211  1  0.75173131  0.50349898  0.37966932  1
  Te2-  Te212  1  0.25080115  0.24593350  0.37783001  1
  Te2-  Te213  1  0.24951359  0.74630798  0.37887907  1
  Te2-  Te214  1  0.75447351  0.24679446  0.37887701  1
  Te2-  Te215  1  0.75302584  0.74907534  0.37686086  1
