# generated using pymatgen
data_Ti(CuTe)4
_symmetry_space_group_name_H-M   'P 1'
_cell_length_a   16.87134130
_cell_length_b   16.87072007
_cell_length_c   20.68154827
_cell_angle_alpha   89.94728809
_cell_angle_beta   90.06255613
_cell_angle_gamma   120.01853001
_symmetry_Int_Tables_number   1
_chemical_formula_structural   Ti(CuTe)4
_chemical_formula_sum   'Ti24 Cu96 Te96'
_cell_volume   5097.01003700
_cell_formula_units_Z   24
loop_
 _symmetry_equiv_pos_site_id
 _symmetry_equiv_pos_as_xyz
  1  'x, y, z'
loop_
 _atom_type_symbol
 _atom_type_oxidation_number
  Ti4+  4.0
  Cu+  1.0
  Te2-  -2.0
loop_
 _atom_site_type_symbol
 _atom_site_label
 _atom_site_symmetry_multiplicity
 _atom_site_fract_x
 _atom_site_fract_y
 _atom_site_fract_z
 _atom_site_occupancy
  Ti4+  Ti0  1  -0.00008372  0.00417996  0.25789454  1
  Ti4+  Ti1  1  -0.00145043  0.50085270  0.25590434  1
  Ti4+  Ti2  1  0.49957285  -0.00239821  0.25671290  1
  Ti4+  Ti3  1  0.49950972  0.49856517  0.25731691  1
  Ti4+  Ti4  1  0.33095917  0.16315492  0.59476972  1
  Ti4+  Ti5  1  0.33064880  0.66261707  0.59113908  1
  Ti4+  Ti6  1  0.83284369  0.16596948  0.59446760  1
  Ti4+  Ti7  1  0.83507744  0.66573790  0.58873617  1
  Ti4+  Ti8  1  0.16653965  0.33483730  0.92628778  1
  Ti4+  Ti9  1  0.16968240  0.83823734  0.92408588  1
  Ti4+  Ti10  1  0.66795797  0.33519002  0.92621015  1
  Ti4+  Ti11  1  0.66559483  0.83406841  0.92228963  1
  Ti4+  Ti12  1  0.00007241  -0.00048347  0.75608730  1
  Ti4+  Ti13  1  0.00036089  0.49862771  0.75817161  1
  Ti4+  Ti14  1  0.49937435  -0.00169915  0.75446594  1
  Ti4+  Ti15  1  0.50008459  0.49970559  0.75581188  1
  Ti4+  Ti16  1  0.33483470  0.16944650  0.08852437  1
  Ti4+  Ti17  1  0.33293458  0.66876861  0.08868932  1
  Ti4+  Ti18  1  0.83376629  0.16468836  0.08626400  1
  Ti4+  Ti19  1  0.83414276  0.66611921  0.08753363  1
  Ti4+  Ti20  1  0.16688826  0.33322211  0.42436529  1
  Ti4+  Ti21  1  0.16478206  0.83237073  0.42206594  1
  Ti4+  Ti22  1  0.66747461  0.33202959  0.42338414  1
  Ti4+  Ti23  1  0.66742661  0.83350747  0.42202074  1
  Cu+  Cu24  1  0.90688575  0.09739181  0.80889489  1
  Cu+  Cu25  1  0.40329208  0.59478986  0.80619656  1
  Cu+  Cu26  1  0.73751405  0.48177740  0.14214544  1
  Cu+  Cu27  1  0.41437047  0.09676123  0.80998055  1
  Cu+  Cu28  1  0.07146931  0.64228025  0.47258098  1
  Cu+  Cu29  1  0.23594163  0.76456229  0.13976166  1
  Cu+  Cu30  1  0.18208932  0.09712347  0.81163961  1
  Cu+  Cu31  1  0.73882021  0.25055324  0.14214424  1
  Cu+  Cu32  1  0.07253567  0.92899319  0.47457394  1
  Cu+  Cu33  1  0.01112911  0.25940230  0.14481015  1
  Cu+  Cu34  1  0.73867906  0.97599206  0.13872742  1
  Cu+  Cu35  1  0.24415298  0.26352865  0.14298286  1
  Cu+  Cu36  1  0.16604247  0.08797810  0.17079576  1
  Cu+  Cu37  1  0.16487858  0.58875629  0.16929204  1
  Cu+  Cu38  1  0.66181964  0.07586030  0.16752548  1
  Cu+  Cu39  1  0.66424664  0.57961463  0.17001211  1
  Cu+  Cu40  1  0.41705169  0.33900011  0.16929257  1
  Cu+  Cu41  1  0.41264677  0.83534386  0.16959377  1
  Cu+  Cu42  1  0.91756748  0.33926694  0.16629022  1
  Cu+  Cu43  1  0.91906532  0.83762268  0.17059115  1
  Cu+  Cu44  1  0.41938988  0.08170492  0.16984362  1
  Cu+  Cu45  1  0.41832299  0.58134139  0.17049904  1
  Cu+  Cu46  1  0.91886001  0.08023615  0.16610639  1
  Cu+  Cu47  1  0.91490573  0.57888825  0.16782070  1
  Cu+  Cu48  1  0.49858511  0.24457016  0.50847998  1
  Cu+  Cu49  1  0.49759881  0.74560065  0.50579704  1
  Cu+  Cu50  1  0.99714735  0.24819967  0.50853630  1
  Cu+  Cu51  1  0.99664453  0.74684764  0.50116876  1
  Cu+  Cu52  1  0.24734768  0.00243441  0.50708142  1
  Cu+  Cu53  1  0.25177979  0.50178048  0.50524955  1
  Cu+  Cu54  1  0.75272426  0.00302654  0.50744291  1
  Cu+  Cu55  1  0.75294476  0.50184395  0.50345409  1
  Cu+  Cu56  1  0.24922620  0.24583460  0.50781899  1
  Cu+  Cu57  1  0.24614089  0.74052380  0.50359100  1
  Cu+  Cu58  1  0.75207940  0.24748624  0.50734241  1
  Cu+  Cu59  1  0.75192725  0.74747880  0.50246788  1
  Cu+  Cu60  1  0.33322395  0.42057086  0.83810333  1
  Cu+  Cu61  1  0.33195951  0.91889269  0.83603411  1
  Cu+  Cu62  1  0.83189991  0.41768697  0.84169700  1
  Cu+  Cu63  1  0.83080861  0.92081538  0.83641991  1
  Cu+  Cu64  1  0.08254223  0.16992839  0.84027090  1
  Cu+  Cu65  1  0.08668622  0.66985233  0.84004668  1
  Cu+  Cu66  1  0.58553414  0.17035344  0.83912148  1
  Cu+  Cu67  1  0.57985630  0.66845408  0.83578973  1
  Cu+  Cu68  1  0.08352222  0.41383849  0.83955066  1
  Cu+  Cu69  1  0.09188982  0.92023216  0.83558266  1
  Cu+  Cu70  1  0.59024277  0.41909768  0.83830287  1
  Cu+  Cu71  1  0.58696852  0.91440686  0.83471998  1
  Cu+  Cu72  1  0.16794938  0.08173387  0.68268097  1
  Cu+  Cu73  1  0.16624023  0.57987257  0.67564065  1
  Cu+  Cu74  1  0.66816235  0.08232794  0.67606109  1
  Cu+  Cu75  1  0.67009947  0.58252498  0.67191083  1
  Cu+  Cu76  1  0.41794432  0.33057067  0.67654936  1
  Cu+  Cu77  1  0.41547773  0.82793150  0.67254987  1
  Cu+  Cu78  1  0.91454586  0.32964687  0.67774174  1
  Cu+  Cu79  1  0.91561590  0.82872809  0.67273115  1
  Cu+  Cu80  1  0.41252081  0.08174283  0.68100218  1
  Cu+  Cu81  1  0.41357377  0.58280076  0.67811233  1
  Cu+  Cu82  1  0.91316766  0.08476441  0.68060624  1
  Cu+  Cu83  1  0.91700297  0.58370939  0.67408777  1
  Cu+  Cu84  1  0.00291148  0.24817690  0.01533842  1
  Cu+  Cu85  1  0.00327323  0.75321996  0.00517195  1
  Cu+  Cu86  1  0.50194779  0.25172455  0.00853237  1
  Cu+  Cu87  1  0.50126931  0.75067961  0.00670282  1
  Cu+  Cu88  1  0.25055695  0.50122097  0.00920024  1
  Cu+  Cu89  1  0.25258506  1.00212963  0.00936544  1
  Cu+  Cu90  1  0.75068476  0.49716682  0.01371091  1
  Cu+  Cu91  1  0.74935711  0.99584692  0.01076868  1
  Cu+  Cu92  1  0.24912701  0.25259213  0.01429473  1
  Cu+  Cu93  1  0.24902902  0.75555420  0.01110879  1
  Cu+  Cu94  1  0.74934795  0.25150210  0.01191793  1
  Cu+  Cu95  1  0.75045286  0.75262591  0.00354876  1
  Cu+  Cu96  1  0.33512184  0.41569503  0.34357673  1
  Cu+  Cu97  1  0.33462303  0.91732450  0.34228659  1
  Cu+  Cu98  1  0.83252683  0.41459118  0.34278956  1
  Cu+  Cu99  1  0.83415246  0.91963245  0.34168260  1
  Cu+  Cu100  1  0.08348748  0.16927059  0.34407778  1
  Cu+  Cu101  1  0.08187636  0.66551685  0.34415629  1
  Cu+  Cu102  1  0.58409081  0.16302550  0.34231440  1
  Cu+  Cu103  1  0.58243381  0.66302143  0.33949823  1
  Cu+  Cu104  1  0.08383066  0.41799570  0.34179241  1
  Cu+  Cu105  1  0.08374400  0.92316314  0.34557872  1
  Cu+  Cu106  1  0.58111706  0.41472346  0.34205524  1
  Cu+  Cu107  1  0.58334767  0.91694109  0.34053274  1
  Cu+  Cu108  1  0.00338373  -0.00433040  0.11315723  1
  Cu+  Cu109  1  0.00348690  0.50310456  0.11038107  1
  Cu+  Cu110  1  0.49811765  -0.00136079  0.11128705  1
  Cu+  Cu111  1  0.50354811  0.50640902  0.11183142  1
  Cu+  Cu112  1  0.33806849  0.17155984  0.45289596  1
  Cu+  Cu113  1  0.33701112  0.66702320  0.44808464  1
  Cu+  Cu114  1  0.83438744  0.16675921  0.45194468  1
  Cu+  Cu115  1  0.82903294  0.66403667  0.44380769  1
  Cu+  Cu116  1  0.16948256  0.33448832  0.78254771  1
  Cu+  Cu117  1  0.16597427  0.82758566  0.78064852  1
  Cu+  Cu118  1  0.66983416  0.33380509  0.78306091  1
  Cu+  Cu119  1  0.66907008  0.82870703  0.77817374  1
  Te2-  Te120  1  -0.00161237  0.00414677  0.38810500  1
  Te2-  Te121  1  -0.00164773  0.49794412  0.38562867  1
  Te2-  Te122  1  0.49983998  -0.00214265  0.38540994  1
  Te2-  Te123  1  0.50077414  0.49910910  0.38610189  1
  Te2-  Te124  1  0.33398830  0.16860688  0.72699965  1
  Te2-  Te125  1  0.33011388  0.66568517  0.72175090  1
  Te2-  Te126  1  0.83009902  0.16706505  0.72551571  1
  Te2-  Te127  1  0.83370561  0.66500981  0.71785376  1
  Te2-  Te128  1  0.16844542  0.33810199  0.05817464  1
  Te2-  Te129  1  0.16545924  0.83810724  0.05451894  1
  Te2-  Te130  1  0.66448474  0.33127578  0.05844899  1
  Te2-  Te131  1  0.66506584  0.82930589  0.05289089  1
  Te2-  Te132  1  0.49553097  0.25223740  0.88317932  1
  Te2-  Te133  1  0.49141759  0.74905844  0.88120094  1
  Te2-  Te134  1  0.99295767  0.24840204  0.88737944  1
  Te2-  Te135  1  0.99939718  0.75270575  0.87973475  1
  Te2-  Te136  1  0.25896021  0.01495429  0.88359656  1
  Te2-  Te137  1  0.25070168  0.50715331  0.88365130  1
  Te2-  Te138  1  0.75124507  0.00901409  0.88370026  1
  Te2-  Te139  1  0.75465320  0.50717973  0.88661663  1
  Te2-  Te140  1  0.25542973  0.25232746  0.88583009  1
  Te2-  Te141  1  0.25498744  0.75251341  0.88370342  1
  Te2-  Te142  1  0.75234491  0.24888145  0.88455358  1
  Te2-  Te143  1  0.75077933  0.75015808  0.87750833  1
  Te2-  Te144  1  0.32509774  0.41549070  0.21746755  1
  Te2-  Te145  1  0.32496912  0.91586813  0.21630848  1
  Te2-  Te146  1  0.82248536  0.41019649  0.21620332  1
  Te2-  Te147  1  0.82678920  0.91316209  0.21557003  1
  Te2-  Te148  1  0.08750988  0.17979354  0.21725669  1
  Te2-  Te149  1  0.08158266  0.67410212  0.21629688  1
  Te2-  Te150  1  0.58611613  0.17087670  0.21605101  1
  Te2-  Te151  1  0.58618795  0.66921734  0.21346037  1
  Te2-  Te152  1  0.08847367  0.41886136  0.21488257  1
  Te2-  Te153  1  0.08665161  0.92040354  0.21733919  1
  Te2-  Te154  1  0.58300796  0.40877336  0.21594025  1
  Te2-  Te155  1  0.58237072  0.90765002  0.21411680  1
  Te2-  Te156  1  0.15705186  0.07993057  0.55479342  1
  Te2-  Te157  1  0.15613225  0.57257679  0.54990980  1
  Te2-  Te158  1  0.66172705  0.07985829  0.55055111  1
  Te2-  Te159  1  0.66359945  0.58002932  0.54629558  1
  Te2-  Te160  1  0.41801838  0.33320613  0.55072864  1
  Te2-  Te161  1  0.41510301  0.83291316  0.54666443  1
  Te2-  Te162  1  0.91890203  0.33761433  0.55205951  1
  Te2-  Te163  1  0.91917096  0.83948787  0.54698822  1
  Te2-  Te164  1  0.41484363  0.07647863  0.55337171  1
  Te2-  Te165  1  0.41812767  0.57829091  0.55096396  1
  Te2-  Te166  1  0.91951483  0.08093477  0.55329318  1
  Te2-  Te167  1  0.91994322  0.57682882  0.54794333  1
  Te2-  Te168  1  0.00030853  -0.00202394  0.88366203  1
  Te2-  Te169  1  0.00167236  0.50163455  0.88469223  1
  Te2-  Te170  1  0.50172915  -0.00054689  0.88153702  1
  Te2-  Te171  1  0.50285574  0.50135136  0.88302376  1
  Te2-  Te172  1  0.33588651  0.16820607  0.21542034  1
  Te2-  Te173  1  0.33373317  0.66619802  0.21564101  1
  Te2-  Te174  1  0.83414565  0.16710198  0.21454719  1
  Te2-  Te175  1  0.83416692  0.66768785  0.21479620  1
  Te2-  Te176  1  0.16691567  0.33291182  0.55073877  1
  Te2-  Te177  1  0.16597238  0.83010362  0.54934485  1
  Te2-  Te178  1  0.66831964  0.33310860  0.54978160  1
  Te2-  Te179  1  0.66749323  0.83168907  0.54831597  1
  Te2-  Te180  1  0.32706368  0.41040728  0.71078893  1
  Te2-  Te181  1  0.32611688  0.90855678  0.70943690  1
  Te2-  Te182  1  0.82879057  0.41444914  0.71394298  1
  Te2-  Te183  1  0.82839873  0.91147408  0.70909698  1
  Te2-  Te184  1  0.08636861  0.17389420  0.71179421  1
  Te2-  Te185  1  0.08603065  0.66941275  0.71218871  1
  Te2-  Te186  1  0.58675668  0.17193339  0.71109795  1
  Te2-  Te187  1  0.58728685  0.67024426  0.70792494  1
  Te2-  Te188  1  0.08492782  0.41072501  0.71359683  1
  Te2-  Te189  1  0.08415325  0.90952518  0.71009838  1
  Te2-  Te190  1  0.58780081  0.41428803  0.71209332  1
  Te2-  Te191  1  0.58523370  0.91152614  0.70951079  1
  Te2-  Te192  1  0.16102494  0.08033346  0.04356084  1
  Te2-  Te193  1  0.16091053  0.58230727  0.04174386  1
  Te2-  Te194  1  0.65920463  0.07870048  0.04013390  1
  Te2-  Te195  1  0.66204895  0.58284930  0.04161996  1
  Te2-  Te196  1  0.42272747  0.34290275  0.04269716  1
  Te2-  Te197  1  0.42143635  0.84079100  0.04249202  1
  Te2-  Te198  1  0.92169928  0.34089036  0.03983434  1
  Te2-  Te199  1  0.91907825  0.83810942  0.04302783  1
  Te2-  Te200  1  0.42153983  0.08263725  0.04420939  1
  Te2-  Te201  1  0.41947879  0.58206293  0.04409819  1
  Te2-  Te202  1  0.92119763  0.07580541  0.04034820  1
  Te2-  Te203  1  0.92416803  0.58335819  0.04136863  1
  Te2-  Te204  1  0.49550447  0.24474092  0.38024269  1
  Te2-  Te205  1  0.49597736  0.74628296  0.37773029  1
  Te2-  Te206  1  0.99415820  0.24913230  0.38071441  1
  Te2-  Te207  1  0.99226401  0.74893415  0.37370646  1
  Te2-  Te208  1  0.25494433  0.00702639  0.37989554  1
  Te2-  Te209  1  0.25351652  0.50501834  0.37878066  1
  Te2-  Te210  1  0.75251019  0.00672707  0.37964590  1
  Te2-  Te211  1  0.75172361  0.50380063  0.37686178  1
  Te2-  Te212  1  0.25281527  0.24627767  0.38082535  1
  Te2-  Te213  1  0.25325574  0.74727534  0.37668061  1
  Te2-  Te214  1  0.75341610  0.24532562  0.37983322  1
  Te2-  Te215  1  0.75296424  0.74815065  0.37551378  1
