# generated using pymatgen
data_Ti(CuTe)4
_symmetry_space_group_name_H-M   'P 1'
_cell_length_a   16.88678733
_cell_length_b   16.89799417
_cell_length_c   20.71418203
_cell_angle_alpha   90.02612054
_cell_angle_beta   90.08991863
_cell_angle_gamma   120.01653316
_symmetry_Int_Tables_number   1
_chemical_formula_structural   Ti(CuTe)4
_chemical_formula_sum   'Ti24 Cu96 Te96'
_cell_volume   5118.08214057
_cell_formula_units_Z   24
loop_
 _symmetry_equiv_pos_site_id
 _symmetry_equiv_pos_as_xyz
  1  'x, y, z'
loop_
 _atom_type_symbol
 _atom_type_oxidation_number
  Ti4+  4.0
  Cu+  1.0
  Te2-  -2.0
loop_
 _atom_site_type_symbol
 _atom_site_label
 _atom_site_symmetry_multiplicity
 _atom_site_fract_x
 _atom_site_fract_y
 _atom_site_fract_z
 _atom_site_occupancy
  Ti4+  Ti0  1  -0.00476822  -0.00377472  0.25625469  1
  Ti4+  Ti1  1  -0.00277348  0.49778383  0.25495617  1
  Ti4+  Ti2  1  0.49549896  -0.00191272  0.25498726  1
  Ti4+  Ti3  1  0.49699870  0.49824212  0.25652102  1
  Ti4+  Ti4  1  0.33583477  0.16882130  0.59207031  1
  Ti4+  Ti5  1  0.33629397  0.66876960  0.59237193  1
  Ti4+  Ti6  1  0.83517056  0.16809762  0.59234518  1
  Ti4+  Ti7  1  0.83605591  0.66818720  0.59613400  1
  Ti4+  Ti8  1  0.16636526  0.33292524  0.92264327  1
  Ti4+  Ti9  1  0.16813053  0.83468623  0.92360464  1
  Ti4+  Ti10  1  0.66722203  0.33291762  0.92498506  1
  Ti4+  Ti11  1  0.66584702  0.83183081  0.92561510  1
  Ti4+  Ti12  1  0.00272589  0.00164576  0.75520501  1
  Ti4+  Ti13  1  0.00228988  0.49973779  0.75553465  1
  Ti4+  Ti14  1  0.50076979  0.00126154  0.75699812  1
  Ti4+  Ti15  1  0.50411127  0.50335258  0.75583878  1
  Ti4+  Ti16  1  0.33423848  0.16628357  0.08712594  1
  Ti4+  Ti17  1  0.33291526  0.66533808  0.08666406  1
  Ti4+  Ti18  1  0.83251019  0.16646207  0.08641966  1
  Ti4+  Ti19  1  0.83503729  0.66815904  0.08745832  1
  Ti4+  Ti20  1  0.16592939  0.33313438  0.42141563  1
  Ti4+  Ti21  1  0.16646816  0.83321521  0.42419919  1
  Ti4+  Ti22  1  0.66690232  0.33330960  0.42420016  1
  Ti4+  Ti23  1  0.66594260  0.83343648  0.42351230  1
  Cu+  Cu24  1  0.73770683  0.48490009  0.14337446  1
  Cu+  Cu25  1  0.90854941  0.58660514  0.81267896  1
  Cu+  Cu26  1  0.23558271  0.47422726  0.13759955  1
  Cu+  Cu27  1  0.90515570  0.31049700  0.80771356  1
  Cu+  Cu28  1  0.73459977  0.98130603  0.14035329  1
  Cu+  Cu29  1  0.23391528  0.98080626  0.14063851  1
  Cu+  Cu30  1  0.23620776  0.75144508  0.14138206  1
  Cu+  Cu31  1  0.73817633  0.75291089  0.14483046  1
  Cu+  Cu32  1  0.40548815  0.81234127  0.80807901  1
  Cu+  Cu33  1  0.40560539  0.09531881  0.80728300  1
  Cu+  Cu34  1  0.90645700  0.81901008  0.81164077  1
  Cu+  Cu35  1  0.73620574  0.25389191  0.14167275  1
  Cu+  Cu36  1  0.16241348  0.07903820  0.17029534  1
  Cu+  Cu37  1  0.16262717  0.57835020  0.16820276  1
  Cu+  Cu38  1  0.66057387  0.08046234  0.16864406  1
  Cu+  Cu39  1  0.66046490  0.58037202  0.17044694  1
  Cu+  Cu40  1  0.41810741  0.33682476  0.16885733  1
  Cu+  Cu41  1  0.41298546  0.83658757  0.16617940  1
  Cu+  Cu42  1  0.91355971  0.33760890  0.16604288  1
  Cu+  Cu43  1  0.91482110  0.83894657  0.16756185  1
  Cu+  Cu44  1  0.41221794  0.07652663  0.16673150  1
  Cu+  Cu45  1  0.41197924  0.57578715  0.16791318  1
  Cu+  Cu46  1  0.91088466  0.07612264  0.16764163  1
  Cu+  Cu47  1  0.91482234  0.57779967  0.16723935  1
  Cu+  Cu48  1  0.49827692  0.24854784  0.50733260  1
  Cu+  Cu49  1  0.49807648  0.75101844  0.50674490  1
  Cu+  Cu50  1  0.99805431  0.25052225  0.50584846  1
  Cu+  Cu51  1  0.99840881  0.74944823  0.50992459  1
  Cu+  Cu52  1  0.25471965  0.00468402  0.50676460  1
  Cu+  Cu53  1  0.25408933  0.50393215  0.50479313  1
  Cu+  Cu54  1  0.75248334  0.00430548  0.50586306  1
  Cu+  Cu55  1  0.75457471  0.50360782  0.50903949  1
  Cu+  Cu56  1  0.25345914  0.25054720  0.50441877  1
  Cu+  Cu57  1  0.25495885  0.75101869  0.50718912  1
  Cu+  Cu58  1  0.75442595  0.25044289  0.50684336  1
  Cu+  Cu59  1  0.75398515  0.75171143  0.50840244  1
  Cu+  Cu60  1  0.33382638  0.41919019  0.83824063  1
  Cu+  Cu61  1  0.33209008  0.91712482  0.83796872  1
  Cu+  Cu62  1  0.83116294  0.41230586  0.83889605  1
  Cu+  Cu63  1  0.83175326  0.91534608  0.83993619  1
  Cu+  Cu64  1  0.08725409  0.17245053  0.83553855  1
  Cu+  Cu65  1  0.08570900  0.67129351  0.83554881  1
  Cu+  Cu66  1  0.58210690  0.17013088  0.83750722  1
  Cu+  Cu67  1  0.58862951  0.67189586  0.83739017  1
  Cu+  Cu68  1  0.08208230  0.41033941  0.83640932  1
  Cu+  Cu69  1  0.08461226  0.91531939  0.83554637  1
  Cu+  Cu70  1  0.58737729  0.41771606  0.83722989  1
  Cu+  Cu71  1  0.58080519  0.91203954  0.83895776  1
  Cu+  Cu72  1  0.17238233  0.08779519  0.67421232  1
  Cu+  Cu73  1  0.17338410  0.58537540  0.67421911  1
  Cu+  Cu74  1  0.67168555  0.08671559  0.67508973  1
  Cu+  Cu75  1  0.67203121  0.58715165  0.67735626  1
  Cu+  Cu76  1  0.41926998  0.33377229  0.67496443  1
  Cu+  Cu77  1  0.41704244  0.83095787  0.67968138  1
  Cu+  Cu78  1  0.91739967  0.32975884  0.67938267  1
  Cu+  Cu79  1  0.91806713  0.83130426  0.68236606  1
  Cu+  Cu80  1  0.41740298  0.08843717  0.67937183  1
  Cu+  Cu81  1  0.42077113  0.58875380  0.67532103  1
  Cu+  Cu82  1  0.91798636  0.08630686  0.67491808  1
  Cu+  Cu83  1  0.91878259  0.58705086  0.68275843  1
  Cu+  Cu84  1  0.00302910  0.25173894  0.00671805  1
  Cu+  Cu85  1  0.00317975  0.75320702  0.00882328  1
  Cu+  Cu86  1  0.50272474  0.25224814  0.00861474  1
  Cu+  Cu87  1  0.50187648  0.74890642  0.00806281  1
  Cu+  Cu88  1  0.24784977  0.49468332  0.00889951  1
  Cu+  Cu89  1  0.25146439  0.99896010  0.01123663  1
  Cu+  Cu90  1  0.75289151  0.49861025  0.01375023  1
  Cu+  Cu91  1  0.74845127  0.99527999  0.01103359  1
  Cu+  Cu92  1  0.25167761  0.25301635  0.00560008  1
  Cu+  Cu93  1  0.25178089  0.75272356  0.01141341  1
  Cu+  Cu94  1  0.75084281  0.25273244  0.01176572  1
  Cu+  Cu95  1  0.75231641  0.75352565  0.01484350  1
  Cu+  Cu96  1  0.33250945  0.41634024  0.34118090  1
  Cu+  Cu97  1  0.33119094  0.91568956  0.34212307  1
  Cu+  Cu98  1  0.83205588  0.41615451  0.34278703  1
  Cu+  Cu99  1  0.83109203  0.91507100  0.34307820  1
  Cu+  Cu100  1  0.07887793  0.16150155  0.33988878  1
  Cu+  Cu101  1  0.08115669  0.66363463  0.34232297  1
  Cu+  Cu102  1  0.58163201  0.16424290  0.34132444  1
  Cu+  Cu103  1  0.58087288  0.66336133  0.34251884  1
  Cu+  Cu104  1  0.08159223  0.41657438  0.33965669  1
  Cu+  Cu105  1  0.08009873  0.91575495  0.34277189  1
  Cu+  Cu106  1  0.58294767  0.41844946  0.34358734  1
  Cu+  Cu107  1  0.58083365  0.91727746  0.34099387  1
  Cu+  Cu108  1  0.00359099  0.00690966  0.11172950  1
  Cu+  Cu109  1  0.00112940  0.50086980  0.10947057  1
  Cu+  Cu110  1  0.49918606  -0.00054378  0.10957850  1
  Cu+  Cu111  1  0.49844574  0.49896901  0.11114487  1
  Cu+  Cu112  1  0.33329028  0.16759377  0.44927815  1
  Cu+  Cu113  1  0.33329802  0.66644513  0.44952827  1
  Cu+  Cu114  1  0.83366978  0.16654045  0.44943951  1
  Cu+  Cu115  1  0.83299716  0.66711050  0.45427209  1
  Cu+  Cu116  1  0.17402356  0.33646725  0.77933413  1
  Cu+  Cu117  1  0.16887211  0.83504697  0.77889520  1
  Cu+  Cu118  1  0.66673286  0.33429154  0.78058948  1
  Cu+  Cu119  1  0.66971097  0.83875852  0.78217523  1
  Te2-  Te120  1  -0.00328135  -0.00230221  0.38456274  1
  Te2-  Te121  1  -0.00168241  0.49788225  0.38325360  1
  Te2-  Te122  1  0.49726845  -0.00112223  0.38330413  1
  Te2-  Te123  1  0.49739365  0.49844675  0.38503215  1
  Te2-  Te124  1  0.33450459  0.17119401  0.72339679  1
  Te2-  Te125  1  0.33502933  0.66543814  0.72377630  1
  Te2-  Te126  1  0.83364705  0.16419913  0.72375460  1
  Te2-  Te127  1  0.83351660  0.66650571  0.72888354  1
  Te2-  Te128  1  0.16562893  0.32935945  0.05343111  1
  Te2-  Te129  1  0.16626725  0.83293477  0.05535489  1
  Te2-  Te130  1  0.66552080  0.33269250  0.05672297  1
  Te2-  Te131  1  0.66371320  0.83074740  0.05746506  1
  Te2-  Te132  1  0.49414420  0.25063743  0.88275485  1
  Te2-  Te133  1  0.49278894  0.74268688  0.88258699  1
  Te2-  Te134  1  0.99128584  0.24229283  0.88178401  1
  Te2-  Te135  1  0.99233072  0.74660426  0.88302598  1
  Te2-  Te136  1  0.25122838  0.00657705  0.88386085  1
  Te2-  Te137  1  0.25021019  0.50396453  0.88201970  1
  Te2-  Te138  1  0.75004065  0.00223175  0.88368004  1
  Te2-  Te139  1  0.75324481  0.50553917  0.88590929  1
  Te2-  Te140  1  0.25430278  0.24999446  0.88030682  1
  Te2-  Te141  1  0.25168966  0.74622204  0.88390193  1
  Te2-  Te142  1  0.74991325  0.24317796  0.88445863  1
  Te2-  Te143  1  0.75306190  0.74572200  0.88717695  1
  Te2-  Te144  1  0.32306760  0.40830060  0.21508773  1
  Te2-  Te145  1  0.31855695  0.90913274  0.21548692  1
  Te2-  Te146  1  0.81978630  0.41027605  0.21634297  1
  Te2-  Te147  1  0.81775624  0.90896273  0.21686869  1
  Te2-  Te148  1  0.07992690  0.16601538  0.21297399  1
  Te2-  Te149  1  0.08190791  0.67042121  0.21531470  1
  Te2-  Te150  1  0.58017031  0.17069273  0.21465441  1
  Te2-  Te151  1  0.58020929  0.67094210  0.21580226  1
  Te2-  Te152  1  0.08100301  0.40890482  0.21332931  1
  Te2-  Te153  1  0.08041760  0.90788220  0.21627664  1
  Te2-  Te154  1  0.58372422  0.41091919  0.21712876  1
  Te2-  Te155  1  0.58001859  0.90986015  0.21452871  1
  Te2-  Te156  1  0.16461985  0.08305726  0.54887382  1
  Te2-  Te157  1  0.16502086  0.58246004  0.54900393  1
  Te2-  Te158  1  0.66343461  0.08269206  0.54992350  1
  Te2-  Te159  1  0.66569540  0.58341065  0.55183217  1
  Te2-  Te160  1  0.42121854  0.33989043  0.54943324  1
  Te2-  Te161  1  0.42178591  0.84104024  0.55293706  1
  Te2-  Te162  1  0.92138146  0.34011630  0.55252672  1
  Te2-  Te163  1  0.92093976  0.83925348  0.55507347  1
  Te2-  Te164  1  0.42146104  0.08203579  0.55274885  1
  Te2-  Te165  1  0.42186747  0.58321659  0.54980492  1
  Te2-  Te166  1  0.92065429  0.08255633  0.54945983  1
  Te2-  Te167  1  0.92156036  0.58242173  0.55544074  1
  Te2-  Te168  1  0.00313269  0.00317037  0.88213654  1
  Te2-  Te169  1  0.00313438  0.50144741  0.88301051  1
  Te2-  Te170  1  0.50139232  0.00137543  0.88451973  1
  Te2-  Te171  1  0.50277201  0.50221059  0.88219098  1
  Te2-  Te172  1  0.33297366  0.16648302  0.21381429  1
  Te2-  Te173  1  0.33334962  0.66719003  0.21388367  1
  Te2-  Te174  1  0.83245420  0.16759184  0.21373983  1
  Te2-  Te175  1  0.83400282  0.66758638  0.21469518  1
  Te2-  Te176  1  0.16863550  0.33480723  0.54772893  1
  Te2-  Te177  1  0.16970535  0.83532794  0.55035351  1
  Te2-  Te178  1  0.66850408  0.33372430  0.55044596  1
  Te2-  Te179  1  0.66805841  0.83572121  0.54979813  1
  Te2-  Te180  1  0.33307293  0.41800673  0.71105886  1
  Te2-  Te181  1  0.32843051  0.91531987  0.71018528  1
  Te2-  Te182  1  0.82825039  0.41337205  0.71099517  1
  Te2-  Te183  1  0.82926952  0.91626868  0.71192387  1
  Te2-  Te184  1  0.08822929  0.17354947  0.71017024  1
  Te2-  Te185  1  0.09197867  0.67355801  0.71001393  1
  Te2-  Te186  1  0.58975769  0.17412724  0.71132851  1
  Te2-  Te187  1  0.59051225  0.67593718  0.71208622  1
  Te2-  Te188  1  0.09045606  0.41544420  0.71002149  1
  Te2-  Te189  1  0.09176890  0.91772587  0.70956704  1
  Te2-  Te190  1  0.58928608  0.41639891  0.71142262  1
  Te2-  Te191  1  0.58934766  0.91721286  0.71189641  1
  Te2-  Te192  1  0.16200760  0.08247521  0.04198851  1
  Te2-  Te193  1  0.16009902  0.57957936  0.04010989  1
  Te2-  Te194  1  0.65913049  0.07913631  0.04035767  1
  Te2-  Te195  1  0.66071978  0.57980031  0.04233756  1
  Te2-  Te196  1  0.42027888  0.33927452  0.04326070  1
  Te2-  Te197  1  0.42332572  0.83991412  0.04061987  1
  Te2-  Te198  1  0.92277232  0.34066106  0.04059281  1
  Te2-  Te199  1  0.92458934  0.84352539  0.04246347  1
  Te2-  Te200  1  0.42350057  0.08215778  0.04072736  1
  Te2-  Te201  1  0.42000905  0.57907779  0.04152098  1
  Te2-  Te202  1  0.92081366  0.08155442  0.04122357  1
  Te2-  Te203  1  0.92487907  0.58365515  0.04152063  1
  Te2-  Te204  1  0.49514382  0.24758454  0.38027088  1
  Te2-  Te205  1  0.49412874  0.74740978  0.37962170  1
  Te2-  Te206  1  0.99381155  0.24662465  0.37832967  1
  Te2-  Te207  1  0.99384329  0.74609027  0.38234873  1
  Te2-  Te208  1  0.25064726  0.00459810  0.37971844  1
  Te2-  Te209  1  0.25140139  0.50506475  0.37769653  1
  Te2-  Te210  1  0.75064745  0.00489188  0.37882299  1
  Te2-  Te211  1  0.75266571  0.50576903  0.38174706  1
  Te2-  Te212  1  0.24994382  0.24567518  0.37734299  1
  Te2-  Te213  1  0.25125673  0.74642833  0.37993032  1
  Te2-  Te214  1  0.75143550  0.24636547  0.37962029  1
  Te2-  Te215  1  0.75081271  0.74575161  0.38112692  1
