# generated using pymatgen
data_Ti(CuTe)4
_symmetry_space_group_name_H-M   'P 1'
_cell_length_a   16.87567720
_cell_length_b   16.87618776
_cell_length_c   20.68933834
_cell_angle_alpha   90.00868666
_cell_angle_beta   90.01292690
_cell_angle_gamma   119.99693621
_symmetry_Int_Tables_number   1
_chemical_formula_structural   Ti(CuTe)4
_chemical_formula_sum   'Ti24 Cu96 Te96'
_cell_volume   5103.00704007
_cell_formula_units_Z   24
loop_
 _symmetry_equiv_pos_site_id
 _symmetry_equiv_pos_as_xyz
  1  'x, y, z'
loop_
 _atom_type_symbol
 _atom_type_oxidation_number
  Ti4+  4.0
  Cu+  1.0
  Te2-  -2.0
loop_
 _atom_site_type_symbol
 _atom_site_label
 _atom_site_symmetry_multiplicity
 _atom_site_fract_x
 _atom_site_fract_y
 _atom_site_fract_z
 _atom_site_occupancy
  Ti4+  Ti0  1  0.00123881  0.00337510  0.25858246  1
  Ti4+  Ti1  1  0.00115873  0.50507307  0.25918502  1
  Ti4+  Ti2  1  0.49956003  0.00055822  0.25644900  1
  Ti4+  Ti3  1  0.50126568  0.50385285  0.26208073  1
  Ti4+  Ti4  1  0.33403300  0.16487819  0.58872759  1
  Ti4+  Ti5  1  0.33496544  0.66546788  0.59043781  1
  Ti4+  Ti6  1  0.83229143  0.16351850  0.58910409  1
  Ti4+  Ti7  1  0.83553056  0.66395946  0.59074147  1
  Ti4+  Ti8  1  0.16218916  0.33100009  0.92536580  1
  Ti4+  Ti9  1  0.16477794  0.83467783  0.92417342  1
  Ti4+  Ti10  1  0.66533836  0.33295195  0.92346452  1
  Ti4+  Ti11  1  0.66498789  0.83143407  0.92739503  1
  Ti4+  Ti12  1  0.00081823  -0.00088275  0.75464879  1
  Ti4+  Ti13  1  -0.00078785  0.49756997  0.75532957  1
  Ti4+  Ti14  1  0.49944165  0.00030752  0.75625361  1
  Ti4+  Ti15  1  0.50109954  0.49981550  0.75600258  1
  Ti4+  Ti16  1  0.33281047  0.16776766  0.09123008  1
  Ti4+  Ti17  1  0.33344021  0.66906121  0.08893169  1
  Ti4+  Ti18  1  0.83275127  0.16709552  0.08953970  1
  Ti4+  Ti19  1  0.83268237  0.66571514  0.09161621  1
  Ti4+  Ti20  1  0.16673598  0.33472398  0.41914082  1
  Ti4+  Ti21  1  0.16716608  0.83349379  0.42241809  1
  Ti4+  Ti22  1  0.66780962  0.33314000  0.42041662  1
  Ti4+  Ti23  1  0.66664081  0.83405995  0.42059702  1
  Cu+  Cu24  1  0.84777696  0.41792939  0.47712006  1
  Cu+  Cu25  1  0.57252928  0.14181511  0.47211369  1
  Cu+  Cu26  1  0.58384469  0.41822298  0.48489088  1
  Cu+  Cu27  1  0.07149924  0.14327810  0.47210340  1
  Cu+  Cu28  1  0.52236218  0.76134654  0.14238276  1
  Cu+  Cu29  1  0.90140205  0.30628011  0.80534853  1
  Cu+  Cu30  1  0.40203576  0.09567863  0.80719355  1
  Cu+  Cu31  1  0.07907405  0.64672703  0.47604074  1
  Cu+  Cu32  1  0.57977646  0.65497494  0.47966032  1
  Cu+  Cu33  1  0.34270351  0.41945155  0.47875052  1
  Cu+  Cu34  1  0.23899927  0.76576553  0.13743956  1
  Cu+  Cu35  1  0.90583222  0.59234546  0.80993573  1
  Cu+  Cu36  1  0.16343617  0.08538341  0.17395523  1
  Cu+  Cu37  1  0.16410565  0.59169980  0.17054032  1
  Cu+  Cu38  1  0.66421258  0.08473408  0.17059506  1
  Cu+  Cu39  1  0.66477050  0.58336141  0.17517889  1
  Cu+  Cu40  1  0.41761798  0.33721301  0.17629358  1
  Cu+  Cu41  1  0.41746685  0.83702353  0.16831761  1
  Cu+  Cu42  1  0.91534601  0.33703994  0.17327401  1
  Cu+  Cu43  1  0.91876127  0.83715499  0.17371007  1
  Cu+  Cu44  1  0.41954283  0.08468821  0.17195519  1
  Cu+  Cu45  1  0.42339858  0.58737051  0.17320843  1
  Cu+  Cu46  1  0.92047631  0.08508335  0.17289921  1
  Cu+  Cu47  1  0.91960548  0.58433569  0.17382755  1
  Cu+  Cu48  1  0.49581250  0.24153453  0.49951478  1
  Cu+  Cu49  1  0.49775832  0.74759925  0.50183129  1
  Cu+  Cu50  1  0.99702884  0.24346205  0.50012926  1
  Cu+  Cu51  1  1.00006663  0.74456973  0.50372392  1
  Cu+  Cu52  1  0.25487378  0.00395307  0.50256165  1
  Cu+  Cu53  1  0.25605324  0.50703293  0.49921693  1
  Cu+  Cu54  1  0.75253869  0.00371492  0.50108537  1
  Cu+  Cu55  1  0.75979544  0.50735604  0.49950165  1
  Cu+  Cu56  1  0.24681728  0.24443310  0.49950086  1
  Cu+  Cu57  1  0.25090043  0.74656993  0.50451672  1
  Cu+  Cu58  1  0.74944964  0.24316100  0.50064175  1
  Cu+  Cu59  1  0.75258858  0.74953969  0.50270604  1
  Cu+  Cu60  1  0.32997246  0.41535216  0.83963375  1
  Cu+  Cu61  1  0.33017651  0.91999987  0.83854546  1
  Cu+  Cu62  1  0.83016550  0.41422386  0.83592459  1
  Cu+  Cu63  1  0.83077740  0.91417965  0.83955304  1
  Cu+  Cu64  1  0.08315312  0.16948325  0.83713203  1
  Cu+  Cu65  1  0.08152629  0.67086315  0.83815448  1
  Cu+  Cu66  1  0.57879759  0.16921923  0.83595028  1
  Cu+  Cu67  1  0.58384300  0.66961103  0.84061906  1
  Cu+  Cu68  1  0.07840678  0.40696095  0.83714401  1
  Cu+  Cu69  1  0.08447714  0.91393636  0.83615129  1
  Cu+  Cu70  1  0.58529533  0.41474599  0.83666476  1
  Cu+  Cu71  1  0.58321512  0.91160180  0.84127216  1
  Cu+  Cu72  1  0.16705877  0.08277039  0.67369689  1
  Cu+  Cu73  1  0.17047569  0.58285047  0.67542344  1
  Cu+  Cu74  1  0.66665981  0.08104308  0.67466531  1
  Cu+  Cu75  1  0.66798481  0.58318580  0.67734487  1
  Cu+  Cu76  1  0.41777889  0.33294712  0.67455571  1
  Cu+  Cu77  1  0.41689951  0.83012291  0.67362811  1
  Cu+  Cu78  1  0.91632127  0.32783967  0.67684510  1
  Cu+  Cu79  1  0.91730256  0.82997755  0.67442617  1
  Cu+  Cu80  1  0.41648442  0.08421424  0.67850841  1
  Cu+  Cu81  1  0.41841674  0.58432812  0.67671695  1
  Cu+  Cu82  1  0.91744804  0.08174921  0.67423632  1
  Cu+  Cu83  1  0.91794778  0.58296301  0.68109286  1
  Cu+  Cu84  1  0.00053939  0.25154672  0.00938699  1
  Cu+  Cu85  1  -0.00147867  0.74777258  0.00964899  1
  Cu+  Cu86  1  0.50013459  0.25160116  0.00927471  1
  Cu+  Cu87  1  0.50305674  0.75000625  0.01373656  1
  Cu+  Cu88  1  0.24606793  0.49592422  0.00791411  1
  Cu+  Cu89  1  0.24943750  1.00107614  0.00986656  1
  Cu+  Cu90  1  0.74952985  0.49770046  0.00972241  1
  Cu+  Cu91  1  0.74793568  0.99640630  0.00985878  1
  Cu+  Cu92  1  0.24807577  0.25302964  0.00922132  1
  Cu+  Cu93  1  0.24603512  0.75277783  0.00917420  1
  Cu+  Cu94  1  0.74853945  0.25094596  0.00660306  1
  Cu+  Cu95  1  0.74620321  0.74772467  0.01066053  1
  Cu+  Cu96  1  0.33671303  0.42223183  0.34709043  1
  Cu+  Cu97  1  0.33484740  0.91829266  0.33973195  1
  Cu+  Cu98  1  0.83720807  0.42017702  0.34678265  1
  Cu+  Cu99  1  0.83701887  0.92130111  0.34021585  1
  Cu+  Cu100  1  0.08055834  0.16426571  0.34438333  1
  Cu+  Cu101  1  0.08188025  0.66553005  0.34712686  1
  Cu+  Cu102  1  0.58192808  0.16228427  0.34376217  1
  Cu+  Cu103  1  0.58282561  0.66662470  0.34863171  1
  Cu+  Cu104  1  0.08313944  0.42080562  0.33815013  1
  Cu+  Cu105  1  0.08374309  0.92149306  0.34133306  1
  Cu+  Cu106  1  0.58263703  0.41898605  0.35011203  1
  Cu+  Cu107  1  0.58265060  0.91877491  0.33940395  1
  Cu+  Cu108  1  -0.00134460  -0.00198450  0.11643341  1
  Cu+  Cu109  1  -0.00109228  0.49701089  0.11682332  1
  Cu+  Cu110  1  0.50111536  0.00289960  0.11258683  1
  Cu+  Cu111  1  0.49955322  0.49737425  0.12005479  1
  Cu+  Cu112  1  0.33144895  0.16632035  0.44199972  1
  Cu+  Cu113  1  0.33593228  0.67325438  0.44430007  1
  Cu+  Cu114  1  0.83483873  0.16644646  0.44255896  1
  Cu+  Cu115  1  0.83868587  0.67559274  0.44616726  1
  Cu+  Cu116  1  0.17120485  0.33271900  0.78149761  1
  Cu+  Cu117  1  0.16856414  0.83287422  0.77990763  1
  Cu+  Cu118  1  0.66619147  0.33249821  0.77753610  1
  Cu+  Cu119  1  0.66941057  0.83400180  0.78465884  1
  Te2-  Te120  1  -0.00126167  -0.00135448  0.38922753  1
  Te2-  Te121  1  0.00210169  0.49982519  0.39171440  1
  Te2-  Te122  1  0.49777859  -0.00354862  0.38710255  1
  Te2-  Te123  1  0.50077888  0.50176608  0.39552976  1
  Te2-  Te124  1  0.33216978  0.16757236  0.71850520  1
  Te2-  Te125  1  0.33496283  0.66610217  0.71935695  1
  Te2-  Te126  1  0.83165396  0.16092277  0.71909255  1
  Te2-  Te127  1  0.83347417  0.66579582  0.72085405  1
  Te2-  Te128  1  0.16438775  0.33318582  0.05471660  1
  Te2-  Te129  1  0.16341894  0.83595342  0.05450745  1
  Te2-  Te130  1  0.66561564  0.33215651  0.05196518  1
  Te2-  Te131  1  0.66881376  0.83353330  0.05807169  1
  Te2-  Te132  1  0.49103626  0.24902875  0.88307101  1
  Te2-  Te133  1  0.49277353  0.74502586  0.88658371  1
  Te2-  Te134  1  0.98758072  0.24002902  0.88347819  1
  Te2-  Te135  1  0.99026840  0.74834566  0.88369097  1
  Te2-  Te136  1  0.24982617  0.00897232  0.88361788  1
  Te2-  Te137  1  0.24691860  0.50173285  0.88179720  1
  Te2-  Te138  1  0.75121310  0.00242778  0.88387714  1
  Te2-  Te139  1  0.75185936  0.50648465  0.88304360  1
  Te2-  Te140  1  0.24984229  0.24727243  0.88310583  1
  Te2-  Te141  1  0.25025158  0.75038158  0.88202301  1
  Te2-  Te142  1  0.74811084  0.24356204  0.88033721  1
  Te2-  Te143  1  0.75132733  0.74662661  0.88476645  1
  Te2-  Te144  1  0.33183245  0.42039372  0.21946256  1
  Te2-  Te145  1  0.32653858  0.91628443  0.21418928  1
  Te2-  Te146  1  0.82970921  0.41781885  0.21949464  1
  Te2-  Te147  1  0.83003190  0.91707659  0.21511668  1
  Te2-  Te148  1  0.08677805  0.17561349  0.21782013  1
  Te2-  Te149  1  0.08570671  0.67911260  0.21964137  1
  Te2-  Te150  1  0.58599097  0.17211632  0.21690768  1
  Te2-  Te151  1  0.59116398  0.67645031  0.22092104  1
  Te2-  Te152  1  0.08641319  0.42176326  0.21263887  1
  Te2-  Te153  1  0.08686590  0.91739353  0.21600885  1
  Te2-  Te154  1  0.58501417  0.41713474  0.22180136  1
  Te2-  Te155  1  0.58822671  0.91656363  0.21381050  1
  Te2-  Te156  1  0.16083992  0.07723571  0.54762949  1
  Te2-  Te157  1  0.16120637  0.57541119  0.54957943  1
  Te2-  Te158  1  0.65851344  0.07519549  0.54847771  1
  Te2-  Te159  1  0.66043365  0.57795252  0.55081241  1
  Te2-  Te160  1  0.42065770  0.33860550  0.54789238  1
  Te2-  Te161  1  0.41919507  0.83560278  0.54764524  1
  Te2-  Te162  1  0.92175264  0.33563692  0.54864582  1
  Te2-  Te163  1  0.91942061  0.83281863  0.54824043  1
  Te2-  Te164  1  0.41986077  0.07639103  0.55074762  1
  Te2-  Te165  1  0.42302286  0.57772273  0.55033520  1
  Te2-  Te166  1  0.91817570  0.07578392  0.54830192  1
  Te2-  Te167  1  0.92397992  0.57604163  0.55246237  1
  Te2-  Te168  1  0.00037910  -0.00026841  0.88085227  1
  Te2-  Te169  1  0.00014047  0.49994174  0.88247230  1
  Te2-  Te170  1  0.49997167  0.00002368  0.88297963  1
  Te2-  Te171  1  0.49957277  0.49897279  0.88209108  1
  Te2-  Te172  1  0.33330536  0.16744308  0.21763508  1
  Te2-  Te173  1  0.33373097  0.66872958  0.21643155  1
  Te2-  Te174  1  0.83317616  0.16805579  0.21592687  1
  Te2-  Te175  1  0.83476035  0.66896377  0.21802711  1
  Te2-  Te176  1  0.16766034  0.33503081  0.54696128  1
  Te2-  Te177  1  0.16923867  0.83426788  0.54953796  1
  Te2-  Te178  1  0.66838452  0.33330473  0.54901597  1
  Te2-  Te179  1  0.66761378  0.83403811  0.54805205  1
  Te2-  Te180  1  0.32930430  0.41388242  0.71162007  1
  Te2-  Te181  1  0.32799554  0.91164979  0.71025990  1
  Te2-  Te182  1  0.82608972  0.40982669  0.70792193  1
  Te2-  Te183  1  0.82849585  0.91158684  0.71147745  1
  Te2-  Te184  1  0.08678694  0.17191698  0.71036372  1
  Te2-  Te185  1  0.08962333  0.67147652  0.71088778  1
  Te2-  Te186  1  0.58833920  0.17251626  0.70910600  1
  Te2-  Te187  1  0.58794557  0.67302500  0.71334873  1
  Te2-  Te188  1  0.08771123  0.41272980  0.71051575  1
  Te2-  Te189  1  0.08731390  0.91281921  0.71009610  1
  Te2-  Te190  1  0.58692899  0.41292534  0.71061536  1
  Te2-  Te191  1  0.58499496  0.91257286  0.71399487  1
  Te2-  Te192  1  0.16102090  0.08287168  0.04694590  1
  Te2-  Te193  1  0.16080570  0.58127273  0.04354351  1
  Te2-  Te194  1  0.66125485  0.08099786  0.04400519  1
  Te2-  Te195  1  0.66017831  0.57833652  0.04828465  1
  Te2-  Te196  1  0.41816401  0.33933993  0.04797314  1
  Te2-  Te197  1  0.41909802  0.84100036  0.04088190  1
  Te2-  Te198  1  0.91749990  0.33879103  0.04546477  1
  Te2-  Te199  1  0.91727121  0.83690637  0.04636704  1
  Te2-  Te200  1  0.41905903  0.08205880  0.04553707  1
  Te2-  Te201  1  0.41593676  0.57785219  0.04612321  1
  Te2-  Te202  1  0.91877810  0.08088401  0.04607927  1
  Te2-  Te203  1  0.91886264  0.57923772  0.04732972  1
  Te2-  Te204  1  0.49294748  0.24563404  0.37329532  1
  Te2-  Te205  1  0.49315057  0.74957352  0.37491485  1
  Te2-  Te206  1  0.99421175  0.25076070  0.37343972  1
  Te2-  Te207  1  0.99484696  0.75104246  0.37664506  1
  Te2-  Te208  1  0.25333244  0.00571389  0.37696573  1
  Te2-  Te209  1  0.25205680  0.50979710  0.37409360  1
  Te2-  Te210  1  0.75232675  0.00619553  0.37563338  1
  Te2-  Te211  1  0.75521200  0.51020454  0.37470639  1
  Te2-  Te212  1  0.25416647  0.24835935  0.37243964  1
  Te2-  Te213  1  0.25474167  0.74906978  0.37617641  1
  Te2-  Te214  1  0.75447256  0.24646193  0.37312825  1
  Te2-  Te215  1  0.75641778  0.75075451  0.37553097  1
