# generated using pymatgen
data_Ti(CuTe)4
_symmetry_space_group_name_H-M   'P 1'
_cell_length_a   16.88404225
_cell_length_b   16.88997166
_cell_length_c   20.70936009
_cell_angle_alpha   90.01740131
_cell_angle_beta   90.06117732
_cell_angle_gamma   120.00373534
_symmetry_Int_Tables_number   1
_chemical_formula_structural   Ti(CuTe)4
_chemical_formula_sum   'Ti24 Cu96 Te96'
_cell_volume   5114.29604227
_cell_formula_units_Z   24
loop_
 _symmetry_equiv_pos_site_id
 _symmetry_equiv_pos_as_xyz
  1  'x, y, z'
loop_
 _atom_type_symbol
 _atom_type_oxidation_number
  Ti4+  4.0
  Cu+  1.0
  Te2-  -2.0
loop_
 _atom_site_type_symbol
 _atom_site_label
 _atom_site_symmetry_multiplicity
 _atom_site_fract_x
 _atom_site_fract_y
 _atom_site_fract_z
 _atom_site_occupancy
  Ti4+  Ti0  1  -0.00064178  -0.00275768  0.26012863  1
  Ti4+  Ti1  1  -0.00060481  0.49705303  0.25723296  1
  Ti4+  Ti2  1  0.49907779  0.00323079  0.25506334  1
  Ti4+  Ti3  1  0.49984231  0.50301017  0.25769614  1
  Ti4+  Ti4  1  0.33122712  0.16616170  0.59371736  1
  Ti4+  Ti5  1  0.33296739  0.66476506  0.58739951  1
  Ti4+  Ti6  1  0.83241177  0.16625311  0.59189364  1
  Ti4+  Ti7  1  0.83323983  0.66581142  0.59216941  1
  Ti4+  Ti8  1  0.16781929  0.33118810  0.92407876  1
  Ti4+  Ti9  1  0.16431875  0.83126137  0.92359921  1
  Ti4+  Ti10  1  0.66678465  0.33511566  0.92434450  1
  Ti4+  Ti11  1  0.66883913  0.83632621  0.92386851  1
  Ti4+  Ti12  1  -0.00083166  0.00050352  0.75288540  1
  Ti4+  Ti13  1  0.00133143  0.50082454  0.75591664  1
  Ti4+  Ti14  1  0.49993030  -0.00046212  0.75417515  1
  Ti4+  Ti15  1  0.50122365  0.49924504  0.75588963  1
  Ti4+  Ti16  1  0.33333894  0.16414747  0.08953116  1
  Ti4+  Ti17  1  0.33401154  0.66450081  0.08739941  1
  Ti4+  Ti18  1  0.83386813  0.16993583  0.08854153  1
  Ti4+  Ti19  1  0.83430315  0.67031943  0.09119140  1
  Ti4+  Ti20  1  0.16764349  0.33382361  0.42251030  1
  Ti4+  Ti21  1  0.16621383  0.83303226  0.42296414  1
  Ti4+  Ti22  1  0.66736894  0.33423163  0.42322893  1
  Ti4+  Ti23  1  0.66615425  0.83349103  0.42172124  1
  Cu+  Cu24  1  0.23785335  0.47445283  0.14070211  1
  Cu+  Cu25  1  0.90374595  0.58922497  0.80863448  1
  Cu+  Cu26  1  0.73735304  0.26398862  0.13981888  1
  Cu+  Cu27  1  0.17673745  0.08570364  0.81292960  1
  Cu+  Cu28  1  0.73808800  0.76531582  0.14208864  1
  Cu+  Cu29  1  0.90755368  0.82154598  0.81081557  1
  Cu+  Cu30  1  0.57325929  0.64456105  0.47449854  1
  Cu+  Cu31  1  0.23511365  0.97323039  0.14088527  1
  Cu+  Cu32  1  0.90758990  0.09466642  0.80750492  1
  Cu+  Cu33  1  0.41131534  0.31559105  0.81052515  1
  Cu+  Cu34  1  0.07322951  0.92691849  0.47830025  1
  Cu+  Cu35  1  0.07037144  0.64264156  0.47230004  1
  Cu+  Cu36  1  0.16532153  0.07524162  0.17352660  1
  Cu+  Cu37  1  0.16544096  0.57670973  0.17062174  1
  Cu+  Cu38  1  0.66472738  0.09081185  0.16927039  1
  Cu+  Cu39  1  0.66589954  0.59077843  0.17265161  1
  Cu+  Cu40  1  0.41923126  0.33648700  0.17182222  1
  Cu+  Cu41  1  0.41841740  0.83706327  0.16864727  1
  Cu+  Cu42  1  0.91414105  0.33764350  0.16885563  1
  Cu+  Cu43  1  0.91513026  0.83778491  0.17335022  1
  Cu+  Cu44  1  0.41371515  0.07697629  0.16861692  1
  Cu+  Cu45  1  0.41513192  0.57808773  0.16953721  1
  Cu+  Cu46  1  0.91895414  0.08400168  0.17278667  1
  Cu+  Cu47  1  0.91925189  0.58276892  0.17280895  1
  Cu+  Cu48  1  0.49880849  0.25114837  0.50728956  1
  Cu+  Cu49  1  0.49699745  0.74445597  0.50169951  1
  Cu+  Cu50  1  0.99772043  0.24784850  0.50652333  1
  Cu+  Cu51  1  0.99857544  0.74865961  0.50547913  1
  Cu+  Cu52  1  0.24637094  0.00421515  0.50597082  1
  Cu+  Cu53  1  0.25256041  0.50420790  0.50167704  1
  Cu+  Cu54  1  0.75154427  0.00425951  0.50543524  1
  Cu+  Cu55  1  0.75381544  0.50253109  0.50477123  1
  Cu+  Cu56  1  0.25164239  0.24897289  0.50671862  1
  Cu+  Cu57  1  0.24638823  0.74339330  0.50241212  1
  Cu+  Cu58  1  0.75070219  0.24769235  0.50571521  1
  Cu+  Cu59  1  0.74781305  0.74572389  0.50485241  1
  Cu+  Cu60  1  0.33298190  0.41232582  0.83776092  1
  Cu+  Cu61  1  0.33168739  0.91577829  0.83636554  1
  Cu+  Cu62  1  0.83164906  0.41878081  0.83907427  1
  Cu+  Cu63  1  0.82746749  0.91613880  0.83486912  1
  Cu+  Cu64  1  0.08607039  0.17284843  0.83400264  1
  Cu+  Cu65  1  0.07887530  0.66785042  0.83648519  1
  Cu+  Cu66  1  0.58621014  0.16880607  0.83681000  1
  Cu+  Cu67  1  0.58849612  0.67001814  0.83774497  1
  Cu+  Cu68  1  0.08782126  0.41663668  0.83766705  1
  Cu+  Cu69  1  0.08530639  0.91050890  0.83418638  1
  Cu+  Cu70  1  0.58429700  0.41209013  0.83734129  1
  Cu+  Cu71  1  0.58550090  0.91650607  0.83620108  1
  Cu+  Cu72  1  0.16865834  0.08569314  0.68143004  1
  Cu+  Cu73  1  0.17019774  0.58382221  0.67302167  1
  Cu+  Cu74  1  0.66842234  0.08316090  0.67505811  1
  Cu+  Cu75  1  0.66786760  0.58321480  0.67621223  1
  Cu+  Cu76  1  0.41501550  0.32972002  0.68154054  1
  Cu+  Cu77  1  0.41533167  0.82932486  0.67018854  1
  Cu+  Cu78  1  0.91712825  0.33027467  0.67495504  1
  Cu+  Cu79  1  0.91581186  0.83086867  0.67971087  1
  Cu+  Cu80  1  0.41531758  0.08411840  0.67456404  1
  Cu+  Cu81  1  0.41784723  0.58574619  0.67287229  1
  Cu+  Cu82  1  0.91354012  0.08526327  0.67840276  1
  Cu+  Cu83  1  0.91778837  0.58587794  0.68009074  1
  Cu+  Cu84  1  0.00240494  0.25121056  0.00868396  1
  Cu+  Cu85  1  0.00035271  0.75195595  0.01003948  1
  Cu+  Cu86  1  0.50153912  0.24998016  0.00917673  1
  Cu+  Cu87  1  0.50372270  0.75057057  0.00704136  1
  Cu+  Cu88  1  0.25051339  0.49461416  0.01194936  1
  Cu+  Cu89  1  0.24754482  0.99461231  0.01246298  1
  Cu+  Cu90  1  0.75043810  0.50107688  0.00930887  1
  Cu+  Cu91  1  0.75217042  1.00168639  0.00756383  1
  Cu+  Cu92  1  0.25016099  0.24860039  0.00969177  1
  Cu+  Cu93  1  0.24904492  0.74926796  0.00579772  1
  Cu+  Cu94  1  0.75039552  0.25614840  0.01087852  1
  Cu+  Cu95  1  0.75203815  0.75723890  0.01375226  1
  Cu+  Cu96  1  0.33477111  0.41841619  0.34302265  1
  Cu+  Cu97  1  0.33617640  0.92061378  0.34056140  1
  Cu+  Cu98  1  0.83414342  0.41599928  0.34311190  1
  Cu+  Cu99  1  0.83484321  0.91776826  0.34438680  1
  Cu+  Cu100  1  0.08443255  0.16255474  0.34352472  1
  Cu+  Cu101  1  0.08220681  0.66035267  0.34402338  1
  Cu+  Cu102  1  0.58193758  0.16760536  0.34025563  1
  Cu+  Cu103  1  0.58194612  0.66598322  0.34486291  1
  Cu+  Cu104  1  0.08248405  0.41489506  0.34098258  1
  Cu+  Cu105  1  0.08163881  0.91656829  0.34775574  1
  Cu+  Cu106  1  0.58424327  0.42135211  0.34185034  1
  Cu+  Cu107  1  0.58371617  0.92345275  0.33819940  1
  Cu+  Cu108  1  0.00274809  0.00691898  0.11795336  1
  Cu+  Cu109  1  0.00309714  0.50552756  0.11421983  1
  Cu+  Cu110  1  0.50254287  -0.00298089  0.11126517  1
  Cu+  Cu111  1  0.50331559  0.49759152  0.11518493  1
  Cu+  Cu112  1  0.33763825  0.16882264  0.45131626  1
  Cu+  Cu113  1  0.33530616  0.67074735  0.44354871  1
  Cu+  Cu114  1  0.83476331  0.16857264  0.44942718  1
  Cu+  Cu115  1  0.83295827  0.66672923  0.44896873  1
  Cu+  Cu116  1  0.17067804  0.34043179  0.77963875  1
  Cu+  Cu117  1  0.17261759  0.83040101  0.77974089  1
  Cu+  Cu118  1  0.66925505  0.33089227  0.78111890  1
  Cu+  Cu119  1  0.65906308  0.82926935  0.77953829  1
  Te2-  Te120  1  -0.00151456  -0.00051647  0.39076167  1
  Te2-  Te121  1  -0.00163535  0.49434436  0.38772744  1
  Te2-  Te122  1  0.50042765  0.00327378  0.38413076  1
  Te2-  Te123  1  0.49913525  0.49960218  0.38796455  1
  Te2-  Te124  1  0.33394985  0.16372637  0.72621483  1
  Te2-  Te125  1  0.33451962  0.66647604  0.71656113  1
  Te2-  Te126  1  0.83100689  0.16811234  0.72334616  1
  Te2-  Te127  1  0.83074476  0.66549263  0.72425355  1
  Te2-  Te128  1  0.16577179  0.32814107  0.05443765  1
  Te2-  Te129  1  0.16461342  0.82747260  0.05394886  1
  Te2-  Te130  1  0.66539624  0.33730085  0.05469909  1
  Te2-  Te131  1  0.66618943  0.83860073  0.05459692  1
  Te2-  Te132  1  0.49310078  0.24260220  0.88345485  1
  Te2-  Te133  1  0.49829828  0.74838240  0.88098658  1
  Te2-  Te134  1  0.99485029  0.24876735  0.88270425  1
  Te2-  Te135  1  0.98720445  0.74470257  0.88407942  1
  Te2-  Te136  1  0.25314223  0.00433148  0.88461073  1
  Te2-  Te137  1  0.25495077  0.50146423  0.88422776  1
  Te2-  Te138  1  0.75329037  0.00953083  0.88180406  1
  Te2-  Te139  1  0.75048401  0.50882348  0.88356316  1
  Te2-  Te140  1  0.25494087  0.24214844  0.88378565  1
  Te2-  Te141  1  0.24828283  0.74634401  0.87955707  1
  Te2-  Te142  1  0.75355069  0.25145576  0.88353266  1
  Te2-  Te143  1  0.75466254  0.74805700  0.88616338  1
  Te2-  Te144  1  0.32564598  0.41025804  0.21709195  1
  Te2-  Te145  1  0.32384903  0.90924054  0.21522356  1
  Te2-  Te146  1  0.82497096  0.41541301  0.21722969  1
  Te2-  Te147  1  0.82535498  0.91665612  0.21861427  1
  Te2-  Te148  1  0.08762203  0.16706662  0.21706147  1
  Te2-  Te149  1  0.08761347  0.66770034  0.21668507  1
  Te2-  Te150  1  0.58160100  0.17697260  0.21449551  1
  Te2-  Te151  1  0.58243390  0.67650685  0.21761558  1
  Te2-  Te152  1  0.08198933  0.40668693  0.21506028  1
  Te2-  Te153  1  0.08239325  0.90662971  0.22025104  1
  Te2-  Te154  1  0.58787454  0.42076527  0.21546544  1
  Te2-  Te155  1  0.58748572  0.92124932  0.21200280  1
  Te2-  Te156  1  0.15692308  0.08252596  0.55389024  1
  Te2-  Te157  1  0.15739908  0.57518444  0.54785022  1
  Te2-  Te158  1  0.66052559  0.08013129  0.54974559  1
  Te2-  Te159  1  0.66040635  0.57649455  0.55027955  1
  Te2-  Te160  1  0.41812345  0.33761413  0.55419763  1
  Te2-  Te161  1  0.41704279  0.83478785  0.54403511  1
  Te2-  Te162  1  0.91901125  0.33763807  0.54939701  1
  Te2-  Te163  1  0.91662128  0.83788242  0.55152356  1
  Te2-  Te164  1  0.41553164  0.08098161  0.54844707  1
  Te2-  Te165  1  0.41883438  0.57562116  0.54770455  1
  Te2-  Te166  1  0.91851994  0.08006699  0.55185850  1
  Te2-  Te167  1  0.92000017  0.57958191  0.55257145  1
  Te2-  Te168  1  0.00108766  0.00012234  0.88104840  1
  Te2-  Te169  1  0.00222124  0.49951555  0.88286134  1
  Te2-  Te170  1  0.50020840  -0.00030089  0.88047337  1
  Te2-  Te171  1  0.50284245  0.50087514  0.88283148  1
  Te2-  Te172  1  0.33563766  0.16730701  0.21625975  1
  Te2-  Te173  1  0.33531885  0.66832854  0.21416860  1
  Te2-  Te174  1  0.83399498  0.16876082  0.21538295  1
  Te2-  Te175  1  0.83510257  0.66784328  0.21782980  1
  Te2-  Te176  1  0.16779427  0.33533589  0.54887131  1
  Te2-  Te177  1  0.16878511  0.83413373  0.55027534  1
  Te2-  Te178  1  0.66796882  0.33397838  0.54969951  1
  Te2-  Te179  1  0.66575417  0.83388962  0.54853665  1
  Te2-  Te180  1  0.32875739  0.41643211  0.71061145  1
  Te2-  Te181  1  0.32913761  0.91327241  0.70893862  1
  Te2-  Te182  1  0.82885580  0.41277304  0.71119957  1
  Te2-  Te183  1  0.82393150  0.91199612  0.70818155  1
  Te2-  Te184  1  0.08641411  0.17620185  0.70801569  1
  Te2-  Te185  1  0.08996278  0.67292146  0.70954914  1
  Te2-  Te186  1  0.58591212  0.17130711  0.71035593  1
  Te2-  Te187  1  0.58659590  0.67135588  0.71106590  1
  Te2-  Te188  1  0.08694813  0.41488440  0.71100291  1
  Te2-  Te189  1  0.08814013  0.91275690  0.70809739  1
  Te2-  Te190  1  0.58863412  0.41319388  0.71075828  1
  Te2-  Te191  1  0.58449650  0.91294950  0.70953355  1
  Te2-  Te192  1  0.15991253  0.07893325  0.04555361  1
  Te2-  Te193  1  0.16150517  0.57934928  0.04261650  1
  Te2-  Te194  1  0.66222946  0.08285390  0.04174475  1
  Te2-  Te195  1  0.66250382  0.58355483  0.04508249  1
  Te2-  Te196  1  0.41956579  0.33711902  0.04546377  1
  Te2-  Te197  1  0.41890331  0.83628191  0.04208997  1
  Te2-  Te198  1  0.92288410  0.34237937  0.04262303  1
  Te2-  Te199  1  0.92357020  0.84378159  0.04683976  1
  Te2-  Te200  1  0.42097978  0.07957764  0.04247985  1
  Te2-  Te201  1  0.42341732  0.58072858  0.04312275  1
  Te2-  Te202  1  0.92020617  0.08265089  0.04606761  1
  Te2-  Te203  1  0.91910600  0.58265724  0.04636985  1
  Te2-  Te204  1  0.49606072  0.25094170  0.37964403  1
  Te2-  Te205  1  0.49529016  0.75260260  0.37438607  1
  Te2-  Te206  1  0.99566500  0.24515653  0.37927972  1
  Te2-  Te207  1  0.99262395  0.74336972  0.37759750  1
  Te2-  Te208  1  0.25402926  0.00685796  0.37897781  1
  Te2-  Te209  1  0.25218994  0.50585046  0.37635881  1
  Te2-  Te210  1  0.75228467  0.00601541  0.37896511  1
  Te2-  Te211  1  0.75402410  0.50606827  0.37866072  1
  Te2-  Te212  1  0.25460807  0.24800066  0.38031470  1
  Te2-  Te213  1  0.25459332  0.75004459  0.37538897  1
  Te2-  Te214  1  0.75112485  0.24642527  0.37898859  1
  Te2-  Te215  1  0.75402927  0.74760223  0.37788900  1
