# generated using pymatgen
data_Ti(CuTe)4
_symmetry_space_group_name_H-M   'P 1'
_cell_length_a   16.84318021
_cell_length_b   16.84353281
_cell_length_c   20.64217125
_cell_angle_alpha   90.03586598
_cell_angle_beta   89.98126106
_cell_angle_gamma   119.99101984
_symmetry_Int_Tables_number   1
_chemical_formula_structural   Ti(CuTe)4
_chemical_formula_sum   'Ti24 Cu96 Te96'
_cell_volume   5072.03798939
_cell_formula_units_Z   24
loop_
 _symmetry_equiv_pos_site_id
 _symmetry_equiv_pos_as_xyz
  1  'x, y, z'
loop_
 _atom_type_symbol
 _atom_type_oxidation_number
  Ti4+  4.0
  Cu+  1.0
  Te2-  -2.0
loop_
 _atom_site_type_symbol
 _atom_site_label
 _atom_site_symmetry_multiplicity
 _atom_site_fract_x
 _atom_site_fract_y
 _atom_site_fract_z
 _atom_site_occupancy
  Ti4+  Ti0  1  -0.00311973  -0.00122192  0.25702964  1
  Ti4+  Ti1  1  -0.00326134  0.50017002  0.25923331  1
  Ti4+  Ti2  1  0.50209737  0.00200625  0.25896009  1
  Ti4+  Ti3  1  0.49716279  0.49987647  0.25970890  1
  Ti4+  Ti4  1  0.33651664  0.16978822  0.59399323  1
  Ti4+  Ti5  1  0.33391493  0.66500368  0.58971953  1
  Ti4+  Ti6  1  0.83015539  0.16584913  0.59119590  1
  Ti4+  Ti7  1  0.83653034  0.66589732  0.58994092  1
  Ti4+  Ti8  1  0.16821976  0.33411638  0.92385312  1
  Ti4+  Ti9  1  0.16612340  0.83101812  0.92103761  1
  Ti4+  Ti10  1  0.66798049  0.33120484  0.92588435  1
  Ti4+  Ti11  1  0.66648915  0.83299078  0.92239605  1
  Ti4+  Ti12  1  -0.00024441  -0.00003447  0.75240352  1
  Ti4+  Ti13  1  0.00014319  0.50060301  0.75654032  1
  Ti4+  Ti14  1  0.50194197  0.00023526  0.75394185  1
  Ti4+  Ti15  1  0.49947206  0.49968797  0.75374214  1
  Ti4+  Ti16  1  0.33413476  0.16769611  0.09092252  1
  Ti4+  Ti17  1  0.33373494  0.66666170  0.09026519  1
  Ti4+  Ti18  1  0.83185281  0.16625865  0.08874513  1
  Ti4+  Ti19  1  0.83396017  0.66703753  0.08954677  1
  Ti4+  Ti20  1  0.16849624  0.33602374  0.42227984  1
  Ti4+  Ti21  1  0.16495316  0.83348804  0.42334129  1
  Ti4+  Ti22  1  0.66509308  0.33215320  0.42229272  1
  Ti4+  Ti23  1  0.66602597  0.83489678  0.42335849  1
  Cu+  Cu24  1  0.17693010  0.08615415  0.81253619  1
  Cu+  Cu25  1  0.36241740  0.42815051  0.47491532  1
  Cu+  Cu26  1  0.73531291  0.26157925  0.14330687  1
  Cu+  Cu27  1  0.73541627  0.97640733  0.13910690  1
  Cu+  Cu28  1  0.84675455  0.41654702  0.47644396  1
  Cu+  Cu29  1  0.56899128  0.14137949  0.47621683  1
  Cu+  Cu30  1  0.41668943  0.08670109  0.81788058  1
  Cu+  Cu31  1  0.69180391  0.09457143  0.80916482  1
  Cu+  Cu32  1  0.41101878  0.31997359  0.81300475  1
  Cu+  Cu33  1  0.90211987  0.80809100  0.80464342  1
  Cu+  Cu34  1  0.40798198  0.81101568  0.80446769  1
  Cu+  Cu35  1  0.07816388  0.64770931  0.47554405  1
  Cu+  Cu36  1  0.16473484  0.08316421  0.17214362  1
  Cu+  Cu37  1  0.16454407  0.58502054  0.17365743  1
  Cu+  Cu38  1  0.66282100  0.08275445  0.17053223  1
  Cu+  Cu39  1  0.66482959  0.58358227  0.17373913  1
  Cu+  Cu40  1  0.41489838  0.33699619  0.17464233  1
  Cu+  Cu41  1  0.41681807  0.83509904  0.17205582  1
  Cu+  Cu42  1  0.91096265  0.33752720  0.17079922  1
  Cu+  Cu43  1  0.91779049  0.83655874  0.17031869  1
  Cu+  Cu44  1  0.41881998  0.08466881  0.17334232  1
  Cu+  Cu45  1  0.41494543  0.57994584  0.17381712  1
  Cu+  Cu46  1  0.91196816  0.07513545  0.16862619  1
  Cu+  Cu47  1  0.91830874  0.58279771  0.17309051  1
  Cu+  Cu48  1  0.49591406  0.24375938  0.50418183  1
  Cu+  Cu49  1  0.49806399  0.75006100  0.50460707  1
  Cu+  Cu50  1  0.99910631  0.24950471  0.50347187  1
  Cu+  Cu51  1  0.99763281  0.74479395  0.50357237  1
  Cu+  Cu52  1  0.25174575  0.00398533  0.50660361  1
  Cu+  Cu53  1  0.25842641  0.50318770  0.50124327  1
  Cu+  Cu54  1  0.74887928  0.00253545  0.50532880  1
  Cu+  Cu55  1  0.75749420  0.50426696  0.50168330  1
  Cu+  Cu56  1  0.25644500  0.25586258  0.50645352  1
  Cu+  Cu57  1  0.25017142  0.74786685  0.50559239  1
  Cu+  Cu58  1  0.74748572  0.24305301  0.50394128  1
  Cu+  Cu59  1  0.75257494  0.75210619  0.50628143  1
  Cu+  Cu60  1  0.32875944  0.41358758  0.83490765  1
  Cu+  Cu61  1  0.32840726  0.90866482  0.83224337  1
  Cu+  Cu62  1  0.83235815  0.41336668  0.84016934  1
  Cu+  Cu63  1  0.82931348  0.91027616  0.83353695  1
  Cu+  Cu64  1  0.08782095  0.17333249  0.83384243  1
  Cu+  Cu65  1  0.08573380  0.66955670  0.83563605  1
  Cu+  Cu66  1  0.59328909  0.17450694  0.83531917  1
  Cu+  Cu67  1  0.58542070  0.67036556  0.83415118  1
  Cu+  Cu68  1  0.08480692  0.41747913  0.83878092  1
  Cu+  Cu69  1  0.07915189  0.90979929  0.83247136  1
  Cu+  Cu70  1  0.58498397  0.41673876  0.83754432  1
  Cu+  Cu71  1  0.58626997  0.91502844  0.83365969  1
  Cu+  Cu72  1  0.17085031  0.08924898  0.68023182  1
  Cu+  Cu73  1  0.16780810  0.58371490  0.67285132  1
  Cu+  Cu74  1  0.67024763  0.08636165  0.67999893  1
  Cu+  Cu75  1  0.66967852  0.58600430  0.67177586  1
  Cu+  Cu76  1  0.41674256  0.33251134  0.68040168  1
  Cu+  Cu77  1  0.41445859  0.82718496  0.67691671  1
  Cu+  Cu78  1  0.91281924  0.33145163  0.67545557  1
  Cu+  Cu79  1  0.91333284  0.82806625  0.67628331  1
  Cu+  Cu80  1  0.41817367  0.08625934  0.68309051  1
  Cu+  Cu81  1  0.41692437  0.58433024  0.67325294  1
  Cu+  Cu82  1  0.91376623  0.08420474  0.67304125  1
  Cu+  Cu83  1  0.91751969  0.58360922  0.67616761  1
  Cu+  Cu84  1  0.00392483  0.25255915  0.00793968  1
  Cu+  Cu85  1  0.00196737  0.75044388  0.00713816  1
  Cu+  Cu86  1  0.50108086  0.25027643  0.01165560  1
  Cu+  Cu87  1  0.50065048  0.75045947  0.00808728  1
  Cu+  Cu88  1  0.24999248  0.49837303  0.00771862  1
  Cu+  Cu89  1  0.25058907  0.99849382  0.00744374  1
  Cu+  Cu90  1  0.75075733  0.49776232  0.01035308  1
  Cu+  Cu91  1  0.74868473  0.99659887  0.01040738  1
  Cu+  Cu92  1  0.25131208  0.25213068  0.00975395  1
  Cu+  Cu93  1  0.25004642  0.75119861  0.00720980  1
  Cu+  Cu94  1  0.74876743  0.25135405  0.01462734  1
  Cu+  Cu95  1  0.75038325  0.75093330  0.00828778  1
  Cu+  Cu96  1  0.33737190  0.41971330  0.34681332  1
  Cu+  Cu97  1  0.33510254  0.92129034  0.34257124  1
  Cu+  Cu98  1  0.83373171  0.41872635  0.34706679  1
  Cu+  Cu99  1  0.83460261  0.91932770  0.34159079  1
  Cu+  Cu100  1  0.08006812  0.16372655  0.33945792  1
  Cu+  Cu101  1  0.07919779  0.66377675  0.34709309  1
  Cu+  Cu102  1  0.57986242  0.16325447  0.34774760  1
  Cu+  Cu103  1  0.58056570  0.66618193  0.34244413  1
  Cu+  Cu104  1  0.08105827  0.41751906  0.34000072  1
  Cu+  Cu105  1  0.08253621  0.92056406  0.34073454  1
  Cu+  Cu106  1  0.57916670  0.41556611  0.34256887  1
  Cu+  Cu107  1  0.58401826  0.92037523  0.34246734  1
  Cu+  Cu108  1  0.00493781  0.00019996  0.11353574  1
  Cu+  Cu109  1  0.00488011  0.50391729  0.11668263  1
  Cu+  Cu110  1  0.49460631  -0.00329955  0.11587121  1
  Cu+  Cu111  1  0.50273477  0.50249682  0.11803644  1
  Cu+  Cu112  1  0.32672221  0.16591914  0.45042844  1
  Cu+  Cu113  1  0.33373011  0.66917630  0.44589596  1
  Cu+  Cu114  1  0.83723311  0.16553388  0.44794656  1
  Cu+  Cu115  1  0.83191685  0.67178681  0.44768565  1
  Cu+  Cu116  1  0.16525128  0.33883877  0.77854433  1
  Cu+  Cu117  1  0.16380748  0.83216009  0.77448514  1
  Cu+  Cu118  1  0.67144665  0.34259906  0.78176122  1
  Cu+  Cu119  1  0.66663094  0.83291262  0.77697113  1
  Te2-  Te120  1  -0.00097342  0.00072247  0.38662169  1
  Te2-  Te121  1  -0.00002923  0.49733302  0.39157591  1
  Te2-  Te122  1  0.49736238  -0.00354407  0.39019325  1
  Te2-  Te123  1  0.50437663  0.50313566  0.39094392  1
  Te2-  Te124  1  0.33486148  0.16786958  0.72733914  1
  Te2-  Te125  1  0.33090658  0.66098561  0.72065442  1
  Te2-  Te126  1  0.83681765  0.16844503  0.72238474  1
  Te2-  Te127  1  0.83146782  0.66200117  0.72100188  1
  Te2-  Te128  1  0.16796538  0.33414718  0.05298966  1
  Te2-  Te129  1  0.16698816  0.83312477  0.04964848  1
  Te2-  Te130  1  0.66507924  0.33476757  0.05657295  1
  Te2-  Te131  1  0.66475471  0.82953839  0.05290288  1
  Te2-  Te132  1  0.49273725  0.24477131  0.88485092  1
  Te2-  Te133  1  0.49336214  0.74533897  0.88131319  1
  Te2-  Te134  1  0.99687901  0.24756892  0.88165120  1
  Te2-  Te135  1  0.99192303  0.74341972  0.88101194  1
  Te2-  Te136  1  0.25407836  0.00586943  0.88048840  1
  Te2-  Te137  1  0.25453325  0.50537688  0.88130174  1
  Te2-  Te138  1  0.75672409  0.00560436  0.88215128  1
  Te2-  Te139  1  0.75146937  0.50200101  0.88382684  1
  Te2-  Te140  1  0.25575063  0.24396015  0.88363821  1
  Te2-  Te141  1  0.25320483  0.74340790  0.88136526  1
  Te2-  Te142  1  0.75718035  0.24581282  0.88730496  1
  Te2-  Te143  1  0.75078858  0.74296974  0.88228421  1
  Te2-  Te144  1  0.32388661  0.41301404  0.22033488  1
  Te2-  Te145  1  0.33065961  0.91662774  0.21694333  1
  Te2-  Te146  1  0.82161705  0.41522944  0.21988557  1
  Te2-  Te147  1  0.82131031  0.90785800  0.21560186  1
  Te2-  Te148  1  0.08039822  0.16956374  0.21309794  1
  Te2-  Te149  1  0.08485167  0.67256835  0.22030060  1
  Te2-  Te150  1  0.58627642  0.17585105  0.22013292  1
  Te2-  Te151  1  0.58366571  0.67132865  0.21652128  1
  Te2-  Te152  1  0.07984241  0.41377661  0.21381722  1
  Te2-  Te153  1  0.08527869  0.91472421  0.21508699  1
  Te2-  Te154  1  0.58369225  0.41459346  0.21699018  1
  Te2-  Te155  1  0.58554391  0.91252655  0.21622582  1
  Te2-  Te156  1  0.16594838  0.08711707  0.55212556  1
  Te2-  Te157  1  0.16142827  0.57462261  0.54705445  1
  Te2-  Te158  1  0.65549430  0.07641986  0.55281374  1
  Te2-  Te159  1  0.66640732  0.58084949  0.54620652  1
  Te2-  Te160  1  0.42766473  0.34231284  0.55214621  1
  Te2-  Te161  1  0.41753313  0.83745118  0.55051466  1
  Te2-  Te162  1  0.92029573  0.33840404  0.54946773  1
  Te2-  Te163  1  0.92202697  0.83739041  0.54961751  1
  Te2-  Te164  1  0.41875795  0.07752457  0.55481205  1
  Te2-  Te165  1  0.42581113  0.58247798  0.54837304  1
  Te2-  Te166  1  0.91756209  0.08206277  0.54787841  1
  Te2-  Te167  1  0.92410214  0.57560878  0.55028406  1
  Te2-  Te168  1  0.00038331  0.00123027  0.88045526  1
  Te2-  Te169  1  0.00136797  0.50186357  0.88345716  1
  Te2-  Te170  1  0.50066040  0.00017265  0.88264937  1
  Te2-  Te171  1  0.49954058  0.50145486  0.88135403  1
  Te2-  Te172  1  0.33232196  0.16730227  0.21778187  1
  Te2-  Te173  1  0.33259218  0.66722996  0.21724136  1
  Te2-  Te174  1  0.83350619  0.16708502  0.21613139  1
  Te2-  Te175  1  0.83389459  0.66826894  0.21639797  1
  Te2-  Te176  1  0.16676735  0.33532330  0.54977703  1
  Te2-  Te177  1  0.16671145  0.83454257  0.55077275  1
  Te2-  Te178  1  0.66739713  0.33444448  0.55009109  1
  Te2-  Te179  1  0.66650905  0.83421849  0.55031358  1
  Te2-  Te180  1  0.32549836  0.41459845  0.70780936  1
  Te2-  Te181  1  0.32668584  0.91236119  0.70596804  1
  Te2-  Te182  1  0.82764531  0.41430514  0.71263344  1
  Te2-  Te183  1  0.82625402  0.91425971  0.70690574  1
  Te2-  Te184  1  0.08371783  0.17505703  0.70758539  1
  Te2-  Te185  1  0.08728805  0.67197589  0.70902983  1
  Te2-  Te186  1  0.59018518  0.17821677  0.70938826  1
  Te2-  Te187  1  0.58672984  0.67214490  0.70805840  1
  Te2-  Te188  1  0.08394835  0.41412315  0.71029351  1
  Te2-  Te189  1  0.08755278  0.91430695  0.70493814  1
  Te2-  Te190  1  0.59010671  0.41666689  0.70928522  1
  Te2-  Te191  1  0.58747755  0.91226952  0.70662863  1
  Te2-  Te192  1  0.16331319  0.08124918  0.04418749  1
  Te2-  Te193  1  0.16272948  0.58165819  0.04551230  1
  Te2-  Te194  1  0.65728370  0.07782389  0.04317683  1
  Te2-  Te195  1  0.66184018  0.58040837  0.04569957  1
  Te2-  Te196  1  0.42066514  0.34048592  0.04717697  1
  Te2-  Te197  1  0.41910268  0.83843082  0.04486883  1
  Te2-  Te198  1  0.92208354  0.34052650  0.04422139  1
  Te2-  Te199  1  0.92037647  0.83890508  0.04358777  1
  Te2-  Te200  1  0.41945813  0.08028915  0.04598028  1
  Te2-  Te201  1  0.41956206  0.58042711  0.04627727  1
  Te2-  Te202  1  0.92135098  0.08230914  0.04232963  1
  Te2-  Te203  1  0.92091325  0.58106296  0.04610890  1
  Te2-  Te204  1  0.49003766  0.24659253  0.37812692  1
  Te2-  Te205  1  0.49425089  0.74983254  0.37783640  1
  Te2-  Te206  1  0.99590995  0.24861173  0.37696905  1
  Te2-  Te207  1  0.99245958  0.75027672  0.37679743  1
  Te2-  Te208  1  0.25131521  0.00636240  0.37993829  1
  Te2-  Te209  1  0.25139270  0.50822486  0.37475163  1
  Te2-  Te210  1  0.75288929  0.00701994  0.37852694  1
  Te2-  Te211  1  0.74923856  0.50671237  0.37598473  1
  Te2-  Te212  1  0.25050517  0.24578874  0.37802830  1
  Te2-  Te213  1  0.25346108  0.74989030  0.37742687  1
  Te2-  Te214  1  0.75347873  0.24554899  0.37680555  1
  Te2-  Te215  1  0.75138209  0.74925922  0.37845526  1
