# generated using pymatgen
data_Ti(CuTe)4
_symmetry_space_group_name_H-M   'P 1'
_cell_length_a   16.90635388
_cell_length_b   16.90410357
_cell_length_c   20.72731166
_cell_angle_alpha   89.95746767
_cell_angle_beta   90.00012163
_cell_angle_gamma   120.00282174
_symmetry_Int_Tables_number   1
_chemical_formula_structural   Ti(CuTe)4
_chemical_formula_sum   'Ti24 Cu96 Te96'
_cell_volume   5129.83269663
_cell_formula_units_Z   24
loop_
 _symmetry_equiv_pos_site_id
 _symmetry_equiv_pos_as_xyz
  1  'x, y, z'
loop_
 _atom_type_symbol
 _atom_type_oxidation_number
  Ti4+  4.0
  Cu+  1.0
  Te2-  -2.0
loop_
 _atom_site_type_symbol
 _atom_site_label
 _atom_site_symmetry_multiplicity
 _atom_site_fract_x
 _atom_site_fract_y
 _atom_site_fract_z
 _atom_site_occupancy
  Ti4+  Ti0  1  -0.00182428  -0.00036254  0.25848054  1
  Ti4+  Ti1  1  -0.00089569  0.50006809  0.25503196  1
  Ti4+  Ti2  1  0.49725296  0.00082001  0.25539508  1
  Ti4+  Ti3  1  0.49927505  0.49962036  0.25863414  1
  Ti4+  Ti4  1  0.33331807  0.16899869  0.59258850  1
  Ti4+  Ti5  1  0.33369005  0.66710418  0.58812424  1
  Ti4+  Ti6  1  0.83072216  0.16647012  0.59020325  1
  Ti4+  Ti7  1  0.83334534  0.66598838  0.59569996  1
  Ti4+  Ti8  1  0.16952024  0.33204438  0.92890337  1
  Ti4+  Ti9  1  0.16814908  0.83391621  0.92221817  1
  Ti4+  Ti10  1  0.66955466  0.33301736  0.92363163  1
  Ti4+  Ti11  1  0.66884138  0.83430768  0.92137866  1
  Ti4+  Ti12  1  0.00172760  0.00113489  0.75354237  1
  Ti4+  Ti13  1  0.00009114  0.49866362  0.75549953  1
  Ti4+  Ti14  1  0.50142336  0.00003922  0.75457159  1
  Ti4+  Ti15  1  0.49909498  0.50005571  0.75578265  1
  Ti4+  Ti16  1  0.33444189  0.16625851  0.08799637  1
  Ti4+  Ti17  1  0.33393101  0.66780396  0.08719056  1
  Ti4+  Ti18  1  0.83281716  0.16589615  0.08731684  1
  Ti4+  Ti19  1  0.83433337  0.66626532  0.08885152  1
  Ti4+  Ti20  1  0.16755633  0.33360953  0.42215695  1
  Ti4+  Ti21  1  0.16374051  0.83172339  0.42347894  1
  Ti4+  Ti22  1  0.66634292  0.33290758  0.42407736  1
  Ti4+  Ti23  1  0.66384332  0.83407979  0.42195718  1
  Cu+  Cu24  1  0.35725254  0.42800823  0.47565357  1
  Cu+  Cu25  1  0.19046955  0.09624261  0.80751422  1
  Cu+  Cu26  1  0.67920333  0.58829680  0.81159377  1
  Cu+  Cu27  1  0.24555819  0.25363234  0.14984724  1
  Cu+  Cu28  1  0.91459051  0.82528399  0.81316316  1
  Cu+  Cu29  1  0.69162919  0.09510796  0.80626307  1
  Cu+  Cu30  1  0.00608097  0.25223562  0.14992210  1
  Cu+  Cu31  1  0.56880510  0.93040099  0.47099366  1
  Cu+  Cu32  1  0.24713037  0.49380225  0.15027927  1
  Cu+  Cu33  1  0.23800950  0.76350541  0.13806535  1
  Cu+  Cu34  1  0.91298436  0.58840832  0.81504589  1
  Cu+  Cu35  1  0.73646275  0.25972878  0.14020208  1
  Cu+  Cu36  1  0.16165697  0.08039989  0.17067645  1
  Cu+  Cu37  1  0.16342786  0.58626654  0.16721950  1
  Cu+  Cu38  1  0.66146180  0.08468683  0.16877936  1
  Cu+  Cu39  1  0.66497797  0.58170419  0.17269471  1
  Cu+  Cu40  1  0.41856944  0.33722013  0.17067830  1
  Cu+  Cu41  1  0.41347573  0.83714756  0.16863310  1
  Cu+  Cu42  1  0.91394600  0.33596447  0.16718185  1
  Cu+  Cu43  1  0.91645677  0.83467994  0.17246675  1
  Cu+  Cu44  1  0.41871552  0.08067685  0.16795647  1
  Cu+  Cu45  1  0.41994099  0.58012619  0.17017645  1
  Cu+  Cu46  1  0.91897145  0.07906255  0.17039717  1
  Cu+  Cu47  1  0.91780788  0.58097788  0.16871283  1
  Cu+  Cu48  1  0.49706279  0.24971628  0.50634576  1
  Cu+  Cu49  1  0.49527683  0.75307786  0.50131679  1
  Cu+  Cu50  1  0.99646822  0.24918970  0.50509942  1
  Cu+  Cu51  1  0.99542906  0.74628246  0.50847824  1
  Cu+  Cu52  1  0.24689617  0.00092388  0.50755880  1
  Cu+  Cu53  1  0.25593380  0.50251453  0.50245370  1
  Cu+  Cu54  1  0.74339774  0.00244688  0.50363368  1
  Cu+  Cu55  1  0.75165850  0.50179244  0.50912433  1
  Cu+  Cu56  1  0.25533205  0.25283278  0.50533650  1
  Cu+  Cu57  1  0.24867536  0.74636202  0.50321612  1
  Cu+  Cu58  1  0.75088351  0.24772913  0.50474717  1
  Cu+  Cu59  1  0.75040323  0.74836933  0.50831154  1
  Cu+  Cu60  1  0.32913939  0.41342944  0.84025262  1
  Cu+  Cu61  1  0.33127227  0.91397267  0.83635279  1
  Cu+  Cu62  1  0.82925377  0.41395104  0.83675103  1
  Cu+  Cu63  1  0.82712683  0.91204248  0.83305334  1
  Cu+  Cu64  1  0.09114703  0.17007731  0.83876167  1
  Cu+  Cu65  1  0.08652709  0.66989541  0.83632881  1
  Cu+  Cu66  1  0.59018954  0.16760907  0.83741891  1
  Cu+  Cu67  1  0.58690390  0.66961585  0.83560711  1
  Cu+  Cu68  1  0.08654199  0.41420367  0.84119714  1
  Cu+  Cu69  1  0.09042707  0.91792698  0.83345552  1
  Cu+  Cu70  1  0.58619037  0.41588244  0.83751364  1
  Cu+  Cu71  1  0.59031883  0.92036860  0.83566767  1
  Cu+  Cu72  1  0.17091894  0.08874217  0.67860867  1
  Cu+  Cu73  1  0.16968613  0.58132052  0.67213993  1
  Cu+  Cu74  1  0.66937685  0.08449719  0.67781208  1
  Cu+  Cu75  1  0.66950805  0.58462129  0.68157073  1
  Cu+  Cu76  1  0.41238498  0.33297827  0.67716171  1
  Cu+  Cu77  1  0.41506464  0.83075118  0.67260291  1
  Cu+  Cu78  1  0.91681628  0.33156355  0.67485112  1
  Cu+  Cu79  1  0.91602365  0.83093347  0.68129225  1
  Cu+  Cu80  1  0.41341315  0.08411301  0.67550512  1
  Cu+  Cu81  1  0.41280377  0.58244595  0.67283884  1
  Cu+  Cu82  1  0.91528444  0.08515716  0.67217729  1
  Cu+  Cu83  1  0.91536408  0.58359022  0.68314659  1
  Cu+  Cu84  1  0.00523091  0.24875167  0.01533813  1
  Cu+  Cu85  1  0.00196925  0.75104595  0.00814133  1
  Cu+  Cu86  1  0.50444669  0.24974192  0.00686991  1
  Cu+  Cu87  1  0.50467704  0.75232026  0.00393890  1
  Cu+  Cu88  1  0.25104102  0.49644281  0.01651432  1
  Cu+  Cu89  1  0.25106850  0.99931468  0.00723823  1
  Cu+  Cu90  1  0.75101865  0.49884605  0.01037629  1
  Cu+  Cu91  1  0.74923658  0.99652382  0.00604108  1
  Cu+  Cu92  1  0.25102852  0.25066895  0.01613380  1
  Cu+  Cu93  1  0.24956705  0.75265672  0.00955773  1
  Cu+  Cu94  1  0.74908907  0.24984945  0.01101495  1
  Cu+  Cu95  1  0.74965676  0.75019494  0.00865620  1
  Cu+  Cu96  1  0.33579353  0.41653471  0.34693727  1
  Cu+  Cu97  1  0.33088299  0.91654801  0.34110297  1
  Cu+  Cu98  1  0.83353042  0.41658502  0.34155231  1
  Cu+  Cu99  1  0.83382474  0.91747243  0.34202358  1
  Cu+  Cu100  1  0.08151319  0.16381638  0.34415423  1
  Cu+  Cu101  1  0.07984506  0.66504484  0.34095501  1
  Cu+  Cu102  1  0.58282778  0.16673821  0.34170825  1
  Cu+  Cu103  1  0.58162036  0.66520972  0.34224136  1
  Cu+  Cu104  1  0.08048058  0.41687805  0.34041382  1
  Cu+  Cu105  1  0.07763260  0.91593504  0.34306690  1
  Cu+  Cu106  1  0.58267831  0.41781182  0.34359454  1
  Cu+  Cu107  1  0.57895726  0.91952171  0.34209935  1
  Cu+  Cu108  1  -0.00073848  -0.00510749  0.11469095  1
  Cu+  Cu109  1  0.00018867  0.49963319  0.11018968  1
  Cu+  Cu110  1  0.50067327  -0.00199080  0.11019171  1
  Cu+  Cu111  1  0.50435209  0.50101020  0.11483170  1
  Cu+  Cu112  1  0.33298950  0.16187102  0.45085543  1
  Cu+  Cu113  1  0.32948848  0.66532254  0.44427432  1
  Cu+  Cu114  1  0.83535737  0.16668285  0.44755280  1
  Cu+  Cu115  1  0.83024241  0.66566752  0.45369612  1
  Cu+  Cu116  1  0.16505862  0.33395299  0.78428984  1
  Cu+  Cu117  1  0.16963154  0.83131679  0.77735290  1
  Cu+  Cu118  1  0.66166286  0.32944878  0.78079262  1
  Cu+  Cu119  1  0.66148710  0.83086663  0.77737121  1
  Te2-  Te120  1  -0.00279831  -0.00058508  0.38724014  1
  Te2-  Te121  1  -0.00117098  0.49993071  0.38324016  1
  Te2-  Te122  1  0.49540817  0.00215537  0.38549505  1
  Te2-  Te123  1  0.50262081  0.50183666  0.38867505  1
  Te2-  Te124  1  0.33646713  0.16969906  0.72338247  1
  Te2-  Te125  1  0.33323765  0.66677697  0.71710614  1
  Te2-  Te126  1  0.83605591  0.16798060  0.72087056  1
  Te2-  Te127  1  0.83413629  0.66697914  0.72975514  1
  Te2-  Te128  1  0.16874053  0.33247335  0.06258450  1
  Te2-  Te129  1  0.16594389  0.83566574  0.05238046  1
  Te2-  Te130  1  0.66703520  0.33422689  0.05373781  1
  Te2-  Te131  1  0.66718294  0.83287441  0.05026885  1
  Te2-  Te132  1  0.50073541  0.24796167  0.88071616  1
  Te2-  Te133  1  0.49940457  0.75035979  0.87800738  1
  Te2-  Te134  1  0.99990313  0.24576451  0.88671824  1
  Te2-  Te135  1  0.99291057  0.74735207  0.88246538  1
  Te2-  Te136  1  0.25702262  0.00729870  0.88155179  1
  Te2-  Te137  1  0.25330454  0.50301072  0.88853354  1
  Te2-  Te138  1  0.75979239  0.00851600  0.88079476  1
  Te2-  Te139  1  0.75596728  0.50950605  0.88469682  1
  Te2-  Te140  1  0.25820310  0.24739673  0.88792802  1
  Te2-  Te141  1  0.25218718  0.74743375  0.88270325  1
  Te2-  Te142  1  0.75886046  0.24858272  0.88410476  1
  Te2-  Te143  1  0.75630628  0.74473031  0.88315761  1
  Te2-  Te144  1  0.32272700  0.41102565  0.21950287  1
  Te2-  Te145  1  0.32294228  0.91524726  0.21509101  1
  Te2-  Te146  1  0.82569815  0.41443455  0.21525093  1
  Te2-  Te147  1  0.82726818  0.91402486  0.21608051  1
  Te2-  Te148  1  0.08822151  0.17711390  0.21852262  1
  Te2-  Te149  1  0.08409692  0.67357114  0.21486167  1
  Te2-  Te150  1  0.58379210  0.17545254  0.21582279  1
  Te2-  Te151  1  0.58509617  0.67038278  0.21622827  1
  Te2-  Te152  1  0.08657888  0.41284554  0.21455949  1
  Te2-  Te153  1  0.08428726  0.91493424  0.21685223  1
  Te2-  Te154  1  0.58403237  0.41373097  0.21728202  1
  Te2-  Te155  1  0.58220242  0.91619396  0.21440127  1
  Te2-  Te156  1  0.16265464  0.08548136  0.55169655  1
  Te2-  Te157  1  0.16301700  0.57785829  0.54634752  1
  Te2-  Te158  1  0.65586716  0.08172028  0.55117849  1
  Te2-  Te159  1  0.66289467  0.58092314  0.55429201  1
  Te2-  Te160  1  0.42353040  0.34327759  0.55179199  1
  Te2-  Te161  1  0.41625451  0.84171421  0.54728437  1
  Te2-  Te162  1  0.91828639  0.33824371  0.54934021  1
  Te2-  Te163  1  0.91798939  0.83641713  0.55394376  1
  Te2-  Te164  1  0.41627508  0.08149581  0.54963775  1
  Te2-  Te165  1  0.42520350  0.58481874  0.54728238  1
  Te2-  Te166  1  0.91366370  0.07949714  0.54633849  1
  Te2-  Te167  1  0.91829057  0.58003706  0.55571216  1
  Te2-  Te168  1  -0.00110812  -0.00224374  0.88106760  1
  Te2-  Te169  1  0.00078304  0.49924201  0.88256515  1
  Te2-  Te170  1  0.50001380  -0.00159983  0.88135325  1
  Te2-  Te171  1  0.50036352  0.50024873  0.88279056  1
  Te2-  Te172  1  0.33344622  0.16526696  0.21504184  1
  Te2-  Te173  1  0.33426739  0.66705337  0.21485379  1
  Te2-  Te174  1  0.83192753  0.16486964  0.21488342  1
  Te2-  Te175  1  0.83387116  0.66557282  0.21489582  1
  Te2-  Te176  1  0.16580820  0.33372358  0.54869969  1
  Te2-  Te177  1  0.16549459  0.83139073  0.54955679  1
  Te2-  Te178  1  0.66614848  0.33182612  0.55013279  1
  Te2-  Te179  1  0.66409448  0.83291284  0.54858789  1
  Te2-  Te180  1  0.32588409  0.41479450  0.71406503  1
  Te2-  Te181  1  0.32946579  0.91421029  0.71014661  1
  Te2-  Te182  1  0.82641399  0.41056736  0.71093642  1
  Te2-  Te183  1  0.82757100  0.91568029  0.70758449  1
  Te2-  Te184  1  0.08473282  0.17479385  0.71134503  1
  Te2-  Te185  1  0.08911307  0.67071012  0.70932790  1
  Te2-  Te186  1  0.58435468  0.17201924  0.71002121  1
  Te2-  Te187  1  0.58324856  0.67163460  0.70862767  1
  Te2-  Te188  1  0.08631548  0.41309157  0.71341511  1
  Te2-  Te189  1  0.08943293  0.91477501  0.70701793  1
  Te2-  Te190  1  0.58368142  0.41173685  0.71068321  1
  Te2-  Te191  1  0.58463705  0.91204447  0.70829768  1
  Te2-  Te192  1  0.16049207  0.07772428  0.04376921  1
  Te2-  Te193  1  0.16048641  0.57998508  0.04034209  1
  Te2-  Te194  1  0.66066525  0.07747683  0.04181738  1
  Te2-  Te195  1  0.66254488  0.58051927  0.04547942  1
  Te2-  Te196  1  0.42443474  0.33980017  0.04367581  1
  Te2-  Te197  1  0.42209312  0.83935332  0.04126287  1
  Te2-  Te198  1  0.92204060  0.33949417  0.04029806  1
  Te2-  Te199  1  0.91930982  0.83779726  0.04496485  1
  Te2-  Te200  1  0.42063912  0.08040130  0.04245840  1
  Te2-  Te201  1  0.42395960  0.58364026  0.04358914  1
  Te2-  Te202  1  0.91789983  0.07644688  0.04391944  1
  Te2-  Te203  1  0.92107487  0.58121415  0.04279668  1
  Te2-  Te204  1  0.49447147  0.24785674  0.37987140  1
  Te2-  Te205  1  0.49218907  0.74683043  0.37479432  1
  Te2-  Te206  1  0.99509027  0.24789999  0.37828597  1
  Te2-  Te207  1  0.99178473  0.74602696  0.38127116  1
  Te2-  Te208  1  0.24808981  0.00316908  0.38002365  1
  Te2-  Te209  1  0.25080309  0.50536127  0.37522083  1
  Te2-  Te210  1  0.75114852  0.00592251  0.37631840  1
  Te2-  Te211  1  0.75248563  0.50500943  0.38164238  1
  Te2-  Te212  1  0.25172708  0.24408796  0.37871698  1
  Te2-  Te213  1  0.24962634  0.74689730  0.37679221  1
  Te2-  Te214  1  0.75199939  0.24702551  0.37858926  1
  Te2-  Te215  1  0.75096812  0.74791924  0.38119082  1
