# generated using pymatgen
data_Ti(CuTe)4
_symmetry_space_group_name_H-M   'P 1'
_cell_length_a   16.89709041
_cell_length_b   16.89866490
_cell_length_c   20.71932430
_cell_angle_alpha   89.99062465
_cell_angle_beta   90.02825207
_cell_angle_gamma   120.00352164
_symmetry_Int_Tables_number   1
_chemical_formula_structural   Ti(CuTe)4
_chemical_formula_sum   'Ti24 Cu96 Te96'
_cell_volume   5123.36236970
_cell_formula_units_Z   24
loop_
 _symmetry_equiv_pos_site_id
 _symmetry_equiv_pos_as_xyz
  1  'x, y, z'
loop_
 _atom_type_symbol
 _atom_type_oxidation_number
  Ti4+  4.0
  Cu+  1.0
  Te2-  -2.0
loop_
 _atom_site_type_symbol
 _atom_site_label
 _atom_site_symmetry_multiplicity
 _atom_site_fract_x
 _atom_site_fract_y
 _atom_site_fract_z
 _atom_site_occupancy
  Ti4+  Ti0  1  0.00113511  0.00131503  0.26153723  1
  Ti4+  Ti1  1  0.00009538  0.50088569  0.26082132  1
  Ti4+  Ti2  1  0.50176658  -0.00082229  0.25700271  1
  Ti4+  Ti3  1  0.49738219  0.50093066  0.25446338  1
  Ti4+  Ti4  1  0.33371963  0.16419318  0.59193893  1
  Ti4+  Ti5  1  0.33419914  0.66374881  0.58984985  1
  Ti4+  Ti6  1  0.83177662  0.16487629  0.59226695  1
  Ti4+  Ti7  1  0.83562052  0.66530185  0.59074574  1
  Ti4+  Ti8  1  0.16404062  0.33235703  0.92692126  1
  Ti4+  Ti9  1  0.16509319  0.83574303  0.92148846  1
  Ti4+  Ti10  1  0.66647984  0.33478202  0.92315624  1
  Ti4+  Ti11  1  0.66877919  0.83615480  0.92287983  1
  Ti4+  Ti12  1  -0.00057821  0.00026578  0.75249805  1
  Ti4+  Ti13  1  0.00034930  0.50010422  0.75568291  1
  Ti4+  Ti14  1  0.49954196  -0.00088581  0.75404056  1
  Ti4+  Ti15  1  0.50115516  0.49845799  0.75507500  1
  Ti4+  Ti16  1  0.33173876  0.16662027  0.08907814  1
  Ti4+  Ti17  1  0.33545094  0.66861175  0.08611752  1
  Ti4+  Ti18  1  0.83255863  0.16751004  0.09038905  1
  Ti4+  Ti19  1  0.83406412  0.66763642  0.09032657  1
  Ti4+  Ti20  1  0.16811569  0.33464098  0.42354382  1
  Ti4+  Ti21  1  0.16661377  0.83400488  0.42172605  1
  Ti4+  Ti22  1  0.66602917  0.33118102  0.42198381  1
  Ti4+  Ti23  1  0.66758713  0.83288293  0.42234851  1
  Cu+  Cu24  1  0.52476527  0.76331860  0.13757486  1
  Cu+  Cu25  1  0.17536614  0.09249863  0.81280932  1
  Cu+  Cu26  1  0.41148152  0.09629432  0.80796622  1
  Cu+  Cu27  1  0.90775867  0.82349193  0.81069397  1
  Cu+  Cu28  1  0.84802101  0.41697341  0.47648087  1
  Cu+  Cu29  1  0.07352568  0.92698711  0.47802825  1
  Cu+  Cu30  1  0.57113629  0.14033004  0.47336117  1
  Cu+  Cu31  1  0.23473923  0.25377136  0.14406178  1
  Cu+  Cu32  1  0.08036608  0.65219300  0.47844996  1
  Cu+  Cu33  1  0.90671448  0.09543592  0.80819890  1
  Cu+  Cu34  1  0.24020238  0.48989414  0.14521180  1
  Cu+  Cu35  1  0.90369657  0.58984747  0.80838486  1
  Cu+  Cu36  1  0.16178503  0.08230117  0.17449740  1
  Cu+  Cu37  1  0.16098025  0.58245048  0.17176409  1
  Cu+  Cu38  1  0.66309595  0.08303057  0.17093707  1
  Cu+  Cu39  1  0.66345179  0.58247039  0.16986420  1
  Cu+  Cu40  1  0.41119190  0.33540072  0.16820437  1
  Cu+  Cu41  1  0.42495813  0.83782612  0.16815693  1
  Cu+  Cu42  1  0.91560100  0.33609641  0.17323661  1
  Cu+  Cu43  1  0.92052343  0.83574947  0.17565949  1
  Cu+  Cu44  1  0.41928444  0.08231895  0.17222249  1
  Cu+  Cu45  1  0.41949986  0.58340677  0.16543809  1
  Cu+  Cu46  1  0.91705856  0.08280258  0.17360204  1
  Cu+  Cu47  1  0.91815234  0.58296656  0.17505733  1
  Cu+  Cu48  1  0.49803797  0.24123529  0.50411663  1
  Cu+  Cu49  1  0.49852702  0.74623463  0.50469641  1
  Cu+  Cu50  1  0.99906690  0.24793724  0.50659485  1
  Cu+  Cu51  1  0.99727325  0.74803532  0.50322110  1
  Cu+  Cu52  1  0.24922586  0.00447004  0.50418259  1
  Cu+  Cu53  1  0.25366013  0.50288371  0.50397100  1
  Cu+  Cu54  1  0.75215164  0.00099127  0.50564730  1
  Cu+  Cu55  1  0.75670486  0.50111299  0.50226301  1
  Cu+  Cu56  1  0.25191832  0.24860919  0.50581451  1
  Cu+  Cu57  1  0.25215814  0.74398933  0.50347773  1
  Cu+  Cu58  1  0.74861542  0.24358883  0.50419294  1
  Cu+  Cu59  1  0.75236074  0.74772786  0.50397207  1
  Cu+  Cu60  1  0.33178212  0.41527423  0.83972983  1
  Cu+  Cu61  1  0.33099332  0.92071114  0.83434508  1
  Cu+  Cu62  1  0.82999344  0.41777612  0.83755425  1
  Cu+  Cu63  1  0.82681755  0.91770697  0.83379331  1
  Cu+  Cu64  1  0.08287119  0.17390314  0.83645853  1
  Cu+  Cu65  1  0.07927822  0.66952346  0.83500166  1
  Cu+  Cu66  1  0.58336467  0.17047216  0.83678888  1
  Cu+  Cu67  1  0.58484545  0.66827949  0.83671396  1
  Cu+  Cu68  1  0.08398468  0.41554818  0.83966895  1
  Cu+  Cu69  1  0.08600400  0.91374264  0.83185292  1
  Cu+  Cu70  1  0.58681596  0.41550369  0.83556730  1
  Cu+  Cu71  1  0.58570998  0.91613999  0.83655679  1
  Cu+  Cu72  1  0.16907668  0.08463365  0.68120983  1
  Cu+  Cu73  1  0.17106802  0.58183745  0.67457634  1
  Cu+  Cu74  1  0.66759074  0.08187880  0.67535485  1
  Cu+  Cu75  1  0.66889486  0.58205522  0.67348126  1
  Cu+  Cu76  1  0.41717022  0.33075134  0.67453502  1
  Cu+  Cu77  1  0.41562291  0.82600412  0.67232033  1
  Cu+  Cu78  1  0.91663042  0.32998441  0.67681739  1
  Cu+  Cu79  1  0.91673039  0.83056897  0.67979497  1
  Cu+  Cu80  1  0.41466982  0.08215735  0.67855072  1
  Cu+  Cu81  1  0.41605181  0.58156836  0.67345489  1
  Cu+  Cu82  1  0.91479420  0.08488463  0.67954685  1
  Cu+  Cu83  1  0.91796473  0.58406301  0.67917539  1
  Cu+  Cu84  1  -0.00106688  0.25040147  0.01127619  1
  Cu+  Cu85  1  0.00107153  0.75147410  0.00889314  1
  Cu+  Cu86  1  0.50234340  0.25055161  0.00771796  1
  Cu+  Cu87  1  0.50515590  0.75468673  0.00951425  1
  Cu+  Cu88  1  0.24827870  0.49827889  0.01431193  1
  Cu+  Cu89  1  0.24869751  0.99996550  0.00814356  1
  Cu+  Cu90  1  0.75130408  0.49910370  0.00909252  1
  Cu+  Cu91  1  0.75053817  1.00165114  0.00842815  1
  Cu+  Cu92  1  0.24503047  0.24918333  0.01459683  1
  Cu+  Cu93  1  0.24868931  0.75320978  0.00425282  1
  Cu+  Cu94  1  0.74831677  0.25274999  0.00678110  1
  Cu+  Cu95  1  0.75229361  0.75364057  0.00784818  1
  Cu+  Cu96  1  0.33356937  0.41824253  0.34079372  1
  Cu+  Cu97  1  0.33701119  0.91863683  0.33900358  1
  Cu+  Cu98  1  0.83554085  0.41834648  0.34749648  1
  Cu+  Cu99  1  0.83718629  0.91786557  0.34370270  1
  Cu+  Cu100  1  0.08414120  0.16565363  0.34526970  1
  Cu+  Cu101  1  0.08126265  0.66441946  0.34759366  1
  Cu+  Cu102  1  0.58105030  0.16206247  0.34521757  1
  Cu+  Cu103  1  0.58219637  0.66532808  0.33965294  1
  Cu+  Cu104  1  0.08286937  0.41843959  0.34414830  1
  Cu+  Cu105  1  0.08383999  0.92170511  0.34845094  1
  Cu+  Cu106  1  0.57847986  0.41715017  0.33799969  1
  Cu+  Cu107  1  0.58498556  0.91781641  0.34130813  1
  Cu+  Cu108  1  -0.00575362  -0.00301654  0.11974072  1
  Cu+  Cu109  1  -0.00355927  0.49960084  0.11771360  1
  Cu+  Cu110  1  0.49898165  0.00220839  0.11307846  1
  Cu+  Cu111  1  0.50320733  0.49846685  0.11029709  1
  Cu+  Cu112  1  0.33654240  0.17202880  0.44839200  1
  Cu+  Cu113  1  0.33812044  0.66815304  0.44634838  1
  Cu+  Cu114  1  0.83643806  0.16497071  0.44984404  1
  Cu+  Cu115  1  0.82868066  0.66329091  0.44619932  1
  Cu+  Cu116  1  0.17212056  0.34201156  0.78344484  1
  Cu+  Cu117  1  0.17013683  0.83011418  0.77720653  1
  Cu+  Cu118  1  0.66766646  0.33182036  0.77926690  1
  Cu+  Cu119  1  0.65927499  0.82779848  0.77881102  1
  Te2-  Te120  1  -0.00052308  0.00257302  0.39243537  1
  Te2-  Te121  1  0.00091097  0.49924377  0.39312903  1
  Te2-  Te122  1  0.49903930  -0.00453266  0.38778362  1
  Te2-  Te123  1  0.49866011  0.50066943  0.38312088  1
  Te2-  Te124  1  0.33504022  0.16860562  0.72378206  1
  Te2-  Te125  1  0.33477303  0.66355327  0.71907474  1
  Te2-  Te126  1  0.83042768  0.16679937  0.72292697  1
  Te2-  Te127  1  0.83144780  0.66444251  0.72226372  1
  Te2-  Te128  1  0.16224019  0.33266315  0.05877342  1
  Te2-  Te129  1  0.16675782  0.83463267  0.04989080  1
  Te2-  Te130  1  0.66643159  0.33434013  0.05205617  1
  Te2-  Te131  1  0.67159985  0.83725728  0.05292464  1
  Te2-  Te132  1  0.49241187  0.24957486  0.88221043  1
  Te2-  Te133  1  0.49785031  0.74924065  0.88232526  1
  Te2-  Te134  1  0.99090664  0.24841517  0.88516006  1
  Te2-  Te135  1  0.98853608  0.74712715  0.88266082  1
  Te2-  Te136  1  0.25351026  0.01211013  0.88208843  1
  Te2-  Te137  1  0.25092963  0.50248416  0.88600788  1
  Te2-  Te138  1  0.75242919  0.01001472  0.88257832  1
  Te2-  Te139  1  0.75198369  0.50924655  0.88335492  1
  Te2-  Te140  1  0.25160862  0.24747454  0.88645677  1
  Te2-  Te141  1  0.24930559  0.75101701  0.87780149  1
  Te2-  Te142  1  0.75161831  0.24930446  0.88069575  1
  Te2-  Te143  1  0.75291460  0.74748766  0.88177388  1
  Te2-  Te144  1  0.32074007  0.41347579  0.21494725  1
  Te2-  Te145  1  0.33134307  0.91267117  0.21324862  1
  Te2-  Te146  1  0.82887304  0.41547940  0.22034532  1
  Te2-  Te147  1  0.83070251  0.91498527  0.21780230  1
  Te2-  Te148  1  0.08392251  0.17457688  0.21966334  1
  Te2-  Te149  1  0.08581051  0.67214747  0.22011098  1
  Te2-  Te150  1  0.58589224  0.17152801  0.21843960  1
  Te2-  Te151  1  0.58710559  0.67388473  0.21380557  1
  Te2-  Te152  1  0.08347696  0.41220755  0.21803259  1
  Te2-  Te153  1  0.08788925  0.91648476  0.22126868  1
  Te2-  Te154  1  0.57989651  0.41320885  0.21194661  1
  Te2-  Te155  1  0.59236776  0.91595838  0.21552973  1
  Te2-  Te156  1  0.15968121  0.08189438  0.55317628  1
  Te2-  Te157  1  0.15889295  0.57426750  0.54953472  1
  Te2-  Te158  1  0.65875252  0.07544661  0.54970749  1
  Te2-  Te159  1  0.66664693  0.57902814  0.54732636  1
  Te2-  Te160  1  0.42100258  0.33337673  0.54833529  1
  Te2-  Te161  1  0.41883749  0.83532114  0.54689974  1
  Te2-  Te162  1  0.92038756  0.33730780  0.55082140  1
  Te2-  Te163  1  0.91910499  0.83822718  0.55178623  1
  Te2-  Te164  1  0.41591525  0.07330904  0.55129740  1
  Te2-  Te165  1  0.42047175  0.57826108  0.54804429  1
  Te2-  Te166  1  0.91892264  0.08079481  0.55253459  1
  Te2-  Te167  1  0.92410342  0.57828284  0.55149782  1
  Te2-  Te168  1  -0.00039572  -0.00031697  0.88077541  1
  Te2-  Te169  1  -0.00001660  0.50142289  0.88251933  1
  Te2-  Te170  1  0.49973173  0.00016379  0.88085519  1
  Te2-  Te171  1  0.50167588  0.49989950  0.88125463  1
  Te2-  Te172  1  0.33383787  0.16681057  0.21581859  1
  Te2-  Te173  1  0.33347708  0.66743477  0.21356027  1
  Te2-  Te174  1  0.83174853  0.16690452  0.21670409  1
  Te2-  Te175  1  0.83145725  0.66583899  0.21675207  1
  Te2-  Te176  1  0.16860504  0.33397569  0.54985868  1
  Te2-  Te177  1  0.16873231  0.83232603  0.54881036  1
  Te2-  Te178  1  0.66724652  0.33249412  0.54955310  1
  Te2-  Te179  1  0.66728266  0.83106026  0.54853658  1
  Te2-  Te180  1  0.32914323  0.41245115  0.71230224  1
  Te2-  Te181  1  0.32801854  0.90921977  0.70753429  1
  Te2-  Te182  1  0.82772399  0.41167261  0.71018589  1
  Te2-  Te183  1  0.82445326  0.91138100  0.70732020  1
  Te2-  Te184  1  0.08778944  0.17618688  0.70968323  1
  Te2-  Te185  1  0.09017286  0.67158961  0.70830808  1
  Te2-  Te186  1  0.58736669  0.17204077  0.70923539  1
  Te2-  Te187  1  0.58616613  0.66931085  0.70975093  1
  Te2-  Te188  1  0.08620323  0.41317814  0.71309803  1
  Te2-  Te189  1  0.08853860  0.91221037  0.70637345  1
  Te2-  Te190  1  0.58722842  0.41267598  0.70971092  1
  Te2-  Te191  1  0.58467372  0.91200804  0.71030688  1
  Te2-  Te192  1  0.15743189  0.07741619  0.04699359  1
  Te2-  Te193  1  0.16080762  0.58407491  0.04414573  1
  Te2-  Te194  1  0.66166369  0.08298525  0.04462519  1
  Te2-  Te195  1  0.66408258  0.58296679  0.04334731  1
  Te2-  Te196  1  0.41918822  0.33832620  0.04162814  1
  Te2-  Te197  1  0.41890164  0.84116131  0.04102609  1
  Te2-  Te198  1  0.91749633  0.33947344  0.04656778  1
  Te2-  Te199  1  0.92054925  0.83959647  0.04785140  1
  Te2-  Te200  1  0.41844898  0.08158833  0.04507277  1
  Te2-  Te201  1  0.42225952  0.58150385  0.03910787  1
  Te2-  Te202  1  0.91908574  0.08112598  0.04710216  1
  Te2-  Te203  1  0.92034548  0.58221276  0.04752723  1
  Te2-  Te204  1  0.49390176  0.24770938  0.37657522  1
  Te2-  Te205  1  0.49641665  0.74815848  0.37754550  1
  Te2-  Te206  1  0.99581249  0.24814416  0.38012842  1
  Te2-  Te207  1  0.99207071  0.74775396  0.37663113  1
  Te2-  Te208  1  0.25704312  0.00769178  0.37788956  1
  Te2-  Te209  1  0.25291808  0.50644876  0.37810924  1
  Te2-  Te210  1  0.75420910  0.00516271  0.37925439  1
  Te2-  Te211  1  0.74827524  0.50394479  0.37572501  1
  Te2-  Te212  1  0.25417056  0.24907943  0.37917670  1
  Te2-  Te213  1  0.25453393  0.74886788  0.37645215  1
  Te2-  Te214  1  0.75393255  0.24522491  0.37680017  1
  Te2-  Te215  1  0.75227315  0.74675855  0.37729817  1
