# generated using pymatgen
data_Ti(CuTe)4
_symmetry_space_group_name_H-M   'P 1'
_cell_length_a   16.89019701
_cell_length_b   16.89199849
_cell_length_c   20.71283980
_cell_angle_alpha   90.02345874
_cell_angle_beta   89.99275444
_cell_angle_gamma   120.00078249
_symmetry_Int_Tables_number   1
_chemical_formula_structural   Ti(CuTe)4
_chemical_formula_sum   'Ti24 Cu96 Te96'
_cell_volume   5117.79121443
_cell_formula_units_Z   24
loop_
 _symmetry_equiv_pos_site_id
 _symmetry_equiv_pos_as_xyz
  1  'x, y, z'
loop_
 _atom_type_symbol
 _atom_type_oxidation_number
  Ti4+  4.0
  Cu+  1.0
  Te2-  -2.0
loop_
 _atom_site_type_symbol
 _atom_site_label
 _atom_site_symmetry_multiplicity
 _atom_site_fract_x
 _atom_site_fract_y
 _atom_site_fract_z
 _atom_site_occupancy
  Ti4+  Ti0  1  -0.00540861  -0.00290424  0.25628924  1
  Ti4+  Ti1  1  0.00020635  0.50099405  0.25699538  1
  Ti4+  Ti2  1  0.50049598  0.00199424  0.25559869  1
  Ti4+  Ti3  1  0.49655183  0.49734042  0.26005625  1
  Ti4+  Ti4  1  0.33661100  0.17033950  0.58815147  1
  Ti4+  Ti5  1  0.33388653  0.66737681  0.59189362  1
  Ti4+  Ti6  1  0.83271409  0.16608305  0.58949559  1
  Ti4+  Ti7  1  0.83331550  0.66958939  0.59294917  1
  Ti4+  Ti8  1  0.16757031  0.33202593  0.92699780  1
  Ti4+  Ti9  1  0.16871024  0.83204288  0.92086931  1
  Ti4+  Ti10  1  0.66879168  0.33431095  0.92496563  1
  Ti4+  Ti11  1  0.66650922  0.82987545  0.92679573  1
  Ti4+  Ti12  1  0.00162604  0.00189889  0.75616225  1
  Ti4+  Ti13  1  0.00023422  0.50126308  0.75385567  1
  Ti4+  Ti14  1  0.49972417  -0.00074442  0.75559449  1
  Ti4+  Ti15  1  0.50112826  0.50101120  0.75764776  1
  Ti4+  Ti16  1  0.33514882  0.16670921  0.08865531  1
  Ti4+  Ti17  1  0.33223056  0.66484765  0.08864608  1
  Ti4+  Ti18  1  0.83280003  0.16464781  0.08646722  1
  Ti4+  Ti19  1  0.83379134  0.66707520  0.08982557  1
  Ti4+  Ti20  1  0.16621501  0.33422936  0.42115513  1
  Ti4+  Ti21  1  0.16599527  0.83425349  0.42077237  1
  Ti4+  Ti22  1  0.66434262  0.33187401  0.42135920  1
  Ti4+  Ti23  1  0.66754363  0.83441019  0.42380779  1
  Cu+  Cu24  1  0.85718979  0.92973797  0.47705216  1
  Cu+  Cu25  1  0.68603252  0.58846950  0.81096529  1
  Cu+  Cu26  1  0.52437664  0.26407670  0.13980423  1
  Cu+  Cu27  1  0.57287085  0.14341680  0.47220186  1
  Cu+  Cu28  1  0.73554983  0.75269437  0.14692183  1
  Cu+  Cu29  1  0.57906741  0.42862708  0.47822759  1
  Cu+  Cu30  1  0.91188869  0.81798515  0.81200948  1
  Cu+  Cu31  1  0.73515881  0.98071001  0.14144744  1
  Cu+  Cu32  1  0.23515604  0.48067283  0.14193626  1
  Cu+  Cu33  1  0.23922867  0.25245689  0.14555430  1
  Cu+  Cu34  1  0.40801613  0.80880563  0.80770257  1
  Cu+  Cu35  1  0.34954272  0.42987075  0.47835240  1
  Cu+  Cu36  1  0.16056544  0.08008164  0.17010302  1
  Cu+  Cu37  1  0.16165436  0.57944145  0.17071705  1
  Cu+  Cu38  1  0.66098512  0.07960017  0.16866061  1
  Cu+  Cu39  1  0.66126452  0.58077488  0.17383210  1
  Cu+  Cu40  1  0.41771693  0.33448432  0.17176814  1
  Cu+  Cu41  1  0.41655025  0.83680865  0.16945258  1
  Cu+  Cu42  1  0.91735662  0.33736024  0.16927900  1
  Cu+  Cu43  1  0.91088576  0.83514326  0.16981829  1
  Cu+  Cu44  1  0.42453158  0.08880878  0.16932440  1
  Cu+  Cu45  1  0.41050426  0.57626968  0.17129990  1
  Cu+  Cu46  1  0.91022328  0.07410933  0.16723759  1
  Cu+  Cu47  1  0.92026564  0.58385041  0.17204408  1
  Cu+  Cu48  1  0.49699500  0.24929452  0.50032971  1
  Cu+  Cu49  1  0.49708640  0.74984618  0.50665176  1
  Cu+  Cu50  1  0.99630715  0.24931779  0.50309439  1
  Cu+  Cu51  1  0.99805618  0.75193447  0.50510435  1
  Cu+  Cu52  1  0.25220872  0.00471887  0.50120507  1
  Cu+  Cu53  1  0.25465312  0.50614626  0.50474433  1
  Cu+  Cu54  1  0.75668819  0.00482366  0.50393585  1
  Cu+  Cu55  1  0.74897290  0.50497281  0.50570137  1
  Cu+  Cu56  1  0.25603472  0.25496268  0.50117764  1
  Cu+  Cu57  1  0.25271830  0.75197376  0.50502477  1
  Cu+  Cu58  1  0.74629240  0.24361127  0.50292369  1
  Cu+  Cu59  1  0.75537288  0.75313154  0.50589207  1
  Cu+  Cu60  1  0.32970572  0.41342733  0.84160764  1
  Cu+  Cu61  1  0.33196079  0.90987515  0.83512409  1
  Cu+  Cu62  1  0.83176410  0.41544049  0.83654927  1
  Cu+  Cu63  1  0.83260519  0.91251029  0.84018501  1
  Cu+  Cu64  1  0.08939230  0.17115721  0.84006104  1
  Cu+  Cu65  1  0.08691074  0.67081434  0.83311440  1
  Cu+  Cu66  1  0.58392761  0.16976810  0.83913163  1
  Cu+  Cu67  1  0.59116426  0.66922918  0.83869464  1
  Cu+  Cu68  1  0.08611252  0.41727723  0.83851600  1
  Cu+  Cu69  1  0.08521862  0.91360683  0.83603053  1
  Cu+  Cu70  1  0.58826510  0.41621011  0.84005910  1
  Cu+  Cu71  1  0.58089950  0.91152701  0.83994970  1
  Cu+  Cu72  1  0.17200679  0.08989696  0.67212970  1
  Cu+  Cu73  1  0.16778727  0.58414747  0.67328462  1
  Cu+  Cu74  1  0.66891867  0.08495583  0.67395002  1
  Cu+  Cu75  1  0.66876839  0.58633651  0.68139251  1
  Cu+  Cu76  1  0.41717010  0.33424673  0.67530805  1
  Cu+  Cu77  1  0.41511468  0.82947872  0.67930897  1
  Cu+  Cu78  1  0.91472630  0.33107834  0.67295938  1
  Cu+  Cu79  1  0.91543930  0.83400325  0.68161465  1
  Cu+  Cu80  1  0.41819313  0.08731182  0.67260616  1
  Cu+  Cu81  1  0.41446863  0.58334348  0.67809762  1
  Cu+  Cu82  1  0.91793569  0.08774559  0.67615932  1
  Cu+  Cu83  1  0.91478322  0.58488639  0.67485013  1
  Cu+  Cu84  1  0.00243325  0.25034229  0.00802172  1
  Cu+  Cu85  1  0.00497795  0.75186225  0.00681255  1
  Cu+  Cu86  1  0.50699891  0.25286603  0.01205370  1
  Cu+  Cu87  1  0.50030452  0.74816556  0.00996336  1
  Cu+  Cu88  1  0.24733591  0.49464651  0.01357766  1
  Cu+  Cu89  1  0.25073584  0.99535578  0.00324488  1
  Cu+  Cu90  1  0.75104177  0.49870110  0.00957764  1
  Cu+  Cu91  1  0.74779800  0.99425549  0.01250227  1
  Cu+  Cu92  1  0.25038182  0.25104516  0.01496265  1
  Cu+  Cu93  1  0.25005932  0.74968161  0.00593924  1
  Cu+  Cu94  1  0.74962271  0.25020109  0.00707822  1
  Cu+  Cu95  1  0.74980657  0.74998735  0.01671006  1
  Cu+  Cu96  1  0.33310356  0.41632561  0.34791331  1
  Cu+  Cu97  1  0.33443733  0.91885572  0.33825588  1
  Cu+  Cu98  1  0.83734051  0.41977926  0.34025178  1
  Cu+  Cu99  1  0.83272288  0.91556047  0.34731339  1
  Cu+  Cu100  1  0.07704814  0.16310674  0.33990290  1
  Cu+  Cu101  1  0.08233971  0.66457299  0.34094261  1
  Cu+  Cu102  1  0.58229905  0.16393294  0.34339130  1
  Cu+  Cu103  1  0.58034200  0.66501757  0.34523363  1
  Cu+  Cu104  1  0.08211044  0.41982839  0.34179596  1
  Cu+  Cu105  1  0.07834978  0.91527806  0.33939313  1
  Cu+  Cu106  1  0.57998975  0.41636638  0.34801152  1
  Cu+  Cu107  1  0.58256891  0.91828390  0.34218229  1
  Cu+  Cu108  1  0.00182511  -0.00063358  0.11168290  1
  Cu+  Cu109  1  -0.00257886  0.49985357  0.11331518  1
  Cu+  Cu110  1  0.49540724  -0.00282231  0.11131349  1
  Cu+  Cu111  1  0.49948850  0.50037582  0.11677208  1
  Cu+  Cu112  1  0.32833907  0.16421211  0.44370999  1
  Cu+  Cu113  1  0.33315579  0.67143403  0.44902258  1
  Cu+  Cu114  1  0.83486115  0.17040415  0.44563924  1
  Cu+  Cu115  1  0.83562924  0.66627282  0.44936745  1
  Cu+  Cu116  1  0.16580606  0.33483850  0.78412317  1
  Cu+  Cu117  1  0.16899663  0.83690406  0.77651328  1
  Cu+  Cu118  1  0.66750426  0.33061807  0.78150453  1
  Cu+  Cu119  1  0.66938793  0.83836559  0.78405539  1
  Te2-  Te120  1  0.00015358  -0.00004922  0.38658098  1
  Te2-  Te121  1  0.00013860  0.50145901  0.38642348  1
  Te2-  Te122  1  0.49736139  -0.00247051  0.38585081  1
  Te2-  Te123  1  0.49947476  0.50174331  0.39161541  1
  Te2-  Te124  1  0.33584668  0.16903582  0.71694777  1
  Te2-  Te125  1  0.33001692  0.66301560  0.72239317  1
  Te2-  Te126  1  0.83293265  0.16756875  0.71842410  1
  Te2-  Te127  1  0.83536024  0.66756532  0.72490593  1
  Te2-  Te128  1  0.16343475  0.32943275  0.06010249  1
  Te2-  Te129  1  0.16928596  0.83293983  0.05009271  1
  Te2-  Te130  1  0.67266727  0.33538193  0.05604149  1
  Te2-  Te131  1  0.66252169  0.82916408  0.05880164  1
  Te2-  Te132  1  0.49671193  0.24951222  0.88532430  1
  Te2-  Te133  1  0.49467440  0.74073613  0.88393147  1
  Te2-  Te134  1  0.99772141  0.24830505  0.88231526  1
  Te2-  Te135  1  0.99417636  0.74323571  0.88139408  1
  Te2-  Te136  1  0.25441810  0.00234459  0.87749283  1
  Te2-  Te137  1  0.25253418  0.50351509  0.88666458  1
  Te2-  Te138  1  0.75005287  -0.00128150  0.88481155  1
  Te2-  Te139  1  0.75880803  0.50822092  0.88420190  1
  Te2-  Te140  1  0.25517365  0.24716496  0.88798770  1
  Te2-  Te141  1  0.25246040  0.74116066  0.88061890  1
  Te2-  Te142  1  0.75284482  0.24772103  0.88140211  1
  Te2-  Te143  1  0.75726053  0.74377084  0.88854155  1
  Te2-  Te144  1  0.32155069  0.40867888  0.21981318  1
  Te2-  Te145  1  0.33052151  0.91932043  0.21226955  1
  Te2-  Te146  1  0.82827152  0.41544668  0.21472714  1
  Te2-  Te147  1  0.81698992  0.90856392  0.21945733  1
  Te2-  Te148  1  0.07778780  0.16926839  0.21396676  1
  Te2-  Te149  1  0.08808898  0.67280903  0.21524073  1
  Te2-  Te150  1  0.59208379  0.17641885  0.21655085  1
  Te2-  Te151  1  0.57832350  0.66917069  0.21874833  1
  Te2-  Te152  1  0.08342649  0.40945895  0.21645749  1
  Te2-  Te153  1  0.07949594  0.91227395  0.21331050  1
  Te2-  Te154  1  0.58602244  0.41412039  0.22022700  1
  Te2-  Te155  1  0.58280875  0.91027175  0.21637908  1
  Te2-  Te156  1  0.16642640  0.08731629  0.54591338  1
  Te2-  Te157  1  0.16372266  0.58245315  0.54745364  1
  Te2-  Te158  1  0.65854538  0.07464507  0.54838293  1
  Te2-  Te159  1  0.66009570  0.58570365  0.55361453  1
  Te2-  Te160  1  0.42488180  0.34735139  0.54947644  1
  Te2-  Te161  1  0.41979011  0.83928960  0.55218329  1
  Te2-  Te162  1  0.91533081  0.33666135  0.54677275  1
  Te2-  Te163  1  0.92315660  0.84318515  0.55348263  1
  Te2-  Te164  1  0.41990352  0.08071184  0.54672780  1
  Te2-  Te165  1  0.42429394  0.58321231  0.55236234  1
  Te2-  Te166  1  0.92544050  0.08366354  0.55032792  1
  Te2-  Te167  1  0.91632105  0.58312333  0.54873713  1
  Te2-  Te168  1  0.00354439  0.00087336  0.88310574  1
  Te2-  Te169  1  0.00131557  0.50196900  0.88013116  1
  Te2-  Te170  1  0.49983839  0.00030507  0.88245330  1
  Te2-  Te171  1  0.50049554  0.49899986  0.88434599  1
  Te2-  Te172  1  0.33002247  0.16367454  0.21609435  1
  Te2-  Te173  1  0.33190748  0.66793523  0.21549446  1
  Te2-  Te174  1  0.83187235  0.16644393  0.21316089  1
  Te2-  Te175  1  0.83248098  0.66581540  0.21666167  1
  Te2-  Te176  1  0.16606198  0.33451796  0.54798168  1
  Te2-  Te177  1  0.16806274  0.83691668  0.54707443  1
  Te2-  Te178  1  0.66635784  0.33362950  0.54874510  1
  Te2-  Te179  1  0.66734229  0.83528582  0.55047157  1
  Te2-  Te180  1  0.32820789  0.41392329  0.71494857  1
  Te2-  Te181  1  0.32897791  0.91683222  0.70804338  1
  Te2-  Te182  1  0.82795324  0.41445162  0.71014605  1
  Te2-  Te183  1  0.82794021  0.91806983  0.71299292  1
  Te2-  Te184  1  0.08801351  0.17403772  0.71321329  1
  Te2-  Te185  1  0.08605479  0.67312457  0.70767660  1
  Te2-  Te186  1  0.58622482  0.17133341  0.71202309  1
  Te2-  Te187  1  0.58501913  0.67471058  0.71283190  1
  Te2-  Te188  1  0.08515165  0.41427002  0.71118083  1
  Te2-  Te189  1  0.08961579  0.91911419  0.70840701  1
  Te2-  Te190  1  0.58653633  0.41358396  0.71250472  1
  Te2-  Te191  1  0.58782696  0.91498744  0.71198922  1
  Te2-  Te192  1  0.16311637  0.07720019  0.04256727  1
  Te2-  Te193  1  0.15987165  0.58025233  0.04351042  1
  Te2-  Te194  1  0.65952632  0.07964367  0.04195034  1
  Te2-  Te195  1  0.66017409  0.57716925  0.04646061  1
  Te2-  Te196  1  0.42312340  0.34120830  0.04465793  1
  Te2-  Te197  1  0.41883343  0.83672855  0.04324003  1
  Te2-  Te198  1  0.91968836  0.33777129  0.04328711  1
  Te2-  Te199  1  0.92280786  0.83912348  0.04322901  1
  Te2-  Te200  1  0.41969441  0.07968832  0.04206510  1
  Te2-  Te201  1  0.41994337  0.57840791  0.04470277  1
  Te2-  Te202  1  0.92121258  0.07936903  0.04110675  1
  Te2-  Te203  1  0.92102418  0.58281542  0.04528473  1
  Te2-  Te204  1  0.49009301  0.24390058  0.37392387  1
  Te2-  Te205  1  0.49444280  0.74900642  0.38034200  1
  Te2-  Te206  1  0.99408334  0.24914105  0.37670141  1
  Te2-  Te207  1  0.99400530  0.74660851  0.37812126  1
  Te2-  Te208  1  0.24959477  0.00428261  0.37430669  1
  Te2-  Te209  1  0.25200652  0.50794171  0.37761133  1
  Te2-  Te210  1  0.75175176  0.00699812  0.37749660  1
  Te2-  Te211  1  0.75306249  0.50553263  0.37800889  1
  Te2-  Te212  1  0.24771391  0.24321332  0.37443569  1
  Te2-  Te213  1  0.25270788  0.74955151  0.37755048  1
  Te2-  Te214  1  0.75425006  0.24942965  0.37582604  1
  Te2-  Te215  1  0.75055893  0.74361681  0.37926120  1
