# generated using pymatgen
data_Ti(CuTe)4
_symmetry_space_group_name_H-M   'P 1'
_cell_length_a   16.88808155
_cell_length_b   16.89171595
_cell_length_c   20.71084471
_cell_angle_alpha   90.05914837
_cell_angle_beta   90.01299886
_cell_angle_gamma   119.99265749
_symmetry_Int_Tables_number   1
_chemical_formula_structural   Ti(CuTe)4
_chemical_formula_sum   'Ti24 Cu96 Te96'
_cell_volume   5116.98646027
_cell_formula_units_Z   24
loop_
 _symmetry_equiv_pos_site_id
 _symmetry_equiv_pos_as_xyz
  1  'x, y, z'
loop_
 _atom_type_symbol
 _atom_type_oxidation_number
  Ti4+  4.0
  Cu+  1.0
  Te2-  -2.0
loop_
 _atom_site_type_symbol
 _atom_site_label
 _atom_site_symmetry_multiplicity
 _atom_site_fract_x
 _atom_site_fract_y
 _atom_site_fract_z
 _atom_site_occupancy
  Ti4+  Ti0  1  0.00265575  0.00018689  0.25523587  1
  Ti4+  Ti1  1  -0.00120453  0.49921026  0.25664262  1
  Ti4+  Ti2  1  0.50100342  0.00085190  0.25781976  1
  Ti4+  Ti3  1  0.50279558  0.50252143  0.25679854  1
  Ti4+  Ti4  1  0.33427449  0.16400794  0.59082546  1
  Ti4+  Ti5  1  0.33244904  0.66293451  0.58990418  1
  Ti4+  Ti6  1  0.83090668  0.16329996  0.59148998  1
  Ti4+  Ti7  1  0.83232430  0.66500704  0.59288007  1
  Ti4+  Ti8  1  0.16590403  0.33267284  0.92003880  1
  Ti4+  Ti9  1  0.16437403  0.83287380  0.92602430  1
  Ti4+  Ti10  1  0.66442654  0.33551916  0.92438408  1
  Ti4+  Ti11  1  0.66639822  0.83760896  0.92925831  1
  Ti4+  Ti12  1  -0.00026473  0.00148779  0.75575186  1
  Ti4+  Ti13  1  -0.00048785  0.50163412  0.75508351  1
  Ti4+  Ti14  1  0.50003550  -0.00173409  0.75720790  1
  Ti4+  Ti15  1  0.49965501  0.49768348  0.75653206  1
  Ti4+  Ti16  1  0.33268623  0.16741957  0.08817172  1
  Ti4+  Ti17  1  0.33390098  0.66887495  0.08750384  1
  Ti4+  Ti18  1  0.83433615  0.16986654  0.08761440  1
  Ti4+  Ti19  1  0.83270487  0.66659758  0.08556330  1
  Ti4+  Ti20  1  0.16857446  0.33481347  0.42109107  1
  Ti4+  Ti21  1  0.16626106  0.83254128  0.42286427  1
  Ti4+  Ti22  1  0.66661571  0.33230246  0.42346374  1
  Ti4+  Ti23  1  0.66835900  0.83342965  0.42296199  1
  Cu+  Cu24  1  0.01104908  0.75234019  0.14503699  1
  Cu+  Cu25  1  0.40353544  0.30712345  0.80534479  1
  Cu+  Cu26  1  0.74862079  0.75372277  0.15001112  1
  Cu+  Cu27  1  0.24556220  0.98189110  0.14076738  1
  Cu+  Cu28  1  0.74092210  0.48069823  0.14111560  1
  Cu+  Cu29  1  0.57189386  0.14098646  0.47492479  1
  Cu+  Cu30  1  0.90244973  0.09429828  0.80819039  1
  Cu+  Cu31  1  0.90446230  0.59657196  0.80995919  1
  Cu+  Cu32  1  0.74746474  0.99344984  0.14845940  1
  Cu+  Cu33  1  0.51240789  0.75739502  0.14723907  1
  Cu+  Cu34  1  0.07077602  0.64102437  0.47420583  1
  Cu+  Cu35  1  0.57291267  0.64240176  0.47555929  1
  Cu+  Cu36  1  0.16621601  0.07876379  0.16838194  1
  Cu+  Cu37  1  0.16421006  0.58306867  0.16952268  1
  Cu+  Cu38  1  0.66451634  0.08443813  0.17050942  1
  Cu+  Cu39  1  0.66046054  0.57862391  0.16693404  1
  Cu+  Cu40  1  0.41941964  0.33790436  0.17023321  1
  Cu+  Cu41  1  0.42139652  0.84010867  0.16897613  1
  Cu+  Cu42  1  0.91802058  0.33869257  0.16920278  1
  Cu+  Cu43  1  0.92465787  0.84317675  0.16612679  1
  Cu+  Cu44  1  0.41699508  0.08166752  0.17176336  1
  Cu+  Cu45  1  0.42079466  0.58520169  0.16911929  1
  Cu+  Cu46  1  0.92022578  0.08367976  0.16854627  1
  Cu+  Cu47  1  0.91818626  0.57757716  0.16749796  1
  Cu+  Cu48  1  0.49818870  0.24298356  0.50474429  1
  Cu+  Cu49  1  0.49853988  0.74400951  0.50408995  1
  Cu+  Cu50  1  0.99879033  0.24621809  0.50522343  1
  Cu+  Cu51  1  0.99862372  0.74408376  0.50631708  1
  Cu+  Cu52  1  0.25279247  0.00337825  0.50425191  1
  Cu+  Cu53  1  0.25315335  0.50379507  0.50211113  1
  Cu+  Cu54  1  0.75334658  0.00339327  0.50490763  1
  Cu+  Cu55  1  0.75280401  0.50367057  0.50612466  1
  Cu+  Cu56  1  0.25328874  0.24964715  0.50484098  1
  Cu+  Cu57  1  0.24698930  0.74427313  0.50421693  1
  Cu+  Cu58  1  0.74510005  0.24150128  0.50492213  1
  Cu+  Cu59  1  0.74789501  0.74459865  0.50593418  1
  Cu+  Cu60  1  0.33038797  0.40940546  0.83545348  1
  Cu+  Cu61  1  0.33079280  0.91560276  0.83991406  1
  Cu+  Cu62  1  0.83121612  0.42311752  0.83799987  1
  Cu+  Cu63  1  0.83048572  0.92161925  0.84112752  1
  Cu+  Cu64  1  0.08054149  0.17171365  0.83391368  1
  Cu+  Cu65  1  0.07853987  0.67020855  0.83846996  1
  Cu+  Cu66  1  0.58387302  0.16898078  0.83836249  1
  Cu+  Cu67  1  0.58316345  0.66997027  0.84284576  1
  Cu+  Cu68  1  0.08578598  0.41661402  0.83468460  1
  Cu+  Cu69  1  0.08493760  0.91569441  0.83919559  1
  Cu+  Cu70  1  0.57942352  0.41089617  0.83800976  1
  Cu+  Cu71  1  0.58421077  0.91526861  0.84082186  1
  Cu+  Cu72  1  0.16945622  0.08401399  0.67433948  1
  Cu+  Cu73  1  0.16846111  0.58513343  0.67445997  1
  Cu+  Cu74  1  0.66600205  0.07948781  0.67645682  1
  Cu+  Cu75  1  0.66732497  0.58361732  0.67781874  1
  Cu+  Cu76  1  0.41670585  0.32701583  0.67718792  1
  Cu+  Cu77  1  0.41514152  0.82699243  0.67442069  1
  Cu+  Cu78  1  0.91358815  0.32893316  0.67320691  1
  Cu+  Cu79  1  0.91571669  0.83142827  0.67570930  1
  Cu+  Cu80  1  0.41708773  0.08155459  0.67584731  1
  Cu+  Cu81  1  0.41737085  0.58376890  0.67478821  1
  Cu+  Cu82  1  0.91382867  0.08411585  0.67929062  1
  Cu+  Cu83  1  0.91593634  0.58670066  0.68084174  1
  Cu+  Cu84  1  0.00276439  0.25439064  0.00544326  1
  Cu+  Cu85  1  0.00170428  0.75123252  0.01393038  1
  Cu+  Cu86  1  0.50044649  0.25344993  0.00923363  1
  Cu+  Cu87  1  0.50296976  0.75446589  0.01595146  1
  Cu+  Cu88  1  0.24866730  0.49720053  0.00307860  1
  Cu+  Cu89  1  0.24748767  0.99644457  0.01278345  1
  Cu+  Cu90  1  0.74689466  0.49874079  0.01125825  1
  Cu+  Cu91  1  0.74845702  1.00158189  0.01565887  1
  Cu+  Cu92  1  0.24877101  0.25268839  0.00447746  1
  Cu+  Cu93  1  0.24784658  0.75045443  0.00743791  1
  Cu+  Cu94  1  0.75069253  0.25729710  0.00730040  1
  Cu+  Cu95  1  0.74803607  0.75486776  0.01560632  1
  Cu+  Cu96  1  0.33676689  0.42059532  0.34072031  1
  Cu+  Cu97  1  0.33513185  0.91848734  0.34252711  1
  Cu+  Cu98  1  0.83364193  0.41820597  0.34171088  1
  Cu+  Cu99  1  0.83765733  0.91910029  0.34272332  1
  Cu+  Cu100  1  0.08494688  0.16542883  0.33858440  1
  Cu+  Cu101  1  0.07949737  0.66247103  0.34503857  1
  Cu+  Cu102  1  0.58136594  0.16339540  0.34514094  1
  Cu+  Cu103  1  0.58534165  0.66593612  0.34613587  1
  Cu+  Cu104  1  0.08338237  0.41810486  0.34090013  1
  Cu+  Cu105  1  0.08384031  0.91754362  0.34209728  1
  Cu+  Cu106  1  0.58599008  0.42001444  0.34236712  1
  Cu+  Cu107  1  0.58653060  0.92020006  0.34439292  1
  Cu+  Cu108  1  0.00465735  0.00861677  0.11055634  1
  Cu+  Cu109  1  0.00609410  0.49940108  0.11103612  1
  Cu+  Cu110  1  0.50119473  0.00475074  0.11405679  1
  Cu+  Cu111  1  0.49293507  0.49746754  0.11164741  1
  Cu+  Cu112  1  0.33334130  0.16883300  0.44778167  1
  Cu+  Cu113  1  0.33624872  0.67132846  0.44712057  1
  Cu+  Cu114  1  0.83875625  0.17154600  0.44858675  1
  Cu+  Cu115  1  0.83601117  0.66952422  0.45054488  1
  Cu+  Cu116  1  0.16814710  0.33753784  0.77569655  1
  Cu+  Cu117  1  0.16976233  0.83567757  0.78329750  1
  Cu+  Cu118  1  0.66909587  0.33010697  0.78181981  1
  Cu+  Cu119  1  0.66596275  0.82999078  0.78626453  1
  Te2-  Te120  1  0.00307205  0.00185966  0.38393241  1
  Te2-  Te121  1  -0.00256751  0.49583202  0.38715323  1
  Te2-  Te122  1  0.49887319  -0.00303638  0.38782759  1
  Te2-  Te123  1  0.50037462  0.49867762  0.38684244  1
  Te2-  Te124  1  0.33238406  0.16089541  0.72132981  1
  Te2-  Te125  1  0.33247501  0.66318908  0.71896718  1
  Te2-  Te126  1  0.82985991  0.16671106  0.72199805  1
  Te2-  Te127  1  0.83136335  0.66866193  0.72345568  1
  Te2-  Te128  1  0.16694121  0.33452128  0.04926384  1
  Te2-  Te129  1  0.16702036  0.83056979  0.05862731  1
  Te2-  Te130  1  0.66420205  0.33307710  0.05526472  1
  Te2-  Te131  1  0.66722480  0.83727719  0.06305236  1
  Te2-  Te132  1  0.49043638  0.24305669  0.88370481  1
  Te2-  Te133  1  0.49528713  0.74959369  0.88857689  1
  Te2-  Te134  1  0.99091952  0.25019093  0.88029111  1
  Te2-  Te135  1  0.99020723  0.74976606  0.88645844  1
  Te2-  Te136  1  0.25157824  0.00409663  0.88565161  1
  Te2-  Te137  1  0.25426967  0.50339934  0.87734441  1
  Te2-  Te138  1  0.75059836  0.01044824  0.88761750  1
  Te2-  Te139  1  0.74753817  0.50882117  0.88414070  1
  Te2-  Te140  1  0.24803287  0.24039831  0.87941953  1
  Te2-  Te141  1  0.24755217  0.74635013  0.88176964  1
  Te2-  Te142  1  0.75279381  0.25407664  0.88130260  1
  Te2-  Te143  1  0.75215604  0.75315775  0.88700565  1
  Te2-  Te144  1  0.33256549  0.41890858  0.21445935  1
  Te2-  Te145  1  0.32787741  0.91129608  0.21673715  1
  Te2-  Te146  1  0.82434677  0.41082677  0.21609469  1
  Te2-  Te147  1  0.82622049  0.91277977  0.21679506  1
  Te2-  Te148  1  0.08765639  0.16934958  0.21211751  1
  Te2-  Te149  1  0.08719098  0.67257147  0.21744148  1
  Te2-  Te150  1  0.58445660  0.17050385  0.21759700  1
  Te2-  Te151  1  0.59124487  0.67873609  0.21855329  1
  Te2-  Te152  1  0.08543057  0.41515958  0.21448342  1
  Te2-  Te153  1  0.08993531  0.91049558  0.21623165  1
  Te2-  Te154  1  0.58666369  0.41300892  0.21619515  1
  Te2-  Te155  1  0.59060053  0.91398209  0.21805820  1
  Te2-  Te156  1  0.16294077  0.08089450  0.54848442  1
  Te2-  Te157  1  0.15799910  0.57497237  0.54886333  1
  Te2-  Te158  1  0.65645175  0.07234253  0.55072600  1
  Te2-  Te159  1  0.65819483  0.57541513  0.55192766  1
  Te2-  Te160  1  0.42147157  0.33476337  0.54987044  1
  Te2-  Te161  1  0.41732809  0.83281519  0.54753565  1
  Te2-  Te162  1  0.91500223  0.33295738  0.54685880  1
  Te2-  Te163  1  0.91781420  0.83399977  0.54916315  1
  Te2-  Te164  1  0.41882393  0.07415313  0.55024328  1
  Te2-  Te165  1  0.41891579  0.57475171  0.54926587  1
  Te2-  Te166  1  0.91883925  0.07907989  0.55223430  1
  Te2-  Te167  1  0.91827939  0.57649686  0.55363500  1
  Te2-  Te168  1  0.00171776  0.00342225  0.88245821  1
  Te2-  Te169  1  0.00091121  0.50030725  0.88190722  1
  Te2-  Te170  1  0.49954275  0.00073285  0.88336102  1
  Te2-  Te171  1  0.49833925  0.49971212  0.88329485  1
  Te2-  Te172  1  0.33452125  0.16917612  0.21506274  1
  Te2-  Te173  1  0.33396998  0.66884167  0.21462940  1
  Te2-  Te174  1  0.83565930  0.16943699  0.21484665  1
  Te2-  Te175  1  0.83517251  0.66843252  0.21409339  1
  Te2-  Te176  1  0.16822770  0.33391265  0.54727771  1
  Te2-  Te177  1  0.16816286  0.83425635  0.54965889  1
  Te2-  Te178  1  0.66730798  0.33314058  0.55017824  1
  Te2-  Te179  1  0.66742476  0.83365342  0.54965364  1
  Te2-  Te180  1  0.32906386  0.41273186  0.70827701  1
  Te2-  Te181  1  0.32908830  0.91152650  0.71254664  1
  Te2-  Te182  1  0.82720701  0.41289961  0.71023011  1
  Te2-  Te183  1  0.82610743  0.91197603  0.71321468  1
  Te2-  Te184  1  0.08751740  0.17291207  0.70788756  1
  Te2-  Te185  1  0.08849337  0.67476210  0.71138360  1
  Te2-  Te186  1  0.58621792  0.16976876  0.71198987  1
  Te2-  Te187  1  0.58527873  0.67087278  0.71537606  1
  Te2-  Te188  1  0.08376500  0.41450560  0.70868497  1
  Te2-  Te189  1  0.08570525  0.91450057  0.71293063  1
  Te2-  Te190  1  0.58821500  0.41309164  0.71177953  1
  Te2-  Te191  1  0.58442611  0.91025394  0.71440819  1
  Te2-  Te192  1  0.16127402  0.08328890  0.04130236  1
  Te2-  Te193  1  0.16257562  0.58054227  0.04240459  1
  Te2-  Te194  1  0.66086958  0.08701710  0.04362581  1
  Te2-  Te195  1  0.65691370  0.58159253  0.04088637  1
  Te2-  Te196  1  0.41701605  0.33917306  0.04366140  1
  Te2-  Te197  1  0.41780710  0.84267892  0.04283661  1
  Te2-  Te198  1  0.92020333  0.34122843  0.04282049  1
  Te2-  Te199  1  0.92094986  0.84345368  0.04041131  1
  Te2-  Te200  1  0.42056849  0.08269771  0.04404143  1
  Te2-  Te201  1  0.41794160  0.58060755  0.04183981  1
  Te2-  Te202  1  0.92193835  0.08489270  0.04147013  1
  Te2-  Te203  1  0.91970643  0.57840410  0.04082355  1
  Te2-  Te204  1  0.49457225  0.24896531  0.37741828  1
  Te2-  Te205  1  0.49570155  0.74916219  0.37683576  1
  Te2-  Te206  1  0.99713576  0.24739378  0.37726932  1
  Te2-  Te207  1  0.99338630  0.74791779  0.37842541  1
  Te2-  Te208  1  0.25316046  0.00539121  0.37846913  1
  Te2-  Te209  1  0.25361090  0.50712897  0.37653413  1
  Te2-  Te210  1  0.75599610  0.00686688  0.37933367  1
  Te2-  Te211  1  0.75396057  0.50621533  0.38046914  1
  Te2-  Te212  1  0.25475294  0.24973711  0.37708380  1
  Te2-  Te213  1  0.25308264  0.74753442  0.37663926  1
  Te2-  Te214  1  0.75381231  0.24744927  0.37743083  1
  Te2-  Te215  1  0.75721032  0.74918047  0.37844945  1
