# generated using pymatgen
data_Ti(CuTe)4
_symmetry_space_group_name_H-M   'P 1'
_cell_length_a   16.84092866
_cell_length_b   16.83869641
_cell_length_c   20.63885674
_cell_angle_alpha   89.98297193
_cell_angle_beta   89.98200715
_cell_angle_gamma   120.00340705
_symmetry_Int_Tables_number   1
_chemical_formula_structural   Ti(CuTe)4
_chemical_formula_sum   'Ti24 Cu96 Te96'
_cell_volume   5068.45714889
_cell_formula_units_Z   24
loop_
 _symmetry_equiv_pos_site_id
 _symmetry_equiv_pos_as_xyz
  1  'x, y, z'
loop_
 _atom_type_symbol
 _atom_type_oxidation_number
  Ti4+  4.0
  Cu+  1.0
  Te2-  -2.0
loop_
 _atom_site_type_symbol
 _atom_site_label
 _atom_site_symmetry_multiplicity
 _atom_site_fract_x
 _atom_site_fract_y
 _atom_site_fract_z
 _atom_site_occupancy
  Ti4+  Ti0  1  -0.00287223  -0.00309092  0.25889089  1
  Ti4+  Ti1  1  -0.00063091  0.49841380  0.25754945  1
  Ti4+  Ti2  1  0.49651470  0.00029668  0.25759255  1
  Ti4+  Ti3  1  0.50025897  0.49885357  0.25608855  1
  Ti4+  Ti4  1  0.33247561  0.16939458  0.59155932  1
  Ti4+  Ti5  1  0.33748842  0.66952256  0.59125284  1
  Ti4+  Ti6  1  0.83037377  0.16761480  0.58970136  1
  Ti4+  Ti7  1  0.83692590  0.66878822  0.58935646  1
  Ti4+  Ti8  1  0.16728116  0.33184317  0.92387479  1
  Ti4+  Ti9  1  0.17061108  0.83484050  0.92611604  1
  Ti4+  Ti10  1  0.66922900  0.33244939  0.92451982  1
  Ti4+  Ti11  1  0.66724885  0.83416375  0.92468425  1
  Ti4+  Ti12  1  0.00199984  0.00198445  0.75748849  1
  Ti4+  Ti13  1  -0.00073133  0.49995342  0.75603299  1
  Ti4+  Ti14  1  0.49948226  -0.00088590  0.75627892  1
  Ti4+  Ti15  1  0.49954654  0.50016308  0.75575461  1
  Ti4+  Ti16  1  0.33509967  0.16538422  0.08925550  1
  Ti4+  Ti17  1  0.33199979  0.66566736  0.08906071  1
  Ti4+  Ti18  1  0.83327277  0.16555037  0.09093205  1
  Ti4+  Ti19  1  0.83233321  0.66751419  0.08891389  1
  Ti4+  Ti20  1  0.16839350  0.33210073  0.42154834  1
  Ti4+  Ti21  1  0.16331072  0.83232713  0.42325539  1
  Ti4+  Ti22  1  0.66763114  0.33259234  0.42272180  1
  Ti4+  Ti23  1  0.66283688  0.83279500  0.42166872  1
  Cu+  Cu24  1  0.86118373  0.43047453  0.47271011  1
  Cu+  Cu25  1  0.56900572  0.93267199  0.47432196  1
  Cu+  Cu26  1  0.19653531  0.09670965  0.80849128  1
  Cu+  Cu27  1  0.23706341  0.75552031  0.14444688  1
  Cu+  Cu28  1  0.23651290  0.98065007  0.14304953  1
  Cu+  Cu29  1  0.68880986  0.09316313  0.80658435  1
  Cu+  Cu30  1  0.07629566  0.93250610  0.47636233  1
  Cu+  Cu31  1  0.40450728  0.80904392  0.80993627  1
  Cu+  Cu32  1  0.84414001  0.92854049  0.47809171  1
  Cu+  Cu33  1  0.36210952  0.43105363  0.47250695  1
  Cu+  Cu34  1  0.52610413  0.26364626  0.13843533  1
  Cu+  Cu35  1  0.73709999  0.76521535  0.14187253  1
  Cu+  Cu36  1  0.16129585  0.07749079  0.17176541  1
  Cu+  Cu37  1  0.16177681  0.58160840  0.17104821  1
  Cu+  Cu38  1  0.66376205  0.08056701  0.17278899  1
  Cu+  Cu39  1  0.66410433  0.58762806  0.16871705  1
  Cu+  Cu40  1  0.42210906  0.33519154  0.17018074  1
  Cu+  Cu41  1  0.41338198  0.83384481  0.17100847  1
  Cu+  Cu42  1  0.91519312  0.33331120  0.17295548  1
  Cu+  Cu43  1  0.91275398  0.83513394  0.17154395  1
  Cu+  Cu44  1  0.41746005  0.08188350  0.16870295  1
  Cu+  Cu45  1  0.41358253  0.57645663  0.17006290  1
  Cu+  Cu46  1  0.91400380  0.07929862  0.17265154  1
  Cu+  Cu47  1  0.91536390  0.57863947  0.17055985  1
  Cu+  Cu48  1  0.49689202  0.25074454  0.50428589  1
  Cu+  Cu49  1  0.49498335  0.75513897  0.50237370  1
  Cu+  Cu50  1  0.99670210  0.25012142  0.50174355  1
  Cu+  Cu51  1  0.99624823  0.75355522  0.50207208  1
  Cu+  Cu52  1  0.24803121  0.00325211  0.50675329  1
  Cu+  Cu53  1  0.25705650  0.50026711  0.50374274  1
  Cu+  Cu54  1  0.74544965  0.00406580  0.50385913  1
  Cu+  Cu55  1  0.75741121  0.50101097  0.50401896  1
  Cu+  Cu56  1  0.25602612  0.25367328  0.50318521  1
  Cu+  Cu57  1  0.25375725  0.75140512  0.50517376  1
  Cu+  Cu58  1  0.75492045  0.25330566  0.50309179  1
  Cu+  Cu59  1  0.75529809  0.75155608  0.50115925  1
  Cu+  Cu60  1  0.32955358  0.41494176  0.83692990  1
  Cu+  Cu61  1  0.32924414  0.90984827  0.83842331  1
  Cu+  Cu62  1  0.83046950  0.41458970  0.83745132  1
  Cu+  Cu63  1  0.83101612  0.91361990  0.83915296  1
  Cu+  Cu64  1  0.09069001  0.16942007  0.83768531  1
  Cu+  Cu65  1  0.08729225  0.66755432  0.83944964  1
  Cu+  Cu66  1  0.59068761  0.17078501  0.83752487  1
  Cu+  Cu67  1  0.58835196  0.66769692  0.83816214  1
  Cu+  Cu68  1  0.08246527  0.41452809  0.83829220  1
  Cu+  Cu69  1  0.09112028  0.92247872  0.84028586  1
  Cu+  Cu70  1  0.58302669  0.41476026  0.83914220  1
  Cu+  Cu71  1  0.58474109  0.91477817  0.83619569  1
  Cu+  Cu72  1  0.16980668  0.08694410  0.67967433  1
  Cu+  Cu73  1  0.16972874  0.58511416  0.67355970  1
  Cu+  Cu74  1  0.66775565  0.08665684  0.67801397  1
  Cu+  Cu75  1  0.67089144  0.58444703  0.67146100  1
  Cu+  Cu76  1  0.41424112  0.33374534  0.67600390  1
  Cu+  Cu77  1  0.41380281  0.83097914  0.68101728  1
  Cu+  Cu78  1  0.91342260  0.33261816  0.67466781  1
  Cu+  Cu79  1  0.91673541  0.83280112  0.67697102  1
  Cu+  Cu80  1  0.41267442  0.08244633  0.67593380  1
  Cu+  Cu81  1  0.41886741  0.58665869  0.67483082  1
  Cu+  Cu82  1  0.91193811  0.08144970  0.67548600  1
  Cu+  Cu83  1  0.91761260  0.58538795  0.67417344  1
  Cu+  Cu84  1  0.00353211  0.24981321  0.00694073  1
  Cu+  Cu85  1  0.00157159  0.75085406  0.00805846  1
  Cu+  Cu86  1  0.50736240  0.25356175  0.01077332  1
  Cu+  Cu87  1  0.50142829  0.74831528  0.00810605  1
  Cu+  Cu88  1  0.24836197  0.49564336  0.00661667  1
  Cu+  Cu89  1  0.25064772  0.99760327  0.01395923  1
  Cu+  Cu90  1  0.75056556  0.49868144  0.00711447  1
  Cu+  Cu91  1  0.75003698  0.99935063  0.00811438  1
  Cu+  Cu92  1  0.24892781  0.24926022  0.00902473  1
  Cu+  Cu93  1  0.25037976  0.75195454  0.01533418  1
  Cu+  Cu94  1  0.75001123  0.24860880  0.00891397  1
  Cu+  Cu95  1  0.74824709  0.75376355  0.01324516  1
  Cu+  Cu96  1  0.33860639  0.41531607  0.34371906  1
  Cu+  Cu97  1  0.33095545  0.91602473  0.34376605  1
  Cu+  Cu98  1  0.83856381  0.41630098  0.34467575  1
  Cu+  Cu99  1  0.83270715  0.91518095  0.34804849  1
  Cu+  Cu100  1  0.08216637  0.16354954  0.34091529  1
  Cu+  Cu101  1  0.08324915  0.66433703  0.34212117  1
  Cu+  Cu102  1  0.58057580  0.16502441  0.34099383  1
  Cu+  Cu103  1  0.57859705  0.66435604  0.34036809  1
  Cu+  Cu104  1  0.08215306  0.41448853  0.33966233  1
  Cu+  Cu105  1  0.07753573  0.91456617  0.34706206  1
  Cu+  Cu106  1  0.58207120  0.41468211  0.33974905  1
  Cu+  Cu107  1  0.57459383  0.91588200  0.34562957  1
  Cu+  Cu108  1  -0.00080336  0.00159848  0.11532603  1
  Cu+  Cu109  1  -0.00165429  0.49578969  0.11422779  1
  Cu+  Cu110  1  0.50310246  -0.00155580  0.11450657  1
  Cu+  Cu111  1  0.50045276  0.49982908  0.11251942  1
  Cu+  Cu112  1  0.33410903  0.16485229  0.44743835  1
  Cu+  Cu113  1  0.32495340  0.65974986  0.44763552  1
  Cu+  Cu114  1  0.83348661  0.16648269  0.44450603  1
  Cu+  Cu115  1  0.82708721  0.66100943  0.44458225  1
  Cu+  Cu116  1  0.16441855  0.33604331  0.78000454  1
  Cu+  Cu117  1  0.15837805  0.82899967  0.78376572  1
  Cu+  Cu118  1  0.66690502  0.33889835  0.78176120  1
  Cu+  Cu119  1  0.66549233  0.83028938  0.78131671  1
  Te2-  Te120  1  -0.00104834  0.00263703  0.39155947  1
  Te2-  Te121  1  0.00573192  0.50045366  0.38854242  1
  Te2-  Te122  1  0.49486091  0.00272470  0.38858582  1
  Te2-  Te123  1  0.50541887  0.50136670  0.38697165  1
  Te2-  Te124  1  0.33754737  0.17029151  0.72242344  1
  Te2-  Te125  1  0.33221937  0.66346920  0.72208043  1
  Te2-  Te126  1  0.83516541  0.16886937  0.72018459  1
  Te2-  Te127  1  0.83440695  0.66691079  0.71802308  1
  Te2-  Te128  1  0.16731025  0.33217547  0.05336712  1
  Te2-  Te129  1  0.16278667  0.83112261  0.05851055  1
  Te2-  Te130  1  0.67398866  0.33622347  0.05573216  1
  Te2-  Te131  1  0.66419274  0.83638305  0.05572241  1
  Te2-  Te132  1  0.49767482  0.24523834  0.88399043  1
  Te2-  Te133  1  0.49494903  0.74433064  0.88166640  1
  Te2-  Te134  1  0.99636949  0.24440640  0.88065773  1
  Te2-  Te135  1  1.00068335  0.75166083  0.88163750  1
  Te2-  Te136  1  0.26099920  0.00848009  0.88635316  1
  Te2-  Te137  1  0.25109115  0.50383410  0.88127859  1
  Te2-  Te138  1  0.75526395  0.00691004  0.88202756  1
  Te2-  Te139  1  0.75210717  0.50371082  0.88160063  1
  Te2-  Te140  1  0.25962108  0.24800447  0.88340494  1
  Te2-  Te141  1  0.25363504  0.74292059  0.88806379  1
  Te2-  Te142  1  0.75908931  0.24733109  0.88306866  1
  Te2-  Te143  1  0.75426649  0.74797947  0.88674429  1
  Te2-  Te144  1  0.32808288  0.40880890  0.21660725  1
  Te2-  Te145  1  0.32053101  0.91184401  0.21736457  1
  Te2-  Te146  1  0.82673211  0.41246213  0.21827303  1
  Te2-  Te147  1  0.82252309  0.91322392  0.22078708  1
  Te2-  Te148  1  0.08407094  0.16767174  0.21488239  1
  Te2-  Te149  1  0.08277239  0.67310989  0.21650904  1
  Te2-  Te150  1  0.58609371  0.17284734  0.21556165  1
  Te2-  Te151  1  0.58100197  0.67315071  0.21496855  1
  Te2-  Te152  1  0.08578999  0.41406209  0.21384164  1
  Te2-  Te153  1  0.08081737  0.90749545  0.21905613  1
  Te2-  Te154  1  0.59245936  0.41810804  0.21383290  1
  Te2-  Te155  1  0.58018938  0.91190027  0.21878136  1
  Te2-  Te156  1  0.15921216  0.08612898  0.55191406  1
  Te2-  Te157  1  0.16756240  0.58120312  0.54699027  1
  Te2-  Te158  1  0.65713570  0.08473278  0.55031710  1
  Te2-  Te159  1  0.66733950  0.58243340  0.54487553  1
  Te2-  Te160  1  0.42403110  0.34399006  0.55042852  1
  Te2-  Te161  1  0.41953061  0.84528628  0.55372746  1
  Te2-  Te162  1  0.92323100  0.34185785  0.54931716  1
  Te2-  Te163  1  0.92248070  0.84751293  0.55083616  1
  Te2-  Te164  1  0.41641728  0.08193378  0.54963370  1
  Te2-  Te165  1  0.42772385  0.58707784  0.54813925  1
  Te2-  Te166  1  0.91835367  0.08268730  0.54914989  1
  Te2-  Te167  1  0.92784188  0.58581519  0.54811362  1
  Te2-  Te168  1  0.00010684  0.00023923  0.88463928  1
  Te2-  Te169  1  -0.00124123  0.49888122  0.88266954  1
  Te2-  Te170  1  0.50080716  -0.00033401  0.88385900  1
  Te2-  Te171  1  0.49870009  0.49889145  0.88218574  1
  Te2-  Te172  1  0.33177218  0.16524617  0.21712056  1
  Te2-  Te173  1  0.33163350  0.66360671  0.21638237  1
  Te2-  Te174  1  0.83169020  0.16490455  0.21753343  1
  Te2-  Te175  1  0.83197646  0.66475316  0.21616328  1
  Te2-  Te176  1  0.16472259  0.33221446  0.54884473  1
  Te2-  Te177  1  0.16572845  0.83266989  0.55053064  1
  Te2-  Te178  1  0.66531546  0.33276280  0.54998359  1
  Te2-  Te179  1  0.66628971  0.83249586  0.54942719  1
  Te2-  Te180  1  0.32694577  0.41604985  0.71042935  1
  Te2-  Te181  1  0.32419123  0.91392689  0.71216150  1
  Te2-  Te182  1  0.82716993  0.41533680  0.71067873  1
  Te2-  Te183  1  0.82857522  0.91364265  0.71288612  1
  Te2-  Te184  1  0.08318487  0.17385740  0.71025361  1
  Te2-  Te185  1  0.08748448  0.67210969  0.71178325  1
  Te2-  Te186  1  0.58245502  0.17318903  0.71110579  1
  Te2-  Te187  1  0.58914956  0.67200469  0.71064291  1
  Te2-  Te188  1  0.08463107  0.41439079  0.71003019  1
  Te2-  Te189  1  0.08672245  0.91400312  0.71197903  1
  Te2-  Te190  1  0.58563340  0.41484122  0.71077255  1
  Te2-  Te191  1  0.58761335  0.91355443  0.70887481  1
  Te2-  Te192  1  0.16057373  0.08014035  0.04473960  1
  Te2-  Te193  1  0.15949788  0.57722656  0.04325813  1
  Te2-  Te194  1  0.66154322  0.07965994  0.04548858  1
  Te2-  Te195  1  0.66039810  0.57919559  0.04166267  1
  Te2-  Te196  1  0.41934688  0.33825727  0.04332956  1
  Te2-  Te197  1  0.42316965  0.83973411  0.04389631  1
  Te2-  Te198  1  0.92004040  0.33652970  0.04526214  1
  Te2-  Te199  1  0.92180497  0.84122410  0.04427672  1
  Te2-  Te200  1  0.42387565  0.08016221  0.04191029  1
  Te2-  Te201  1  0.41742773  0.57881249  0.04373756  1
  Te2-  Te202  1  0.91912673  0.08012100  0.04533627  1
  Te2-  Te203  1  0.91952540  0.58130584  0.04436113  1
  Te2-  Te204  1  0.49447862  0.24722510  0.37788394  1
  Te2-  Te205  1  0.48878610  0.74348345  0.37622167  1
  Te2-  Te206  1  0.99517116  0.24583847  0.37580701  1
  Te2-  Te207  1  0.99022251  0.74164840  0.37562723  1
  Te2-  Te208  1  0.25072350  0.00580254  0.37830180  1
  Te2-  Te209  1  0.25294168  0.50365719  0.37519017  1
  Te2-  Te210  1  0.74898403  0.00618665  0.37547958  1
  Te2-  Te211  1  0.75237211  0.50366075  0.37554552  1
  Te2-  Te212  1  0.25194938  0.24257733  0.37602664  1
  Te2-  Te213  1  0.25170722  0.74718722  0.37874766  1
  Te2-  Te214  1  0.75053568  0.24338872  0.37584501  1
  Te2-  Te215  1  0.74763052  0.74295482  0.37502662  1
