# generated using pymatgen
data_Ti(CuTe)4
_symmetry_space_group_name_H-M   'P 1'
_cell_length_a   16.89213852
_cell_length_b   16.89014877
_cell_length_c   20.71337882
_cell_angle_alpha   90.04710237
_cell_angle_beta   89.94636713
_cell_angle_gamma   119.97987658
_symmetry_Int_Tables_number   1
_chemical_formula_structural   Ti(CuTe)4
_chemical_formula_sum   'Ti24 Cu96 Te96'
_cell_volume   5119.02783575
_cell_formula_units_Z   24
loop_
 _symmetry_equiv_pos_site_id
 _symmetry_equiv_pos_as_xyz
  1  'x, y, z'
loop_
 _atom_type_symbol
 _atom_type_oxidation_number
  Ti4+  4.0
  Cu+  1.0
  Te2-  -2.0
loop_
 _atom_site_type_symbol
 _atom_site_label
 _atom_site_symmetry_multiplicity
 _atom_site_fract_x
 _atom_site_fract_y
 _atom_site_fract_z
 _atom_site_occupancy
  Ti4+  Ti0  1  -0.00103649  0.00068420  0.25844713  1
  Ti4+  Ti1  1  0.00016550  0.49996244  0.25968076  1
  Ti4+  Ti2  1  0.50309412  -0.00008780  0.25713030  1
  Ti4+  Ti3  1  0.50230630  0.49950941  0.25415499  1
  Ti4+  Ti4  1  0.33186568  0.16330186  0.58687199  1
  Ti4+  Ti5  1  0.33345202  0.66714328  0.58933403  1
  Ti4+  Ti6  1  0.83338793  0.16380023  0.59782491  1
  Ti4+  Ti7  1  0.83257176  0.66344703  0.59228988  1
  Ti4+  Ti8  1  0.16681786  0.33746412  0.92106656  1
  Ti4+  Ti9  1  0.16589496  0.83553760  0.92351632  1
  Ti4+  Ti10  1  0.66757387  0.33546759  0.92527006  1
  Ti4+  Ti11  1  0.66538500  0.83343976  0.92509480  1
  Ti4+  Ti12  1  -0.00006772  -0.00094736  0.75382168  1
  Ti4+  Ti13  1  0.00030062  0.49972952  0.75335658  1
  Ti4+  Ti14  1  0.49835349  -0.00094501  0.75583516  1
  Ti4+  Ti15  1  0.49974262  0.50061286  0.75525634  1
  Ti4+  Ti16  1  0.33356618  0.16888234  0.08702961  1
  Ti4+  Ti17  1  0.33327705  0.66787217  0.08859289  1
  Ti4+  Ti18  1  0.83303248  0.16758836  0.08983186  1
  Ti4+  Ti19  1  0.83220948  0.66756008  0.08823632  1
  Ti4+  Ti20  1  0.16621256  0.33122956  0.42222924  1
  Ti4+  Ti21  1  0.16823211  0.83300966  0.41891361  1
  Ti4+  Ti22  1  0.66686395  0.33406193  0.42397789  1
  Ti4+  Ti23  1  0.66640444  0.83285317  0.42477951  1
  Cu+  Cu24  1  0.35556878  0.92580138  0.47120950  1
  Cu+  Cu25  1  0.91133904  0.32515140  0.81598389  1
  Cu+  Cu26  1  0.68733699  0.59492160  0.80873889  1
  Cu+  Cu27  1  0.51892449  0.25466430  0.14090036  1
  Cu+  Cu28  1  0.67443457  0.08822789  0.81923998  1
  Cu+  Cu29  1  0.51899286  0.75606995  0.14281879  1
  Cu+  Cu30  1  0.07372552  0.64752651  0.47513604  1
  Cu+  Cu31  1  0.40597056  0.59757543  0.80476070  1
  Cu+  Cu32  1  0.91175997  0.08880407  0.81530205  1
  Cu+  Cu33  1  0.74555719  0.98467161  0.14598521  1
  Cu+  Cu34  1  0.74724934  0.48447069  0.14377465  1
  Cu+  Cu35  1  0.06851482  0.14202292  0.47578269  1
  Cu+  Cu36  1  0.16319132  0.08585267  0.17131160  1
  Cu+  Cu37  1  0.16347645  0.58191018  0.17319499  1
  Cu+  Cu38  1  0.66342669  0.07802705  0.16984140  1
  Cu+  Cu39  1  0.66305656  0.57775587  0.16681821  1
  Cu+  Cu40  1  0.42315814  0.33594351  0.16671606  1
  Cu+  Cu41  1  0.42297688  0.83506567  0.17027282  1
  Cu+  Cu42  1  0.91888834  0.33788530  0.17287948  1
  Cu+  Cu43  1  0.91666548  0.83768227  0.17092848  1
  Cu+  Cu44  1  0.42083594  0.08451909  0.17114877  1
  Cu+  Cu45  1  0.42149709  0.58419209  0.16929248  1
  Cu+  Cu46  1  0.91779260  0.08093411  0.17239711  1
  Cu+  Cu47  1  0.91779518  0.58098195  0.17277013  1
  Cu+  Cu48  1  0.49653927  0.24709931  0.50257446  1
  Cu+  Cu49  1  0.49632002  0.74687610  0.50462332  1
  Cu+  Cu50  1  0.99746067  0.24361738  0.50877067  1
  Cu+  Cu51  1  0.99631495  0.74336693  0.50292751  1
  Cu+  Cu52  1  0.25726474  0.00360410  0.49824806  1
  Cu+  Cu53  1  0.25327703  0.50222839  0.50310884  1
  Cu+  Cu54  1  0.75001116  0.00147363  0.51033097  1
  Cu+  Cu55  1  0.74932638  0.50220217  0.50622784  1
  Cu+  Cu56  1  0.24535988  0.24178516  0.50174988  1
  Cu+  Cu57  1  0.25262849  0.74878989  0.50046358  1
  Cu+  Cu58  1  0.74938786  0.24800013  0.51110607  1
  Cu+  Cu59  1  0.74856536  0.74567422  0.50769818  1
  Cu+  Cu60  1  0.33066275  0.42275021  0.83492673  1
  Cu+  Cu61  1  0.32679081  0.91536867  0.83777197  1
  Cu+  Cu62  1  0.82814776  0.41587139  0.83621167  1
  Cu+  Cu63  1  0.82877087  0.91589589  0.83635144  1
  Cu+  Cu64  1  0.08508870  0.17200059  0.83429630  1
  Cu+  Cu65  1  0.08512760  0.67238166  0.83672837  1
  Cu+  Cu66  1  0.58339427  0.17055160  0.83843079  1
  Cu+  Cu67  1  0.58237556  0.66843505  0.83738081  1
  Cu+  Cu68  1  0.08570267  0.41456025  0.83348869  1
  Cu+  Cu69  1  0.08534168  0.91500328  0.83690723  1
  Cu+  Cu70  1  0.58819347  0.42018470  0.83855888  1
  Cu+  Cu71  1  0.58443080  0.91467755  0.83827174  1
  Cu+  Cu72  1  0.16822275  0.08079801  0.67087283  1
  Cu+  Cu73  1  0.16817853  0.58543761  0.67296370  1
  Cu+  Cu74  1  0.66900963  0.08374602  0.68586872  1
  Cu+  Cu75  1  0.66983580  0.58311245  0.68037354  1
  Cu+  Cu76  1  0.41361356  0.32749688  0.67024484  1
  Cu+  Cu77  1  0.41394637  0.83233685  0.67379449  1
  Cu+  Cu78  1  0.91561561  0.32862496  0.68326822  1
  Cu+  Cu79  1  0.91503998  0.82760540  0.67454162  1
  Cu+  Cu80  1  0.41394189  0.08198036  0.67285753  1
  Cu+  Cu81  1  0.41406977  0.58520105  0.67722485  1
  Cu+  Cu82  1  0.91537384  0.08295381  0.68329436  1
  Cu+  Cu83  1  0.91566874  0.58249053  0.67520146  1
  Cu+  Cu84  1  0.00158544  0.25342342  0.00922123  1
  Cu+  Cu85  1  0.00293928  0.75403508  0.00730367  1
  Cu+  Cu86  1  0.50341307  0.25340079  0.01149240  1
  Cu+  Cu87  1  0.50130235  0.75292434  0.01281146  1
  Cu+  Cu88  1  0.24615249  0.50046989  0.00581863  1
  Cu+  Cu89  1  0.24670451  0.99942977  0.00674463  1
  Cu+  Cu90  1  0.74968306  0.50015709  0.01329180  1
  Cu+  Cu91  1  0.74930618  1.00045639  0.01626299  1
  Cu+  Cu92  1  0.24630720  0.25294929  0.00394144  1
  Cu+  Cu93  1  0.24565604  0.75288927  0.00786402  1
  Cu+  Cu94  1  0.75153242  0.25309357  0.01175675  1
  Cu+  Cu95  1  0.74981884  0.75275510  0.00883559  1
  Cu+  Cu96  1  0.33742226  0.41781200  0.33689157  1
  Cu+  Cu97  1  0.33898301  0.91870215  0.34205820  1
  Cu+  Cu98  1  0.83594222  0.41933842  0.34573501  1
  Cu+  Cu99  1  0.83386602  0.91841625  0.34488998  1
  Cu+  Cu100  1  0.07908399  0.16242164  0.34616906  1
  Cu+  Cu101  1  0.08175686  0.66309679  0.34525601  1
  Cu+  Cu102  1  0.58544441  0.16605999  0.34282557  1
  Cu+  Cu103  1  0.58281284  0.66395141  0.34043124  1
  Cu+  Cu104  1  0.08246731  0.41720514  0.34365331  1
  Cu+  Cu105  1  0.08237597  0.91871431  0.33963253  1
  Cu+  Cu106  1  0.58496564  0.41804607  0.34106275  1
  Cu+  Cu107  1  0.58490396  0.91681910  0.34499223  1
  Cu+  Cu108  1  0.00292446  0.00067673  0.11457315  1
  Cu+  Cu109  1  0.00253442  0.50150917  0.11657367  1
  Cu+  Cu110  1  0.49568935  -0.00102746  0.11387482  1
  Cu+  Cu111  1  0.49598505  0.49885359  0.11010378  1
  Cu+  Cu112  1  0.33537273  0.17055371  0.44282471  1
  Cu+  Cu113  1  0.33389310  0.66319266  0.44490879  1
  Cu+  Cu114  1  0.83164172  0.16872177  0.45654133  1
  Cu+  Cu115  1  0.83306627  0.66957148  0.44945366  1
  Cu+  Cu116  1  0.17054838  0.33266998  0.77612965  1
  Cu+  Cu117  1  0.16566615  0.83282549  0.77889281  1
  Cu+  Cu118  1  0.66167924  0.33251579  0.78113087  1
  Cu+  Cu119  1  0.66553258  0.83200600  0.78084824  1
  Te2-  Te120  1  -0.00189235  -0.00372751  0.38907600  1
  Te2-  Te121  1  0.00005512  0.49802753  0.39028613  1
  Te2-  Te122  1  0.50440397  0.00156854  0.38708711  1
  Te2-  Te123  1  0.50055314  0.49891896  0.38276751  1
  Te2-  Te124  1  0.33182206  0.16448540  0.71595538  1
  Te2-  Te125  1  0.33117535  0.66917911  0.72004842  1
  Te2-  Te126  1  0.83341805  0.16502886  0.73171031  1
  Te2-  Te127  1  0.83594530  0.66560109  0.72335188  1
  Te2-  Te128  1  0.16686931  0.33647973  0.04988422  1
  Te2-  Te129  1  0.16599065  0.83654127  0.05319599  1
  Te2-  Te130  1  0.66894454  0.33414348  0.05703767  1
  Te2-  Te131  1  0.66753328  0.83306924  0.05666923  1
  Te2-  Te132  1  0.49820682  0.25173605  0.88398944  1
  Te2-  Te133  1  0.49320337  0.74883507  0.88497803  1
  Te2-  Te134  1  0.98947852  0.24610263  0.88378018  1
  Te2-  Te135  1  0.99331394  0.74789585  0.88190981  1
  Te2-  Te136  1  0.25222351  0.00833301  0.88147843  1
  Te2-  Te137  1  0.25024223  0.51130443  0.88031839  1
  Te2-  Te138  1  0.75405572  0.00927096  0.88794371  1
  Te2-  Te139  1  0.75682325  0.50867144  0.88557849  1
  Te2-  Te140  1  0.25229761  0.25293184  0.87776534  1
  Te2-  Te141  1  0.25172389  0.74835994  0.88243359  1
  Te2-  Te142  1  0.75465520  0.24673945  0.88585251  1
  Te2-  Te143  1  0.75347148  0.74982863  0.88264606  1
  Te2-  Te144  1  0.33278203  0.41488077  0.21063734  1
  Te2-  Te145  1  0.33416430  0.91555867  0.21451516  1
  Te2-  Te146  1  0.82617455  0.41094840  0.21963263  1
  Te2-  Te147  1  0.82470619  0.91080445  0.21896498  1
  Te2-  Te148  1  0.08331360  0.17246794  0.21897431  1
  Te2-  Te149  1  0.08453685  0.67107847  0.21813613  1
  Te2-  Te150  1  0.59195244  0.17286690  0.21657467  1
  Te2-  Te151  1  0.59217838  0.67299467  0.21463751  1
  Te2-  Te152  1  0.08580691  0.41399043  0.21774742  1
  Te2-  Te153  1  0.08514110  0.91648069  0.21383903  1
  Te2-  Te154  1  0.59070816  0.41020201  0.21523714  1
  Te2-  Te155  1  0.59070592  0.91033067  0.21867721  1
  Te2-  Te156  1  0.15827479  0.07166504  0.54534820  1
  Te2-  Te157  1  0.16102965  0.57879730  0.54714042  1
  Te2-  Te158  1  0.66247744  0.08041880  0.55768310  1
  Te2-  Te159  1  0.66020286  0.57875478  0.55368463  1
  Te2-  Te160  1  0.41475120  0.33420465  0.54453511  1
  Te2-  Te161  1  0.42155782  0.84026607  0.54808475  1
  Te2-  Te162  1  0.91877430  0.33329054  0.55506890  1
  Te2-  Te163  1  0.91887495  0.83362651  0.54837315  1
  Te2-  Te164  1  0.42348335  0.07981602  0.54742221  1
  Te2-  Te165  1  0.41889070  0.58051939  0.55071855  1
  Te2-  Te166  1  0.91744028  0.07512375  0.55563262  1
  Te2-  Te167  1  0.91732886  0.57468581  0.54980530  1
  Te2-  Te168  1  0.00047414  0.00126308  0.88088712  1
  Te2-  Te169  1  0.00060133  0.50141753  0.88034349  1
  Te2-  Te170  1  0.49714020  -0.00068460  0.88291260  1
  Te2-  Te171  1  0.49811397  0.49932452  0.88269990  1
  Te2-  Te172  1  0.33317785  0.16774017  0.21397850  1
  Te2-  Te173  1  0.33358055  0.66557671  0.21547104  1
  Te2-  Te174  1  0.83339328  0.16756596  0.21656057  1
  Te2-  Te175  1  0.83231038  0.66748991  0.21506405  1
  Te2-  Te176  1  0.16895128  0.33349192  0.54907483  1
  Te2-  Te177  1  0.16720135  0.83388367  0.54621713  1
  Te2-  Te178  1  0.66361306  0.33259899  0.55046957  1
  Te2-  Te179  1  0.66434331  0.83042445  0.55125668  1
  Te2-  Te180  1  0.32888528  0.41238578  0.70761304  1
  Te2-  Te181  1  0.32675429  0.91382995  0.71126385  1
  Te2-  Te182  1  0.82549739  0.41252178  0.71011400  1
  Te2-  Te183  1  0.82607329  0.90926414  0.70990802  1
  Te2-  Te184  1  0.08915355  0.17145658  0.70753606  1
  Te2-  Te185  1  0.08574330  0.67229803  0.71012212  1
  Te2-  Te186  1  0.58313004  0.17192844  0.71136033  1
  Te2-  Te187  1  0.58644085  0.67351686  0.70973805  1
  Te2-  Te188  1  0.08958937  0.41521266  0.70751928  1
  Te2-  Te189  1  0.08509207  0.91226747  0.71029249  1
  Te2-  Te190  1  0.58215742  0.41036197  0.71092909  1
  Te2-  Te191  1  0.58320433  0.91016679  0.71159531  1
  Te2-  Te192  1  0.16171042  0.08441113  0.04406655  1
  Te2-  Te193  1  0.16109308  0.58353836  0.04610399  1
  Te2-  Te194  1  0.65874725  0.08279989  0.04388285  1
  Te2-  Te195  1  0.65894111  0.58250680  0.04097845  1
  Te2-  Te196  1  0.41668964  0.34001749  0.03983356  1
  Te2-  Te197  1  0.41621396  0.84010929  0.04342924  1
  Te2-  Te198  1  0.92057604  0.34124131  0.04662856  1
  Te2-  Te199  1  0.91927250  0.84021154  0.04460141  1
  Te2-  Te200  1  0.41768853  0.08057399  0.04301463  1
  Te2-  Te201  1  0.41651064  0.57983192  0.04159092  1
  Te2-  Te202  1  0.92247942  0.08359445  0.04517758  1
  Te2-  Te203  1  0.92207561  0.58404999  0.04522283  1
  Te2-  Te204  1  0.49673515  0.24783177  0.37620278  1
  Te2-  Te205  1  0.49572954  0.74610314  0.37821867  1
  Te2-  Te206  1  0.99226800  0.24724582  0.38124356  1
  Te2-  Te207  1  0.99420699  0.74857411  0.37584932  1
  Te2-  Te208  1  0.25319959  0.00605545  0.37231897  1
  Te2-  Te209  1  0.25345321  0.50268435  0.37667222  1
  Te2-  Te210  1  0.75332266  0.00640662  0.38393430  1
  Te2-  Te211  1  0.75309677  0.50652028  0.38027861  1
  Te2-  Te212  1  0.25331047  0.24793078  0.37414237  1
  Te2-  Te213  1  0.25537796  0.74616916  0.37318086  1
  Te2-  Te214  1  0.75415206  0.24859937  0.38324237  1
  Te2-  Te215  1  0.75169167  0.74730636  0.38025291  1
