# generated using pymatgen
data_Ti(CuTe)4
_symmetry_space_group_name_H-M   'P 1'
_cell_length_a   16.88192897
_cell_length_b   16.88084148
_cell_length_c   20.70596300
_cell_angle_alpha   90.04075347
_cell_angle_beta   89.95809723
_cell_angle_gamma   119.99062360
_symmetry_Int_Tables_number   1
_chemical_formula_structural   Ti(CuTe)4
_chemical_formula_sum   'Ti24 Cu96 Te96'
_cell_volume   5110.73191617
_cell_formula_units_Z   24
loop_
 _symmetry_equiv_pos_site_id
 _symmetry_equiv_pos_as_xyz
  1  'x, y, z'
loop_
 _atom_type_symbol
 _atom_type_oxidation_number
  Ti4+  4.0
  Cu+  1.0
  Te2-  -2.0
loop_
 _atom_site_type_symbol
 _atom_site_label
 _atom_site_symmetry_multiplicity
 _atom_site_fract_x
 _atom_site_fract_y
 _atom_site_fract_z
 _atom_site_occupancy
  Ti4+  Ti0  1  -0.00122882  -0.00193427  0.25652822  1
  Ti4+  Ti1  1  0.00401785  0.50249090  0.25878197  1
  Ti4+  Ti2  1  0.50392388  0.00184198  0.25725152  1
  Ti4+  Ti3  1  0.49792736  0.49690216  0.25756223  1
  Ti4+  Ti4  1  0.33408178  0.16613301  0.58860486  1
  Ti4+  Ti5  1  0.32889390  0.66423408  0.59439836  1
  Ti4+  Ti6  1  0.83138896  0.16272039  0.59038601  1
  Ti4+  Ti7  1  0.83187346  0.66601682  0.58979569  1
  Ti4+  Ti8  1  0.16544123  0.33577725  0.92314998  1
  Ti4+  Ti9  1  0.16759612  0.83606646  0.92543019  1
  Ti4+  Ti10  1  0.67046945  0.33593722  0.92361276  1
  Ti4+  Ti11  1  0.66649598  0.83161407  0.92501852  1
  Ti4+  Ti12  1  -0.00045420  0.00000403  0.75582635  1
  Ti4+  Ti13  1  -0.00295514  0.49749602  0.75474561  1
  Ti4+  Ti14  1  0.49847593  -0.00009251  0.75595146  1
  Ti4+  Ti15  1  0.50061980  0.50150619  0.75543041  1
  Ti4+  Ti16  1  0.33698438  0.17120663  0.08800783  1
  Ti4+  Ti17  1  0.33112079  0.66499367  0.08981649  1
  Ti4+  Ti18  1  0.83103459  0.16420322  0.08955355  1
  Ti4+  Ti19  1  0.83658383  0.66964978  0.09004670  1
  Ti4+  Ti20  1  0.16658203  0.33342544  0.42291602  1
  Ti4+  Ti21  1  0.16661130  0.83149928  0.42187143  1
  Ti4+  Ti22  1  0.66476316  0.33268254  0.42145439  1
  Ti4+  Ti23  1  0.66854104  0.83397056  0.42303867  1
  Cu+  Cu24  1  0.73632184  0.97275749  0.14086068  1
  Cu+  Cu25  1  0.02733146  0.76363898  0.14147681  1
  Cu+  Cu26  1  0.17645114  0.59301236  0.81345314  1
  Cu+  Cu27  1  0.90391899  0.30848854  0.80547267  1
  Cu+  Cu28  1  0.23706859  0.47416189  0.14100695  1
  Cu+  Cu29  1  0.57077586  0.42675240  0.47481884  1
  Cu+  Cu30  1  0.57184766  0.14468803  0.47342001  1
  Cu+  Cu31  1  0.85868765  0.92886987  0.47311382  1
  Cu+  Cu32  1  0.07151244  0.64290833  0.47633862  1
  Cu+  Cu33  1  0.41312458  0.59664095  0.81001010  1
  Cu+  Cu34  1  0.52786301  0.26378948  0.13970422  1
  Cu+  Cu35  1  0.69052709  0.59571836  0.80726889  1
  Cu+  Cu36  1  0.16483541  0.08451148  0.16951234  1
  Cu+  Cu37  1  0.16377875  0.57818025  0.17125204  1
  Cu+  Cu38  1  0.66327219  0.07629471  0.17044757  1
  Cu+  Cu39  1  0.66403528  0.58136209  0.17223764  1
  Cu+  Cu40  1  0.42435541  0.33768467  0.16969678  1
  Cu+  Cu41  1  0.41883543  0.83600673  0.17152735  1
  Cu+  Cu42  1  0.91882764  0.33568993  0.17294511  1
  Cu+  Cu43  1  0.92289569  0.83747989  0.17054807  1
  Cu+  Cu44  1  0.42561607  0.09057401  0.17076582  1
  Cu+  Cu45  1  0.41083783  0.57554565  0.17140120  1
  Cu+  Cu46  1  0.91021490  0.07475322  0.17071719  1
  Cu+  Cu47  1  0.92629052  0.59093931  0.17296341  1
  Cu+  Cu48  1  0.49550570  0.24714227  0.50129248  1
  Cu+  Cu49  1  0.49728632  0.74813099  0.50809967  1
  Cu+  Cu50  1  0.99653024  0.24807670  0.50485770  1
  Cu+  Cu51  1  0.99644145  0.74330356  0.50281421  1
  Cu+  Cu52  1  0.25246634  0.00225180  0.50249018  1
  Cu+  Cu53  1  0.25035784  0.50261097  0.50751856  1
  Cu+  Cu54  1  0.75618175  0.00219083  0.50347295  1
  Cu+  Cu55  1  0.74491668  0.50326045  0.50298115  1
  Cu+  Cu56  1  0.25003293  0.24726078  0.50341143  1
  Cu+  Cu57  1  0.24466714  0.74202658  0.50584966  1
  Cu+  Cu58  1  0.74570254  0.24310700  0.50419996  1
  Cu+  Cu59  1  0.75487979  0.75250428  0.50351796  1
  Cu+  Cu60  1  0.33057412  0.42224338  0.83619443  1
  Cu+  Cu61  1  0.33042984  0.91713665  0.83799016  1
  Cu+  Cu62  1  0.82908135  0.40994131  0.83547068  1
  Cu+  Cu63  1  0.83111925  0.91591399  0.83866760  1
  Cu+  Cu64  1  0.08489510  0.17027836  0.83701683  1
  Cu+  Cu65  1  0.08517501  0.67405906  0.83880986  1
  Cu+  Cu66  1  0.58393279  0.17028088  0.83754244  1
  Cu+  Cu67  1  0.58826914  0.67148447  0.83695567  1
  Cu+  Cu68  1  0.08312080  0.41455684  0.83514314  1
  Cu+  Cu69  1  0.08317860  0.91596174  0.83946819  1
  Cu+  Cu70  1  0.59077176  0.42139944  0.83749134  1
  Cu+  Cu71  1  0.58440320  0.91716702  0.83861324  1
  Cu+  Cu72  1  0.16983150  0.08406865  0.67360110  1
  Cu+  Cu73  1  0.16514212  0.58252468  0.68219010  1
  Cu+  Cu74  1  0.66590218  0.08223661  0.67401147  1
  Cu+  Cu75  1  0.66815490  0.58481547  0.67817570  1
  Cu+  Cu76  1  0.41560611  0.32973559  0.67275641  1
  Cu+  Cu77  1  0.41179320  0.82971501  0.67661211  1
  Cu+  Cu78  1  0.90980765  0.32579342  0.67744393  1
  Cu+  Cu79  1  0.91524337  0.83185614  0.67469139  1
  Cu+  Cu80  1  0.41619700  0.08445383  0.67355796  1
  Cu+  Cu81  1  0.41253690  0.58424199  0.68130295  1
  Cu+  Cu82  1  0.91571875  0.08262164  0.67550366  1
  Cu+  Cu83  1  0.91277745  0.58195969  0.67428605  1
  Cu+  Cu84  1  -0.00065884  0.25120569  0.00805906  1
  Cu+  Cu85  1  0.00672753  0.75592701  0.01318679  1
  Cu+  Cu86  1  0.50755932  0.25726452  0.01113108  1
  Cu+  Cu87  1  0.50061004  0.74985392  0.00925043  1
  Cu+  Cu88  1  0.24539478  0.49806242  0.01253526  1
  Cu+  Cu89  1  0.25094948  1.00223323  0.00762158  1
  Cu+  Cu90  1  0.75241449  0.50124507  0.00751192  1
  Cu+  Cu91  1  0.74557337  0.99413807  0.01271421  1
  Cu+  Cu92  1  0.25186223  0.25613505  0.00679681  1
  Cu+  Cu93  1  0.24792165  0.75154163  0.00988258  1
  Cu+  Cu94  1  0.74908013  0.24959373  0.00850684  1
  Cu+  Cu95  1  0.75019905  0.75042377  0.00898500  1
  Cu+  Cu96  1  0.33301094  0.41593144  0.34170684  1
  Cu+  Cu97  1  0.33821468  0.91911691  0.34039523  1
  Cu+  Cu98  1  0.83875521  0.42161973  0.34110373  1
  Cu+  Cu99  1  0.83607318  0.91668025  0.34479612  1
  Cu+  Cu100  1  0.07921567  0.16355952  0.33979214  1
  Cu+  Cu101  1  0.08491733  0.66459422  0.34629023  1
  Cu+  Cu102  1  0.58413348  0.16455984  0.34399182  1
  Cu+  Cu103  1  0.57987337  0.66256709  0.34104705  1
  Cu+  Cu104  1  0.08619731  0.42009564  0.34408382  1
  Cu+  Cu105  1  0.08253330  0.91627422  0.34124620  1
  Cu+  Cu106  1  0.58050931  0.41696926  0.34599437  1
  Cu+  Cu107  1  0.58474295  0.91763065  0.34368438  1
  Cu+  Cu108  1  0.00424031  0.00652132  0.11287771  1
  Cu+  Cu109  1  -0.00635480  0.49628460  0.11645875  1
  Cu+  Cu110  1  0.49372664  -0.00284224  0.11440946  1
  Cu+  Cu111  1  0.50358494  0.50548030  0.11466543  1
  Cu+  Cu112  1  0.32806562  0.16355129  0.44466653  1
  Cu+  Cu113  1  0.33737633  0.66957994  0.45208560  1
  Cu+  Cu114  1  0.83441858  0.16943853  0.44728964  1
  Cu+  Cu115  1  0.83367898  0.66736987  0.44589566  1
  Cu+  Cu116  1  0.16825871  0.33104273  0.77896804  1
  Cu+  Cu117  1  0.16622784  0.83755795  0.78229269  1
  Cu+  Cu118  1  0.66170509  0.33092364  0.77949102  1
  Cu+  Cu119  1  0.66828844  0.83911840  0.78200541  1
  Te2-  Te120  1  0.00301159  0.00056132  0.38701997  1
  Te2-  Te121  1  0.00065944  0.49838746  0.38952461  1
  Te2-  Te122  1  0.50090824  -0.00166881  0.38771099  1
  Te2-  Te123  1  0.49661682  0.49970744  0.38815566  1
  Te2-  Te124  1  0.33398122  0.16636090  0.71780660  1
  Te2-  Te125  1  0.33070772  0.66788963  0.72701989  1
  Te2-  Te126  1  0.82898171  0.15973222  0.72102344  1
  Te2-  Te127  1  0.83527538  0.66801577  0.72015563  1
  Te2-  Te128  1  0.16338403  0.33058695  0.05344241  1
  Te2-  Te129  1  0.17311476  0.83980332  0.05624162  1
  Te2-  Te130  1  0.67372691  0.33786177  0.05432373  1
  Te2-  Te131  1  0.66396004  0.82736842  0.05572041  1
  Te2-  Te132  1  0.49981383  0.25374496  0.88357854  1
  Te2-  Te133  1  0.49376472  0.74867247  0.88334157  1
  Te2-  Te134  1  0.99246283  0.24591175  0.88206611  1
  Te2-  Te135  1  0.99517997  0.74903055  0.88619636  1
  Te2-  Te136  1  0.25233715  0.00689833  0.88194838  1
  Te2-  Te137  1  0.25270267  0.51222948  0.88507063  1
  Te2-  Te138  1  0.75104919  0.00270316  0.88549634  1
  Te2-  Te139  1  0.76088721  0.50942278  0.88171324  1
  Te2-  Te140  1  0.25384208  0.25429162  0.88061263  1
  Te2-  Te141  1  0.25563232  0.75024348  0.88430017  1
  Te2-  Te142  1  0.75156424  0.24275721  0.88276831  1
  Te2-  Te143  1  0.75660790  0.74803688  0.88317980  1
  Te2-  Te144  1  0.32465928  0.40611171  0.21586066  1
  Te2-  Te145  1  0.33421908  0.92042903  0.21415078  1
  Te2-  Te146  1  0.83411063  0.42063824  0.21506143  1
  Te2-  Te147  1  0.82470544  0.90645194  0.21777108  1
  Te2-  Te148  1  0.07985950  0.16792558  0.21364325  1
  Te2-  Te149  1  0.09493951  0.67620448  0.21912876  1
  Te2-  Te150  1  0.59459212  0.17535752  0.21691152  1
  Te2-  Te151  1  0.58040349  0.66704097  0.21483668  1
  Te2-  Te152  1  0.08629610  0.41048290  0.21830914  1
  Te2-  Te153  1  0.09168260  0.91699518  0.21565435  1
  Te2-  Te154  1  0.59066286  0.41463809  0.21892316  1
  Te2-  Te155  1  0.58541154  0.90859890  0.21787404  1
  Te2-  Te156  1  0.16234125  0.07940130  0.54767253  1
  Te2-  Te157  1  0.15517263  0.57426487  0.55437298  1
  Te2-  Te158  1  0.65833892  0.07322859  0.54821726  1
  Te2-  Te159  1  0.65843451  0.58446867  0.55074003  1
  Te2-  Te160  1  0.41811470  0.34010350  0.54741275  1
  Te2-  Te161  1  0.41337125  0.83401155  0.55033380  1
  Te2-  Te162  1  0.91375478  0.33354910  0.55023524  1
  Te2-  Te163  1  0.92390476  0.83881892  0.54853743  1
  Te2-  Te164  1  0.41944183  0.07733571  0.54797965  1
  Te2-  Te165  1  0.41707637  0.58065762  0.55436239  1
  Te2-  Te166  1  0.92393049  0.08081866  0.54989563  1
  Te2-  Te167  1  0.91291798  0.57395003  0.54849562  1
  Te2-  Te168  1  0.00044090  0.00215942  0.88224536  1
  Te2-  Te169  1  -0.00073978  0.50171644  0.88213174  1
  Te2-  Te170  1  0.49957584  0.00170511  0.88232041  1
  Te2-  Te171  1  0.50019321  0.50088885  0.88284617  1
  Te2-  Te172  1  0.33349915  0.16817856  0.21484750  1
  Te2-  Te173  1  0.33341029  0.66738929  0.21657840  1
  Te2-  Te174  1  0.83278145  0.16630708  0.21638563  1
  Te2-  Te175  1  0.83350981  0.66800559  0.21676135  1
  Te2-  Te176  1  0.16556044  0.33158268  0.54914068  1
  Te2-  Te177  1  0.16552194  0.83343159  0.54877334  1
  Te2-  Te178  1  0.66521349  0.33313255  0.54871728  1
  Te2-  Te179  1  0.66672272  0.83311890  0.54997298  1
  Te2-  Te180  1  0.32741305  0.41140788  0.70953236  1
  Te2-  Te181  1  0.32661107  0.91465121  0.71161879  1
  Te2-  Te182  1  0.82362146  0.41221713  0.70921266  1
  Te2-  Te183  1  0.82742274  0.91323717  0.71198244  1
  Te2-  Te184  1  0.08619253  0.17075564  0.71040392  1
  Te2-  Te185  1  0.08199110  0.67241963  0.71160305  1
  Te2-  Te186  1  0.58526501  0.17115165  0.71078880  1
  Te2-  Te187  1  0.58614869  0.67553475  0.70972499  1
  Te2-  Te188  1  0.08298757  0.40900392  0.70852222  1
  Te2-  Te189  1  0.08509102  0.91428392  0.71203552  1
  Te2-  Te190  1  0.58457457  0.41261355  0.71005143  1
  Te2-  Te191  1  0.58281554  0.91241457  0.71170514  1
  Te2-  Te192  1  0.16484292  0.08594219  0.04313106  1
  Te2-  Te193  1  0.15761117  0.58203136  0.04514342  1
  Te2-  Te194  1  0.65825963  0.07973641  0.04414344  1
  Te2-  Te195  1  0.66402002  0.58132616  0.04565044  1
  Te2-  Te196  1  0.42158634  0.34400799  0.04305274  1
  Te2-  Te197  1  0.41829032  0.83738807  0.04507256  1
  Te2-  Te198  1  0.91779212  0.33742265  0.04620306  1
  Te2-  Te199  1  0.92014819  0.84221111  0.04431624  1
  Te2-  Te200  1  0.42177417  0.08378121  0.04289590  1
  Te2-  Te201  1  0.41843745  0.57978899  0.04393576  1
  Te2-  Te202  1  0.91904237  0.08047611  0.04316838  1
  Te2-  Te203  1  0.92217182  0.58292441  0.04511467  1
  Te2-  Te204  1  0.49126702  0.24412729  0.37432652  1
  Te2-  Te205  1  0.49590928  0.74756303  0.38065057  1
  Te2-  Te206  1  0.99520216  0.24869781  0.37817367  1
  Te2-  Te207  1  0.99397330  0.74678219  0.37592468  1
  Te2-  Te208  1  0.25275750  0.00337800  0.37622543  1
  Te2-  Te209  1  0.25499619  0.50669691  0.38119548  1
  Te2-  Te210  1  0.75429279  0.00701876  0.37719459  1
  Te2-  Te211  1  0.75356905  0.50622589  0.37639449  1
  Te2-  Te212  1  0.24946630  0.24549594  0.37673428  1
  Te2-  Te213  1  0.25741431  0.74915350  0.37838201  1
  Te2-  Te214  1  0.75617509  0.25089655  0.37686450  1
  Te2-  Te215  1  0.75029158  0.74393344  0.37652659  1
