# generated using pymatgen
data_Ti(CuTe)4
_symmetry_space_group_name_H-M   'P 1'
_cell_length_a   16.89797910
_cell_length_b   16.90278563
_cell_length_c   20.72401991
_cell_angle_alpha   90.02536979
_cell_angle_beta   90.03762264
_cell_angle_gamma   120.00516656
_symmetry_Int_Tables_number   1
_chemical_formula_structural   Ti(CuTe)4
_chemical_formula_sum   'Ti24 Cu96 Te96'
_cell_volume   5125.95520414
_cell_formula_units_Z   24
loop_
 _symmetry_equiv_pos_site_id
 _symmetry_equiv_pos_as_xyz
  1  'x, y, z'
loop_
 _atom_type_symbol
 _atom_type_oxidation_number
  Ti4+  4.0
  Cu+  1.0
  Te2-  -2.0
loop_
 _atom_site_type_symbol
 _atom_site_label
 _atom_site_symmetry_multiplicity
 _atom_site_fract_x
 _atom_site_fract_y
 _atom_site_fract_z
 _atom_site_occupancy
  Ti4+  Ti0  1  0.00066093  0.00012735  0.25916683  1
  Ti4+  Ti1  1  0.00134458  0.50031449  0.25861814  1
  Ti4+  Ti2  1  0.50090357  -0.00031438  0.25978590  1
  Ti4+  Ti3  1  0.49874923  0.49621807  0.25375816  1
  Ti4+  Ti4  1  0.33443110  0.16849442  0.59107131  1
  Ti4+  Ti5  1  0.33208694  0.66602640  0.59248038  1
  Ti4+  Ti6  1  0.83073762  0.16614359  0.59005454  1
  Ti4+  Ti7  1  0.83689424  0.67020627  0.58829168  1
  Ti4+  Ti8  1  0.16541936  0.33318940  0.92637257  1
  Ti4+  Ti9  1  0.16446571  0.83230845  0.92403402  1
  Ti4+  Ti10  1  0.66763521  0.33334073  0.92681902  1
  Ti4+  Ti11  1  0.66436374  0.83104021  0.92087556  1
  Ti4+  Ti12  1  -0.00027239  -0.00065930  0.75553452  1
  Ti4+  Ti13  1  0.00078064  0.50120712  0.75616369  1
  Ti4+  Ti14  1  0.50041514  0.00116852  0.75529992  1
  Ti4+  Ti15  1  0.50137611  0.50216160  0.75534062  1
  Ti4+  Ti16  1  0.33411703  0.16743280  0.08677958  1
  Ti4+  Ti17  1  0.33376120  0.66666732  0.08945051  1
  Ti4+  Ti18  1  0.83289704  0.16592108  0.08904963  1
  Ti4+  Ti19  1  0.83348316  0.66704470  0.08900766  1
  Ti4+  Ti20  1  0.16822809  0.33399757  0.42276095  1
  Ti4+  Ti21  1  0.16663473  0.83282054  0.42083179  1
  Ti4+  Ti22  1  0.66686046  0.33332522  0.42156301  1
  Ti4+  Ti23  1  0.66750635  0.83374295  0.42071427  1
  Cu+  Cu24  1  0.07346607  0.64542378  0.47401379  1
  Cu+  Cu25  1  0.90350531  0.80788126  0.80651159  1
  Cu+  Cu26  1  0.40268166  0.58601541  0.81094913  1
  Cu+  Cu27  1  0.08065117  0.92891824  0.47629658  1
  Cu+  Cu28  1  0.23694687  0.48188804  0.14244956  1
  Cu+  Cu29  1  0.40299226  0.81645140  0.80879382  1
  Cu+  Cu30  1  0.74714027  0.48337453  0.14243686  1
  Cu+  Cu31  1  0.23780971  0.25194230  0.14219249  1
  Cu+  Cu32  1  0.84915350  0.92999525  0.47531086  1
  Cu+  Cu33  1  0.57273632  0.91981333  0.47856548  1
  Cu+  Cu34  1  0.51564869  0.25244593  0.14213452  1
  Cu+  Cu35  1  0.57040588  0.14955390  0.47545165  1
  Cu+  Cu36  1  0.16137325  0.08073699  0.17129859  1
  Cu+  Cu37  1  0.16450375  0.58083157  0.17313051  1
  Cu+  Cu38  1  0.66387913  0.07995061  0.17239684  1
  Cu+  Cu39  1  0.66496867  0.57762978  0.16833310  1
  Cu+  Cu40  1  0.41861717  0.33654605  0.16517254  1
  Cu+  Cu41  1  0.42055321  0.83647428  0.17377945  1
  Cu+  Cu42  1  0.91939044  0.33566255  0.17043435  1
  Cu+  Cu43  1  0.91939357  0.83745314  0.17331249  1
  Cu+  Cu44  1  0.42204662  0.08231658  0.17103690  1
  Cu+  Cu45  1  0.41288968  0.57647524  0.16810589  1
  Cu+  Cu46  1  0.91559430  0.07967155  0.17123961  1
  Cu+  Cu47  1  0.91841270  0.58137939  0.17319242  1
  Cu+  Cu48  1  0.49768842  0.24783055  0.50515484  1
  Cu+  Cu49  1  0.49533428  0.74816796  0.50550618  1
  Cu+  Cu50  1  0.99844357  0.25152372  0.50447151  1
  Cu+  Cu51  1  0.99787995  0.74961876  0.50051771  1
  Cu+  Cu52  1  0.25240467  0.00771426  0.50297003  1
  Cu+  Cu53  1  0.25373934  0.50285174  0.50562716  1
  Cu+  Cu54  1  0.75048853  0.00606717  0.50204103  1
  Cu+  Cu55  1  0.75340641  0.50531956  0.50232495  1
  Cu+  Cu56  1  0.25360502  0.25132090  0.50488080  1
  Cu+  Cu57  1  0.24811748  0.74416863  0.50328027  1
  Cu+  Cu58  1  0.74612658  0.24547502  0.50272640  1
  Cu+  Cu59  1  0.75775005  0.75434388  0.50093586  1
  Cu+  Cu60  1  0.32860332  0.41592676  0.84054867  1
  Cu+  Cu61  1  0.32977888  0.91362009  0.83832960  1
  Cu+  Cu62  1  0.83180669  0.41654139  0.84008502  1
  Cu+  Cu63  1  0.83034376  0.91045189  0.83557130  1
  Cu+  Cu64  1  0.08458121  0.16887060  0.83993229  1
  Cu+  Cu65  1  0.08449735  0.67077019  0.83718461  1
  Cu+  Cu66  1  0.58541928  0.17166390  0.83979411  1
  Cu+  Cu67  1  0.58077539  0.67091952  0.83413078  1
  Cu+  Cu68  1  0.08355792  0.41491233  0.83866628  1
  Cu+  Cu69  1  0.07836146  0.91028786  0.83744592  1
  Cu+  Cu70  1  0.58628699  0.41564019  0.84020965  1
  Cu+  Cu71  1  0.58008382  0.91192492  0.83472755  1
  Cu+  Cu72  1  0.17084000  0.08730353  0.67593593  1
  Cu+  Cu73  1  0.16647816  0.58301636  0.67634867  1
  Cu+  Cu74  1  0.66835914  0.08732693  0.67561476  1
  Cu+  Cu75  1  0.67074099  0.58567240  0.67288101  1
  Cu+  Cu76  1  0.41813070  0.33296826  0.67485765  1
  Cu+  Cu77  1  0.41493716  0.83117622  0.67963210  1
  Cu+  Cu78  1  0.91410348  0.33134237  0.67455579  1
  Cu+  Cu79  1  0.91818610  0.83280950  0.67733989  1
  Cu+  Cu80  1  0.41735697  0.08872099  0.67586709  1
  Cu+  Cu81  1  0.41619026  0.58611875  0.68085905  1
  Cu+  Cu82  1  0.91614225  0.08680047  0.67488618  1
  Cu+  Cu83  1  0.91937958  0.58568744  0.67434800  1
  Cu+  Cu84  1  0.00007573  0.24908838  0.00946883  1
  Cu+  Cu85  1  0.00204021  0.75333208  0.00900627  1
  Cu+  Cu86  1  0.50414375  0.25108867  0.01304848  1
  Cu+  Cu87  1  0.50123185  0.75288231  0.00759381  1
  Cu+  Cu88  1  0.24774603  0.49747410  0.01392453  1
  Cu+  Cu89  1  0.24789397  0.99642272  0.00608182  1
  Cu+  Cu90  1  0.74955707  0.49664494  0.01365730  1
  Cu+  Cu91  1  0.74760734  0.99656237  0.00462665  1
  Cu+  Cu92  1  0.24801015  0.25152670  0.01292378  1
  Cu+  Cu93  1  0.25007894  0.75414120  0.01002576  1
  Cu+  Cu94  1  0.74911040  0.24937113  0.00933095  1
  Cu+  Cu95  1  0.75055464  0.75354698  0.00571063  1
  Cu+  Cu96  1  0.33464876  0.41599367  0.34077627  1
  Cu+  Cu97  1  0.33613308  0.91776275  0.34112603  1
  Cu+  Cu98  1  0.83694021  0.41970992  0.34268145  1
  Cu+  Cu99  1  0.83732253  0.91702174  0.34638115  1
  Cu+  Cu100  1  0.08374986  0.16575991  0.34241136  1
  Cu+  Cu101  1  0.08314531  0.66279627  0.34520348  1
  Cu+  Cu102  1  0.58232298  0.16320726  0.34696355  1
  Cu+  Cu103  1  0.58029181  0.66075505  0.33683823  1
  Cu+  Cu104  1  0.08599957  0.42030179  0.34381616  1
  Cu+  Cu105  1  0.08271360  0.91887043  0.34611312  1
  Cu+  Cu106  1  0.58283577  0.41650653  0.33991470  1
  Cu+  Cu107  1  0.58199348  0.91700966  0.34817102  1
  Cu+  Cu108  1  -0.00365770  -0.00171653  0.11517436  1
  Cu+  Cu109  1  0.00023396  0.49995904  0.11593299  1
  Cu+  Cu110  1  0.50138884  -0.00223990  0.11603363  1
  Cu+  Cu111  1  0.50339688  0.50554674  0.10995468  1
  Cu+  Cu112  1  0.33560263  0.17117183  0.44787912  1
  Cu+  Cu113  1  0.33455334  0.66525597  0.44812351  1
  Cu+  Cu114  1  0.83786894  0.17283400  0.44718440  1
  Cu+  Cu115  1  0.83034371  0.66517624  0.44344054  1
  Cu+  Cu116  1  0.16342161  0.33070698  0.78364467  1
  Cu+  Cu117  1  0.16784328  0.83617184  0.78122226  1
  Cu+  Cu118  1  0.66929380  0.33624349  0.78424972  1
  Cu+  Cu119  1  0.66907265  0.83749706  0.77731523  1
  Te2-  Te120  1  0.00242290  0.00333676  0.39142050  1
  Te2-  Te121  1  -0.00010022  0.49764440  0.38912940  1
  Te2-  Te122  1  0.49706108  -0.00240617  0.39216279  1
  Te2-  Te123  1  0.49969345  0.49795134  0.38234277  1
  Te2-  Te124  1  0.33471986  0.16971453  0.72005248  1
  Te2-  Te125  1  0.32959443  0.66535278  0.72424161  1
  Te2-  Te126  1  0.83264509  0.16739993  0.71863799  1
  Te2-  Te127  1  0.83464613  0.66571747  0.71821292  1
  Te2-  Te128  1  0.16277917  0.33136790  0.05832372  1
  Te2-  Te129  1  0.16596113  0.83429180  0.05317465  1
  Te2-  Te130  1  0.66899532  0.33109367  0.05932304  1
  Te2-  Te131  1  0.66614485  0.83313527  0.04947573  1
  Te2-  Te132  1  0.49598091  0.24861325  0.88624206  1
  Te2-  Te133  1  0.48644787  0.74391684  0.88215061  1
  Te2-  Te134  1  0.99503169  0.24736290  0.88370909  1
  Te2-  Te135  1  0.98976186  0.74215330  0.88346884  1
  Te2-  Te136  1  0.24888382  0.00197813  0.88010872  1
  Te2-  Te137  1  0.24940058  0.50668295  0.88661549  1
  Te2-  Te138  1  0.74966518  0.00037590  0.87817312  1
  Te2-  Te139  1  0.75315358  0.50466320  0.88655693  1
  Te2-  Te140  1  0.25197796  0.24881118  0.88574439  1
  Te2-  Te141  1  0.25039659  0.74378924  0.88436410  1
  Te2-  Te142  1  0.75294223  0.24805976  0.88382466  1
  Te2-  Te143  1  0.74830642  0.74114524  0.88026801  1
  Te2-  Te144  1  0.32218285  0.40804621  0.21496831  1
  Te2-  Te145  1  0.33059800  0.91553253  0.21567480  1
  Te2-  Te146  1  0.82804280  0.41079236  0.21715277  1
  Te2-  Te147  1  0.82925167  0.91397327  0.21923618  1
  Te2-  Te148  1  0.08341055  0.17278427  0.21662019  1
  Te2-  Te149  1  0.08651093  0.67067319  0.21798943  1
  Te2-  Te150  1  0.59028861  0.17296564  0.21949949  1
  Te2-  Te151  1  0.58279015  0.66552998  0.21067073  1
  Te2-  Te152  1  0.08533913  0.41078393  0.21810970  1
  Te2-  Te153  1  0.08690200  0.91514095  0.21876650  1
  Te2-  Te154  1  0.58729523  0.40843871  0.21437671  1
  Te2-  Te155  1  0.58684728  0.91414335  0.22058059  1
  Te2-  Te156  1  0.16028649  0.08430619  0.55022160  1
  Te2-  Te157  1  0.15912686  0.57635885  0.55031202  1
  Te2-  Te158  1  0.65361827  0.07718892  0.55002937  1
  Te2-  Te159  1  0.66660368  0.58639397  0.54668039  1
  Te2-  Te160  1  0.42147400  0.33927884  0.54893340  1
  Te2-  Te161  1  0.41508180  0.83850592  0.55180199  1
  Te2-  Te162  1  0.91435678  0.33605810  0.54818369  1
  Te2-  Te163  1  0.92530392  0.84643872  0.54990570  1
  Te2-  Te164  1  0.41750850  0.07747197  0.55033522  1
  Te2-  Te165  1  0.41963317  0.58260275  0.55326966  1
  Te2-  Te166  1  0.92075516  0.08332045  0.54890679  1
  Te2-  Te167  1  0.92057286  0.58067346  0.54836244  1
  Te2-  Te168  1  -0.00151373  -0.00058751  0.88226313  1
  Te2-  Te169  1  0.00096766  0.50147813  0.88265366  1
  Te2-  Te170  1  0.50036055  0.00084748  0.88204111  1
  Te2-  Te171  1  0.50104613  0.50154713  0.88213284  1
  Te2-  Te172  1  0.33395088  0.16654164  0.21428184  1
  Te2-  Te173  1  0.33519739  0.66656520  0.21627635  1
  Te2-  Te174  1  0.83356074  0.16622114  0.21544206  1
  Te2-  Te175  1  0.83333565  0.66719759  0.21586126  1
  Te2-  Te176  1  0.16726257  0.33397614  0.54928000  1
  Te2-  Te177  1  0.16851176  0.83598815  0.54801452  1
  Te2-  Te178  1  0.66821101  0.33681906  0.54831796  1
  Te2-  Te179  1  0.66732095  0.83408464  0.54827112  1
  Te2-  Te180  1  0.32797033  0.41322415  0.71273756  1
  Te2-  Te181  1  0.32798664  0.91726556  0.71075128  1
  Te2-  Te182  1  0.82925828  0.41605280  0.71284883  1
  Te2-  Te183  1  0.82862108  0.91592329  0.70828481  1
  Te2-  Te184  1  0.08566641  0.17181330  0.71315225  1
  Te2-  Te185  1  0.08786432  0.67388940  0.71158808  1
  Te2-  Te186  1  0.58639053  0.17429781  0.71353786  1
  Te2-  Te187  1  0.58956455  0.67450842  0.70829536  1
  Te2-  Te188  1  0.08438782  0.41288270  0.71230747  1
  Te2-  Te189  1  0.08952746  0.91691366  0.71041410  1
  Te2-  Te190  1  0.58792781  0.41646547  0.71300720  1
  Te2-  Te191  1  0.58785782  0.91643237  0.70828515  1
  Te2-  Te192  1  0.16017338  0.07857029  0.04410668  1
  Te2-  Te193  1  0.16086024  0.58319441  0.04590569  1
  Te2-  Te194  1  0.66120607  0.07914222  0.04545992  1
  Te2-  Te195  1  0.66245594  0.58309382  0.04150227  1
  Te2-  Te196  1  0.42130264  0.34169318  0.03959521  1
  Te2-  Te197  1  0.41943899  0.83907001  0.04689685  1
  Te2-  Te198  1  0.91941881  0.33846496  0.04484531  1
  Te2-  Te199  1  0.91870310  0.83909908  0.04625798  1
  Te2-  Te200  1  0.41823922  0.07803390  0.04372022  1
  Te2-  Te201  1  0.42090456  0.58249831  0.04149623  1
  Te2-  Te202  1  0.91696112  0.07872175  0.04456287  1
  Te2-  Te203  1  0.92216707  0.58288238  0.04572041  1
  Te2-  Te204  1  0.49384470  0.24739947  0.37732645  1
  Te2-  Te205  1  0.49420401  0.74371291  0.37744811  1
  Te2-  Te206  1  0.99686577  0.24922912  0.37800554  1
  Te2-  Te207  1  0.99309649  0.74593724  0.37413430  1
  Te2-  Te208  1  0.25540350  0.00686613  0.37660694  1
  Te2-  Te209  1  0.25544551  0.50571000  0.37916228  1
  Te2-  Te210  1  0.75548892  0.00829476  0.37549739  1
  Te2-  Te211  1  0.75240776  0.50494890  0.37623347  1
  Te2-  Te212  1  0.25317731  0.24726730  0.37834477  1
  Te2-  Te213  1  0.25566346  0.74795874  0.37695604  1
  Te2-  Te214  1  0.75536790  0.24892950  0.37635511  1
  Te2-  Te215  1  0.75006890  0.74409859  0.37434723  1
