# generated using pymatgen
data_Ti(CuTe)4
_symmetry_space_group_name_H-M   'P 1'
_cell_length_a   16.89974698
_cell_length_b   16.89596158
_cell_length_c   20.72032337
_cell_angle_alpha   89.96636006
_cell_angle_beta   90.01676995
_cell_angle_gamma   120.00366820
_symmetry_Int_Tables_number   1
_chemical_formula_structural   Ti(CuTe)4
_chemical_formula_sum   'Ti24 Cu96 Te96'
_cell_volume   5123.58738370
_cell_formula_units_Z   24
loop_
 _symmetry_equiv_pos_site_id
 _symmetry_equiv_pos_as_xyz
  1  'x, y, z'
loop_
 _atom_type_symbol
 _atom_type_oxidation_number
  Ti4+  4.0
  Cu+  1.0
  Te2-  -2.0
loop_
 _atom_site_type_symbol
 _atom_site_label
 _atom_site_symmetry_multiplicity
 _atom_site_fract_x
 _atom_site_fract_y
 _atom_site_fract_z
 _atom_site_occupancy
  Ti4+  Ti0  1  0.00155604  0.00311174  0.25809757  1
  Ti4+  Ti1  1  0.00442125  0.50176550  0.26248783  1
  Ti4+  Ti2  1  0.49931215  -0.00020689  0.25630811  1
  Ti4+  Ti3  1  0.50391214  0.50127839  0.25589823  1
  Ti4+  Ti4  1  0.33262343  0.16606132  0.58783635  1
  Ti4+  Ti5  1  0.33206518  0.66531924  0.58915259  1
  Ti4+  Ti6  1  0.83024547  0.16734664  0.59301309  1
  Ti4+  Ti7  1  0.83288346  0.66656337  0.58906158  1
  Ti4+  Ti8  1  0.16600615  0.33261267  0.92578165  1
  Ti4+  Ti9  1  0.16285362  0.83069994  0.92543119  1
  Ti4+  Ti10  1  0.66689296  0.33266684  0.92666940  1
  Ti4+  Ti11  1  0.66835676  0.83493731  0.92089771  1
  Ti4+  Ti12  1  -0.00199156  -0.00196512  0.75439326  1
  Ti4+  Ti13  1  -0.00083337  0.49975515  0.75724872  1
  Ti4+  Ti14  1  0.49883250  -0.00007018  0.75517437  1
  Ti4+  Ti15  1  0.49890373  0.49913111  0.75507804  1
  Ti4+  Ti16  1  0.33533492  0.16654106  0.08783375  1
  Ti4+  Ti17  1  0.33236705  0.66736707  0.08849805  1
  Ti4+  Ti18  1  0.83586160  0.16615917  0.09127510  1
  Ti4+  Ti19  1  0.83238667  0.66614729  0.09043358  1
  Ti4+  Ti20  1  0.16916390  0.33495158  0.42136441  1
  Ti4+  Ti21  1  0.16705648  0.83507245  0.42063081  1
  Ti4+  Ti22  1  0.66588920  0.33194233  0.42074153  1
  Ti4+  Ti23  1  0.66763862  0.83387930  0.42137618  1
  Cu+  Cu24  1  0.91275274  0.09303640  0.81168738  1
  Cu+  Cu25  1  0.07664489  0.42091199  0.48104599  1
  Cu+  Cu26  1  0.83794856  0.41875736  0.48491469  1
  Cu+  Cu27  1  0.90557904  0.80939875  0.80706186  1
  Cu+  Cu28  1  0.57034434  0.14366776  0.47256709  1
  Cu+  Cu29  1  0.57066643  0.42488407  0.47142322  1
  Cu+  Cu30  1  0.52322123  0.26111364  0.14241843  1
  Cu+  Cu31  1  0.07925177  0.65959187  0.48283079  1
  Cu+  Cu32  1  0.23700417  0.76037518  0.14200655  1
  Cu+  Cu33  1  0.02615580  0.26430638  0.14349096  1
  Cu+  Cu34  1  0.07173684  0.92962164  0.47219550  1
  Cu+  Cu35  1  0.68165442  0.09465276  0.81211578  1
  Cu+  Cu36  1  0.16412357  0.08175215  0.17090360  1
  Cu+  Cu37  1  0.16439432  0.58571629  0.17351996  1
  Cu+  Cu38  1  0.66432288  0.08049834  0.17149564  1
  Cu+  Cu39  1  0.66396643  0.58223265  0.17056714  1
  Cu+  Cu40  1  0.42485179  0.33690152  0.16990928  1
  Cu+  Cu41  1  0.41336385  0.83582420  0.16942205  1
  Cu+  Cu42  1  0.92395964  0.33487919  0.17604416  1
  Cu+  Cu43  1  0.91733299  0.83631782  0.17337373  1
  Cu+  Cu44  1  0.42441136  0.08574456  0.16877704  1
  Cu+  Cu45  1  0.42074772  0.58406174  0.16956843  1
  Cu+  Cu46  1  0.92481562  0.08752350  0.17197430  1
  Cu+  Cu47  1  0.91792074  0.58202701  0.17588377  1
  Cu+  Cu48  1  0.49522333  0.24650934  0.50005079  1
  Cu+  Cu49  1  0.49791823  0.74807144  0.50370557  1
  Cu+  Cu50  1  0.99717354  0.24921286  0.50541832  1
  Cu+  Cu51  1  0.99682743  0.75238433  0.50168887  1
  Cu+  Cu52  1  0.24771922  0.00450546  0.50090580  1
  Cu+  Cu53  1  0.25058326  0.50436543  0.50205300  1
  Cu+  Cu54  1  0.74860002  0.00195258  0.50589302  1
  Cu+  Cu55  1  0.74893731  0.50434105  0.50073090  1
  Cu+  Cu56  1  0.25364027  0.24894013  0.50101163  1
  Cu+  Cu57  1  0.25241068  0.74599926  0.50185328  1
  Cu+  Cu58  1  0.74777950  0.24260270  0.50278984  1
  Cu+  Cu59  1  0.75192866  0.74941685  0.50251799  1
  Cu+  Cu60  1  0.33051251  0.41484754  0.83902501  1
  Cu+  Cu61  1  0.32822559  0.91267660  0.83886375  1
  Cu+  Cu62  1  0.82998281  0.41566473  0.83972462  1
  Cu+  Cu63  1  0.82979644  0.91366349  0.83336796  1
  Cu+  Cu64  1  0.08349023  0.17196342  0.83857930  1
  Cu+  Cu65  1  0.08388710  0.66884979  0.83904441  1
  Cu+  Cu66  1  0.58615029  0.17096254  0.83971694  1
  Cu+  Cu67  1  0.58475762  0.66898505  0.83491744  1
  Cu+  Cu68  1  0.08227771  0.41347204  0.83948342  1
  Cu+  Cu69  1  0.07916200  0.90819505  0.83709149  1
  Cu+  Cu70  1  0.58307115  0.41504452  0.84005929  1
  Cu+  Cu71  1  0.58834714  0.91972100  0.83449701  1
  Cu+  Cu72  1  0.16752252  0.08348435  0.67381130  1
  Cu+  Cu73  1  0.16735374  0.58302813  0.67673443  1
  Cu+  Cu74  1  0.66675593  0.08575453  0.68106140  1
  Cu+  Cu75  1  0.66657763  0.58193920  0.67381228  1
  Cu+  Cu76  1  0.41569677  0.33067562  0.67397688  1
  Cu+  Cu77  1  0.41149517  0.82870014  0.67259792  1
  Cu+  Cu78  1  0.91459174  0.33268883  0.67799139  1
  Cu+  Cu79  1  0.91628158  0.83002156  0.67790551  1
  Cu+  Cu80  1  0.41324214  0.08261555  0.67287792  1
  Cu+  Cu81  1  0.41266905  0.58165030  0.67251082  1
  Cu+  Cu82  1  0.91379900  0.08515146  0.68052605  1
  Cu+  Cu83  1  0.91682901  0.58463188  0.67613139  1
  Cu+  Cu84  1  0.00424406  0.25060268  0.01501362  1
  Cu+  Cu85  1  -0.00118050  0.74803957  0.01002920  1
  Cu+  Cu86  1  0.50452198  0.25046277  0.01281176  1
  Cu+  Cu87  1  0.50262058  0.75180548  0.00385014  1
  Cu+  Cu88  1  0.24762110  0.49818293  0.00864838  1
  Cu+  Cu89  1  0.24735773  0.99562041  0.00766957  1
  Cu+  Cu90  1  0.74788092  0.49699180  0.01056939  1
  Cu+  Cu91  1  0.75050175  0.99799160  0.00765548  1
  Cu+  Cu92  1  0.24787216  0.24945474  0.00821346  1
  Cu+  Cu93  1  0.24561570  0.75033817  0.01331591  1
  Cu+  Cu94  1  0.74950402  0.24943249  0.01106634  1
  Cu+  Cu95  1  0.74942805  0.75127543  0.00685657  1
  Cu+  Cu96  1  0.33959344  0.41767329  0.33841158  1
  Cu+  Cu97  1  0.33586342  0.91972238  0.33939500  1
  Cu+  Cu98  1  0.83865248  0.41669193  0.35039531  1
  Cu+  Cu99  1  0.83664972  0.92028072  0.34097356  1
  Cu+  Cu100  1  0.08501295  0.16707766  0.34224208  1
  Cu+  Cu101  1  0.08485718  0.66558119  0.34991451  1
  Cu+  Cu102  1  0.58173932  0.16259775  0.34454318  1
  Cu+  Cu103  1  0.58577618  0.66586817  0.34000589  1
  Cu+  Cu104  1  0.08561736  0.41970038  0.34913965  1
  Cu+  Cu105  1  0.08169987  0.92115456  0.34459144  1
  Cu+  Cu106  1  0.58321786  0.41808645  0.34341891  1
  Cu+  Cu107  1  0.58297388  0.91804691  0.34001608  1
  Cu+  Cu108  1  -0.00015654  -0.00333594  0.11527561  1
  Cu+  Cu109  1  -0.00367906  0.49821103  0.12084500  1
  Cu+  Cu110  1  0.50301935  -0.00202439  0.11246458  1
  Cu+  Cu111  1  0.49726278  0.50052528  0.11208332  1
  Cu+  Cu112  1  0.33247019  0.16689954  0.44236397  1
  Cu+  Cu113  1  0.33890729  0.66898896  0.44487905  1
  Cu+  Cu114  1  0.83566784  0.16226052  0.44917936  1
  Cu+  Cu115  1  0.83172989  0.66786428  0.44431021  1
  Cu+  Cu116  1  0.16885260  0.33638201  0.78316050  1
  Cu+  Cu117  1  0.16844979  0.83314278  0.78182503  1
  Cu+  Cu118  1  0.66545499  0.33615153  0.78430304  1
  Cu+  Cu119  1  0.66130185  0.82986201  0.77683139  1
  Te2-  Te120  1  -0.00105444  0.00412777  0.38886892  1
  Te2-  Te121  1  0.00253624  0.50105088  0.39616626  1
  Te2-  Te122  1  0.49835754  -0.00354879  0.38683251  1
  Te2-  Te123  1  0.50168058  0.50252521  0.38654585  1
  Te2-  Te124  1  0.33210544  0.16579560  0.71622091  1
  Te2-  Te125  1  0.33257067  0.66515206  0.71794256  1
  Te2-  Te126  1  0.83272973  0.16938765  0.72467056  1
  Te2-  Te127  1  0.83059731  0.66324128  0.71895370  1
  Te2-  Te128  1  0.17114003  0.33544547  0.05642624  1
  Te2-  Te129  1  0.16241460  0.83320053  0.05615860  1
  Te2-  Te130  1  0.67022376  0.33363292  0.05731162  1
  Te2-  Te131  1  0.66615456  0.83293089  0.04916325  1
  Te2-  Te132  1  0.49612626  0.24688869  0.88559739  1
  Te2-  Te133  1  0.49839628  0.75159450  0.87791363  1
  Te2-  Te134  1  0.99110967  0.24759028  0.88764017  1
  Te2-  Te135  1  0.98848157  0.74028228  0.88417784  1
  Te2-  Te136  1  0.24702518  0.00070185  0.88158471  1
  Te2-  Te137  1  0.25032384  0.50292493  0.88285224  1
  Te2-  Te138  1  0.75737347  0.01131480  0.88190247  1
  Te2-  Te139  1  0.75089173  0.50333201  0.88471435  1
  Te2-  Te140  1  0.24984377  0.24606393  0.88234610  1
  Te2-  Te141  1  0.25001444  0.74619068  0.88621213  1
  Te2-  Te142  1  0.75680828  0.24869630  0.88524311  1
  Te2-  Te143  1  0.75231941  0.74524321  0.88070667  1
  Te2-  Te144  1  0.33403734  0.41491362  0.21258175  1
  Te2-  Te145  1  0.32627958  0.91832568  0.21397247  1
  Te2-  Te146  1  0.83451136  0.41364537  0.22187731  1
  Te2-  Te147  1  0.83122392  0.91935418  0.21533558  1
  Te2-  Te148  1  0.09359519  0.17765850  0.21688199  1
  Te2-  Te149  1  0.08542363  0.67403838  0.22198307  1
  Te2-  Te150  1  0.59145475  0.17426942  0.21791269  1
  Te2-  Te151  1  0.58755525  0.67261373  0.21460092  1
  Te2-  Te152  1  0.09337058  0.41901695  0.22136907  1
  Te2-  Te153  1  0.08542037  0.91570117  0.21806103  1
  Te2-  Te154  1  0.59339899  0.41580551  0.21705835  1
  Te2-  Te155  1  0.58181940  0.91213736  0.21405206  1
  Te2-  Te156  1  0.15802990  0.08268414  0.54819485  1
  Te2-  Te157  1  0.15491940  0.57730706  0.55113917  1
  Te2-  Te158  1  0.65719933  0.07820580  0.55299251  1
  Te2-  Te159  1  0.65991486  0.58126431  0.54783157  1
  Te2-  Te160  1  0.41989421  0.34001785  0.54787506  1
  Te2-  Te161  1  0.41765735  0.83681519  0.54698923  1
  Te2-  Te162  1  0.91842035  0.34167377  0.55204526  1
  Te2-  Te163  1  0.91858873  0.84010944  0.55051884  1
  Te2-  Te164  1  0.41599216  0.07639596  0.54667238  1
  Te2-  Te165  1  0.41675083  0.57904393  0.54673463  1
  Te2-  Te166  1  0.91680369  0.08347158  0.55242113  1
  Te2-  Te167  1  0.92039063  0.57967642  0.54992937  1
  Te2-  Te168  1  -0.00059326  -0.00048158  0.88180648  1
  Te2-  Te169  1  -0.00076230  0.49956776  0.88327249  1
  Te2-  Te170  1  0.49852330  -0.00116155  0.88197907  1
  Te2-  Te171  1  0.49976270  0.50124955  0.88152343  1
  Te2-  Te172  1  0.33493982  0.16652270  0.21446693  1
  Te2-  Te173  1  0.33573521  0.66730535  0.21530485  1
  Te2-  Te174  1  0.83276898  0.16436677  0.21795861  1
  Te2-  Te175  1  0.83263502  0.66714788  0.21680666  1
  Te2-  Te176  1  0.16874852  0.33348104  0.54836738  1
  Te2-  Te177  1  0.16833882  0.83399595  0.54826369  1
  Te2-  Te178  1  0.66548228  0.33285111  0.54898596  1
  Te2-  Te179  1  0.66622857  0.83225177  0.54794092  1
  Te2-  Te180  1  0.32745637  0.41256622  0.71157030  1
  Te2-  Te181  1  0.32708323  0.91301225  0.71139813  1
  Te2-  Te182  1  0.82653948  0.41459123  0.71299341  1
  Te2-  Te183  1  0.82471746  0.91172983  0.70679763  1
  Te2-  Te184  1  0.08642277  0.17214864  0.71130799  1
  Te2-  Te185  1  0.08614443  0.67190765  0.71249073  1
  Te2-  Te186  1  0.58220661  0.17344994  0.71213649  1
  Te2-  Te187  1  0.58353172  0.66957037  0.70817400  1
  Te2-  Te188  1  0.08466545  0.41287774  0.71283332  1
  Te2-  Te189  1  0.08758556  0.91419963  0.71030091  1
  Te2-  Te190  1  0.58488174  0.41288172  0.71237462  1
  Te2-  Te191  1  0.58205390  0.91178410  0.70769006  1
  Te2-  Te192  1  0.16203694  0.07990347  0.04482780  1
  Te2-  Te193  1  0.15838516  0.57797362  0.04673710  1
  Te2-  Te194  1  0.66374711  0.07996764  0.04527996  1
  Te2-  Te195  1  0.66128981  0.58117611  0.04443244  1
  Te2-  Te196  1  0.41904865  0.33874235  0.04261422  1
  Te2-  Te197  1  0.42006090  0.83853455  0.04192299  1
  Te2-  Te198  1  0.91968186  0.33904525  0.04817988  1
  Te2-  Te199  1  0.91823127  0.83749876  0.04598046  1
  Te2-  Te200  1  0.41813477  0.07696871  0.04236432  1
  Te2-  Te201  1  0.41883149  0.58265218  0.04262599  1
  Te2-  Te202  1  0.91942251  0.07776835  0.04509857  1
  Te2-  Te203  1  0.91773712  0.57874606  0.04874258  1
  Te2-  Te204  1  0.49262627  0.24594410  0.37324902  1
  Te2-  Te205  1  0.49706211  0.74768286  0.37625131  1
  Te2-  Te206  1  0.99502789  0.24660886  0.37809057  1
  Te2-  Te207  1  0.99302946  0.74786200  0.37485962  1
  Te2-  Te208  1  0.25440678  0.00738042  0.37450464  1
  Te2-  Te209  1  0.25915006  0.50732075  0.37531042  1
  Te2-  Te210  1  0.75235224  0.00589156  0.37848010  1
  Te2-  Te211  1  0.75549741  0.50697337  0.37430021  1
  Te2-  Te212  1  0.25496879  0.24908229  0.37532532  1
  Te2-  Te213  1  0.25723770  0.75073935  0.37572370  1
  Te2-  Te214  1  0.75386222  0.24403478  0.37658673  1
  Te2-  Te215  1  0.75520539  0.74991645  0.37619040  1
