# generated using pymatgen
data_Ti(CuTe)4
_symmetry_space_group_name_H-M   'P 1'
_cell_length_a   16.89211729
_cell_length_b   16.89397268
_cell_length_c   20.71544482
_cell_angle_alpha   90.09585889
_cell_angle_beta   89.94655818
_cell_angle_gamma   119.97505808
_symmetry_Int_Tables_number   1
_chemical_formula_structural   Ti(CuTe)4
_chemical_formula_sum   'Ti24 Cu96 Te96'
_cell_volume   5120.93492758
_cell_formula_units_Z   24
loop_
 _symmetry_equiv_pos_site_id
 _symmetry_equiv_pos_as_xyz
  1  'x, y, z'
loop_
 _atom_type_symbol
 _atom_type_oxidation_number
  Ti4+  4.0
  Cu+  1.0
  Te2-  -2.0
loop_
 _atom_site_type_symbol
 _atom_site_label
 _atom_site_symmetry_multiplicity
 _atom_site_fract_x
 _atom_site_fract_y
 _atom_site_fract_z
 _atom_site_occupancy
  Ti4+  Ti0  1  -0.00297417  -0.00202965  0.25216434  1
  Ti4+  Ti1  1  0.00055011  0.50071093  0.26033231  1
  Ti4+  Ti2  1  0.49984044  0.00019544  0.25866778  1
  Ti4+  Ti3  1  0.49978019  0.49935018  0.26156579  1
  Ti4+  Ti4  1  0.33593159  0.16720598  0.58721381  1
  Ti4+  Ti5  1  0.33549437  0.66764010  0.59110771  1
  Ti4+  Ti6  1  0.83392775  0.16747791  0.59076601  1
  Ti4+  Ti7  1  0.83472736  0.66617529  0.58849517  1
  Ti4+  Ti8  1  0.16439760  0.33264318  0.92363301  1
  Ti4+  Ti9  1  0.16707272  0.83259313  0.92451144  1
  Ti4+  Ti10  1  0.66711668  0.33311103  0.92809118  1
  Ti4+  Ti11  1  0.66331949  0.83120235  0.92478318  1
  Ti4+  Ti12  1  0.00176544  0.00155464  0.75404401  1
  Ti4+  Ti13  1  -0.00045265  0.49921254  0.75608587  1
  Ti4+  Ti14  1  0.49916509  -0.00033837  0.75767642  1
  Ti4+  Ti15  1  0.50156976  0.50142997  0.75620253  1
  Ti4+  Ti16  1  0.33388516  0.16751136  0.08883307  1
  Ti4+  Ti17  1  0.33166446  0.66656450  0.09163398  1
  Ti4+  Ti18  1  0.83177288  0.16552451  0.08869637  1
  Ti4+  Ti19  1  0.83307223  0.66801620  0.08904419  1
  Ti4+  Ti20  1  0.16665460  0.33350421  0.41948681  1
  Ti4+  Ti21  1  0.16715259  0.83407155  0.42073775  1
  Ti4+  Ti22  1  0.66754495  0.33341207  0.41797132  1
  Ti4+  Ti23  1  0.66640503  0.83416923  0.42148511  1
  Cu+  Cu24  1  0.34557873  0.42207677  0.47771988  1
  Cu+  Cu25  1  0.58162766  0.15479107  0.47699731  1
  Cu+  Cu26  1  0.07973077  0.65146830  0.47586989  1
  Cu+  Cu27  1  0.35166537  0.92249245  0.47488069  1
  Cu+  Cu28  1  0.24065936  0.97915731  0.13914639  1
  Cu+  Cu29  1  0.40410985  0.80872592  0.81022519  1
  Cu+  Cu30  1  0.58281131  0.41933526  0.48325605  1
  Cu+  Cu31  1  0.52059165  0.26187464  0.14529656  1
  Cu+  Cu32  1  0.90349558  0.31034276  0.80934047  1
  Cu+  Cu33  1  0.57997921  0.65635681  0.48033593  1
  Cu+  Cu34  1  0.84600381  0.42014878  0.47753604  1
  Cu+  Cu35  1  0.73488932  0.97493535  0.13844612  1
  Cu+  Cu36  1  0.16260666  0.07745420  0.16714085  1
  Cu+  Cu37  1  0.16302790  0.58266745  0.17440222  1
  Cu+  Cu38  1  0.66411051  0.07873022  0.17117622  1
  Cu+  Cu39  1  0.66399495  0.58324793  0.17334201  1
  Cu+  Cu40  1  0.42211905  0.33785679  0.17319245  1
  Cu+  Cu41  1  0.41565023  0.83591622  0.17253857  1
  Cu+  Cu42  1  0.91749493  0.33717540  0.17354564  1
  Cu+  Cu43  1  0.91711363  0.83808818  0.16655551  1
  Cu+  Cu44  1  0.41771094  0.08331655  0.17203381  1
  Cu+  Cu45  1  0.41553083  0.58130329  0.17564410  1
  Cu+  Cu46  1  0.91114434  0.07625635  0.16740857  1
  Cu+  Cu47  1  0.91813823  0.58338880  0.17438919  1
  Cu+  Cu48  1  0.49216328  0.24290740  0.49717236  1
  Cu+  Cu49  1  0.49719514  0.74851579  0.50337803  1
  Cu+  Cu50  1  0.99791296  0.24984412  0.50253203  1
  Cu+  Cu51  1  0.99841609  0.74587917  0.50145741  1
  Cu+  Cu52  1  0.25692894  0.00348916  0.50052386  1
  Cu+  Cu53  1  0.25418427  0.50414352  0.50164706  1
  Cu+  Cu54  1  0.75101377  0.00411548  0.50396643  1
  Cu+  Cu55  1  0.75827668  0.50988233  0.49861385  1
  Cu+  Cu56  1  0.25283243  0.24902172  0.49984895  1
  Cu+  Cu57  1  0.25386787  0.75004162  0.50411562  1
  Cu+  Cu58  1  0.75631014  0.24601275  0.50105657  1
  Cu+  Cu59  1  0.75202785  0.74869693  0.50227768  1
  Cu+  Cu60  1  0.33084331  0.41790865  0.83842977  1
  Cu+  Cu61  1  0.33011080  0.91045008  0.83868722  1
  Cu+  Cu62  1  0.83056571  0.41170208  0.83972045  1
  Cu+  Cu63  1  0.83166902  0.91659365  0.83824420  1
  Cu+  Cu64  1  0.08551713  0.17108160  0.83564827  1
  Cu+  Cu65  1  0.08545089  0.67030249  0.83764026  1
  Cu+  Cu66  1  0.58353717  0.17148348  0.84151284  1
  Cu+  Cu67  1  0.58385360  0.67015540  0.83788024  1
  Cu+  Cu68  1  0.08000012  0.41118484  0.83730432  1
  Cu+  Cu69  1  0.08569278  0.91671389  0.83821141  1
  Cu+  Cu70  1  0.58388028  0.41580022  0.84159569  1
  Cu+  Cu71  1  0.57837651  0.91002188  0.83950902  1
  Cu+  Cu72  1  0.17060207  0.08530199  0.67122165  1
  Cu+  Cu73  1  0.16928529  0.58568426  0.67574835  1
  Cu+  Cu74  1  0.66830547  0.08716906  0.67682189  1
  Cu+  Cu75  1  0.66968576  0.58415383  0.67635842  1
  Cu+  Cu76  1  0.41838280  0.33314495  0.67451154  1
  Cu+  Cu77  1  0.41534135  0.83150095  0.68023819  1
  Cu+  Cu78  1  0.91420736  0.33076625  0.67961594  1
  Cu+  Cu79  1  0.91680956  0.83145563  0.67224514  1
  Cu+  Cu80  1  0.41842712  0.08588240  0.67530333  1
  Cu+  Cu81  1  0.41929006  0.58578848  0.67759459  1
  Cu+  Cu82  1  0.91787969  0.08606092  0.67430070  1
  Cu+  Cu83  1  0.91665088  0.58384107  0.67570341  1
  Cu+  Cu84  1  0.00055907  0.25218791  0.00759802  1
  Cu+  Cu85  1  0.00211504  0.75155827  0.00832058  1
  Cu+  Cu86  1  0.50442779  0.25439803  0.01591784  1
  Cu+  Cu87  1  0.49794335  0.74909542  0.01064917  1
  Cu+  Cu88  1  0.24576097  0.49618750  0.00865229  1
  Cu+  Cu89  1  0.24897223  0.99627671  0.01013354  1
  Cu+  Cu90  1  0.74868255  0.49798022  0.01063835  1
  Cu+  Cu91  1  0.74438311  0.99434397  0.01034103  1
  Cu+  Cu92  1  0.24921494  0.25434820  0.00634665  1
  Cu+  Cu93  1  0.24912099  0.75018221  0.01011248  1
  Cu+  Cu94  1  0.74950918  0.25177901  0.01125028  1
  Cu+  Cu95  1  0.74749382  0.75034910  0.00823232  1
  Cu+  Cu96  1  0.33560017  0.41735540  0.34669566  1
  Cu+  Cu97  1  0.33613424  0.92077269  0.34609054  1
  Cu+  Cu98  1  0.83780377  0.41964793  0.34682340  1
  Cu+  Cu99  1  0.83372046  0.91934101  0.33793441  1
  Cu+  Cu100  1  0.07813409  0.16214529  0.33408372  1
  Cu+  Cu101  1  0.08094768  0.66378143  0.34676677  1
  Cu+  Cu102  1  0.58262971  0.16523142  0.34572958  1
  Cu+  Cu103  1  0.58037745  0.66419448  0.34844717  1
  Cu+  Cu104  1  0.08164682  0.41743574  0.34220782  1
  Cu+  Cu105  1  0.08024110  0.91906090  0.33684057  1
  Cu+  Cu106  1  0.58227850  0.41862144  0.34915069  1
  Cu+  Cu107  1  0.58405805  0.91926414  0.34318857  1
  Cu+  Cu108  1  0.00203723  0.00480264  0.10775180  1
  Cu+  Cu109  1  -0.00095596  0.50083548  0.11816766  1
  Cu+  Cu110  1  0.49911383  -0.00052012  0.11550051  1
  Cu+  Cu111  1  0.49935283  0.50391089  0.11873137  1
  Cu+  Cu112  1  0.32597208  0.16365371  0.44170881  1
  Cu+  Cu113  1  0.33309854  0.66683972  0.44693751  1
  Cu+  Cu114  1  0.83973912  0.16346869  0.44552741  1
  Cu+  Cu115  1  0.83811182  0.67591830  0.44353888  1
  Cu+  Cu116  1  0.16993394  0.33585413  0.78045675  1
  Cu+  Cu117  1  0.16475569  0.83451437  0.78156083  1
  Cu+  Cu118  1  0.66582005  0.33625481  0.78594231  1
  Cu+  Cu119  1  0.67113793  0.83664716  0.78226060  1
  Te2-  Te120  1  -0.00214929  0.00017758  0.38140951  1
  Te2-  Te121  1  0.00213414  0.49884081  0.39363192  1
  Te2-  Te122  1  0.50209949  0.00006999  0.39084709  1
  Te2-  Te123  1  0.49949958  0.49993919  0.39514676  1
  Te2-  Te124  1  0.33453901  0.16772202  0.71562345  1
  Te2-  Te125  1  0.33304669  0.66446796  0.72089417  1
  Te2-  Te126  1  0.83247671  0.16413426  0.72107011  1
  Te2-  Te127  1  0.83521895  0.66776053  0.71700665  1
  Te2-  Te128  1  0.16418142  0.33213926  0.05284217  1
  Te2-  Te129  1  0.16557168  0.83085601  0.05505104  1
  Te2-  Te130  1  0.67018563  0.33546795  0.05902402  1
  Te2-  Te131  1  0.66225695  0.82845445  0.05517336  1
  Te2-  Te132  1  0.49501854  0.24907406  0.88860297  1
  Te2-  Te133  1  0.48882463  0.74093310  0.88488722  1
  Te2-  Te134  1  0.98981557  0.24215823  0.88210719  1
  Te2-  Te135  1  0.99604021  0.74814624  0.88230892  1
  Te2-  Te136  1  0.25406388  0.00313142  0.88293746  1
  Te2-  Te137  1  0.24826469  0.50381532  0.88239135  1
  Te2-  Te138  1  0.74744910  0.00150683  0.88301187  1
  Te2-  Te139  1  0.75313673  0.50291676  0.88434551  1
  Te2-  Te140  1  0.25269266  0.24944382  0.88084040  1
  Te2-  Te141  1  0.25097587  0.74181365  0.88448573  1
  Te2-  Te142  1  0.75072326  0.24285626  0.88565846  1
  Te2-  Te143  1  0.75104526  0.74797477  0.88238906  1
  Te2-  Te144  1  0.32970674  0.41284700  0.21947932  1
  Te2-  Te145  1  0.32698118  0.91407015  0.21892651  1
  Te2-  Te146  1  0.82919074  0.41586354  0.21984055  1
  Te2-  Te147  1  0.82168849  0.90818339  0.21318649  1
  Te2-  Te148  1  0.08206437  0.16763780  0.20829327  1
  Te2-  Te149  1  0.08535285  0.67199434  0.22012104  1
  Te2-  Te150  1  0.58858475  0.17196356  0.21780580  1
  Te2-  Te151  1  0.58358066  0.66969332  0.22059742  1
  Te2-  Te152  1  0.08509539  0.41458048  0.21701518  1
  Te2-  Te153  1  0.08349196  0.90906577  0.21214155  1
  Te2-  Te154  1  0.59024233  0.41633791  0.22071160  1
  Te2-  Te155  1  0.58308643  0.91053014  0.21740392  1
  Te2-  Te156  1  0.16640117  0.08170954  0.54460368  1
  Te2-  Te157  1  0.16359546  0.57967280  0.54948080  1
  Te2-  Te158  1  0.65971897  0.07904088  0.55086156  1
  Te2-  Te159  1  0.65849055  0.57765448  0.55029167  1
  Te2-  Te160  1  0.42367721  0.34299350  0.54847081  1
  Te2-  Te161  1  0.42302801  0.84025176  0.55216643  1
  Te2-  Te162  1  0.92289052  0.34112034  0.55169847  1
  Te2-  Te163  1  0.91966017  0.83570349  0.54565999  1
  Te2-  Te164  1  0.42477264  0.07857878  0.54935682  1
  Te2-  Te165  1  0.42283210  0.57915852  0.55113083  1
  Te2-  Te166  1  0.91908522  0.08226942  0.54800171  1
  Te2-  Te167  1  0.92297989  0.57745653  0.54981129  1
  Te2-  Te168  1  0.00110283  0.00182447  0.88022357  1
  Te2-  Te169  1  0.00065580  0.50119635  0.88277666  1
  Te2-  Te170  1  0.49911418  0.00083201  0.88426605  1
  Te2-  Te171  1  0.49936678  0.50121854  0.88264820  1
  Te2-  Te172  1  0.33062909  0.16699712  0.21612358  1
  Te2-  Te173  1  0.33209197  0.66730412  0.21793637  1
  Te2-  Te174  1  0.83366805  0.16682298  0.21544530  1
  Te2-  Te175  1  0.83417011  0.67011630  0.21510570  1
  Te2-  Te176  1  0.16774261  0.33347478  0.54670823  1
  Te2-  Te177  1  0.16723292  0.83496431  0.54838808  1
  Te2-  Te178  1  0.66785466  0.33345568  0.54638511  1
  Te2-  Te179  1  0.66777323  0.83450802  0.54867740  1
  Te2-  Te180  1  0.33014343  0.41515555  0.71138443  1
  Te2-  Te181  1  0.32715428  0.91576756  0.71146851  1
  Te2-  Te182  1  0.82605009  0.41453624  0.71231681  1
  Te2-  Te183  1  0.83029671  0.91526163  0.71054047  1
  Te2-  Te184  1  0.08832385  0.17299727  0.70929055  1
  Te2-  Te185  1  0.08630755  0.67198060  0.71164927  1
  Te2-  Te186  1  0.58600195  0.17318767  0.71525944  1
  Te2-  Te187  1  0.58904341  0.67389816  0.71198395  1
  Te2-  Te188  1  0.08777634  0.41491607  0.71010115  1
  Te2-  Te189  1  0.08694460  0.91545643  0.71025901  1
  Te2-  Te190  1  0.58712588  0.41455314  0.71377393  1
  Te2-  Te191  1  0.58799639  0.91603267  0.71224042  1
  Te2-  Te192  1  0.16305990  0.08353304  0.04027126  1
  Te2-  Te193  1  0.16045695  0.58043086  0.04763016  1
  Te2-  Te194  1  0.65873988  0.08070637  0.04442446  1
  Te2-  Te195  1  0.66039694  0.58060656  0.04675842  1
  Te2-  Te196  1  0.41802889  0.34125869  0.04624907  1
  Te2-  Te197  1  0.41796542  0.83844389  0.04666583  1
  Te2-  Te198  1  0.91891264  0.33892113  0.04719357  1
  Te2-  Te199  1  0.91842875  0.83892251  0.04144410  1
  Te2-  Te200  1  0.42060157  0.08037849  0.04418336  1
  Te2-  Te201  1  0.41557221  0.57910333  0.04812739  1
  Te2-  Te202  1  0.91783864  0.08091612  0.04039620  1
  Te2-  Te203  1  0.91940618  0.58170056  0.04714547  1
  Te2-  Te204  1  0.49055245  0.24570529  0.37185781  1
  Te2-  Te205  1  0.49265306  0.74933815  0.37697568  1
  Te2-  Te206  1  0.99497644  0.24710161  0.37552975  1
  Te2-  Te207  1  0.99470081  0.75049755  0.37462125  1
  Te2-  Te208  1  0.24904207  0.00606596  0.37382624  1
  Te2-  Te209  1  0.25217506  0.50726662  0.37535635  1
  Te2-  Te210  1  0.75306651  0.00624692  0.37745149  1
  Te2-  Te211  1  0.75526435  0.51022567  0.37323932  1
  Te2-  Te212  1  0.24799609  0.24360746  0.37249965  1
  Te2-  Te213  1  0.25463513  0.74744547  0.37599575  1
  Te2-  Te214  1  0.75587011  0.24607818  0.37433503  1
  Te2-  Te215  1  0.75391588  0.74986599  0.37495242  1
