# generated using pymatgen
data_Ti(CuTe)4
_symmetry_space_group_name_H-M   'P 1'
_cell_length_a   16.85347908
_cell_length_b   16.85280492
_cell_length_c   20.65919527
_cell_angle_alpha   89.97983419
_cell_angle_beta   90.00687040
_cell_angle_gamma   119.99791968
_symmetry_Int_Tables_number   1
_chemical_formula_structural   Ti(CuTe)4
_chemical_formula_sum   'Ti24 Cu96 Te96'
_cell_volume   5081.76839715
_cell_formula_units_Z   24
loop_
 _symmetry_equiv_pos_site_id
 _symmetry_equiv_pos_as_xyz
  1  'x, y, z'
loop_
 _atom_type_symbol
 _atom_type_oxidation_number
  Ti4+  4.0
  Cu+  1.0
  Te2-  -2.0
loop_
 _atom_site_type_symbol
 _atom_site_label
 _atom_site_symmetry_multiplicity
 _atom_site_fract_x
 _atom_site_fract_y
 _atom_site_fract_z
 _atom_site_occupancy
  Ti4+  Ti0  1  -0.00175740  -0.00231358  0.25282127  1
  Ti4+  Ti1  1  -0.00540109  0.49712175  0.25882071  1
  Ti4+  Ti2  1  0.49821008  -0.00082440  0.26078006  1
  Ti4+  Ti3  1  0.49923024  0.49875531  0.25595962  1
  Ti4+  Ti4  1  0.33660031  0.16761979  0.59135625  1
  Ti4+  Ti5  1  0.33387401  0.66527687  0.58966533  1
  Ti4+  Ti6  1  0.83667293  0.17091862  0.59319639  1
  Ti4+  Ti7  1  0.83490651  0.66921288  0.59173015  1
  Ti4+  Ti8  1  0.16833836  0.33804486  0.92458630  1
  Ti4+  Ti9  1  0.16921544  0.83738441  0.92683855  1
  Ti4+  Ti10  1  0.66754994  0.33040766  0.92376345  1
  Ti4+  Ti11  1  0.66265630  0.83258702  0.92358251  1
  Ti4+  Ti12  1  0.00184550  -0.00015184  0.75602788  1
  Ti4+  Ti13  1  0.00078436  0.49896102  0.75617818  1
  Ti4+  Ti14  1  0.50019388  0.00121866  0.75489086  1
  Ti4+  Ti15  1  0.49967762  0.50131009  0.75766832  1
  Ti4+  Ti16  1  0.33243999  0.16684348  0.08850916  1
  Ti4+  Ti17  1  0.33344402  0.66768788  0.09061287  1
  Ti4+  Ti18  1  0.83379778  0.16679664  0.09026740  1
  Ti4+  Ti19  1  0.83214073  0.66526784  0.08523830  1
  Ti4+  Ti20  1  0.16591051  0.33387523  0.42376902  1
  Ti4+  Ti21  1  0.16751995  0.83346109  0.42286547  1
  Ti4+  Ti22  1  0.66509093  0.33193987  0.42303180  1
  Ti4+  Ti23  1  0.66627022  0.83146712  0.42296927  1
  Cu+  Cu24  1  0.73647909  0.47555745  0.13883292  1
  Cu+  Cu25  1  0.23636821  0.26335938  0.13848383  1
  Cu+  Cu26  1  0.73727432  0.75942384  0.13630808  1
  Cu+  Cu27  1  0.36171585  0.93065921  0.47633396  1
  Cu+  Cu28  1  0.68274318  0.08809628  0.80906915  1
  Cu+  Cu29  1  0.40439794  0.09725552  0.80785330  1
  Cu+  Cu30  1  0.35841585  0.42972966  0.47453390  1
  Cu+  Cu31  1  0.07125358  0.43213388  0.47470252  1
  Cu+  Cu32  1  0.01095627  0.74969832  0.14390532  1
  Cu+  Cu33  1  0.40205329  0.59804822  0.80561127  1
  Cu+  Cu34  1  0.91115064  0.31397645  0.81062196  1
  Cu+  Cu35  1  0.24475484  0.98324205  0.14550385  1
  Cu+  Cu36  1  0.16433610  0.08324066  0.16657659  1
  Cu+  Cu37  1  0.16504733  0.58083153  0.17318504  1
  Cu+  Cu38  1  0.66581935  0.08212433  0.17481376  1
  Cu+  Cu39  1  0.66323749  0.58088263  0.16570722  1
  Cu+  Cu40  1  0.41283859  0.33571526  0.16843348  1
  Cu+  Cu41  1  0.41534263  0.83451283  0.17409926  1
  Cu+  Cu42  1  0.91681545  0.33470284  0.17304674  1
  Cu+  Cu43  1  0.91565479  0.83647292  0.16344528  1
  Cu+  Cu44  1  0.41830700  0.07848027  0.17250281  1
  Cu+  Cu45  1  0.41586648  0.57939516  0.17069774  1
  Cu+  Cu46  1  0.91642547  0.07957636  0.16890228  1
  Cu+  Cu47  1  0.91377302  0.57369721  0.16784661  1
  Cu+  Cu48  1  0.49693758  0.24645057  0.50451086  1
  Cu+  Cu49  1  0.49729285  0.74453837  0.50433290  1
  Cu+  Cu50  1  0.99681741  0.25533397  0.50504323  1
  Cu+  Cu51  1  0.99630387  0.75004922  0.50459519  1
  Cu+  Cu52  1  0.25667663  0.00188415  0.50500529  1
  Cu+  Cu53  1  0.25115711  0.50147065  0.50447552  1
  Cu+  Cu54  1  0.75100691  0.00065917  0.50759480  1
  Cu+  Cu55  1  0.75128712  0.50224567  0.50491438  1
  Cu+  Cu56  1  0.25735863  0.25411851  0.50421485  1
  Cu+  Cu57  1  0.25649302  0.75448235  0.50348351  1
  Cu+  Cu58  1  0.75382617  0.25083379  0.50732127  1
  Cu+  Cu59  1  0.75423223  0.75049960  0.50482625  1
  Cu+  Cu60  1  0.33236439  0.42293862  0.83892258  1
  Cu+  Cu61  1  0.33002424  0.92120830  0.83748585  1
  Cu+  Cu62  1  0.83239367  0.41166010  0.83775346  1
  Cu+  Cu63  1  0.83234816  0.91513408  0.83766752  1
  Cu+  Cu64  1  0.08688585  0.16815023  0.83785612  1
  Cu+  Cu65  1  0.08451198  0.66881490  0.84000861  1
  Cu+  Cu66  1  0.58450848  0.16929257  0.83499467  1
  Cu+  Cu67  1  0.57675412  0.66810935  0.83848766  1
  Cu+  Cu68  1  0.08586344  0.41396256  0.83586748  1
  Cu+  Cu69  1  0.08721432  0.91708975  0.83984432  1
  Cu+  Cu70  1  0.58733217  0.41731638  0.83935389  1
  Cu+  Cu71  1  0.58583044  0.91380024  0.83520399  1
  Cu+  Cu72  1  0.17008925  0.08201038  0.67307896  1
  Cu+  Cu73  1  0.16728813  0.58399431  0.67384137  1
  Cu+  Cu74  1  0.67118708  0.08549463  0.68011731  1
  Cu+  Cu75  1  0.67088835  0.58585777  0.67492046  1
  Cu+  Cu76  1  0.41873887  0.33277248  0.67638503  1
  Cu+  Cu77  1  0.41602134  0.83259845  0.67496333  1
  Cu+  Cu78  1  0.91687542  0.33244274  0.68127558  1
  Cu+  Cu79  1  0.91767554  0.83143790  0.67511399  1
  Cu+  Cu80  1  0.41385715  0.08357394  0.68008608  1
  Cu+  Cu81  1  0.41367716  0.58351421  0.67896979  1
  Cu+  Cu82  1  0.91884694  0.08548985  0.67482097  1
  Cu+  Cu83  1  0.91654381  0.58691455  0.67488136  1
  Cu+  Cu84  1  0.00171967  0.25224139  0.00869880  1
  Cu+  Cu85  1  0.00394202  0.75294829  0.01363118  1
  Cu+  Cu86  1  0.50101876  0.24867702  0.00814639  1
  Cu+  Cu87  1  0.49895968  0.75084211  0.00930612  1
  Cu+  Cu88  1  0.25054751  0.50244958  0.00875005  1
  Cu+  Cu89  1  0.24990841  0.99912248  0.01494496  1
  Cu+  Cu90  1  0.74917183  0.49376651  0.01048607  1
  Cu+  Cu91  1  0.74868314  0.99889505  0.00776268  1
  Cu+  Cu92  1  0.25014216  0.25767802  0.01064327  1
  Cu+  Cu93  1  0.25041998  0.75308174  0.00849313  1
  Cu+  Cu94  1  0.75089534  0.25000283  0.00994945  1
  Cu+  Cu95  1  0.74405408  0.75016481  0.00837373  1
  Cu+  Cu96  1  0.33515383  0.41623112  0.34586269  1
  Cu+  Cu97  1  0.33657655  0.91809366  0.34836686  1
  Cu+  Cu98  1  0.83092288  0.41405379  0.34254372  1
  Cu+  Cu99  1  0.83385039  0.91606940  0.33917945  1
  Cu+  Cu100  1  0.08087866  0.16429675  0.33994350  1
  Cu+  Cu101  1  0.07936387  0.66369118  0.34276503  1
  Cu+  Cu102  1  0.58136237  0.16413034  0.34421182  1
  Cu+  Cu103  1  0.58327027  0.66431537  0.34019430  1
  Cu+  Cu104  1  0.07805371  0.41705062  0.34687800  1
  Cu+  Cu105  1  0.08198470  0.91610652  0.33894927  1
  Cu+  Cu106  1  0.57985799  0.41440706  0.33998167  1
  Cu+  Cu107  1  0.58057432  0.91464589  0.34415895  1
  Cu+  Cu108  1  0.00073325  0.00216778  0.10717879  1
  Cu+  Cu109  1  0.00502850  0.49757349  0.11553468  1
  Cu+  Cu110  1  0.50587381  -0.00171799  0.11806038  1
  Cu+  Cu111  1  0.50029647  0.50124957  0.11081961  1
  Cu+  Cu112  1  0.32940145  0.16408376  0.44739581  1
  Cu+  Cu113  1  0.33221599  0.66648672  0.44580856  1
  Cu+  Cu114  1  0.82859987  0.16074871  0.45108386  1
  Cu+  Cu115  1  0.82979156  0.66330783  0.44756305  1
  Cu+  Cu116  1  0.16869088  0.32898738  0.78032994  1
  Cu+  Cu117  1  0.16331327  0.82971814  0.78403015  1
  Cu+  Cu118  1  0.66825541  0.33666002  0.78003860  1
  Cu+  Cu119  1  0.67207701  0.82990150  0.78016809  1
  Te2-  Te120  1  -0.00078388  -0.00127885  0.38161809  1
  Te2-  Te121  1  -0.00578872  0.50049891  0.38933317  1
  Te2-  Te122  1  0.50406459  0.00098703  0.39150012  1
  Te2-  Te123  1  0.50288755  0.50083380  0.38648247  1
  Te2-  Te124  1  0.33204290  0.16911708  0.72209406  1
  Te2-  Te125  1  0.33077144  0.66891991  0.71989595  1
  Te2-  Te126  1  0.83726496  0.16552074  0.72533969  1
  Te2-  Te127  1  0.83427209  0.66796327  0.72168021  1
  Te2-  Te128  1  0.16501433  0.33888437  0.05535196  1
  Te2-  Te129  1  0.16899176  0.83278638  0.05932353  1
  Te2-  Te130  1  0.66428698  0.32744412  0.05422722  1
  Te2-  Te131  1  0.66334032  0.83525494  0.05409328  1
  Te2-  Te132  1  0.49482811  0.24870175  0.88260912  1
  Te2-  Te133  1  0.48843489  0.75011838  0.88304577  1
  Te2-  Te134  1  0.99551411  0.24454078  0.88301646  1
  Te2-  Te135  1  0.99754353  0.74915781  0.88616206  1
  Te2-  Te136  1  0.25385675  0.01165378  0.88728042  1
  Te2-  Te137  1  0.25056790  0.51165222  0.88275391  1
  Te2-  Te138  1  0.75492407  0.00557080  0.88225955  1
  Te2-  Te139  1  0.75564720  0.50244998  0.88384886  1
  Te2-  Te140  1  0.25551877  0.25393625  0.88342303  1
  Te2-  Te141  1  0.25456275  0.75280286  0.88207777  1
  Te2-  Te142  1  0.75446236  0.24185987  0.88390907  1
  Te2-  Te143  1  0.74668595  0.74548281  0.88138149  1
  Te2-  Te144  1  0.32437409  0.41351455  0.21862293  1
  Te2-  Te145  1  0.32398027  0.90961078  0.22119472  1
  Te2-  Te146  1  0.82116514  0.40742396  0.21652073  1
  Te2-  Te147  1  0.82429293  0.91213137  0.21339531  1
  Te2-  Te148  1  0.08392272  0.17170023  0.21414417  1
  Te2-  Te149  1  0.08391778  0.66924641  0.21663448  1
  Te2-  Te150  1  0.58444626  0.17046204  0.21767495  1
  Te2-  Te151  1  0.58508598  0.67140760  0.21390385  1
  Te2-  Te152  1  0.08359102  0.41359398  0.21989548  1
  Te2-  Te153  1  0.08537211  0.90992286  0.21277578  1
  Te2-  Te154  1  0.58201597  0.40980843  0.21306732  1
  Te2-  Te155  1  0.58352674  0.91332240  0.21786643  1
  Te2-  Te156  1  0.16697775  0.08328579  0.54622522  1
  Te2-  Te157  1  0.16185404  0.58519684  0.54768433  1
  Te2-  Te158  1  0.66492817  0.08285985  0.55294510  1
  Te2-  Te159  1  0.66313841  0.58245006  0.54868643  1
  Te2-  Te160  1  0.42569312  0.34174261  0.55047894  1
  Te2-  Te161  1  0.42493978  0.83922614  0.54976650  1
  Te2-  Te162  1  0.92040849  0.34558278  0.55399405  1
  Te2-  Te163  1  0.92177582  0.84187147  0.54916396  1
  Te2-  Te164  1  0.42507364  0.08131667  0.55324982  1
  Te2-  Te165  1  0.42146862  0.57860490  0.55190968  1
  Te2-  Te166  1  0.92191885  0.08631765  0.54829362  1
  Te2-  Te167  1  0.91999515  0.58259527  0.54863748  1
  Te2-  Te168  1  0.00054594  0.00001393  0.88279467  1
  Te2-  Te169  1  0.00186453  0.49980902  0.88346160  1
  Te2-  Te170  1  0.50059990  -0.00021810  0.88239309  1
  Te2-  Te171  1  0.50120039  0.49993831  0.88468540  1
  Te2-  Te172  1  0.33282275  0.16547189  0.21599144  1
  Te2-  Te173  1  0.33320431  0.66502946  0.21729479  1
  Te2-  Te174  1  0.83448950  0.16534665  0.21690044  1
  Te2-  Te175  1  0.83345571  0.66619089  0.21350414  1
  Te2-  Te176  1  0.16662643  0.33214939  0.55106656  1
  Te2-  Te177  1  0.16585710  0.83277280  0.54986392  1
  Te2-  Te178  1  0.66671003  0.33388514  0.54949722  1
  Te2-  Te179  1  0.66683956  0.83167909  0.54959906  1
  Te2-  Te180  1  0.32775830  0.41161001  0.71117932  1
  Te2-  Te181  1  0.32567396  0.91121937  0.71071410  1
  Te2-  Te182  1  0.82818246  0.41696310  0.71041320  1
  Te2-  Te183  1  0.83065359  0.91509492  0.71031736  1
  Te2-  Te184  1  0.08881616  0.17096989  0.71019057  1
  Te2-  Te185  1  0.08554669  0.67122006  0.71237238  1
  Te2-  Te186  1  0.58788393  0.17547265  0.70797245  1
  Te2-  Te187  1  0.58698068  0.67225411  0.71026362  1
  Te2-  Te188  1  0.09018010  0.41510135  0.70930647  1
  Te2-  Te189  1  0.08761107  0.91355799  0.71241285  1
  Te2-  Te190  1  0.58751684  0.41696070  0.71244067  1
  Te2-  Te191  1  0.58557128  0.91212766  0.70898691  1
  Te2-  Te192  1  0.16005362  0.08376378  0.03890256  1
  Te2-  Te193  1  0.16199480  0.58320193  0.04524475  1
  Te2-  Te194  1  0.66184231  0.08032363  0.04637378  1
  Te2-  Te195  1  0.65862336  0.57741009  0.03802417  1
  Te2-  Te196  1  0.42206587  0.33990024  0.04171819  1
  Te2-  Te197  1  0.41901173  0.84013960  0.04660451  1
  Te2-  Te198  1  0.92010932  0.33925229  0.04567397  1
  Te2-  Te199  1  0.91714204  0.84003156  0.03685227  1
  Te2-  Te200  1  0.42207299  0.08078161  0.04565884  1
  Te2-  Te201  1  0.41913524  0.58148666  0.04416749  1
  Te2-  Te202  1  0.91882640  0.08163766  0.04202212  1
  Te2-  Te203  1  0.92173538  0.57903094  0.04086873  1
  Te2-  Te204  1  0.49240197  0.24545742  0.37799056  1
  Te2-  Te205  1  0.49413515  0.74430247  0.37769225  1
  Te2-  Te206  1  0.99268386  0.24458494  0.37816741  1
  Te2-  Te207  1  0.99453832  0.74803849  0.37798542  1
  Te2-  Te208  1  0.25079465  0.00565504  0.37689462  1
  Te2-  Te209  1  0.25198561  0.50621928  0.37626874  1
  Te2-  Te210  1  0.75161844  0.00300011  0.37912148  1
  Te2-  Te211  1  0.74983253  0.50344899  0.37715037  1
  Te2-  Te212  1  0.24935613  0.24453668  0.37696518  1
  Te2-  Te213  1  0.25008124  0.74379330  0.37600332  1
  Te2-  Te214  1  0.75149760  0.24510675  0.38012939  1
  Te2-  Te215  1  0.75282601  0.74690271  0.37720879  1
