# generated using pymatgen
data_Ti(CuTe)4
_symmetry_space_group_name_H-M   'P 1'
_cell_length_a   16.86703245
_cell_length_b   16.86758900
_cell_length_c   20.67984446
_cell_angle_alpha   90.03271438
_cell_angle_beta   89.94851580
_cell_angle_gamma   119.98429570
_symmetry_Int_Tables_number   1
_chemical_formula_structural   Ti(CuTe)4
_chemical_formula_sum   'Ti24 Cu96 Te96'
_cell_volume   5096.10203278
_cell_formula_units_Z   24
loop_
 _symmetry_equiv_pos_site_id
 _symmetry_equiv_pos_as_xyz
  1  'x, y, z'
loop_
 _atom_type_symbol
 _atom_type_oxidation_number
  Ti4+  4.0
  Cu+  1.0
  Te2-  -2.0
loop_
 _atom_site_type_symbol
 _atom_site_label
 _atom_site_symmetry_multiplicity
 _atom_site_fract_x
 _atom_site_fract_y
 _atom_site_fract_z
 _atom_site_occupancy
  Ti4+  Ti0  1  -0.00198224  0.00001926  0.26151630  1
  Ti4+  Ti1  1  -0.00420367  0.49630513  0.25296116  1
  Ti4+  Ti2  1  0.49873582  -0.00187943  0.25890766  1
  Ti4+  Ti3  1  0.49759700  0.50034670  0.25775113  1
  Ti4+  Ti4  1  0.33645829  0.16883872  0.59240388  1
  Ti4+  Ti5  1  0.33559829  0.66799821  0.58989655  1
  Ti4+  Ti6  1  0.83517185  0.16492388  0.59241763  1
  Ti4+  Ti7  1  0.83407614  0.66575744  0.59034685  1
  Ti4+  Ti8  1  0.17149986  0.33448721  0.92387355  1
  Ti4+  Ti9  1  0.16615255  0.83518913  0.92356921  1
  Ti4+  Ti10  1  0.66822197  0.33220762  0.92526512  1
  Ti4+  Ti11  1  0.66503822  0.83471000  0.92499669  1
  Ti4+  Ti12  1  0.00227247  0.00006933  0.75492914  1
  Ti4+  Ti13  1  0.00009262  0.50004511  0.75495985  1
  Ti4+  Ti14  1  0.50292872  0.00148346  0.75606363  1
  Ti4+  Ti15  1  0.49749551  0.50108394  0.75688341  1
  Ti4+  Ti16  1  0.33260913  0.16714340  0.09165948  1
  Ti4+  Ti17  1  0.33371141  0.66607500  0.08883754  1
  Ti4+  Ti18  1  0.83360268  0.16835167  0.08845920  1
  Ti4+  Ti19  1  0.83166303  0.66603850  0.08713063  1
  Ti4+  Ti20  1  0.16618579  0.33352270  0.42329445  1
  Ti4+  Ti21  1  0.16686414  0.83321159  0.42059578  1
  Ti4+  Ti22  1  0.66452759  0.33276170  0.42420003  1
  Ti4+  Ti23  1  0.66589334  0.83271273  0.42183099  1
  Cu+  Cu24  1  0.40286098  0.59836073  0.80728142  1
  Cu+  Cu25  1  0.23816462  0.47532895  0.13998932  1
  Cu+  Cu26  1  0.69420584  0.09588697  0.80793602  1
  Cu+  Cu27  1  0.52229517  0.76113171  0.14040578  1
  Cu+  Cu28  1  0.35852484  0.42781926  0.47502960  1
  Cu+  Cu29  1  0.18839601  0.08987997  0.80667899  1
  Cu+  Cu30  1  0.08200970  0.15161292  0.47856148  1
  Cu+  Cu31  1  0.35823814  0.93015403  0.47391092  1
  Cu+  Cu32  1  0.41512203  0.32069301  0.81241359  1
  Cu+  Cu33  1  0.73437118  0.25185710  0.14309694  1
  Cu+  Cu34  1  0.73381434  0.48064906  0.14052873  1
  Cu+  Cu35  1  0.84982754  0.92144097  0.47800270  1
  Cu+  Cu36  1  0.16280386  0.08405056  0.17564018  1
  Cu+  Cu37  1  0.16126798  0.57482724  0.16737329  1
  Cu+  Cu38  1  0.66076100  0.08108108  0.17126194  1
  Cu+  Cu39  1  0.66197595  0.58045651  0.16940241  1
  Cu+  Cu40  1  0.41504155  0.33579240  0.17175089  1
  Cu+  Cu41  1  0.42070754  0.83554235  0.17191308  1
  Cu+  Cu42  1  0.91344468  0.33744323  0.16550010  1
  Cu+  Cu43  1  0.91464562  0.83711599  0.17274131  1
  Cu+  Cu44  1  0.41337025  0.07935989  0.17354141  1
  Cu+  Cu45  1  0.41617998  0.58162423  0.17047795  1
  Cu+  Cu46  1  0.91784256  0.08219588  0.17460754  1
  Cu+  Cu47  1  0.91191703  0.57694332  0.16586741  1
  Cu+  Cu48  1  0.49722067  0.25055451  0.50597921  1
  Cu+  Cu49  1  0.49442167  0.74605236  0.50312850  1
  Cu+  Cu50  1  0.99637980  0.24369105  0.50368870  1
  Cu+  Cu51  1  0.99454941  0.74457669  0.50167640  1
  Cu+  Cu52  1  0.25532771  0.00098881  0.50358688  1
  Cu+  Cu53  1  0.25768060  0.50340969  0.50315987  1
  Cu+  Cu54  1  0.75356399  0.00168826  0.50482164  1
  Cu+  Cu55  1  0.75195578  0.50255405  0.50539723  1
  Cu+  Cu56  1  0.25560801  0.25270758  0.50684441  1
  Cu+  Cu57  1  0.25534893  0.75400942  0.50204122  1
  Cu+  Cu58  1  0.74983523  0.24747885  0.50783881  1
  Cu+  Cu59  1  0.75311683  0.74832338  0.50363776  1
  Cu+  Cu60  1  0.33083162  0.41735403  0.83595798  1
  Cu+  Cu61  1  0.32927591  0.91603984  0.83713102  1
  Cu+  Cu62  1  0.83106520  0.41448289  0.83842634  1
  Cu+  Cu63  1  0.83009144  0.91446120  0.83788659  1
  Cu+  Cu64  1  0.09025019  0.16785640  0.83610604  1
  Cu+  Cu65  1  0.08378914  0.67044297  0.83717650  1
  Cu+  Cu66  1  0.59098573  0.16874689  0.83725896  1
  Cu+  Cu67  1  0.57708324  0.67013398  0.83836094  1
  Cu+  Cu68  1  0.08665143  0.41727655  0.83713548  1
  Cu+  Cu69  1  0.08883206  0.91825206  0.83634042  1
  Cu+  Cu70  1  0.58590847  0.41467520  0.84001254  1
  Cu+  Cu71  1  0.58938199  0.92070884  0.83796512  1
  Cu+  Cu72  1  0.17123439  0.08536519  0.67931614  1
  Cu+  Cu73  1  0.16916645  0.58455101  0.67085098  1
  Cu+  Cu74  1  0.67306604  0.08482021  0.67964832  1
  Cu+  Cu75  1  0.67032318  0.58669044  0.67392260  1
  Cu+  Cu76  1  0.41518704  0.33357774  0.68297649  1
  Cu+  Cu77  1  0.41694263  0.83399082  0.67436929  1
  Cu+  Cu78  1  0.91600961  0.33173444  0.67405551  1
  Cu+  Cu79  1  0.91502689  0.82961550  0.67410322  1
  Cu+  Cu80  1  0.41898710  0.08426729  0.67649119  1
  Cu+  Cu81  1  0.41481655  0.58606026  0.67938299  1
  Cu+  Cu82  1  0.91638102  0.08201836  0.67768954  1
  Cu+  Cu83  1  0.91395051  0.58324823  0.67344957  1
  Cu+  Cu84  1  0.00476857  0.24997807  0.00717536  1
  Cu+  Cu85  1  0.00224655  0.75578088  0.00553138  1
  Cu+  Cu86  1  0.49951720  0.24836187  0.00934644  1
  Cu+  Cu87  1  0.50308162  0.75450362  0.01231825  1
  Cu+  Cu88  1  0.25079687  0.49743938  0.01212248  1
  Cu+  Cu89  1  0.24605725  0.99825742  0.00975729  1
  Cu+  Cu90  1  0.74763721  0.49643608  0.01159439  1
  Cu+  Cu91  1  0.75098841  1.00045655  0.01027748  1
  Cu+  Cu92  1  0.25291885  0.25066609  0.01012684  1
  Cu+  Cu93  1  0.24752209  0.75362555  0.00588413  1
  Cu+  Cu94  1  0.75102396  0.25123420  0.01388398  1
  Cu+  Cu95  1  0.74763143  0.75175115  0.00674423  1
  Cu+  Cu96  1  0.33453976  0.41974352  0.34659804  1
  Cu+  Cu97  1  0.33657309  0.91765204  0.34488055  1
  Cu+  Cu98  1  0.83115290  0.41494948  0.34100602  1
  Cu+  Cu99  1  0.83587789  0.91918411  0.34792963  1
  Cu+  Cu100  1  0.07966127  0.16338763  0.34919227  1
  Cu+  Cu101  1  0.07893182  0.66202984  0.33445280  1
  Cu+  Cu102  1  0.57987691  0.16541271  0.34413869  1
  Cu+  Cu103  1  0.58018482  0.66561316  0.34152373  1
  Cu+  Cu104  1  0.07941908  0.41648197  0.33824141  1
  Cu+  Cu105  1  0.08101824  0.91628612  0.34182107  1
  Cu+  Cu106  1  0.58045714  0.41665030  0.34304400  1
  Cu+  Cu107  1  0.58044947  0.91538600  0.34305034  1
  Cu+  Cu108  1  0.00087513  0.00001336  0.11928758  1
  Cu+  Cu109  1  0.00246657  0.50547415  0.10724246  1
  Cu+  Cu110  1  0.49553041  -0.00086446  0.11563349  1
  Cu+  Cu111  1  0.49954638  0.50013860  0.11286868  1
  Cu+  Cu112  1  0.33149079  0.16436263  0.44865253  1
  Cu+  Cu113  1  0.32574356  0.66415224  0.44557680  1
  Cu+  Cu114  1  0.82943728  0.16841055  0.44959620  1
  Cu+  Cu115  1  0.83115873  0.66315642  0.44531089  1
  Cu+  Cu116  1  0.15990674  0.33102941  0.77998833  1
  Cu+  Cu117  1  0.16611261  0.82952718  0.77893415  1
  Cu+  Cu118  1  0.66755394  0.33457350  0.78146010  1
  Cu+  Cu119  1  0.66859398  0.83278331  0.78151682  1
  Te2-  Te120  1  0.00136661  -0.00198819  0.39389807  1
  Te2-  Te121  1  -0.00280388  0.49900232  0.38179394  1
  Te2-  Te122  1  0.50235459  0.00118229  0.38945094  1
  Te2-  Te123  1  0.50137805  0.50193293  0.38818142  1
  Te2-  Te124  1  0.33768526  0.16688942  0.72418336  1
  Te2-  Te125  1  0.33144763  0.66992269  0.72042201  1
  Te2-  Te126  1  0.83940194  0.16902558  0.72282765  1
  Te2-  Te127  1  0.83353044  0.66626092  0.71983802  1
  Te2-  Te128  1  0.16823477  0.33089304  0.05413134  1
  Te2-  Te129  1  0.16478214  0.83364073  0.05301534  1
  Te2-  Te130  1  0.66338771  0.33056471  0.05715785  1
  Te2-  Te131  1  0.66931580  0.83601636  0.05557261  1
  Te2-  Te132  1  0.49602420  0.24258568  0.88324919  1
  Te2-  Te133  1  0.49138261  0.75301337  0.88471292  1
  Te2-  Te134  1  1.00198361  0.24811621  0.88084764  1
  Te2-  Te135  1  0.99537248  0.75090556  0.87976479  1
  Te2-  Te136  1  0.25738998  0.00986054  0.88395109  1
  Te2-  Te137  1  0.25360259  0.50818635  0.88442442  1
  Te2-  Te138  1  0.75826442  0.00879497  0.88441757  1
  Te2-  Te139  1  0.75229347  0.50280723  0.88452433  1
  Te2-  Te140  1  0.25897098  0.24629306  0.88358692  1
  Te2-  Te141  1  0.25182550  0.74906361  0.88050281  1
  Te2-  Te142  1  0.75820476  0.24839079  0.88596935  1
  Te2-  Te143  1  0.74665613  0.74629635  0.88103141  1
  Te2-  Te144  1  0.32433720  0.41170724  0.21841278  1
  Te2-  Te145  1  0.32839564  0.91142878  0.21745567  1
  Te2-  Te146  1  0.81833929  0.40929186  0.21470081  1
  Te2-  Te147  1  0.82670006  0.91522876  0.22040194  1
  Te2-  Te148  1  0.08396563  0.17193647  0.22185919  1
  Te2-  Te149  1  0.08151842  0.66571375  0.20851110  1
  Te2-  Te150  1  0.58098639  0.17142551  0.21804854  1
  Te2-  Te151  1  0.58705257  0.67272902  0.21547464  1
  Te2-  Te152  1  0.07996120  0.40618308  0.21269172  1
  Te2-  Te153  1  0.08258062  0.91454448  0.21633771  1
  Te2-  Te154  1  0.58170378  0.41128752  0.21708896  1
  Te2-  Te155  1  0.58952811  0.91499232  0.21721047  1
  Te2-  Te156  1  0.16514666  0.07911938  0.55134535  1
  Te2-  Te157  1  0.16697693  0.58354253  0.54461763  1
  Te2-  Te158  1  0.66404044  0.07894032  0.55215677  1
  Te2-  Te159  1  0.66238950  0.58134393  0.54832581  1
  Te2-  Te160  1  0.42379025  0.34267371  0.55460021  1
  Te2-  Te161  1  0.42419916  0.84201196  0.54877122  1
  Te2-  Te162  1  0.91987502  0.33500908  0.54824757  1
  Te2-  Te163  1  0.92390566  0.83946519  0.54861796  1
  Te2-  Te164  1  0.42387903  0.08354128  0.55080027  1
  Te2-  Te165  1  0.42466805  0.58174254  0.55194400  1
  Te2-  Te166  1  0.92329549  0.07643069  0.55158051  1
  Te2-  Te167  1  0.91960643  0.57920089  0.54787687  1
  Te2-  Te168  1  -0.00030202  -0.00094453  0.88195190  1
  Te2-  Te169  1  0.00138148  0.50135216  0.88125008  1
  Te2-  Te170  1  0.49849772  -0.00019263  0.88296517  1
  Te2-  Te171  1  0.50048205  0.50030842  0.88454544  1
  Te2-  Te172  1  0.33183395  0.16694700  0.21798896  1
  Te2-  Te173  1  0.32940520  0.66499860  0.21619835  1
  Te2-  Te174  1  0.83201081  0.16847311  0.21552675  1
  Te2-  Te175  1  0.83232651  0.66615913  0.21431999  1
  Te2-  Te176  1  0.16587817  0.33461884  0.55093338  1
  Te2-  Te177  1  0.16429562  0.83095796  0.54771880  1
  Te2-  Te178  1  0.66712619  0.33399066  0.55044286  1
  Te2-  Te179  1  0.66549534  0.83094999  0.54873746  1
  Te2-  Te180  1  0.32294846  0.41392872  0.70973996  1
  Te2-  Te181  1  0.32939673  0.91529198  0.71129683  1
  Te2-  Te182  1  0.82755896  0.41326290  0.71138268  1
  Te2-  Te183  1  0.82876854  0.91248781  0.71181342  1
  Te2-  Te184  1  0.08739431  0.17390482  0.70921994  1
  Te2-  Te185  1  0.08525111  0.67081741  0.70922717  1
  Te2-  Te186  1  0.58929591  0.17461859  0.71033630  1
  Te2-  Te187  1  0.58716929  0.67315845  0.71107693  1
  Te2-  Te188  1  0.08684746  0.41516535  0.70955143  1
  Te2-  Te189  1  0.08643552  0.91165983  0.70894023  1
  Te2-  Te190  1  0.58813182  0.41768390  0.71250251  1
  Te2-  Te191  1  0.58669464  0.91215245  0.71115857  1
  Te2-  Te192  1  0.16019568  0.08148995  0.04798340  1
  Te2-  Te193  1  0.16276611  0.58298305  0.04019697  1
  Te2-  Te194  1  0.65895171  0.07862422  0.04447624  1
  Te2-  Te195  1  0.65874044  0.58101565  0.04184068  1
  Te2-  Te196  1  0.42177137  0.33991269  0.04566440  1
  Te2-  Te197  1  0.41619184  0.83962013  0.04479816  1
  Te2-  Te198  1  0.92465759  0.34096644  0.04012303  1
  Te2-  Te199  1  0.91697957  0.83922410  0.04541233  1
  Te2-  Te200  1  0.41642707  0.07904643  0.04669481  1
  Te2-  Te201  1  0.42279201  0.58142627  0.04251299  1
  Te2-  Te202  1  0.92066392  0.08165338  0.04739709  1
  Te2-  Te203  1  0.92110518  0.58401116  0.03914421  1
  Te2-  Te204  1  0.49150038  0.24706893  0.37987321  1
  Te2-  Te205  1  0.49185834  0.74600247  0.37808976  1
  Te2-  Te206  1  0.99233781  0.24851369  0.37801147  1
  Te2-  Te207  1  0.99433128  0.74567628  0.37559047  1
  Te2-  Te208  1  0.25198408  0.00647361  0.37611112  1
  Te2-  Te209  1  0.24825207  0.50531196  0.37592044  1
  Te2-  Te210  1  0.75088083  0.00690900  0.37824660  1
  Te2-  Te211  1  0.75074405  0.50406171  0.37804834  1
  Te2-  Te212  1  0.25355527  0.24681465  0.37831608  1
  Te2-  Te213  1  0.24868142  0.74399304  0.37382242  1
  Te2-  Te214  1  0.74999354  0.24624116  0.37985342  1
  Te2-  Te215  1  0.75102741  0.74498234  0.37600848  1
