# generated using pymatgen
data_Ti(CuTe)4
_symmetry_space_group_name_H-M   'P 1'
_cell_length_a   16.88282016
_cell_length_b   16.88336844
_cell_length_c   20.70457843
_cell_angle_alpha   90.01790341
_cell_angle_beta   89.96761678
_cell_angle_gamma   119.99422694
_symmetry_Int_Tables_number   1
_chemical_formula_structural   Ti(CuTe)4
_chemical_formula_sum   'Ti24 Cu96 Te96'
_cell_volume   5111.24040133
_cell_formula_units_Z   24
loop_
 _symmetry_equiv_pos_site_id
 _symmetry_equiv_pos_as_xyz
  1  'x, y, z'
loop_
 _atom_type_symbol
 _atom_type_oxidation_number
  Ti4+  4.0
  Cu+  1.0
  Te2-  -2.0
loop_
 _atom_site_type_symbol
 _atom_site_label
 _atom_site_symmetry_multiplicity
 _atom_site_fract_x
 _atom_site_fract_y
 _atom_site_fract_z
 _atom_site_occupancy
  Ti4+  Ti0  1  -0.00001813  -0.00062152  0.25356735  1
  Ti4+  Ti1  1  0.00180608  0.50321008  0.25819429  1
  Ti4+  Ti2  1  0.50280042  -0.00049904  0.26125978  1
  Ti4+  Ti3  1  0.49880783  0.49634146  0.25489145  1
  Ti4+  Ti4  1  0.33225443  0.16605562  0.59259549  1
  Ti4+  Ti5  1  0.33294433  0.66588539  0.59162965  1
  Ti4+  Ti6  1  0.83122969  0.16747457  0.59093362  1
  Ti4+  Ti7  1  0.83364550  0.66548400  0.59165545  1
  Ti4+  Ti8  1  0.16514570  0.33395406  0.92345581  1
  Ti4+  Ti9  1  0.16999360  0.83500014  0.92417404  1
  Ti4+  Ti10  1  0.66657402  0.33397228  0.92670154  1
  Ti4+  Ti11  1  0.66688237  0.83411306  0.92220824  1
  Ti4+  Ti12  1  -0.00122311  0.00066958  0.75483644  1
  Ti4+  Ti13  1  -0.00058337  0.49986769  0.75670720  1
  Ti4+  Ti14  1  0.49871639  -0.00042359  0.75562857  1
  Ti4+  Ti15  1  0.50109085  0.50009452  0.75567489  1
  Ti4+  Ti16  1  0.33327177  0.16923776  0.08756114  1
  Ti4+  Ti17  1  0.33409721  0.66712903  0.08864479  1
  Ti4+  Ti18  1  0.83037794  0.16404557  0.08997020  1
  Ti4+  Ti19  1  0.83640810  0.66808792  0.08699597  1
  Ti4+  Ti20  1  0.16576869  0.33235327  0.42170207  1
  Ti4+  Ti21  1  0.16715173  0.83421879  0.42287365  1
  Ti4+  Ti22  1  0.66800119  0.33402464  0.42248901  1
  Ti4+  Ti23  1  0.66542217  0.83173585  0.42264303  1
  Cu+  Cu24  1  0.40622337  0.81281823  0.80765075  1
  Cu+  Cu25  1  0.69213694  0.59447012  0.80794529  1
  Cu+  Cu26  1  0.40729712  0.09481829  0.80959135  1
  Cu+  Cu27  1  0.57297896  0.15332139  0.48040795  1
  Cu+  Cu28  1  0.74906942  0.48858645  0.14629371  1
  Cu+  Cu29  1  0.02656639  0.76226265  0.13945628  1
  Cu+  Cu30  1  0.57137219  0.92085154  0.48034103  1
  Cu+  Cu31  1  0.51585915  0.25318106  0.14399481  1
  Cu+  Cu32  1  0.68535933  0.09460454  0.80949968  1
  Cu+  Cu33  1  0.23665361  0.26238795  0.13737481  1
  Cu+  Cu34  1  0.73484368  0.97179657  0.14106397  1
  Cu+  Cu35  1  0.85631691  0.42852439  0.47529273  1
  Cu+  Cu36  1  0.16310538  0.08686266  0.16677741  1
  Cu+  Cu37  1  0.16568323  0.58451752  0.17078021  1
  Cu+  Cu38  1  0.66321092  0.07576965  0.17349084  1
  Cu+  Cu39  1  0.66365836  0.57771423  0.16800270  1
  Cu+  Cu40  1  0.41766418  0.33618148  0.16659161  1
  Cu+  Cu41  1  0.42073025  0.83477145  0.17322117  1
  Cu+  Cu42  1  0.91638563  0.33528134  0.17245000  1
  Cu+  Cu43  1  0.92555661  0.83762509  0.16645193  1
  Cu+  Cu44  1  0.42161669  0.08386962  0.17378524  1
  Cu+  Cu45  1  0.41765161  0.58032682  0.16860079  1
  Cu+  Cu46  1  0.91128848  0.07524277  0.16838123  1
  Cu+  Cu47  1  0.92357482  0.58498175  0.17021785  1
  Cu+  Cu48  1  0.49290110  0.24481027  0.50594880  1
  Cu+  Cu49  1  0.49417749  0.74855365  0.50529690  1
  Cu+  Cu50  1  0.99713428  0.24988248  0.50326379  1
  Cu+  Cu51  1  0.99729949  0.74902558  0.50445406  1
  Cu+  Cu52  1  0.25132555  0.00229569  0.50533360  1
  Cu+  Cu53  1  0.25074991  0.50099224  0.50465861  1
  Cu+  Cu54  1  0.74592419  0.00109795  0.50439894  1
  Cu+  Cu55  1  0.75633874  0.50439921  0.50456463  1
  Cu+  Cu56  1  0.24982314  0.24863098  0.50552303  1
  Cu+  Cu57  1  0.25060433  0.74832398  0.50531995  1
  Cu+  Cu58  1  0.75190343  0.24895721  0.50304842  1
  Cu+  Cu59  1  0.74809260  0.74451556  0.50580469  1
  Cu+  Cu60  1  0.32889521  0.41470863  0.83806503  1
  Cu+  Cu61  1  0.32950579  0.91482180  0.83603466  1
  Cu+  Cu62  1  0.83073302  0.41635062  0.83949395  1
  Cu+  Cu63  1  0.82964685  0.91975521  0.83556466  1
  Cu+  Cu64  1  0.08439652  0.17053513  0.83768384  1
  Cu+  Cu65  1  0.08653007  0.66889636  0.83862122  1
  Cu+  Cu66  1  0.58333389  0.16996290  0.83847766  1
  Cu+  Cu67  1  0.58868990  0.66853046  0.83531431  1
  Cu+  Cu68  1  0.08395461  0.41535823  0.83804620  1
  Cu+  Cu69  1  0.08383684  0.91650243  0.83821142  1
  Cu+  Cu70  1  0.58832870  0.41938184  0.83936912  1
  Cu+  Cu71  1  0.58510210  0.91568970  0.83532049  1
  Cu+  Cu72  1  0.16783145  0.08404826  0.67571118  1
  Cu+  Cu73  1  0.16865919  0.58412579  0.67531805  1
  Cu+  Cu74  1  0.66806014  0.08591733  0.68013277  1
  Cu+  Cu75  1  0.67167048  0.58340949  0.67902205  1
  Cu+  Cu76  1  0.41552544  0.33029791  0.67535099  1
  Cu+  Cu77  1  0.41417107  0.82898364  0.67960715  1
  Cu+  Cu78  1  0.91365116  0.33269230  0.67629341  1
  Cu+  Cu79  1  0.91366348  0.83075288  0.67472531  1
  Cu+  Cu80  1  0.41321294  0.08442648  0.68076271  1
  Cu+  Cu81  1  0.41552697  0.58367281  0.67423292  1
  Cu+  Cu82  1  0.91447423  0.08527346  0.67378088  1
  Cu+  Cu83  1  0.91577935  0.58319501  0.67579316  1
  Cu+  Cu84  1  0.00007849  0.25127352  0.00694862  1
  Cu+  Cu85  1  0.00687620  0.75295987  0.01140990  1
  Cu+  Cu86  1  0.50262132  0.25295921  0.01365195  1
  Cu+  Cu87  1  0.50099999  0.75159635  0.00578917  1
  Cu+  Cu88  1  0.24796005  0.49868588  0.00680128  1
  Cu+  Cu89  1  0.25128559  1.00024043  0.00770065  1
  Cu+  Cu90  1  0.74976959  0.49853101  0.01561728  1
  Cu+  Cu91  1  0.74452618  0.99662854  0.01220597  1
  Cu+  Cu92  1  0.24619883  0.25316727  0.00993257  1
  Cu+  Cu93  1  0.25243281  0.75279217  0.00915114  1
  Cu+  Cu94  1  0.74648001  0.24846162  0.01055192  1
  Cu+  Cu95  1  0.75100976  0.75321432  0.00588481  1
  Cu+  Cu96  1  0.33359957  0.41452889  0.34000516  1
  Cu+  Cu97  1  0.33713173  0.91879297  0.34341686  1
  Cu+  Cu98  1  0.83796997  0.42285527  0.34683131  1
  Cu+  Cu99  1  0.83538315  0.91459046  0.33922344  1
  Cu+  Cu100  1  0.08148258  0.16429723  0.33856417  1
  Cu+  Cu101  1  0.08297020  0.66789811  0.34290913  1
  Cu+  Cu102  1  0.58453197  0.16476281  0.34892143  1
  Cu+  Cu103  1  0.58080193  0.66078357  0.33936474  1
  Cu+  Cu104  1  0.08199819  0.41846417  0.34145403  1
  Cu+  Cu105  1  0.08429840  0.91902002  0.33921563  1
  Cu+  Cu106  1  0.58127659  0.41529623  0.34097572  1
  Cu+  Cu107  1  0.58285285  0.91670004  0.34982821  1
  Cu+  Cu108  1  -0.00043636  0.00143473  0.10844541  1
  Cu+  Cu109  1  0.00324358  0.49551158  0.11520368  1
  Cu+  Cu110  1  0.49555843  -0.00299558  0.11826195  1
  Cu+  Cu111  1  0.50201184  0.50500663  0.11009351  1
  Cu+  Cu112  1  0.32770830  0.16544506  0.44965381  1
  Cu+  Cu113  1  0.32955636  0.66259996  0.44859264  1
  Cu+  Cu114  1  0.83634674  0.16332785  0.44714833  1
  Cu+  Cu115  1  0.83491565  0.67174660  0.44819881  1
  Cu+  Cu116  1  0.16570454  0.33366796  0.78060638  1
  Cu+  Cu117  1  0.15958127  0.83059026  0.78140940  1
  Cu+  Cu118  1  0.66750434  0.33499783  0.78305540  1
  Cu+  Cu119  1  0.66668982  0.83122817  0.77779605  1
  Te2-  Te120  1  0.00012533  -0.00026756  0.38197623  1
  Te2-  Te121  1  0.00458865  0.50414336  0.38870405  1
  Te2-  Te122  1  0.49907134  -0.00087787  0.39334783  1
  Te2-  Te123  1  0.49802841  0.49674481  0.38353808  1
  Te2-  Te124  1  0.33074253  0.16811591  0.72366253  1
  Te2-  Te125  1  0.33191454  0.66262198  0.72244124  1
  Te2-  Te126  1  0.83466060  0.16852649  0.72140537  1
  Te2-  Te127  1  0.83760126  0.66816283  0.72258948  1
  Te2-  Te128  1  0.16289886  0.33582479  0.05461555  1
  Te2-  Te129  1  0.17337277  0.83735809  0.05479373  1
  Te2-  Te130  1  0.66799801  0.33237797  0.05868965  1
  Te2-  Te131  1  0.66402090  0.82925069  0.05270182  1
  Te2-  Te132  1  0.49441724  0.25074048  0.88582895  1
  Te2-  Te133  1  0.49502366  0.74475018  0.87990249  1
  Te2-  Te134  1  0.99340787  0.24752552  0.88165685  1
  Te2-  Te135  1  0.99917072  0.74905372  0.88434623  1
  Te2-  Te136  1  0.25287943  0.00814953  0.88210058  1
  Te2-  Te137  1  0.25197004  0.50565098  0.88147064  1
  Te2-  Te138  1  0.75299805  0.00835147  0.88475255  1
  Te2-  Te139  1  0.75609236  0.50757948  0.88753659  1
  Te2-  Te140  1  0.25148285  0.24780248  0.88369510  1
  Te2-  Te141  1  0.25436774  0.74580358  0.88334166  1
  Te2-  Te142  1  0.75332669  0.24821719  0.88441030  1
  Te2-  Te143  1  0.75776468  0.75179324  0.88034932  1
  Te2-  Te144  1  0.32575849  0.41273372  0.21401500  1
  Te2-  Te145  1  0.33353498  0.91636397  0.21720129  1
  Te2-  Te146  1  0.82813130  0.41441516  0.21931206  1
  Te2-  Te147  1  0.82609097  0.90580886  0.21323498  1
  Te2-  Te148  1  0.08070855  0.17274287  0.21270639  1
  Te2-  Te149  1  0.09117107  0.67689885  0.21708181  1
  Te2-  Te150  1  0.59184376  0.17245330  0.22077949  1
  Te2-  Te151  1  0.58572490  0.66686519  0.21322716  1
  Te2-  Te152  1  0.08508105  0.41643980  0.21535158  1
  Te2-  Te153  1  0.09360520  0.91904621  0.21330697  1
  Te2-  Te154  1  0.58801277  0.40822659  0.21529164  1
  Te2-  Te155  1  0.58631092  0.90881971  0.22177175  1
  Te2-  Te156  1  0.16182362  0.08046920  0.54974996  1
  Te2-  Te157  1  0.16226890  0.58061939  0.54942242  1
  Te2-  Te158  1  0.65473418  0.07941587  0.55242941  1
  Te2-  Te159  1  0.66218470  0.57712770  0.55180585  1
  Te2-  Te160  1  0.41846527  0.33691188  0.54949064  1
  Te2-  Te161  1  0.41681173  0.84065887  0.55285089  1
  Te2-  Te162  1  0.92041974  0.34031552  0.55018440  1
  Te2-  Te163  1  0.91664834  0.83623290  0.54885494  1
  Te2-  Te164  1  0.41704915  0.07590241  0.55375571  1
  Te2-  Te165  1  0.41897343  0.58124797  0.54859233  1
  Te2-  Te166  1  0.91446086  0.08167152  0.54766755  1
  Te2-  Te167  1  0.92457492  0.58191368  0.55028799  1
  Te2-  Te168  1  -0.00133397  0.00112412  0.88101532  1
  Te2-  Te169  1  0.00025238  0.50022402  0.88297661  1
  Te2-  Te170  1  0.49924357  -0.00066602  0.88385207  1
  Te2-  Te171  1  0.49896920  0.50035363  0.88248710  1
  Te2-  Te172  1  0.33239817  0.16680349  0.21509032  1
  Te2-  Te173  1  0.33455544  0.66508983  0.21483666  1
  Te2-  Te174  1  0.83376196  0.16581306  0.21676424  1
  Te2-  Te175  1  0.83414651  0.66795048  0.21445079  1
  Te2-  Te176  1  0.16495675  0.33257017  0.54811648  1
  Te2-  Te177  1  0.16587585  0.83323869  0.54917519  1
  Te2-  Te178  1  0.66524100  0.33328591  0.54979099  1
  Te2-  Te179  1  0.66498537  0.83103408  0.54966659  1
  Te2-  Te180  1  0.32899121  0.41405427  0.71173811  1
  Te2-  Te181  1  0.32413401  0.91159151  0.70981504  1
  Te2-  Te182  1  0.82670005  0.41450849  0.71320588  1
  Te2-  Te183  1  0.82726167  0.91512670  0.70945519  1
  Te2-  Te184  1  0.08492929  0.17221165  0.71075109  1
  Te2-  Te185  1  0.08607090  0.67131586  0.71198669  1
  Te2-  Te186  1  0.58539032  0.17485865  0.71126425  1
  Te2-  Te187  1  0.58589944  0.67154683  0.70850969  1
  Te2-  Te188  1  0.08459888  0.41392810  0.71145129  1
  Te2-  Te189  1  0.08404029  0.91380771  0.71141339  1
  Te2-  Te190  1  0.58531905  0.41121323  0.71212031  1
  Te2-  Te191  1  0.58667236  0.91332071  0.70862958  1
  Te2-  Te192  1  0.16085512  0.08050048  0.04061881  1
  Te2-  Te193  1  0.16232967  0.58238538  0.04439607  1
  Te2-  Te194  1  0.65636167  0.07944758  0.04675511  1
  Te2-  Te195  1  0.66225225  0.58397581  0.04152439  1
  Te2-  Te196  1  0.41922976  0.34277706  0.04028302  1
  Te2-  Te197  1  0.42145970  0.83975678  0.04612215  1
  Te2-  Te198  1  0.91660605  0.33650662  0.04584426  1
  Te2-  Te199  1  0.92091472  0.84061157  0.04017737  1
  Te2-  Te200  1  0.42013804  0.08098524  0.04565307  1
  Te2-  Te201  1  0.41838919  0.58123620  0.04188345  1
  Te2-  Te202  1  0.91802218  0.08104402  0.04167160  1
  Te2-  Te203  1  0.92326722  0.58008949  0.04300919  1
  Te2-  Te204  1  0.49351532  0.24653311  0.37887868  1
  Te2-  Te205  1  0.49291225  0.74291426  0.37789492  1
  Te2-  Te206  1  0.99484824  0.24768604  0.37640954  1
  Te2-  Te207  1  0.99545153  0.74999474  0.37805186  1
  Te2-  Te208  1  0.25366582  0.00602380  0.37857930  1
  Te2-  Te209  1  0.25238933  0.50363158  0.37752380  1
  Te2-  Te210  1  0.75577652  0.00443119  0.37727268  1
  Te2-  Te211  1  0.75070976  0.50758554  0.37810254  1
  Te2-  Te212  1  0.25046954  0.24551849  0.37794534  1
  Te2-  Te213  1  0.25356867  0.74821409  0.37900464  1
  Te2-  Te214  1  0.75750408  0.24912735  0.37659751  1
  Te2-  Te215  1  0.75021432  0.74533815  0.37832948  1
