# generated using pymatgen
data_Ti(CuTe)4
_symmetry_space_group_name_H-M   'P 1'
_cell_length_a   16.85876294
_cell_length_b   16.85852718
_cell_length_c   20.66408380
_cell_angle_alpha   89.96698808
_cell_angle_beta   90.03253001
_cell_angle_gamma   120.01118925
_symmetry_Int_Tables_number   1
_chemical_formula_structural   Ti(CuTe)4
_chemical_formula_sum   'Ti24 Cu96 Te96'
_cell_volume   5085.60994489
_cell_formula_units_Z   24
loop_
 _symmetry_equiv_pos_site_id
 _symmetry_equiv_pos_as_xyz
  1  'x, y, z'
loop_
 _atom_type_symbol
 _atom_type_oxidation_number
  Ti4+  4.0
  Cu+  1.0
  Te2-  -2.0
loop_
 _atom_site_type_symbol
 _atom_site_label
 _atom_site_symmetry_multiplicity
 _atom_site_fract_x
 _atom_site_fract_y
 _atom_site_fract_z
 _atom_site_occupancy
  Ti4+  Ti0  1  0.00326554  0.00384015  0.25693275  1
  Ti4+  Ti1  1  -0.00201358  0.49947889  0.25863610  1
  Ti4+  Ti2  1  0.50383106  0.00303950  0.25780881  1
  Ti4+  Ti3  1  0.50186761  0.50303977  0.25815569  1
  Ti4+  Ti4  1  0.33534396  0.16446489  0.59299321  1
  Ti4+  Ti5  1  0.33112916  0.66467646  0.59145096  1
  Ti4+  Ti6  1  0.83382025  0.16726412  0.59128700  1
  Ti4+  Ti7  1  0.83383306  0.66760885  0.59292371  1
  Ti4+  Ti8  1  0.16393507  0.33242215  0.92488326  1
  Ti4+  Ti9  1  0.16535397  0.83264656  0.92318621  1
  Ti4+  Ti10  1  0.66583328  0.33358835  0.92169801  1
  Ti4+  Ti11  1  0.66124169  0.82871554  0.92330348  1
  Ti4+  Ti12  1  0.00164623  -0.00022211  0.75482383  1
  Ti4+  Ti13  1  -0.00110311  0.49706405  0.75614110  1
  Ti4+  Ti14  1  0.49985914  -0.00034349  0.75548813  1
  Ti4+  Ti15  1  0.49981856  0.50051564  0.75323661  1
  Ti4+  Ti16  1  0.33200323  0.16669901  0.08888746  1
  Ti4+  Ti17  1  0.33562891  0.66538962  0.08886665  1
  Ti4+  Ti18  1  0.83200582  0.16710550  0.08784041  1
  Ti4+  Ti19  1  0.83261298  0.66503620  0.08861204  1
  Ti4+  Ti20  1  0.16721064  0.33640676  0.42491167  1
  Ti4+  Ti21  1  0.16811793  0.83383232  0.42169670  1
  Ti4+  Ti22  1  0.66621685  0.33131565  0.42520062  1
  Ti4+  Ti23  1  0.66831691  0.83332512  0.42300708  1
  Cu+  Cu24  1  0.40298252  0.59328180  0.80589091  1
  Cu+  Cu25  1  0.40392052  0.31938728  0.80873939  1
  Cu+  Cu26  1  0.01223016  0.26206882  0.14649200  1
  Cu+  Cu27  1  0.24511817  0.26508753  0.14349982  1
  Cu+  Cu28  1  0.90972770  0.59208592  0.80853130  1
  Cu+  Cu29  1  0.90076535  0.30464486  0.80733683  1
  Cu+  Cu30  1  0.06866624  0.43129611  0.47505884  1
  Cu+  Cu31  1  0.67849928  0.59374415  0.80899741  1
  Cu+  Cu32  1  0.40611350  0.08929466  0.81079189  1
  Cu+  Cu33  1  0.73868050  0.26475617  0.14050413  1
  Cu+  Cu34  1  0.52915599  0.76584511  0.14069335  1
  Cu+  Cu35  1  0.57047030  0.13934332  0.47646728  1
  Cu+  Cu36  1  0.16414012  0.08665247  0.16946463  1
  Cu+  Cu37  1  0.16529226  0.58205833  0.17162340  1
  Cu+  Cu38  1  0.66191480  0.08761450  0.16838942  1
  Cu+  Cu39  1  0.66440465  0.58219363  0.17083894  1
  Cu+  Cu40  1  0.41761974  0.33697235  0.17208134  1
  Cu+  Cu41  1  0.42333785  0.83435685  0.17116114  1
  Cu+  Cu42  1  0.91532419  0.33923590  0.17049128  1
  Cu+  Cu43  1  0.91878919  0.83591015  0.17147391  1
  Cu+  Cu44  1  0.42183985  0.08494390  0.17125361  1
  Cu+  Cu45  1  0.42619439  0.58802203  0.16881603  1
  Cu+  Cu46  1  0.92371138  0.08555047  0.16822579  1
  Cu+  Cu47  1  0.91887871  0.58296067  0.17134280  1
  Cu+  Cu48  1  0.49782911  0.24235246  0.50746890  1
  Cu+  Cu49  1  0.49812971  0.74590580  0.50643078  1
  Cu+  Cu50  1  0.99922518  0.25589093  0.50625049  1
  Cu+  Cu51  1  0.99886614  0.74836557  0.50569915  1
  Cu+  Cu52  1  0.25347877  0.00202767  0.50457159  1
  Cu+  Cu53  1  0.24602182  0.50301657  0.50641156  1
  Cu+  Cu54  1  0.75334871  0.00133048  0.50484687  1
  Cu+  Cu55  1  0.75177655  0.50409749  0.50880134  1
  Cu+  Cu56  1  0.25401931  0.25026695  0.50790364  1
  Cu+  Cu57  1  0.25160764  0.74821698  0.50369598  1
  Cu+  Cu58  1  0.74747051  0.24354624  0.50527509  1
  Cu+  Cu59  1  0.75148200  0.74788234  0.50637113  1
  Cu+  Cu60  1  0.32825597  0.41738864  0.83538497  1
  Cu+  Cu61  1  0.32948362  0.91585486  0.83740492  1
  Cu+  Cu62  1  0.83175954  0.41307024  0.83581096  1
  Cu+  Cu63  1  0.83286604  0.91679591  0.83649767  1
  Cu+  Cu64  1  0.08323403  0.16766367  0.83788675  1
  Cu+  Cu65  1  0.08302510  0.67010160  0.83705468  1
  Cu+  Cu66  1  0.58231186  0.16872833  0.83557403  1
  Cu+  Cu67  1  0.58140040  0.67260495  0.83347797  1
  Cu+  Cu68  1  0.07584228  0.40567637  0.83635569  1
  Cu+  Cu69  1  0.08476450  0.91362075  0.83517690  1
  Cu+  Cu70  1  0.58421060  0.41411760  0.83065152  1
  Cu+  Cu71  1  0.57956341  0.90979420  0.83747822  1
  Cu+  Cu72  1  0.16900769  0.08369211  0.67398134  1
  Cu+  Cu73  1  0.16774548  0.58118092  0.67625881  1
  Cu+  Cu74  1  0.66854379  0.08165959  0.67559666  1
  Cu+  Cu75  1  0.67075480  0.58725411  0.67951872  1
  Cu+  Cu76  1  0.41675496  0.32870044  0.67926924  1
  Cu+  Cu77  1  0.41649711  0.82953320  0.67324748  1
  Cu+  Cu78  1  0.91593634  0.32835296  0.67915896  1
  Cu+  Cu79  1  0.91743996  0.83281898  0.67340413  1
  Cu+  Cu80  1  0.41828270  0.08575016  0.68153367  1
  Cu+  Cu81  1  0.41216726  0.58375392  0.67741361  1
  Cu+  Cu82  1  0.91956669  0.08689672  0.67341209  1
  Cu+  Cu83  1  0.91444724  0.58484818  0.67950283  1
  Cu+  Cu84  1  -0.00023144  0.24876769  0.01507178  1
  Cu+  Cu85  1  0.00109154  0.74884766  0.00759346  1
  Cu+  Cu86  1  0.49951392  0.24885256  0.00816241  1
  Cu+  Cu87  1  0.50155756  0.74728632  0.01224789  1
  Cu+  Cu88  1  0.24852481  0.49846522  0.00696831  1
  Cu+  Cu89  1  0.24979809  0.99679481  0.00849561  1
  Cu+  Cu90  1  0.75056498  0.49887356  0.00756911  1
  Cu+  Cu91  1  0.74566413  0.99622751  0.00647127  1
  Cu+  Cu92  1  0.24748216  0.25095804  0.01428195  1
  Cu+  Cu93  1  0.24679386  0.74900881  0.00634773  1
  Cu+  Cu94  1  0.74690565  0.25039342  0.01221397  1
  Cu+  Cu95  1  0.74623646  0.74657099  0.00740132  1
  Cu+  Cu96  1  0.33670885  0.41994227  0.34242005  1
  Cu+  Cu97  1  0.33659505  0.91818164  0.33985070  1
  Cu+  Cu98  1  0.83284709  0.41715527  0.34413550  1
  Cu+  Cu99  1  0.83864423  0.91848547  0.33992626  1
  Cu+  Cu100  1  0.08589848  0.16722105  0.34462721  1
  Cu+  Cu101  1  0.08328372  0.66571571  0.34124901  1
  Cu+  Cu102  1  0.58327214  0.16474563  0.34783928  1
  Cu+  Cu103  1  0.58405352  0.66620201  0.34242553  1
  Cu+  Cu104  1  0.08124841  0.41929490  0.34745262  1
  Cu+  Cu105  1  0.08467817  0.91961204  0.33977085  1
  Cu+  Cu106  1  0.58255761  0.41906015  0.34304565  1
  Cu+  Cu107  1  0.58509378  0.91822306  0.34214179  1
  Cu+  Cu108  1  -0.00136096  -0.00606457  0.11283543  1
  Cu+  Cu109  1  0.00348035  0.50607195  0.11437131  1
  Cu+  Cu110  1  0.49264158  -0.00548579  0.11394393  1
  Cu+  Cu111  1  0.50183432  0.49785630  0.11277420  1
  Cu+  Cu112  1  0.33128879  0.16671104  0.45044699  1
  Cu+  Cu113  1  0.33728282  0.67067016  0.44857733  1
  Cu+  Cu114  1  0.83558278  0.16343229  0.44846681  1
  Cu+  Cu115  1  0.83659570  0.67011264  0.45082358  1
  Cu+  Cu116  1  0.16557365  0.33102559  0.78051757  1
  Cu+  Cu117  1  0.16844679  0.83273711  0.77759903  1
  Cu+  Cu118  1  0.66828946  0.33223208  0.77700544  1
  Cu+  Cu119  1  0.67336077  0.84100733  0.77996685  1
  Te2-  Te120  1  0.00262455  0.00134966  0.38593341  1
  Te2-  Te121  1  -0.00271371  0.50290514  0.38914356  1
  Te2-  Te122  1  0.49950043  -0.00326826  0.38828932  1
  Te2-  Te123  1  0.50097809  0.50204616  0.38749390  1
  Te2-  Te124  1  0.33043533  0.16414187  0.72579641  1
  Te2-  Te125  1  0.33065332  0.66774502  0.72254317  1
  Te2-  Te126  1  0.83200207  0.16156888  0.72208169  1
  Te2-  Te127  1  0.83561422  0.67144509  0.72552124  1
  Te2-  Te128  1  0.16621092  0.33634060  0.05703476  1
  Te2-  Te129  1  0.16571299  0.83180389  0.05243417  1
  Te2-  Te130  1  0.66390489  0.33464893  0.05198011  1
  Te2-  Te131  1  0.66909969  0.83312278  0.05359934  1
  Te2-  Te132  1  0.49019180  0.24711430  0.88210653  1
  Te2-  Te133  1  0.48652768  0.74328661  0.88465985  1
  Te2-  Te134  1  0.98978757  0.24042872  0.88697646  1
  Te2-  Te135  1  0.99117258  0.74765468  0.88215175  1
  Te2-  Te136  1  0.25045798  0.00692800  0.88281131  1
  Te2-  Te137  1  0.24560374  0.50394925  0.88085306  1
  Te2-  Te138  1  0.74757842  -0.00045302  0.88093010  1
  Te2-  Te139  1  0.75317424  0.50780111  0.88103343  1
  Te2-  Te140  1  0.25125675  0.24742673  0.88563192  1
  Te2-  Te141  1  0.25091571  0.74732081  0.88029280  1
  Te2-  Te142  1  0.74940860  0.24352329  0.88414808  1
  Te2-  Te143  1  0.75208634  0.74733556  0.88118565  1
  Te2-  Te144  1  0.32911029  0.42054296  0.21610641  1
  Te2-  Te145  1  0.33440048  0.91539538  0.21360460  1
  Te2-  Te146  1  0.82396857  0.41586182  0.21761680  1
  Te2-  Te147  1  0.83220873  0.91861960  0.21390064  1
  Te2-  Te148  1  0.09111592  0.18171328  0.21783597  1
  Te2-  Te149  1  0.08608016  0.67013751  0.21569041  1
  Te2-  Te150  1  0.58730417  0.17831959  0.21978812  1
  Te2-  Te151  1  0.59333083  0.67753003  0.21656717  1
  Te2-  Te152  1  0.08711497  0.41541818  0.21931250  1
  Te2-  Te153  1  0.08840749  0.91836721  0.21361980  1
  Te2-  Te154  1  0.58504853  0.41483127  0.21671575  1
  Te2-  Te155  1  0.59401961  0.92030626  0.21552095  1
  Te2-  Te156  1  0.16501018  0.08123249  0.54858790  1
  Te2-  Te157  1  0.15650758  0.58232461  0.55085728  1
  Te2-  Te158  1  0.65962279  0.07433834  0.55010279  1
  Te2-  Te159  1  0.66148583  0.58149577  0.55272599  1
  Te2-  Te160  1  0.42215593  0.33552899  0.55207392  1
  Te2-  Te161  1  0.41897155  0.83576203  0.54789458  1
  Te2-  Te162  1  0.91545972  0.34134223  0.55185041  1
  Te2-  Te163  1  0.92001113  0.83790464  0.54810067  1
  Te2-  Te164  1  0.41860387  0.07378064  0.55385951  1
  Te2-  Te165  1  0.41490236  0.57704526  0.55057090  1
  Te2-  Te166  1  0.92207070  0.08591815  0.54761152  1
  Te2-  Te167  1  0.91950057  0.58139725  0.55258699  1
  Te2-  Te168  1  0.00026237  -0.00190847  0.88162358  1
  Te2-  Te169  1  0.00057495  0.49971550  0.88376904  1
  Te2-  Te170  1  0.49932176  -0.00098755  0.88287941  1
  Te2-  Te171  1  0.50028437  0.49986880  0.88154536  1
  Te2-  Te172  1  0.33392706  0.16665915  0.21604858  1
  Te2-  Te173  1  0.33470316  0.66586707  0.21601612  1
  Te2-  Te174  1  0.83384839  0.16678047  0.21520159  1
  Te2-  Te175  1  0.83413956  0.66726073  0.21526644  1
  Te2-  Te176  1  0.16808339  0.33330369  0.55192287  1
  Te2-  Te177  1  0.16782302  0.83292806  0.54843772  1
  Te2-  Te178  1  0.66784968  0.33330019  0.55211619  1
  Te2-  Te179  1  0.66751423  0.83270644  0.54979439  1
  Te2-  Te180  1  0.32524437  0.41060668  0.70778453  1
  Te2-  Te181  1  0.32791125  0.91122061  0.70930084  1
  Te2-  Te182  1  0.82617063  0.41178721  0.70824476  1
  Te2-  Te183  1  0.83024364  0.91598632  0.70907229  1
  Te2-  Te184  1  0.08829799  0.17259973  0.71102485  1
  Te2-  Te185  1  0.08682311  0.67054979  0.71017679  1
  Te2-  Te186  1  0.59074863  0.17328497  0.70923535  1
  Te2-  Te187  1  0.58559537  0.67528751  0.70710425  1
  Te2-  Te188  1  0.08743216  0.41197773  0.71005397  1
  Te2-  Te189  1  0.08747988  0.91341623  0.70902480  1
  Te2-  Te190  1  0.58921925  0.41413066  0.70534223  1
  Te2-  Te191  1  0.58491769  0.91206516  0.71106431  1
  Te2-  Te192  1  0.15934024  0.07746695  0.04253392  1
  Te2-  Te193  1  0.16236943  0.58065678  0.04481585  1
  Te2-  Te194  1  0.65814145  0.07773086  0.04241341  1
  Te2-  Te195  1  0.66002920  0.57788701  0.04371926  1
  Te2-  Te196  1  0.42079104  0.33963052  0.04348515  1
  Te2-  Te197  1  0.41724998  0.83686314  0.04277110  1
  Te2-  Te198  1  0.91976254  0.34226054  0.04285769  1
  Te2-  Te199  1  0.91732982  0.83584592  0.04325106  1
  Te2-  Te200  1  0.41901966  0.08058117  0.04459916  1
  Te2-  Te201  1  0.41793280  0.57483002  0.04211188  1
  Te2-  Te202  1  0.91532449  0.07605101  0.04216332  1
  Te2-  Te203  1  0.91962214  0.57951443  0.04409740  1
  Te2-  Te204  1  0.49394165  0.24861927  0.37993222  1
  Te2-  Te205  1  0.49629405  0.74813436  0.37875116  1
  Te2-  Te206  1  0.99493953  0.24681836  0.37876184  1
  Te2-  Te207  1  0.99617029  0.74890216  0.37788934  1
  Te2-  Te208  1  0.25481997  0.00610020  0.37757561  1
  Te2-  Te209  1  0.25486525  0.50840019  0.37884637  1
  Te2-  Te210  1  0.75524844  0.00495694  0.37785479  1
  Te2-  Te211  1  0.75133214  0.50456967  0.38206376  1
  Te2-  Te212  1  0.25498588  0.25130719  0.38087265  1
  Te2-  Te213  1  0.25380395  0.74760826  0.37666240  1
  Te2-  Te214  1  0.75577396  0.24770678  0.37887657  1
  Te2-  Te215  1  0.75479844  0.74833936  0.37870396  1
