# generated using pymatgen
data_Ti(CuTe)4
_symmetry_space_group_name_H-M   'P 1'
_cell_length_a   16.88960512
_cell_length_b   16.89199140
_cell_length_c   20.71062607
_cell_angle_alpha   90.03147243
_cell_angle_beta   89.98725616
_cell_angle_gamma   119.99216635
_symmetry_Int_Tables_number   1
_chemical_formula_structural   Ti(CuTe)4
_chemical_formula_sum   'Ti24 Cu96 Te96'
_cell_volume   5117.50666558
_cell_formula_units_Z   24
loop_
 _symmetry_equiv_pos_site_id
 _symmetry_equiv_pos_as_xyz
  1  'x, y, z'
loop_
 _atom_type_symbol
 _atom_type_oxidation_number
  Ti4+  4.0
  Cu+  1.0
  Te2-  -2.0
loop_
 _atom_site_type_symbol
 _atom_site_label
 _atom_site_symmetry_multiplicity
 _atom_site_fract_x
 _atom_site_fract_y
 _atom_site_fract_z
 _atom_site_occupancy
  Ti4+  Ti0  1  0.00105080  -0.00014003  0.26096365  1
  Ti4+  Ti1  1  0.00108850  0.50284989  0.25663401  1
  Ti4+  Ti2  1  0.49976151  0.00183122  0.26235862  1
  Ti4+  Ti3  1  0.49998105  0.50099401  0.25695731  1
  Ti4+  Ti4  1  0.33459742  0.16543287  0.59072411  1
  Ti4+  Ti5  1  0.33728298  0.66750836  0.58806747  1
  Ti4+  Ti6  1  0.83726051  0.16772024  0.58802396  1
  Ti4+  Ti7  1  0.83381243  0.66466388  0.59240934  1
  Ti4+  Ti8  1  0.16443372  0.33059774  0.92178297  1
  Ti4+  Ti9  1  0.16122049  0.83064445  0.92610474  1
  Ti4+  Ti10  1  0.66250070  0.33140860  0.92410705  1
  Ti4+  Ti11  1  0.66666698  0.83604176  0.92473031  1
  Ti4+  Ti12  1  -0.00112151  0.00052712  0.75467567  1
  Ti4+  Ti13  1  0.00080878  0.50117842  0.75486193  1
  Ti4+  Ti14  1  0.50137564  -0.00054397  0.75550454  1
  Ti4+  Ti15  1  0.49983328  0.49666924  0.75426510  1
  Ti4+  Ti16  1  0.33116533  0.16631354  0.09039295  1
  Ti4+  Ti17  1  0.33230614  0.66626291  0.08818676  1
  Ti4+  Ti18  1  0.83136005  0.16679410  0.09149320  1
  Ti4+  Ti19  1  0.83300348  0.66701792  0.08947266  1
  Ti4+  Ti20  1  0.16613941  0.33290229  0.42024229  1
  Ti4+  Ti21  1  0.16800423  0.83546910  0.42253829  1
  Ti4+  Ti22  1  0.67011685  0.33645993  0.42124879  1
  Ti4+  Ti23  1  0.66643008  0.83185676  0.41924164  1
  Cu+  Cu24  1  0.58217557  0.15994395  0.48030413  1
  Cu+  Cu25  1  0.90626112  0.82221121  0.81413739  1
  Cu+  Cu26  1  0.34821443  0.92334718  0.47831559  1
  Cu+  Cu27  1  0.02128658  0.76266268  0.14440523  1
  Cu+  Cu28  1  0.84815134  0.91754923  0.47587366  1
  Cu+  Cu29  1  0.08041061  0.14924055  0.47588969  1
  Cu+  Cu30  1  0.40229557  0.30607152  0.80718168  1
  Cu+  Cu31  1  0.58183685  0.91985205  0.48120374  1
  Cu+  Cu32  1  0.57463783  0.64419837  0.47214506  1
  Cu+  Cu33  1  0.90308505  0.58713143  0.81200914  1
  Cu+  Cu34  1  0.86150593  0.43162016  0.47104864  1
  Cu+  Cu35  1  0.90338479  0.09438550  0.80807055  1
  Cu+  Cu36  1  0.16364084  0.08360466  0.17339768  1
  Cu+  Cu37  1  0.16353008  0.58249460  0.16916990  1
  Cu+  Cu38  1  0.66252742  0.08340921  0.17615156  1
  Cu+  Cu39  1  0.66239798  0.58296898  0.17195124  1
  Cu+  Cu40  1  0.41827263  0.33720335  0.17135931  1
  Cu+  Cu41  1  0.41629498  0.83596693  0.17401063  1
  Cu+  Cu42  1  0.91522817  0.33692525  0.17241256  1
  Cu+  Cu43  1  0.92173005  0.83701420  0.17332829  1
  Cu+  Cu44  1  0.41723772  0.08319855  0.17511668  1
  Cu+  Cu45  1  0.41930734  0.58363709  0.17071642  1
  Cu+  Cu46  1  0.91741611  0.08326318  0.17609704  1
  Cu+  Cu47  1  0.92201665  0.58622133  0.17056610  1
  Cu+  Cu48  1  0.49765053  0.24905298  0.50341025  1
  Cu+  Cu49  1  0.49479891  0.74343946  0.49874827  1
  Cu+  Cu50  1  0.99836100  0.24423778  0.50028626  1
  Cu+  Cu51  1  0.99721667  0.74772049  0.50554701  1
  Cu+  Cu52  1  0.25581318  0.00481732  0.50322255  1
  Cu+  Cu53  1  0.25320304  0.50362677  0.50142506  1
  Cu+  Cu54  1  0.75828788  0.00564323  0.49846944  1
  Cu+  Cu55  1  0.75916479  0.50369111  0.50319257  1
  Cu+  Cu56  1  0.25128848  0.24726053  0.50473921  1
  Cu+  Cu57  1  0.25477837  0.75118375  0.50229508  1
  Cu+  Cu58  1  0.75792828  0.25404850  0.50014889  1
  Cu+  Cu59  1  0.75066182  0.74436083  0.50312970  1
  Cu+  Cu60  1  0.33032835  0.40855134  0.83529972  1
  Cu+  Cu61  1  0.33038734  0.91533101  0.83984880  1
  Cu+  Cu62  1  0.82850428  0.41547607  0.83792273  1
  Cu+  Cu63  1  0.82672505  0.91777649  0.83666618  1
  Cu+  Cu64  1  0.08029368  0.17188904  0.83421290  1
  Cu+  Cu65  1  0.07830424  0.66869652  0.83734349  1
  Cu+  Cu66  1  0.58398517  0.16849486  0.83713841  1
  Cu+  Cu67  1  0.58307778  0.66846791  0.83742913  1
  Cu+  Cu68  1  0.08404107  0.41434487  0.83608313  1
  Cu+  Cu69  1  0.08027157  0.91059243  0.83788539  1
  Cu+  Cu70  1  0.57786397  0.40735466  0.83563200  1
  Cu+  Cu71  1  0.58637947  0.91717945  0.83767029  1
  Cu+  Cu72  1  0.16927675  0.08394469  0.67570442  1
  Cu+  Cu73  1  0.17322403  0.58788786  0.67269042  1
  Cu+  Cu74  1  0.67002110  0.08349563  0.67472334  1
  Cu+  Cu75  1  0.66835127  0.58189284  0.67470148  1
  Cu+  Cu76  1  0.41533469  0.32743611  0.67743666  1
  Cu+  Cu77  1  0.41871813  0.83179645  0.67497966  1
  Cu+  Cu78  1  0.91957390  0.33394764  0.67254695  1
  Cu+  Cu79  1  0.91468169  0.83042103  0.68218816  1
  Cu+  Cu80  1  0.41802398  0.08226581  0.67708023  1
  Cu+  Cu81  1  0.41869210  0.58446777  0.67229693  1
  Cu+  Cu82  1  0.91730366  0.08430557  0.67872143  1
  Cu+  Cu83  1  0.91721419  0.58487902  0.68165648  1
  Cu+  Cu84  1  -0.00013964  0.24979569  0.00832730  1
  Cu+  Cu85  1  -0.00090603  0.74961734  0.01466309  1
  Cu+  Cu86  1  0.49786448  0.24831122  0.00922779  1
  Cu+  Cu87  1  0.50171988  0.75305309  0.00828406  1
  Cu+  Cu88  1  0.24914625  0.49602150  0.00506892  1
  Cu+  Cu89  1  0.24519173  0.99619063  0.01080913  1
  Cu+  Cu90  1  0.74450101  0.49593549  0.00822803  1
  Cu+  Cu91  1  0.74849363  0.99975376  0.01065888  1
  Cu+  Cu92  1  0.24670090  0.24906965  0.00702935  1
  Cu+  Cu93  1  0.24665707  0.74937851  0.00901513  1
  Cu+  Cu94  1  0.74508824  0.25022518  0.00885801  1
  Cu+  Cu95  1  0.74788954  0.75324317  0.00959831  1
  Cu+  Cu96  1  0.33575882  0.41883196  0.33934356  1
  Cu+  Cu97  1  0.33718725  0.92124780  0.34811731  1
  Cu+  Cu98  1  0.83981240  0.42403005  0.34316714  1
  Cu+  Cu99  1  0.83701066  0.91720240  0.34583645  1
  Cu+  Cu100  1  0.08112369  0.16290122  0.34744461  1
  Cu+  Cu101  1  0.08192588  0.66755604  0.34074212  1
  Cu+  Cu102  1  0.58285632  0.16664646  0.34849113  1
  Cu+  Cu103  1  0.58108723  0.66234661  0.34355828  1
  Cu+  Cu104  1  0.08183917  0.41903547  0.33906772  1
  Cu+  Cu105  1  0.08249962  0.91715534  0.34421306  1
  Cu+  Cu106  1  0.58401558  0.42163931  0.34004233  1
  Cu+  Cu107  1  0.58067621  0.91806465  0.34801984  1
  Cu+  Cu108  1  -0.00196127  0.00271858  0.11837789  1
  Cu+  Cu109  1  -0.00024792  0.49724986  0.11310920  1
  Cu+  Cu110  1  0.49778472  -0.00058629  0.11980002  1
  Cu+  Cu111  1  0.49826679  0.49948871  0.11374140  1
  Cu+  Cu112  1  0.33613667  0.17191086  0.44674699  1
  Cu+  Cu113  1  0.32695159  0.66261425  0.44281679  1
  Cu+  Cu114  1  0.83469180  0.16873718  0.44196166  1
  Cu+  Cu115  1  0.83639051  0.66669036  0.44684727  1
  Cu+  Cu116  1  0.16975000  0.34018468  0.77779902  1
  Cu+  Cu117  1  0.17053132  0.83430333  0.78346323  1
  Cu+  Cu118  1  0.66861445  0.33110738  0.78030476  1
  Cu+  Cu119  1  0.65986307  0.82806938  0.78093541  1
  Te2-  Te120  1  0.00100422  -0.00236580  0.39353035  1
  Te2-  Te121  1  0.00559902  0.50479549  0.38770327  1
  Te2-  Te122  1  0.50189972  0.00258610  0.39612921  1
  Te2-  Te123  1  0.49783012  0.49701185  0.38849219  1
  Te2-  Te124  1  0.33267512  0.16159866  0.72075557  1
  Te2-  Te125  1  0.33703023  0.66677952  0.71673755  1
  Te2-  Te126  1  0.83487294  0.16968399  0.71787367  1
  Te2-  Te127  1  0.83031495  0.66428222  0.72412500  1
  Te2-  Te128  1  0.16523678  0.33232826  0.05037893  1
  Te2-  Te129  1  0.16589722  0.83217509  0.05603996  1
  Te2-  Te130  1  0.66251749  0.33200100  0.05293325  1
  Te2-  Te131  1  0.66547023  0.83504917  0.05364999  1
  Te2-  Te132  1  0.48850502  0.23977458  0.88315370  1
  Te2-  Te133  1  0.49584871  0.74935853  0.88191861  1
  Te2-  Te134  1  0.98936552  0.24796695  0.88239376  1
  Te2-  Te135  1  0.98421169  0.74253267  0.88676239  1
  Te2-  Te136  1  0.24705535  0.00110950  0.88409661  1
  Te2-  Te137  1  0.25302296  0.50094370  0.87866582  1
  Te2-  Te138  1  0.75204706  0.01040334  0.88450856  1
  Te2-  Te139  1  0.74554620  0.50439450  0.88215067  1
  Te2-  Te140  1  0.24694227  0.23918588  0.88118456  1
  Te2-  Te141  1  0.24633217  0.74600259  0.88270094  1
  Te2-  Te142  1  0.75083032  0.24829795  0.88265001  1
  Te2-  Te143  1  0.75046444  0.74648311  0.88351852  1
  Te2-  Te144  1  0.32866148  0.41566396  0.21415017  1
  Te2-  Te145  1  0.32906261  0.91595167  0.22092312  1
  Te2-  Te146  1  0.82948082  0.41907845  0.21666273  1
  Te2-  Te147  1  0.83065848  0.91390923  0.21864194  1
  Te2-  Te148  1  0.08528301  0.17112098  0.22056613  1
  Te2-  Te149  1  0.09109088  0.67665820  0.21559563  1
  Te2-  Te150  1  0.58444903  0.17282173  0.22119872  1
  Te2-  Te151  1  0.58616058  0.67344746  0.21724548  1
  Te2-  Te152  1  0.08436764  0.41524039  0.21363060  1
  Te2-  Te153  1  0.09102906  0.91651533  0.21868995  1
  Te2-  Te154  1  0.58639531  0.41546512  0.21493842  1
  Te2-  Te155  1  0.58376689  0.91531062  0.22021413  1
  Te2-  Te156  1  0.16159374  0.07629889  0.55003598  1
  Te2-  Te157  1  0.16617062  0.58429539  0.54647873  1
  Te2-  Te158  1  0.66304461  0.08089337  0.54807336  1
  Te2-  Te159  1  0.66210697  0.57555004  0.54852410  1
  Te2-  Te160  1  0.41866461  0.33608611  0.55003118  1
  Te2-  Te161  1  0.42540973  0.84403284  0.54929173  1
  Te2-  Te162  1  0.92580650  0.33979679  0.54647123  1
  Te2-  Te163  1  0.92047036  0.83761941  0.55336461  1
  Te2-  Te164  1  0.42442965  0.07914819  0.55112315  1
  Te2-  Te165  1  0.42052159  0.57711498  0.54677802  1
  Te2-  Te166  1  0.92305069  0.07720612  0.55073262  1
  Te2-  Te167  1  0.92504608  0.58183340  0.55336681  1
  Te2-  Te168  1  -0.00120490  0.00128014  0.88186445  1
  Te2-  Te169  1  -0.00105324  0.49844475  0.88180851  1
  Te2-  Te170  1  0.49976899  -0.00022605  0.88177595  1
  Te2-  Te171  1  0.49900588  0.49866914  0.88099260  1
  Te2-  Te172  1  0.33313192  0.16899131  0.21674139  1
  Te2-  Te173  1  0.33224449  0.66581422  0.21452384  1
  Te2-  Te174  1  0.83289469  0.16876767  0.21783552  1
  Te2-  Te175  1  0.83250656  0.66648287  0.21609023  1
  Te2-  Te176  1  0.16771515  0.33463509  0.54712034  1
  Te2-  Te177  1  0.16819190  0.83422239  0.54950065  1
  Te2-  Te178  1  0.66802365  0.33368062  0.54914549  1
  Te2-  Te179  1  0.66738657  0.83394111  0.54790266  1
  Te2-  Te180  1  0.32860803  0.41379166  0.70778151  1
  Te2-  Te181  1  0.32924600  0.91230509  0.71255047  1
  Te2-  Te182  1  0.82793296  0.41164001  0.70974433  1
  Te2-  Te183  1  0.82392682  0.91239604  0.70934042  1
  Te2-  Te184  1  0.08952200  0.17429256  0.70871178  1
  Te2-  Te185  1  0.09017428  0.67436814  0.71065046  1
  Te2-  Te186  1  0.58820670  0.17150875  0.71078256  1
  Te2-  Te187  1  0.58680448  0.66978321  0.71072833  1
  Te2-  Te188  1  0.08866308  0.41767964  0.70935147  1
  Te2-  Te189  1  0.08750469  0.91416314  0.71154422  1
  Te2-  Te190  1  0.58790171  0.41156863  0.70910647  1
  Te2-  Te191  1  0.58824837  0.91421007  0.71101525  1
  Te2-  Te192  1  0.15889180  0.08017054  0.04703353  1
  Te2-  Te193  1  0.16095316  0.57848975  0.04283420  1
  Te2-  Te194  1  0.65955755  0.08106866  0.04892794  1
  Te2-  Te195  1  0.66093836  0.58237697  0.04558799  1
  Te2-  Te196  1  0.41641829  0.33712981  0.04467154  1
  Te2-  Te197  1  0.41716756  0.83880322  0.04654514  1
  Te2-  Te198  1  0.91589363  0.33659080  0.04523918  1
  Te2-  Te199  1  0.91766595  0.84069525  0.04616132  1
  Te2-  Te200  1  0.41593362  0.07868705  0.04798793  1
  Te2-  Te201  1  0.41902070  0.58175466  0.04365506  1
  Te2-  Te202  1  0.91788856  0.08146286  0.04854834  1
  Te2-  Te203  1  0.91507331  0.57646778  0.04383191  1
  Te2-  Te204  1  0.49591808  0.25220583  0.37697797  1
  Te2-  Te205  1  0.49117377  0.74522381  0.37304728  1
  Te2-  Te206  1  0.99368183  0.24907884  0.37409264  1
  Te2-  Te207  1  0.99469037  0.74798796  0.37949041  1
  Te2-  Te208  1  0.25303047  0.00948912  0.37744632  1
  Te2-  Te209  1  0.25172050  0.50437477  0.37506893  1
  Te2-  Te210  1  0.75402266  0.00743914  0.37256111  1
  Te2-  Te211  1  0.75353658  0.50918754  0.37660618  1
  Te2-  Te212  1  0.25495598  0.24894815  0.37671147  1
  Te2-  Te213  1  0.25244301  0.74791468  0.37547338  1
  Te2-  Te214  1  0.75669119  0.25041997  0.37316524  1
  Te2-  Te215  1  0.75371509  0.74458495  0.37558737  1
