# generated using pymatgen
data_Ti(CuTe)4
_symmetry_space_group_name_H-M   'P 1'
_cell_length_a   16.89048415
_cell_length_b   16.89164882
_cell_length_c   20.70633149
_cell_angle_alpha   89.96907047
_cell_angle_beta   90.06039002
_cell_angle_gamma   120.01179908
_symmetry_Int_Tables_number   1
_chemical_formula_structural   Ti(CuTe)4
_chemical_formula_sum   'Ti24 Cu96 Te96'
_cell_volume   5115.59373781
_cell_formula_units_Z   24
loop_
 _symmetry_equiv_pos_site_id
 _symmetry_equiv_pos_as_xyz
  1  'x, y, z'
loop_
 _atom_type_symbol
 _atom_type_oxidation_number
  Ti4+  4.0
  Cu+  1.0
  Te2-  -2.0
loop_
 _atom_site_type_symbol
 _atom_site_label
 _atom_site_symmetry_multiplicity
 _atom_site_fract_x
 _atom_site_fract_y
 _atom_site_fract_z
 _atom_site_occupancy
  Ti4+  Ti0  1  -0.00183810  -0.00137922  0.25349620  1
  Ti4+  Ti1  1  -0.00147085  0.49752743  0.25835292  1
  Ti4+  Ti2  1  0.49894057  -0.00118145  0.25791344  1
  Ti4+  Ti3  1  0.50139674  0.49967897  0.26334658  1
  Ti4+  Ti4  1  0.33341854  0.16604246  0.58757996  1
  Ti4+  Ti5  1  0.33301922  0.66553575  0.59201810  1
  Ti4+  Ti6  1  0.82951981  0.16254758  0.59118967  1
  Ti4+  Ti7  1  0.83437414  0.66394163  0.59130510  1
  Ti4+  Ti8  1  0.16717669  0.33740345  0.92112412  1
  Ti4+  Ti9  1  0.16779974  0.83516058  0.92145436  1
  Ti4+  Ti10  1  0.66762199  0.33755375  0.92652860  1
  Ti4+  Ti11  1  0.66750183  0.83590091  0.92747019  1
  Ti4+  Ti12  1  -0.00062732  0.00062575  0.75403617  1
  Ti4+  Ti13  1  0.00039980  0.50052996  0.75368173  1
  Ti4+  Ti14  1  0.49994180  -0.00129052  0.75577448  1
  Ti4+  Ti15  1  0.50048833  0.49915863  0.75704133  1
  Ti4+  Ti16  1  0.33341603  0.16851266  0.08770082  1
  Ti4+  Ti17  1  0.33417110  0.66844338  0.09171813  1
  Ti4+  Ti18  1  0.83424704  0.16765071  0.08707275  1
  Ti4+  Ti19  1  0.83459221  0.66720816  0.08888057  1
  Ti4+  Ti20  1  0.16759538  0.33184296  0.42103222  1
  Ti4+  Ti21  1  0.16489670  0.82959632  0.42102852  1
  Ti4+  Ti22  1  0.66668151  0.33221311  0.42071597  1
  Ti4+  Ti23  1  0.66731697  0.83507709  0.42288555  1
  Cu+  Cu24  1  0.90456563  0.09609676  0.80769838  1
  Cu+  Cu25  1  0.07059774  0.63887952  0.47365575  1
  Cu+  Cu26  1  0.18102204  0.59530396  0.81074800  1
  Cu+  Cu27  1  0.57970249  0.42077392  0.48210294  1
  Cu+  Cu28  1  0.57053139  0.92837391  0.47393734  1
  Cu+  Cu29  1  0.34449902  0.42208061  0.48274801  1
  Cu+  Cu30  1  0.58008206  0.65870384  0.48418738  1
  Cu+  Cu31  1  0.41395808  0.59774142  0.81245862  1
  Cu+  Cu32  1  0.73841502  0.98504074  0.14417653  1
  Cu+  Cu33  1  0.90666105  0.59448061  0.80925445  1
  Cu+  Cu34  1  0.73932403  0.47907926  0.14482206  1
  Cu+  Cu35  1  0.73669957  0.75090163  0.14437968  1
  Cu+  Cu36  1  0.16276585  0.08135985  0.16766779  1
  Cu+  Cu37  1  0.16437270  0.58376152  0.17414785  1
  Cu+  Cu38  1  0.66231643  0.07932730  0.17093241  1
  Cu+  Cu39  1  0.66251952  0.57861912  0.17405232  1
  Cu+  Cu40  1  0.41702563  0.33484566  0.17386062  1
  Cu+  Cu41  1  0.41868616  0.83680295  0.17273640  1
  Cu+  Cu42  1  0.91917473  0.33670343  0.17014749  1
  Cu+  Cu43  1  0.91422024  0.83705338  0.16736344  1
  Cu+  Cu44  1  0.41641137  0.08191572  0.17099051  1
  Cu+  Cu45  1  0.41742473  0.58253785  0.17640709  1
  Cu+  Cu46  1  0.91444197  0.07750197  0.16636346  1
  Cu+  Cu47  1  0.91551418  0.57679243  0.17126146  1
  Cu+  Cu48  1  0.49493066  0.24702433  0.50058798  1
  Cu+  Cu49  1  0.49736938  0.75118748  0.50385248  1
  Cu+  Cu50  1  0.99622188  0.24319053  0.50522818  1
  Cu+  Cu51  1  0.99837927  0.74144804  0.50416939  1
  Cu+  Cu52  1  0.25105046  0.00184334  0.50189459  1
  Cu+  Cu53  1  0.25287842  0.50293626  0.50415257  1
  Cu+  Cu54  1  0.74651349  0.00316821  0.50421631  1
  Cu+  Cu55  1  0.75340587  0.50407207  0.50308853  1
  Cu+  Cu56  1  0.25471603  0.24814639  0.50048477  1
  Cu+  Cu57  1  0.24556995  0.74247232  0.50370980  1
  Cu+  Cu58  1  0.74905990  0.24400366  0.50336980  1
  Cu+  Cu59  1  0.75310022  0.74747484  0.50462307  1
  Cu+  Cu60  1  0.33191803  0.42139968  0.83558740  1
  Cu+  Cu61  1  0.33128918  0.91578393  0.83536972  1
  Cu+  Cu62  1  0.83026730  0.42181475  0.83823435  1
  Cu+  Cu63  1  0.83245997  0.92111611  0.83963463  1
  Cu+  Cu64  1  0.08029367  0.17067966  0.83480359  1
  Cu+  Cu65  1  0.08500337  0.67334964  0.83449305  1
  Cu+  Cu66  1  0.58326710  0.16920794  0.83993225  1
  Cu+  Cu67  1  0.58526156  0.67088408  0.84161139  1
  Cu+  Cu68  1  0.09147304  0.41965973  0.83287829  1
  Cu+  Cu69  1  0.08624732  0.91685287  0.83470994  1
  Cu+  Cu70  1  0.58803774  0.41752079  0.83979915  1
  Cu+  Cu71  1  0.58550095  0.91610443  0.83890814  1
  Cu+  Cu72  1  0.16950900  0.08498992  0.67010075  1
  Cu+  Cu73  1  0.16869105  0.58199259  0.68028092  1
  Cu+  Cu74  1  0.66510279  0.08012517  0.67637496  1
  Cu+  Cu75  1  0.66823037  0.58077768  0.67852446  1
  Cu+  Cu76  1  0.41822757  0.32976435  0.67555439  1
  Cu+  Cu77  1  0.41733359  0.83142352  0.67571513  1
  Cu+  Cu78  1  0.91281130  0.32719272  0.67401352  1
  Cu+  Cu79  1  0.91577799  0.82943263  0.67394649  1
  Cu+  Cu80  1  0.41614522  0.08469197  0.67147673  1
  Cu+  Cu81  1  0.41775349  0.58406192  0.68265741  1
  Cu+  Cu82  1  0.91115795  0.08190075  0.67796859  1
  Cu+  Cu83  1  0.91539355  0.58307504  0.67930413  1
  Cu+  Cu84  1  0.00379099  0.25505842  0.00561457  1
  Cu+  Cu85  1  0.00523671  0.75130599  0.00622443  1
  Cu+  Cu86  1  0.50284103  0.25515646  0.01024756  1
  Cu+  Cu87  1  0.50147942  0.75116256  0.01285351  1
  Cu+  Cu88  1  0.25140714  0.50230239  0.00955752  1
  Cu+  Cu89  1  0.25067069  0.99994091  0.00477864  1
  Cu+  Cu90  1  0.75075600  0.49989180  0.01498398  1
  Cu+  Cu91  1  0.75020050  0.99968179  0.01402403  1
  Cu+  Cu92  1  0.25057912  0.25547572  0.00432084  1
  Cu+  Cu93  1  0.24993325  0.75243450  0.00764604  1
  Cu+  Cu94  1  0.75013932  0.25530070  0.00873259  1
  Cu+  Cu95  1  0.75059686  0.75418322  0.01401435  1
  Cu+  Cu96  1  0.33769731  0.41764672  0.35052016  1
  Cu+  Cu97  1  0.33414766  0.91465642  0.34085285  1
  Cu+  Cu98  1  0.83467795  0.41547402  0.34219919  1
  Cu+  Cu99  1  0.83606103  0.91958662  0.34047687  1
  Cu+  Cu100  1  0.08130609  0.16269775  0.33642644  1
  Cu+  Cu101  1  0.07881503  0.65915469  0.34536534  1
  Cu+  Cu102  1  0.58291758  0.16270787  0.34000231  1
  Cu+  Cu103  1  0.58476200  0.66543665  0.35108364  1
  Cu+  Cu104  1  0.08261150  0.41600849  0.34117131  1
  Cu+  Cu105  1  0.07979297  0.91571823  0.33648983  1
  Cu+  Cu106  1  0.58429756  0.41836207  0.34956490  1
  Cu+  Cu107  1  0.58376297  0.92075596  0.34652361  1
  Cu+  Cu108  1  0.00428158  0.00309263  0.10842257  1
  Cu+  Cu109  1  0.00469271  0.50099094  0.11514142  1
  Cu+  Cu110  1  0.49779524  0.00214191  0.11484571  1
  Cu+  Cu111  1  0.49425667  0.49771744  0.12019005  1
  Cu+  Cu112  1  0.33008949  0.16008549  0.44199501  1
  Cu+  Cu113  1  0.33266980  0.66703851  0.44737355  1
  Cu+  Cu114  1  0.83788920  0.17010465  0.44736921  1
  Cu+  Cu115  1  0.83753018  0.67130534  0.44734742  1
  Cu+  Cu116  1  0.16974386  0.32976616  0.77684291  1
  Cu+  Cu117  1  0.16985095  0.83943132  0.77660643  1
  Cu+  Cu118  1  0.66547284  0.32894867  0.78389366  1
  Cu+  Cu119  1  0.66930144  0.83300887  0.78473152  1
  Te2-  Te120  1  0.00076741  -0.00029803  0.38247860  1
  Te2-  Te121  1  -0.00232210  0.49341797  0.38938392  1
  Te2-  Te122  1  0.49685889  0.00053283  0.38875010  1
  Te2-  Te123  1  0.50227779  0.50082446  0.39676927  1
  Te2-  Te124  1  0.33245686  0.16465432  0.71635702  1
  Te2-  Te125  1  0.33495867  0.66854755  0.72351182  1
  Te2-  Te126  1  0.82877079  0.16507942  0.72200713  1
  Te2-  Te127  1  0.83306704  0.66691952  0.72163152  1
  Te2-  Te128  1  0.16794818  0.33630626  0.04971406  1
  Te2-  Te129  1  0.16905440  0.83627827  0.05039328  1
  Te2-  Te130  1  0.66594500  0.33357575  0.05727153  1
  Te2-  Te131  1  0.66510314  0.83388694  0.05940403  1
  Te2-  Te132  1  0.49641588  0.25070664  0.88431948  1
  Te2-  Te133  1  0.49402458  0.75050207  0.88665689  1
  Te2-  Te134  1  0.99348646  0.25375337  0.87989386  1
  Te2-  Te135  1  0.99337177  0.74993790  0.88075167  1
  Te2-  Te136  1  0.25377520  0.00619713  0.87885561  1
  Te2-  Te137  1  0.25752919  0.51536550  0.88352495  1
  Te2-  Te138  1  0.75171252  0.00892350  0.88624308  1
  Te2-  Te139  1  0.75355327  0.51246458  0.88745982  1
  Te2-  Te140  1  0.25094350  0.25181357  0.87758342  1
  Te2-  Te141  1  0.25600347  0.74954844  0.88177473  1
  Te2-  Te142  1  0.75327718  0.25328561  0.88239000  1
  Te2-  Te143  1  0.75344976  0.75212242  0.88600786  1
  Te2-  Te144  1  0.33119755  0.41518590  0.22223570  1
  Te2-  Te145  1  0.32785758  0.91374888  0.21522638  1
  Te2-  Te146  1  0.82418379  0.40786278  0.21687803  1
  Te2-  Te147  1  0.81954039  0.90949760  0.21529012  1
  Te2-  Te148  1  0.08199346  0.16926847  0.21069301  1
  Te2-  Te149  1  0.08201697  0.66916264  0.21836774  1
  Te2-  Te150  1  0.58536873  0.16942028  0.21432592  1
  Te2-  Te151  1  0.58551897  0.67200326  0.22224017  1
  Te2-  Te152  1  0.08606929  0.41412196  0.21542956  1
  Te2-  Te153  1  0.08226205  0.91213994  0.21064916  1
  Te2-  Te154  1  0.58478811  0.41067117  0.22103854  1
  Te2-  Te155  1  0.58489819  0.91038262  0.21960250  1
  Te2-  Te156  1  0.16249096  0.08172836  0.54452122  1
  Te2-  Te157  1  0.16000416  0.57499425  0.55233468  1
  Te2-  Te158  1  0.65437187  0.07869732  0.55092695  1
  Te2-  Te159  1  0.65784261  0.57747714  0.55254387  1
  Te2-  Te160  1  0.42355909  0.34432111  0.55013274  1
  Te2-  Te161  1  0.41477595  0.83676368  0.54923213  1
  Te2-  Te162  1  0.91682671  0.33330782  0.54801399  1
  Te2-  Te163  1  0.92035369  0.83342911  0.54760111  1
  Te2-  Te164  1  0.41943770  0.08109939  0.54559465  1
  Te2-  Te165  1  0.42271374  0.58002556  0.55396339  1
  Te2-  Te166  1  0.91388387  0.07563440  0.55066253  1
  Te2-  Te167  1  0.91762621  0.57360818  0.55193599  1
  Te2-  Te168  1  0.00311930  0.00248284  0.88093726  1
  Te2-  Te169  1  0.00253264  0.50188519  0.88100019  1
  Te2-  Te170  1  0.49923027  0.00015877  0.88224476  1
  Te2-  Te171  1  0.50032342  0.50002870  0.88396140  1
  Te2-  Te172  1  0.33015141  0.16443308  0.21419497  1
  Te2-  Te173  1  0.33290521  0.66777170  0.21834506  1
  Te2-  Te174  1  0.83410471  0.16627408  0.21405210  1
  Te2-  Te175  1  0.83552836  0.66747734  0.21623928  1
  Te2-  Te176  1  0.16677336  0.33064678  0.54820752  1
  Te2-  Te177  1  0.16749962  0.83376861  0.54783598  1
  Te2-  Te178  1  0.66619122  0.33166665  0.54779015  1
  Te2-  Te179  1  0.66844735  0.83310689  0.55068439  1
  Te2-  Te180  1  0.32864203  0.41081544  0.70890505  1
  Te2-  Te181  1  0.32946281  0.91471894  0.70881637  1
  Te2-  Te182  1  0.82618831  0.41066773  0.71106739  1
  Te2-  Te183  1  0.82616676  0.90979351  0.71149240  1
  Te2-  Te184  1  0.08554655  0.17119668  0.70685503  1
  Te2-  Te185  1  0.08847664  0.67492695  0.70725357  1
  Te2-  Te186  1  0.58459048  0.17013990  0.71242117  1
  Te2-  Te187  1  0.59009205  0.67303142  0.71372999  1
  Te2-  Te188  1  0.08335528  0.40920139  0.70768009  1
  Te2-  Te189  1  0.08598529  0.91572050  0.70838278  1
  Te2-  Te190  1  0.58670569  0.41183418  0.71402402  1
  Te2-  Te191  1  0.58610940  0.91122844  0.71310125  1
  Te2-  Te192  1  0.16420476  0.08431325  0.04027537  1
  Te2-  Te193  1  0.16347995  0.58372637  0.04667448  1
  Te2-  Te194  1  0.66062141  0.08376041  0.04340361  1
  Te2-  Te195  1  0.65921311  0.58164034  0.04610231  1
  Te2-  Te196  1  0.41904571  0.34137264  0.04654881  1
  Te2-  Te197  1  0.41950225  0.83990700  0.04658338  1
  Te2-  Te198  1  0.92038751  0.34071432  0.04411977  1
  Te2-  Te199  1  0.92356350  0.83991743  0.04144213  1
  Te2-  Te200  1  0.41990326  0.08360680  0.04398437  1
  Te2-  Te201  1  0.41998815  0.58165466  0.04927079  1
  Te2-  Te202  1  0.92369348  0.08466117  0.04006895  1
  Te2-  Te203  1  0.92366400  0.58279408  0.04455546  1
  Te2-  Te204  1  0.49350704  0.24394639  0.37431148  1
  Te2-  Te205  1  0.49296571  0.74722191  0.37683756  1
  Te2-  Te206  1  0.99599057  0.24561607  0.37761682  1
  Te2-  Te207  1  0.99331108  0.74663404  0.37606598  1
  Te2-  Te208  1  0.24929504  0.00037224  0.37501168  1
  Te2-  Te209  1  0.25264731  0.50618213  0.37757006  1
  Te2-  Te210  1  0.75600158  0.00819682  0.37779337  1
  Te2-  Te211  1  0.75709207  0.50742777  0.37716284  1
  Te2-  Te212  1  0.25102789  0.24332161  0.37391135  1
  Te2-  Te213  1  0.25230794  0.74458479  0.37648870  1
  Te2-  Te214  1  0.75208358  0.24493844  0.37740885  1
  Te2-  Te215  1  0.75718300  0.75080382  0.37787094  1
