# generated using pymatgen
data_Ti(CuTe)4
_symmetry_space_group_name_H-M   'P 1'
_cell_length_a   16.88510021
_cell_length_b   16.88324412
_cell_length_c   20.70305842
_cell_angle_alpha   89.99002898
_cell_angle_beta   89.98008898
_cell_angle_gamma   119.99688199
_symmetry_Int_Tables_number   1
_chemical_formula_structural   Ti(CuTe)4
_chemical_formula_sum   'Ti24 Cu96 Te96'
_cell_volume   5111.38112427
_cell_formula_units_Z   24
loop_
 _symmetry_equiv_pos_site_id
 _symmetry_equiv_pos_as_xyz
  1  'x, y, z'
loop_
 _atom_type_symbol
 _atom_type_oxidation_number
  Ti4+  4.0
  Cu+  1.0
  Te2-  -2.0
loop_
 _atom_site_type_symbol
 _atom_site_label
 _atom_site_symmetry_multiplicity
 _atom_site_fract_x
 _atom_site_fract_y
 _atom_site_fract_z
 _atom_site_occupancy
  Ti4+  Ti0  1  0.00313760  -0.00106649  0.26031432  1
  Ti4+  Ti1  1  -0.00072256  0.49772100  0.25651088  1
  Ti4+  Ti2  1  0.49989746  -0.00291540  0.25834331  1
  Ti4+  Ti3  1  0.50394268  0.50083692  0.25544739  1
  Ti4+  Ti4  1  0.33039707  0.16737758  0.59077062  1
  Ti4+  Ti5  1  0.33489585  0.66581732  0.58874728  1
  Ti4+  Ti6  1  0.82946283  0.16366869  0.59297713  1
  Ti4+  Ti7  1  0.83321742  0.66522758  0.59120336  1
  Ti4+  Ti8  1  0.16600666  0.33745298  0.92267883  1
  Ti4+  Ti9  1  0.16930655  0.83560286  0.92369427  1
  Ti4+  Ti10  1  0.66273897  0.33301867  0.92590945  1
  Ti4+  Ti11  1  0.66943266  0.83847300  0.92522469  1
  Ti4+  Ti12  1  -0.00209691  -0.00023136  0.75572299  1
  Ti4+  Ti13  1  0.00174672  0.49980057  0.75475856  1
  Ti4+  Ti14  1  0.49636939  -0.00004456  0.75572245  1
  Ti4+  Ti15  1  0.49981968  0.49994215  0.75596756  1
  Ti4+  Ti16  1  0.33052075  0.16539355  0.08955226  1
  Ti4+  Ti17  1  0.33646359  0.66938251  0.08868906  1
  Ti4+  Ti18  1  0.83389820  0.16877841  0.09005025  1
  Ti4+  Ti19  1  0.83308043  0.66616917  0.08675910  1
  Ti4+  Ti20  1  0.16932841  0.33301311  0.42111349  1
  Ti4+  Ti21  1  0.16582971  0.83113898  0.42175847  1
  Ti4+  Ti22  1  0.66632331  0.33160767  0.42323726  1
  Ti4+  Ti23  1  0.66640157  0.83335814  0.42230286  1
  Cu+  Cu24  1  0.52801498  0.76264168  0.14049687  1
  Cu+  Cu25  1  0.57131095  0.92783280  0.47657274  1
  Cu+  Cu26  1  0.91013239  0.09839463  0.80853972  1
  Cu+  Cu27  1  0.23829571  0.97475014  0.14210223  1
  Cu+  Cu28  1  0.74570585  0.48148099  0.14132979  1
  Cu+  Cu29  1  0.51160493  0.25089126  0.14570065  1
  Cu+  Cu30  1  0.07172233  0.91965902  0.47899531  1
  Cu+  Cu31  1  0.35966179  0.42913620  0.46980061  1
  Cu+  Cu32  1  0.40328344  0.09790225  0.80716756  1
  Cu+  Cu33  1  0.19356730  0.59905433  0.80438273  1
  Cu+  Cu34  1  0.07143727  0.15085706  0.47683252  1
  Cu+  Cu35  1  0.67505668  0.09215029  0.81518900  1
  Cu+  Cu36  1  0.16261509  0.07518089  0.17233447  1
  Cu+  Cu37  1  0.16441133  0.58160522  0.17140069  1
  Cu+  Cu38  1  0.66512863  0.08056195  0.17197440  1
  Cu+  Cu39  1  0.66386893  0.57683513  0.16649384  1
  Cu+  Cu40  1  0.42082216  0.33659474  0.16958077  1
  Cu+  Cu41  1  0.42520126  0.83522810  0.17095038  1
  Cu+  Cu42  1  0.91890230  0.33705985  0.17054752  1
  Cu+  Cu43  1  0.92171495  0.83573296  0.17125635  1
  Cu+  Cu44  1  0.41431944  0.07687011  0.17186856  1
  Cu+  Cu45  1  0.42436557  0.58745226  0.17013385  1
  Cu+  Cu46  1  0.92202110  0.08596731  0.17433882  1
  Cu+  Cu47  1  0.91655813  0.57749554  0.16911884  1
  Cu+  Cu48  1  0.49611944  0.24749624  0.50510348  1
  Cu+  Cu49  1  0.49643218  0.75138393  0.50223818  1
  Cu+  Cu50  1  0.99515832  0.24438463  0.50569331  1
  Cu+  Cu51  1  0.99383895  0.74749277  0.50431978  1
  Cu+  Cu52  1  0.24738028  0.00075510  0.50412703  1
  Cu+  Cu53  1  0.25743858  0.50188839  0.50215182  1
  Cu+  Cu54  1  0.74572805  0.00202869  0.50524653  1
  Cu+  Cu55  1  0.75054847  0.50105397  0.50605376  1
  Cu+  Cu56  1  0.25237882  0.24961271  0.50135411  1
  Cu+  Cu57  1  0.24905255  0.74395608  0.50309947  1
  Cu+  Cu58  1  0.74769600  0.24537908  0.50648742  1
  Cu+  Cu59  1  0.75058031  0.74651075  0.50453929  1
  Cu+  Cu60  1  0.33012405  0.41639912  0.83703264  1
  Cu+  Cu61  1  0.32800107  0.92188903  0.83619831  1
  Cu+  Cu62  1  0.83121402  0.41759824  0.83820042  1
  Cu+  Cu63  1  0.83121713  0.92252021  0.83697731  1
  Cu+  Cu64  1  0.08055443  0.17115833  0.83749576  1
  Cu+  Cu65  1  0.09132387  0.66932526  0.83648314  1
  Cu+  Cu66  1  0.57913146  0.17182465  0.83807571  1
  Cu+  Cu67  1  0.58413090  0.66986820  0.83995789  1
  Cu+  Cu68  1  0.09066037  0.42179121  0.83462496  1
  Cu+  Cu69  1  0.08613907  0.91754291  0.83787304  1
  Cu+  Cu70  1  0.58287027  0.41520737  0.83934743  1
  Cu+  Cu71  1  0.58765033  0.91783198  0.83785469  1
  Cu+  Cu72  1  0.16511619  0.08282666  0.67492141  1
  Cu+  Cu73  1  0.17125846  0.58307646  0.67595469  1
  Cu+  Cu74  1  0.66421408  0.08228554  0.68311493  1
  Cu+  Cu75  1  0.67062703  0.58375381  0.67573661  1
  Cu+  Cu76  1  0.41610195  0.33283116  0.67516943  1
  Cu+  Cu77  1  0.41299057  0.83102612  0.67416628  1
  Cu+  Cu78  1  0.91426266  0.32983176  0.67523160  1
  Cu+  Cu79  1  0.91469682  0.82835235  0.67625736  1
  Cu+  Cu80  1  0.40977312  0.08358820  0.67883845  1
  Cu+  Cu81  1  0.41809399  0.58391439  0.67282360  1
  Cu+  Cu82  1  0.91073650  0.08164240  0.67965589  1
  Cu+  Cu83  1  0.91606215  0.58391084  0.67330011  1
  Cu+  Cu84  1  0.00160928  0.25426832  0.00735237  1
  Cu+  Cu85  1  0.00290464  0.75144589  0.00583164  1
  Cu+  Cu86  1  0.49834419  0.25124089  0.01444573  1
  Cu+  Cu87  1  0.50743007  0.75579915  0.01228255  1
  Cu+  Cu88  1  0.24985635  0.50148441  0.00702099  1
  Cu+  Cu89  1  0.24566507  0.99761799  0.01356310  1
  Cu+  Cu90  1  0.74673485  0.49723997  0.01254177  1
  Cu+  Cu91  1  0.75229728  1.00303421  0.01061731  1
  Cu+  Cu92  1  0.24262085  0.25122637  0.00675163  1
  Cu+  Cu93  1  0.25187023  0.75385762  0.00732845  1
  Cu+  Cu94  1  0.74700089  0.25090966  0.00998909  1
  Cu+  Cu95  1  0.75156805  0.75466659  0.00758985  1
  Cu+  Cu96  1  0.34040826  0.42046116  0.34193734  1
  Cu+  Cu97  1  0.33488476  0.91328408  0.34152305  1
  Cu+  Cu98  1  0.83540547  0.41556933  0.34255820  1
  Cu+  Cu99  1  0.83744173  0.91852764  0.34283793  1
  Cu+  Cu100  1  0.08531899  0.16333099  0.34672372  1
  Cu+  Cu101  1  0.07964168  0.66023569  0.33945114  1
  Cu+  Cu102  1  0.58243462  0.16306306  0.34288194  1
  Cu+  Cu103  1  0.58533777  0.66598469  0.34018993  1
  Cu+  Cu104  1  0.08192793  0.41667251  0.33961926  1
  Cu+  Cu105  1  0.08376932  0.91701152  0.34827848  1
  Cu+  Cu106  1  0.58424558  0.41532890  0.34199025  1
  Cu+  Cu107  1  0.58267142  0.91704678  0.34746809  1
  Cu+  Cu108  1  -0.00518285  -0.00143520  0.11722726  1
  Cu+  Cu109  1  0.00423835  0.50249148  0.11262194  1
  Cu+  Cu110  1  0.50144533  0.00074329  0.11524287  1
  Cu+  Cu111  1  0.49720578  0.49912784  0.11115635  1
  Cu+  Cu112  1  0.33510346  0.16418929  0.44724451  1
  Cu+  Cu113  1  0.33128868  0.66420295  0.44445896  1
  Cu+  Cu114  1  0.83465804  0.16919750  0.44960750  1
  Cu+  Cu115  1  0.82939809  0.66248410  0.44788369  1
  Cu+  Cu116  1  0.16819198  0.33245440  0.77923324  1
  Cu+  Cu117  1  0.15991462  0.83032703  0.78027767  1
  Cu+  Cu118  1  0.67019744  0.33861143  0.78235929  1
  Cu+  Cu119  1  0.66511572  0.82918528  0.78247058  1
  Te2-  Te120  1  -0.00088523  -0.00164184  0.39282644  1
  Te2-  Te121  1  -0.00015017  0.49744379  0.38594091  1
  Te2-  Te122  1  0.49783242  -0.00065486  0.38876417  1
  Te2-  Te123  1  0.50658653  0.50228037  0.38574210  1
  Te2-  Te124  1  0.32862641  0.16927385  0.72130506  1
  Te2-  Te125  1  0.33786943  0.66750157  0.71916885  1
  Te2-  Te126  1  0.83098472  0.16808538  0.72490071  1
  Te2-  Te127  1  0.83433789  0.66460702  0.72055557  1
  Te2-  Te128  1  0.16570294  0.33748646  0.05184387  1
  Te2-  Te129  1  0.16524685  0.83033225  0.05433344  1
  Te2-  Te130  1  0.66451508  0.33113854  0.05801548  1
  Te2-  Te131  1  0.67374196  0.83897370  0.05562172  1
  Te2-  Te132  1  0.48885460  0.24870802  0.88653337  1
  Te2-  Te133  1  0.49826215  0.75214557  0.88507473  1
  Te2-  Te134  1  0.99251434  0.25411766  0.88163197  1
  Te2-  Te135  1  0.99978200  0.74791668  0.87962636  1
  Te2-  Te136  1  0.25144787  0.01097463  0.88629758  1
  Te2-  Te137  1  0.25825614  0.51204048  0.88150078  1
  Te2-  Te138  1  0.75675807  0.01571938  0.88494396  1
  Te2-  Te139  1  0.75020700  0.50350682  0.88521210  1
  Te2-  Te140  1  0.24810796  0.24800133  0.88080699  1
  Te2-  Te141  1  0.26091142  0.75417734  0.88144434  1
  Te2-  Te142  1  0.75140216  0.24956660  0.88361122  1
  Te2-  Te143  1  0.75455605  0.75400048  0.88142327  1
  Te2-  Te144  1  0.33418323  0.41791664  0.21463366  1
  Te2-  Te145  1  0.32760723  0.90689252  0.21553300  1
  Te2-  Te146  1  0.82414294  0.40805363  0.21680095  1
  Te2-  Te147  1  0.83327100  0.91565646  0.21645098  1
  Te2-  Te148  1  0.08999633  0.16981373  0.21947123  1
  Te2-  Te149  1  0.08321617  0.66932908  0.21378215  1
  Te2-  Te150  1  0.58669663  0.16972228  0.21688911  1
  Te2-  Te151  1  0.59438927  0.67379738  0.21446992  1
  Te2-  Te152  1  0.08651678  0.41301779  0.21416567  1
  Te2-  Te153  1  0.08696236  0.90825351  0.22062207  1
  Te2-  Te154  1  0.58971342  0.40973384  0.21611060  1
  Te2-  Te155  1  0.59187178  0.91477182  0.21989294  1
  Te2-  Te156  1  0.15480044  0.07896175  0.54917607  1
  Te2-  Te157  1  0.16410686  0.57687737  0.54866205  1
  Te2-  Te158  1  0.65547665  0.07930838  0.55453784  1
  Te2-  Te159  1  0.66115335  0.57970261  0.54986242  1
  Te2-  Te160  1  0.42062809  0.34005425  0.54897371  1
  Te2-  Te161  1  0.41590545  0.84011468  0.54860131  1
  Te2-  Te162  1  0.91669142  0.33346988  0.54905223  1
  Te2-  Te163  1  0.91695221  0.84055966  0.55080392  1
  Te2-  Te164  1  0.41401231  0.08017156  0.55149916  1
  Te2-  Te165  1  0.42617961  0.58347793  0.54721931  1
  Te2-  Te166  1  0.91300096  0.07434104  0.55233245  1
  Te2-  Te167  1  0.91978994  0.58049913  0.54780626  1
  Te2-  Te168  1  0.00047317  0.00126818  0.88263221  1
  Te2-  Te169  1  0.00060523  0.50052087  0.88170158  1
  Te2-  Te170  1  0.49839791  0.00009036  0.88317412  1
  Te2-  Te171  1  0.49883526  0.50087910  0.88245463  1
  Te2-  Te172  1  0.33334317  0.16709341  0.21701714  1
  Te2-  Te173  1  0.33386694  0.66565689  0.21547041  1
  Te2-  Te174  1  0.83474630  0.16806811  0.21658471  1
  Te2-  Te175  1  0.83342363  0.66489971  0.21374977  1
  Te2-  Te176  1  0.16610860  0.33267266  0.54869628  1
  Te2-  Te177  1  0.16505852  0.83007935  0.54862677  1
  Te2-  Te178  1  0.66473934  0.33177338  0.54971969  1
  Te2-  Te179  1  0.66536412  0.83141607  0.54913635  1
  Te2-  Te180  1  0.32860228  0.41511830  0.71043834  1
  Te2-  Te181  1  0.32318730  0.91108894  0.71007273  1
  Te2-  Te182  1  0.82900448  0.41452214  0.71153184  1
  Te2-  Te183  1  0.82493994  0.90955441  0.71075295  1
  Te2-  Te184  1  0.08399732  0.17225800  0.70962382  1
  Te2-  Te185  1  0.08661822  0.67125682  0.70879113  1
  Te2-  Te186  1  0.58282395  0.17433974  0.71055199  1
  Te2-  Te187  1  0.58694498  0.67086414  0.71225961  1
  Te2-  Te188  1  0.08504380  0.41067783  0.70833535  1
  Te2-  Te189  1  0.08445559  0.91376769  0.71147571  1
  Te2-  Te190  1  0.58567690  0.41383157  0.71275614  1
  Te2-  Te191  1  0.58162578  0.91010672  0.71171670  1
  Te2-  Te192  1  0.15730289  0.08181180  0.04561035  1
  Te2-  Te193  1  0.16441048  0.58460123  0.04451570  1
  Te2-  Te194  1  0.66124582  0.08154161  0.04584832  1
  Te2-  Te195  1  0.65985857  0.58358045  0.04072436  1
  Te2-  Te196  1  0.41267463  0.33819216  0.04310699  1
  Te2-  Te197  1  0.42129293  0.84221780  0.04407917  1
  Te2-  Te198  1  0.91783699  0.34011180  0.04450511  1
  Te2-  Te199  1  0.92151624  0.83945813  0.04460617  1
  Te2-  Te200  1  0.41832009  0.07890894  0.04407060  1
  Te2-  Te201  1  0.42042752  0.58213543  0.04252781  1
  Te2-  Te202  1  0.92205645  0.08521888  0.04689710  1
  Te2-  Te203  1  0.92055540  0.58078057  0.04151128  1
  Te2-  Te204  1  0.49503357  0.24575788  0.37826343  1
  Te2-  Te205  1  0.49388360  0.74389124  0.37577035  1
  Te2-  Te206  1  0.99558880  0.24674154  0.37775298  1
  Te2-  Te207  1  0.99309615  0.74348388  0.37718334  1
  Te2-  Te208  1  0.25635820  0.00475753  0.37713891  1
  Te2-  Te209  1  0.25264470  0.50493241  0.37490854  1
  Te2-  Te210  1  0.75582254  0.00721586  0.37853167  1
  Te2-  Te211  1  0.75325375  0.50307952  0.37906120  1
  Te2-  Te212  1  0.25821553  0.24807429  0.37460910  1
  Te2-  Te213  1  0.24956428  0.74323025  0.37683958  1
  Te2-  Te214  1  0.75212802  0.24565281  0.37973859  1
  Te2-  Te215  1  0.75421023  0.74823838  0.37830777  1
