# generated using pymatgen
data_Ti(CuTe)4
_symmetry_space_group_name_H-M   'P 1'
_cell_length_a   16.87359490
_cell_length_b   16.87570487
_cell_length_c   20.68758366
_cell_angle_alpha   89.97355184
_cell_angle_beta   90.05462294
_cell_angle_gamma   120.01719694
_symmetry_Int_Tables_number   1
_chemical_formula_structural   Ti(CuTe)4
_chemical_formula_sum   'Ti24 Cu96 Te96'
_cell_volume   5100.75492717
_cell_formula_units_Z   24
loop_
 _symmetry_equiv_pos_site_id
 _symmetry_equiv_pos_as_xyz
  1  'x, y, z'
loop_
 _atom_type_symbol
 _atom_type_oxidation_number
  Ti4+  4.0
  Cu+  1.0
  Te2-  -2.0
loop_
 _atom_site_type_symbol
 _atom_site_label
 _atom_site_symmetry_multiplicity
 _atom_site_fract_x
 _atom_site_fract_y
 _atom_site_fract_z
 _atom_site_occupancy
  Ti4+  Ti0  1  0.00056223  0.00013678  0.26113361  1
  Ti4+  Ti1  1  0.00008702  0.49816015  0.25861048  1
  Ti4+  Ti2  1  0.50230852  0.00228613  0.25494364  1
  Ti4+  Ti3  1  0.50197015  0.50448740  0.25694054  1
  Ti4+  Ti4  1  0.33175244  0.16850431  0.58681591  1
  Ti4+  Ti5  1  0.33071314  0.66520947  0.59178150  1
  Ti4+  Ti6  1  0.83265139  0.16516822  0.59323725  1
  Ti4+  Ti7  1  0.83160323  0.66333222  0.59306006  1
  Ti4+  Ti8  1  0.16881702  0.33602448  0.92582842  1
  Ti4+  Ti9  1  0.16205695  0.83241071  0.92234464  1
  Ti4+  Ti10  1  0.66806668  0.33087088  0.92349640  1
  Ti4+  Ti11  1  0.66673246  0.83357712  0.92636885  1
  Ti4+  Ti12  1  0.00047193  -0.00254454  0.75620818  1
  Ti4+  Ti13  1  -0.00064133  0.49953903  0.75439274  1
  Ti4+  Ti14  1  0.50225329  0.00126636  0.75447278  1
  Ti4+  Ti15  1  0.49781016  0.50056905  0.75736706  1
  Ti4+  Ti16  1  0.33419340  0.16664206  0.08811423  1
  Ti4+  Ti17  1  0.33415219  0.66570694  0.08729248  1
  Ti4+  Ti18  1  0.83287222  0.16753830  0.08917873  1
  Ti4+  Ti19  1  0.83443127  0.66766987  0.09090156  1
  Ti4+  Ti20  1  0.16828570  0.33258238  0.42094873  1
  Ti4+  Ti21  1  0.16715468  0.83108186  0.42091255  1
  Ti4+  Ti22  1  0.66634253  0.33506857  0.42299142  1
  Ti4+  Ti23  1  0.66811474  0.83495248  0.42486842  1
  Cu+  Cu24  1  0.40388820  0.59866295  0.80913533  1
  Cu+  Cu25  1  0.23905349  0.47820080  0.14189083  1
  Cu+  Cu26  1  0.51694569  0.76117997  0.14185496  1
  Cu+  Cu27  1  0.90100308  0.81191976  0.80955383  1
  Cu+  Cu28  1  0.74707777  0.76522973  0.14444734  1
  Cu+  Cu29  1  0.06938541  0.14934058  0.47659629  1
  Cu+  Cu30  1  0.06894595  0.63956816  0.47425562  1
  Cu+  Cu31  1  0.73962543  0.26413952  0.14032006  1
  Cu+  Cu32  1  0.69269483  0.09415322  0.80811841  1
  Cu+  Cu33  1  0.90358542  0.58597456  0.81000396  1
  Cu+  Cu34  1  0.07086747  0.91654668  0.47687965  1
  Cu+  Cu35  1  0.57093130  0.43210129  0.47237522  1
  Cu+  Cu36  1  0.16538773  0.08241126  0.17419138  1
  Cu+  Cu37  1  0.16429242  0.57786523  0.17144809  1
  Cu+  Cu38  1  0.66397797  0.08676890  0.16803598  1
  Cu+  Cu39  1  0.66701663  0.58804929  0.17106679  1
  Cu+  Cu40  1  0.42144991  0.33703118  0.17029746  1
  Cu+  Cu41  1  0.42252203  0.83821969  0.16803241  1
  Cu+  Cu42  1  0.91463401  0.33618847  0.17054113  1
  Cu+  Cu43  1  0.91803394  0.83794395  0.17469920  1
  Cu+  Cu44  1  0.41925991  0.08140131  0.16822344  1
  Cu+  Cu45  1  0.42006855  0.58300895  0.16735574  1
  Cu+  Cu46  1  0.91995870  0.08392254  0.17319089  1
  Cu+  Cu47  1  0.92144818  0.58293743  0.17324119  1
  Cu+  Cu48  1  0.49696111  0.25577497  0.50151255  1
  Cu+  Cu49  1  0.49762352  0.74793029  0.50730159  1
  Cu+  Cu50  1  0.99666770  0.24653559  0.50612570  1
  Cu+  Cu51  1  0.99682097  0.74323023  0.50565460  1
  Cu+  Cu52  1  0.24830127  0.00327861  0.49950106  1
  Cu+  Cu53  1  0.25380096  0.50394489  0.50428832  1
  Cu+  Cu54  1  0.74929458  0.00315463  0.50696068  1
  Cu+  Cu55  1  0.74641229  0.50116310  0.50527255  1
  Cu+  Cu56  1  0.24875643  0.24439085  0.49890596  1
  Cu+  Cu57  1  0.24536131  0.74096860  0.50298812  1
  Cu+  Cu58  1  0.74918236  0.24600427  0.50776374  1
  Cu+  Cu59  1  0.75146496  0.74908406  0.50637494  1
  Cu+  Cu60  1  0.33157440  0.42247006  0.83953244  1
  Cu+  Cu61  1  0.32894143  0.91736639  0.83632787  1
  Cu+  Cu62  1  0.82829272  0.41321684  0.83654682  1
  Cu+  Cu63  1  0.83064116  0.91140756  0.83905150  1
  Cu+  Cu64  1  0.08690262  0.16955756  0.84012128  1
  Cu+  Cu65  1  0.07945986  0.66988872  0.83450372  1
  Cu+  Cu66  1  0.59126734  0.16820337  0.83621622  1
  Cu+  Cu67  1  0.57943526  0.66816640  0.83974078  1
  Cu+  Cu68  1  0.08716280  0.41558811  0.83824352  1
  Cu+  Cu69  1  0.07861063  0.90871567  0.83535628  1
  Cu+  Cu70  1  0.58305943  0.41275574  0.83788209  1
  Cu+  Cu71  1  0.58914531  0.92025418  0.83766323  1
  Cu+  Cu72  1  0.16821120  0.08393483  0.67388295  1
  Cu+  Cu73  1  0.16730829  0.58259451  0.67496436  1
  Cu+  Cu74  1  0.67201343  0.08523997  0.68048295  1
  Cu+  Cu75  1  0.66443837  0.58200888  0.67742140  1
  Cu+  Cu76  1  0.41378070  0.33295759  0.67222050  1
  Cu+  Cu77  1  0.41542046  0.83165115  0.67298182  1
  Cu+  Cu78  1  0.91664612  0.32959714  0.67530510  1
  Cu+  Cu79  1  0.91730463  0.82845437  0.68165130  1
  Cu+  Cu80  1  0.41610646  0.08745017  0.66847409  1
  Cu+  Cu81  1  0.41328792  0.58621788  0.68057234  1
  Cu+  Cu82  1  0.91648986  0.08198535  0.67729102  1
  Cu+  Cu83  1  0.91476813  0.58213897  0.68001310  1
  Cu+  Cu84  1  0.00412723  0.25190053  0.00927746  1
  Cu+  Cu85  1  0.00010654  0.75060867  0.00973186  1
  Cu+  Cu86  1  0.50223245  0.24831032  0.00540129  1
  Cu+  Cu87  1  0.50195987  0.75154900  0.01273685  1
  Cu+  Cu88  1  0.24912808  0.49763106  0.01361518  1
  Cu+  Cu89  1  0.24524633  0.99700555  0.00544312  1
  Cu+  Cu90  1  0.75228580  0.49788531  0.00932227  1
  Cu+  Cu91  1  0.75227504  1.00014291  0.01046436  1
  Cu+  Cu92  1  0.25095900  0.25249572  0.00806666  1
  Cu+  Cu93  1  0.24495143  0.75102950  0.00420312  1
  Cu+  Cu94  1  0.74990883  0.25104198  0.01153663  1
  Cu+  Cu95  1  0.74939528  0.75060029  0.01540472  1
  Cu+  Cu96  1  0.33618714  0.42009466  0.34025521  1
  Cu+  Cu97  1  0.33940867  0.91676524  0.33752241  1
  Cu+  Cu98  1  0.83459053  0.41633007  0.34347936  1
  Cu+  Cu99  1  0.83482527  0.91857172  0.34544681  1
  Cu+  Cu100  1  0.08407118  0.16318092  0.34750892  1
  Cu+  Cu101  1  0.08358569  0.66061251  0.34546678  1
  Cu+  Cu102  1  0.58436458  0.16661880  0.33963393  1
  Cu+  Cu103  1  0.58594292  0.67042015  0.34335612  1
  Cu+  Cu104  1  0.08412378  0.41665582  0.34220506  1
  Cu+  Cu105  1  0.08211681  0.91641823  0.34658945  1
  Cu+  Cu106  1  0.58441089  0.42359216  0.34430584  1
  Cu+  Cu107  1  0.58427923  0.91994687  0.34014010  1
  Cu+  Cu108  1  0.00389474  0.00378845  0.11835162  1
  Cu+  Cu109  1  0.00145012  0.50165516  0.11473197  1
  Cu+  Cu110  1  0.49780823  -0.00073116  0.10909016  1
  Cu+  Cu111  1  0.50230801  0.49708112  0.11274392  1
  Cu+  Cu112  1  0.33718740  0.16444826  0.44127827  1
  Cu+  Cu113  1  0.33831470  0.66937061  0.44852007  1
  Cu+  Cu114  1  0.83256123  0.16907122  0.45023938  1
  Cu+  Cu115  1  0.83258957  0.66675451  0.44915770  1
  Cu+  Cu116  1  0.16641292  0.32913542  0.78315608  1
  Cu+  Cu117  1  0.17201397  0.83442755  0.77750333  1
  Cu+  Cu118  1  0.65983241  0.33039659  0.77918021  1
  Cu+  Cu119  1  0.66571888  0.83273975  0.78252171  1
  Te2-  Te120  1  -0.00181742  -0.00263440  0.39299686  1
  Te2-  Te121  1  -0.00146664  0.49454069  0.38915009  1
  Te2-  Te122  1  0.50226675  0.00233191  0.38380513  1
  Te2-  Te123  1  0.49984711  0.50559774  0.38718180  1
  Te2-  Te124  1  0.33374385  0.16803317  0.71522043  1
  Te2-  Te125  1  0.33033574  0.66979131  0.72271312  1
  Te2-  Te126  1  0.83828158  0.16706126  0.72404193  1
  Te2-  Te127  1  0.82845398  0.66186597  0.72455089  1
  Te2-  Te128  1  0.16731224  0.33149520  0.05658017  1
  Te2-  Te129  1  0.16511866  0.83358081  0.05152924  1
  Te2-  Te130  1  0.66550490  0.33340910  0.05363546  1
  Te2-  Te131  1  0.66826531  0.83645236  0.05769223  1
  Te2-  Te132  1  0.49773070  0.24397131  0.87939579  1
  Te2-  Te133  1  0.49444365  0.75278329  0.88492861  1
  Te2-  Te134  1  0.99780416  0.24877591  0.88351954  1
  Te2-  Te135  1  0.98396540  0.74168758  0.88385857  1
  Te2-  Te136  1  0.24659279  0.00324736  0.87949861  1
  Te2-  Te137  1  0.25212306  0.51125971  0.88625473  1
  Te2-  Te138  1  0.75834948  0.00612791  0.88435296  1
  Te2-  Te139  1  0.75013766  0.50465203  0.88343341  1
  Te2-  Te140  1  0.25570674  0.25270701  0.88213342  1
  Te2-  Te141  1  0.24776599  0.74791929  0.87826868  1
  Te2-  Te142  1  0.75904509  0.24809109  0.88438138  1
  Te2-  Te143  1  0.74762964  0.74183306  0.88699605  1
  Te2-  Te144  1  0.32983974  0.41387652  0.21430223  1
  Te2-  Te145  1  0.33108698  0.91380904  0.21185636  1
  Te2-  Te146  1  0.82616466  0.41596135  0.21758783  1
  Te2-  Te147  1  0.82641848  0.91746848  0.21952932  1
  Te2-  Te148  1  0.08623339  0.17083869  0.21988914  1
  Te2-  Te149  1  0.08872231  0.66973911  0.21792304  1
  Te2-  Te150  1  0.58568226  0.17662418  0.21396287  1
  Te2-  Te151  1  0.58980952  0.68023720  0.21711293  1
  Te2-  Te152  1  0.08279397  0.40805151  0.21629779  1
  Te2-  Te153  1  0.08525476  0.91452796  0.21910255  1
  Te2-  Te154  1  0.58879109  0.42017111  0.21653977  1
  Te2-  Te155  1  0.59263082  0.91884298  0.21419433  1
  Te2-  Te156  1  0.15448799  0.07704580  0.54796984  1
  Te2-  Te157  1  0.15606627  0.57274236  0.54942298  1
  Te2-  Te158  1  0.66050407  0.07969720  0.55342296  1
  Te2-  Te159  1  0.65846844  0.58205938  0.55135729  1
  Te2-  Te160  1  0.41494569  0.34294606  0.54640219  1
  Te2-  Te161  1  0.41434791  0.83485102  0.54715168  1
  Te2-  Te162  1  0.91822143  0.33562395  0.54955309  1
  Te2-  Te163  1  0.91803917  0.83597328  0.55343946  1
  Te2-  Te164  1  0.41762723  0.08477126  0.54222946  1
  Te2-  Te165  1  0.41840920  0.58090313  0.55299702  1
  Te2-  Te166  1  0.91643968  0.07520322  0.55153027  1
  Te2-  Te167  1  0.91452143  0.57401656  0.55202366  1
  Te2-  Te168  1  0.00135121  0.00004519  0.88322765  1
  Te2-  Te169  1  -0.00010473  0.50000570  0.88120760  1
  Te2-  Te170  1  0.49782471  -0.00064396  0.88139275  1
  Te2-  Te171  1  0.50063801  0.49843230  0.88430570  1
  Te2-  Te172  1  0.33647047  0.16743973  0.21430046  1
  Te2-  Te173  1  0.33543012  0.66830298  0.21496081  1
  Te2-  Te174  1  0.83276207  0.16688451  0.21607799  1
  Te2-  Te175  1  0.83601464  0.66733190  0.21788596  1
  Te2-  Te176  1  0.16827351  0.33273877  0.54790795  1
  Te2-  Te177  1  0.16897621  0.83446956  0.54858991  1
  Te2-  Te178  1  0.66426970  0.33135271  0.54982550  1
  Te2-  Te179  1  0.66626060  0.83335560  0.55088489  1
  Te2-  Te180  1  0.32579908  0.41345465  0.71197190  1
  Te2-  Te181  1  0.33145653  0.91814324  0.70846168  1
  Te2-  Te182  1  0.82539696  0.40904780  0.71002662  1
  Te2-  Te183  1  0.82651984  0.91133777  0.71185559  1
  Te2-  Te184  1  0.08613743  0.17013683  0.71284806  1
  Te2-  Te185  1  0.08742356  0.67306106  0.70795046  1
  Te2-  Te186  1  0.58531729  0.17287900  0.70822668  1
  Te2-  Te187  1  0.58620254  0.67370964  0.71241230  1
  Te2-  Te188  1  0.08649773  0.41316688  0.71226730  1
  Te2-  Te189  1  0.08997542  0.91419024  0.70916387  1
  Te2-  Te190  1  0.58206435  0.41268448  0.71139858  1
  Te2-  Te191  1  0.58559763  0.91140438  0.71033575  1
  Te2-  Te192  1  0.16172740  0.08223213  0.04594513  1
  Te2-  Te193  1  0.16069236  0.58229451  0.04379706  1
  Te2-  Te194  1  0.65996254  0.07847733  0.04164992  1
  Te2-  Te195  1  0.66185068  0.57781549  0.04437507  1
  Te2-  Te196  1  0.42177015  0.33809768  0.04300051  1
  Te2-  Te197  1  0.41532586  0.83807197  0.04063513  1
  Te2-  Te198  1  0.92222868  0.34040095  0.04393427  1
  Te2-  Te199  1  0.92165377  0.84150405  0.04701341  1
  Te2-  Te200  1  0.41641235  0.07848214  0.04140714  1
  Te2-  Te201  1  0.42251463  0.57914293  0.04083165  1
  Te2-  Te202  1  0.92164130  0.08238246  0.04694777  1
  Te2-  Te203  1  0.92074474  0.58153425  0.04679006  1
  Te2-  Te204  1  0.49638013  0.24969432  0.37370040  1
  Te2-  Te205  1  0.49694207  0.75081891  0.37940330  1
  Te2-  Te206  1  0.99400443  0.24633260  0.37819803  1
  Te2-  Te207  1  0.99295471  0.74343751  0.37691994  1
  Te2-  Te208  1  0.25560649  0.00335647  0.37307456  1
  Te2-  Te209  1  0.25374852  0.50634961  0.37813412  1
  Te2-  Te210  1  0.75303130  0.00715573  0.38065062  1
  Te2-  Te211  1  0.75600649  0.50832338  0.37821707  1
  Te2-  Te212  1  0.25779817  0.24920084  0.37347388  1
  Te2-  Te213  1  0.25632153  0.74755866  0.37590404  1
  Te2-  Te214  1  0.75173990  0.24740364  0.38042369  1
  Te2-  Te215  1  0.75483325  0.74860681  0.38020031  1
