# generated using pymatgen
data_Ti(CuTe)4
_symmetry_space_group_name_H-M   'P 1'
_cell_length_a   16.88638272
_cell_length_b   16.88569665
_cell_length_c   20.70592395
_cell_angle_alpha   90.01430389
_cell_angle_beta   90.01591475
_cell_angle_gamma   119.99716259
_symmetry_Int_Tables_number   1
_chemical_formula_structural   Ti(CuTe)4
_chemical_formula_sum   'Ti24 Cu96 Te96'
_cell_volume   5113.20509852
_cell_formula_units_Z   24
loop_
 _symmetry_equiv_pos_site_id
 _symmetry_equiv_pos_as_xyz
  1  'x, y, z'
loop_
 _atom_type_symbol
 _atom_type_oxidation_number
  Ti4+  4.0
  Cu+  1.0
  Te2-  -2.0
loop_
 _atom_site_type_symbol
 _atom_site_label
 _atom_site_symmetry_multiplicity
 _atom_site_fract_x
 _atom_site_fract_y
 _atom_site_fract_z
 _atom_site_occupancy
  Ti4+  Ti0  1  0.00027824  0.00373256  0.25386713  1
  Ti4+  Ti1  1  0.00178987  0.50114486  0.25729652  1
  Ti4+  Ti2  1  0.50373714  0.00361355  0.25775478  1
  Ti4+  Ti3  1  0.50028466  0.49976889  0.25919030  1
  Ti4+  Ti4  1  0.33264709  0.16681259  0.59567608  1
  Ti4+  Ti5  1  0.33267589  0.66718305  0.58947220  1
  Ti4+  Ti6  1  0.82959752  0.16478333  0.59356482  1
  Ti4+  Ti7  1  0.83243021  0.66424483  0.58774672  1
  Ti4+  Ti8  1  0.16693211  0.33214260  0.92494776  1
  Ti4+  Ti9  1  0.16575561  0.83182953  0.92208301  1
  Ti4+  Ti10  1  0.66699443  0.33010968  0.92758280  1
  Ti4+  Ti11  1  0.66164262  0.82837897  0.92359025  1
  Ti4+  Ti12  1  0.00042831  -0.00068079  0.75387130  1
  Ti4+  Ti13  1  -0.00142431  0.49705214  0.75650922  1
  Ti4+  Ti14  1  0.49928790  -0.00035054  0.75612389  1
  Ti4+  Ti15  1  0.49966897  0.50154115  0.75629802  1
  Ti4+  Ti16  1  0.33433684  0.16809652  0.08807850  1
  Ti4+  Ti17  1  0.33330122  0.66660724  0.08995559  1
  Ti4+  Ti18  1  0.83291011  0.16380367  0.08567941  1
  Ti4+  Ti19  1  0.83357101  0.66650125  0.08751820  1
  Ti4+  Ti20  1  0.16787352  0.33411557  0.42481611  1
  Ti4+  Ti21  1  0.16681764  0.83378141  0.42049194  1
  Ti4+  Ti22  1  0.66866796  0.33525412  0.42365838  1
  Ti4+  Ti23  1  0.66666937  0.83477936  0.42123682  1
  Cu+  Cu24  1  0.90311269  0.30573694  0.81028766  1
  Cu+  Cu25  1  0.07135620  0.64306080  0.47281482  1
  Cu+  Cu26  1  0.73804088  0.97782653  0.13816743  1
  Cu+  Cu27  1  0.40218535  0.59436294  0.80526032  1
  Cu+  Cu28  1  0.41383141  0.31936011  0.81258854  1
  Cu+  Cu29  1  0.18187866  0.08747239  0.81237943  1
  Cu+  Cu30  1  0.24701595  0.26407286  0.14316681  1
  Cu+  Cu31  1  0.74972195  0.25763162  0.14774596  1
  Cu+  Cu32  1  0.57207065  0.64583355  0.47404295  1
  Cu+  Cu33  1  0.51749331  0.26342318  0.14417834  1
  Cu+  Cu34  1  0.01196134  0.26015266  0.14406790  1
  Cu+  Cu35  1  0.57232421  0.92932244  0.47451933  1
  Cu+  Cu36  1  0.16409988  0.08909465  0.16696309  1
  Cu+  Cu37  1  0.16633105  0.58382209  0.17155918  1
  Cu+  Cu38  1  0.66233613  0.07966127  0.16783692  1
  Cu+  Cu39  1  0.66598202  0.58344324  0.17149276  1
  Cu+  Cu40  1  0.42058780  0.34039146  0.17101985  1
  Cu+  Cu41  1  0.41959432  0.83727560  0.17202366  1
  Cu+  Cu42  1  0.92369784  0.34479281  0.16821433  1
  Cu+  Cu43  1  0.91888545  0.83815259  0.16750672  1
  Cu+  Cu44  1  0.42422349  0.08927816  0.16960897  1
  Cu+  Cu45  1  0.41728775  0.58222279  0.17315511  1
  Cu+  Cu46  1  0.91925386  0.08144505  0.16482600  1
  Cu+  Cu47  1  0.91926577  0.58479804  0.17037783  1
  Cu+  Cu48  1  0.49822099  0.25101134  0.50906996  1
  Cu+  Cu49  1  0.49827134  0.75001282  0.50229098  1
  Cu+  Cu50  1  0.99778862  0.25021170  0.50891447  1
  Cu+  Cu51  1  0.99718219  0.74395731  0.50087285  1
  Cu+  Cu52  1  0.24958873  0.00382429  0.50686350  1
  Cu+  Cu53  1  0.25337690  0.50368788  0.50467123  1
  Cu+  Cu54  1  0.74596773  0.00451721  0.50482133  1
  Cu+  Cu55  1  0.75253630  0.50486934  0.50227355  1
  Cu+  Cu56  1  0.25131680  0.24798691  0.50993544  1
  Cu+  Cu57  1  0.24731518  0.74559624  0.50136722  1
  Cu+  Cu58  1  0.75166492  0.24943981  0.50687670  1
  Cu+  Cu59  1  0.74673580  0.74405426  0.50183141  1
  Cu+  Cu60  1  0.33190686  0.41680984  0.83687169  1
  Cu+  Cu61  1  0.32880912  0.91180204  0.83628579  1
  Cu+  Cu62  1  0.83185292  0.40833099  0.84053806  1
  Cu+  Cu63  1  0.82882977  0.91173503  0.83765763  1
  Cu+  Cu64  1  0.08800952  0.16880274  0.83655993  1
  Cu+  Cu65  1  0.08423998  0.66897052  0.83742979  1
  Cu+  Cu66  1  0.58451220  0.16857469  0.84009226  1
  Cu+  Cu67  1  0.57757377  0.66939057  0.83648073  1
  Cu+  Cu68  1  0.07920861  0.40941552  0.83791098  1
  Cu+  Cu69  1  0.08710648  0.91438322  0.83549056  1
  Cu+  Cu70  1  0.58424518  0.41320729  0.84087768  1
  Cu+  Cu71  1  0.58202071  0.91213218  0.83797502  1
  Cu+  Cu72  1  0.16971903  0.08532305  0.68218134  1
  Cu+  Cu73  1  0.16654706  0.58269105  0.67463296  1
  Cu+  Cu74  1  0.66607018  0.08386300  0.67714180  1
  Cu+  Cu75  1  0.66921520  0.58503304  0.67382895  1
  Cu+  Cu76  1  0.41487876  0.33099240  0.68257043  1
  Cu+  Cu77  1  0.41668091  0.83279488  0.67321846  1
  Cu+  Cu78  1  0.91246718  0.32672246  0.68182101  1
  Cu+  Cu79  1  0.91430336  0.82848997  0.66937358  1
  Cu+  Cu80  1  0.41581746  0.08554676  0.67754934  1
  Cu+  Cu81  1  0.41769958  0.58844138  0.67809909  1
  Cu+  Cu82  1  0.91349687  0.08315944  0.67460033  1
  Cu+  Cu83  1  0.91468371  0.58240323  0.67376183  1
  Cu+  Cu84  1  0.00154649  0.24751447  0.01341507  1
  Cu+  Cu85  1  0.00196956  0.75063981  0.00425602  1
  Cu+  Cu86  1  0.50312211  0.25073392  0.01575325  1
  Cu+  Cu87  1  0.49853514  0.74825103  0.00844002  1
  Cu+  Cu88  1  0.24928248  0.49855385  0.00892756  1
  Cu+  Cu89  1  0.24742596  0.99437920  0.00654086  1
  Cu+  Cu90  1  0.74917387  0.49586952  0.00898895  1
  Cu+  Cu91  1  0.74533078  0.99096297  0.01025619  1
  Cu+  Cu92  1  0.25085566  0.25130901  0.01418234  1
  Cu+  Cu93  1  0.24813395  0.75113458  0.00688778  1
  Cu+  Cu94  1  0.74871827  0.24792932  0.01618142  1
  Cu+  Cu95  1  0.74642712  0.74804279  0.00559481  1
  Cu+  Cu96  1  0.33505121  0.41520437  0.34487548  1
  Cu+  Cu97  1  0.33695870  0.92197538  0.34116882  1
  Cu+  Cu98  1  0.83627762  0.41814170  0.34211230  1
  Cu+  Cu99  1  0.83682611  0.92149645  0.33861419  1
  Cu+  Cu100  1  0.08384173  0.16780738  0.34192724  1
  Cu+  Cu101  1  0.08311531  0.66485467  0.34408110  1
  Cu+  Cu102  1  0.58619325  0.16877693  0.34430453  1
  Cu+  Cu103  1  0.58208951  0.66332746  0.34526178  1
  Cu+  Cu104  1  0.08448574  0.41793559  0.34247781  1
  Cu+  Cu105  1  0.08476644  0.92209458  0.33739518  1
  Cu+  Cu106  1  0.58343687  0.41718217  0.34405359  1
  Cu+  Cu107  1  0.58489734  0.92154338  0.34583651  1
  Cu+  Cu108  1  0.00205760  -0.00374196  0.10825098  1
  Cu+  Cu109  1  0.00599799  0.51126601  0.11394377  1
  Cu+  Cu110  1  0.49302561  -0.00421058  0.11362806  1
  Cu+  Cu111  1  0.50483528  0.50889012  0.11632176  1
  Cu+  Cu112  1  0.33543144  0.16732681  0.45364582  1
  Cu+  Cu113  1  0.33322227  0.66835974  0.44505307  1
  Cu+  Cu114  1  0.83818349  0.17054243  0.45133720  1
  Cu+  Cu115  1  0.83645704  0.67272186  0.44307722  1
  Cu+  Cu116  1  0.16609246  0.33406081  0.78084026  1
  Cu+  Cu117  1  0.16512566  0.82924381  0.77782388  1
  Cu+  Cu118  1  0.66882910  0.33676929  0.78500473  1
  Cu+  Cu119  1  0.66987174  0.83640020  0.78017788  1
  Te2-  Te120  1  0.00099943  0.00207801  0.38267588  1
  Te2-  Te121  1  0.00044252  0.49827289  0.38741485  1
  Te2-  Te122  1  0.50040145  0.00389285  0.38778718  1
  Te2-  Te123  1  0.49945632  0.49740348  0.38950594  1
  Te2-  Te124  1  0.33465408  0.16617177  0.72865300  1
  Te2-  Te125  1  0.33091384  0.66896870  0.71971313  1
  Te2-  Te126  1  0.82923324  0.16042336  0.72442071  1
  Te2-  Te127  1  0.83372595  0.66607365  0.71691981  1
  Te2-  Te128  1  0.16785190  0.33521162  0.05653210  1
  Te2-  Te129  1  0.16445464  0.83127141  0.05142630  1
  Te2-  Te130  1  0.66936484  0.33441630  0.05967063  1
  Te2-  Te131  1  0.66197579  0.82569432  0.05438888  1
  Te2-  Te132  1  0.49380098  0.24339975  0.88817918  1
  Te2-  Te133  1  0.48673216  0.74578312  0.88311890  1
  Te2-  Te134  1  0.99418995  0.24084380  0.88523578  1
  Te2-  Te135  1  0.99409002  0.74713196  0.87897118  1
  Te2-  Te136  1  0.25725789  0.00651015  0.88159550  1
  Te2-  Te137  1  0.24855477  0.50345755  0.88255338  1
  Te2-  Te138  1  0.74949580  0.00010013  0.88296157  1
  Te2-  Te139  1  0.75284210  0.49952909  0.88293416  1
  Te2-  Te140  1  0.25642033  0.24667198  0.88590852  1
  Te2-  Te141  1  0.25161488  0.74530490  0.88123640  1
  Te2-  Te142  1  0.75014762  0.23979763  0.88779484  1
  Te2-  Te143  1  0.74662422  0.74280575  0.87992299  1
  Te2-  Te144  1  0.32671395  0.41528420  0.21873347  1
  Te2-  Te145  1  0.33390273  0.92136261  0.21453389  1
  Te2-  Te146  1  0.82829106  0.41747401  0.21620009  1
  Te2-  Te147  1  0.82710904  0.91384479  0.21287646  1
  Te2-  Te148  1  0.08842551  0.18099530  0.21577798  1
  Te2-  Te149  1  0.08663916  0.67192003  0.21616943  1
  Te2-  Te150  1  0.59257326  0.17971226  0.21801542  1
  Te2-  Te151  1  0.58542424  0.67035373  0.21732221  1
  Te2-  Te152  1  0.09131637  0.41683595  0.21663679  1
  Te2-  Te153  1  0.08783983  0.92101375  0.21095579  1
  Te2-  Te154  1  0.59000710  0.41642614  0.21797937  1
  Te2-  Te155  1  0.58682411  0.91354667  0.21807205  1
  Te2-  Te156  1  0.16132881  0.08108284  0.55488353  1
  Te2-  Te157  1  0.15941133  0.57698016  0.54860676  1
  Te2-  Te158  1  0.65571752  0.08247272  0.55148773  1
  Te2-  Te159  1  0.65740516  0.57549882  0.54834054  1
  Te2-  Te160  1  0.41840269  0.33812046  0.55521749  1
  Te2-  Te161  1  0.41611536  0.83910055  0.54713826  1
  Te2-  Te162  1  0.91723764  0.33687678  0.55440026  1
  Te2-  Te163  1  0.91701705  0.83408633  0.54320596  1
  Te2-  Te164  1  0.41764564  0.08192803  0.55163669  1
  Te2-  Te165  1  0.41959104  0.58059510  0.55081647  1
  Te2-  Te166  1  0.91467586  0.07974810  0.54869262  1
  Te2-  Te167  1  0.91799584  0.57531824  0.54802829  1
  Te2-  Te168  1  -0.00062054  -0.00273303  0.88077547  1
  Te2-  Te169  1  0.00151722  0.50038108  0.88336885  1
  Te2-  Te170  1  0.49779248  -0.00277445  0.88220593  1
  Te2-  Te171  1  0.50130451  0.50058851  0.88391323  1
  Te2-  Te172  1  0.33335847  0.16824459  0.21549135  1
  Te2-  Te173  1  0.33453495  0.66889176  0.21638759  1
  Te2-  Te174  1  0.83585991  0.16978670  0.21392816  1
  Te2-  Te175  1  0.83581403  0.67037952  0.21380878  1
  Te2-  Te176  1  0.16718886  0.33463564  0.55133399  1
  Te2-  Te177  1  0.16552909  0.83282246  0.54747179  1
  Te2-  Te178  1  0.66849223  0.33622409  0.55002875  1
  Te2-  Te179  1  0.66781841  0.83400740  0.54849938  1
  Te2-  Te180  1  0.32603496  0.41559276  0.70971760  1
  Te2-  Te181  1  0.32788846  0.91398116  0.71019196  1
  Te2-  Te182  1  0.82612762  0.41330236  0.71269810  1
  Te2-  Te183  1  0.82905683  0.91242457  0.70988850  1
  Te2-  Te184  1  0.08398618  0.17317681  0.71018746  1
  Te2-  Te185  1  0.08361338  0.66872751  0.71082540  1
  Te2-  Te186  1  0.58566268  0.17328741  0.71430946  1
  Te2-  Te187  1  0.58905536  0.67421412  0.71001660  1
  Te2-  Te188  1  0.08628080  0.41276943  0.71062761  1
  Te2-  Te189  1  0.08379663  0.91067862  0.70806770  1
  Te2-  Te190  1  0.58774982  0.41579126  0.71292189  1
  Te2-  Te191  1  0.58511266  0.91334808  0.71153956  1
  Te2-  Te192  1  0.16152337  0.07836821  0.04061001  1
  Te2-  Te193  1  0.16234445  0.58157855  0.04454128  1
  Te2-  Te194  1  0.65676164  0.07469316  0.04172217  1
  Te2-  Te195  1  0.66143781  0.57877265  0.04432700  1
  Te2-  Te196  1  0.42311946  0.34374663  0.04355527  1
  Te2-  Te197  1  0.41766175  0.83726616  0.04493945  1
  Te2-  Te198  1  0.92210184  0.34060964  0.04134838  1
  Te2-  Te199  1  0.91740527  0.83623036  0.04058564  1
  Te2-  Te200  1  0.41719370  0.07747410  0.04309740  1
  Te2-  Te201  1  0.41816958  0.57935368  0.04601925  1
  Te2-  Te202  1  0.91857691  0.07467730  0.03868249  1
  Te2-  Te203  1  0.91991792  0.58128211  0.04325310  1
  Te2-  Te204  1  0.49560471  0.24796715  0.38160393  1
  Te2-  Te205  1  0.49351829  0.74793259  0.37447066  1
  Te2-  Te206  1  0.99641986  0.24918052  0.38095447  1
  Te2-  Te207  1  0.99596744  0.75123208  0.37302298  1
  Te2-  Te208  1  0.25274813  0.00709433  0.37940604  1
  Te2-  Te209  1  0.25433875  0.50546855  0.37888930  1
  Te2-  Te210  1  0.75634620  0.00906538  0.37780944  1
  Te2-  Te211  1  0.75444677  0.50688360  0.37708966  1
  Te2-  Te212  1  0.25235088  0.24616012  0.38257810  1
  Te2-  Te213  1  0.25609501  0.75074883  0.37437264  1
  Te2-  Te214  1  0.75560961  0.24922170  0.38045033  1
  Te2-  Te215  1  0.75503460  0.75113310  0.37437524  1
