# generated using pymatgen
data_Ti(CuTe)4
_symmetry_space_group_name_H-M   'P 1'
_cell_length_a   16.87407869
_cell_length_b   16.87698987
_cell_length_c   20.68420365
_cell_angle_alpha   89.97608019
_cell_angle_beta   90.05246420
_cell_angle_gamma   120.01195317
_symmetry_Int_Tables_number   1
_chemical_formula_structural   Ti(CuTe)4
_chemical_formula_sum   'Ti24 Cu96 Te96'
_cell_volume   5100.72596222
_cell_formula_units_Z   24
loop_
 _symmetry_equiv_pos_site_id
 _symmetry_equiv_pos_as_xyz
  1  'x, y, z'
loop_
 _atom_type_symbol
 _atom_type_oxidation_number
  Ti4+  4.0
  Cu+  1.0
  Te2-  -2.0
loop_
 _atom_site_type_symbol
 _atom_site_label
 _atom_site_symmetry_multiplicity
 _atom_site_fract_x
 _atom_site_fract_y
 _atom_site_fract_z
 _atom_site_occupancy
  Ti4+  Ti0  1  -0.00178759  0.00184759  0.25571037  1
  Ti4+  Ti1  1  0.00395570  0.50185256  0.26047067  1
  Ti4+  Ti2  1  0.49808547  -0.00074725  0.25750260  1
  Ti4+  Ti3  1  0.50182451  0.50000234  0.25729713  1
  Ti4+  Ti4  1  0.32999260  0.16448584  0.59270676  1
  Ti4+  Ti5  1  0.33502609  0.66890668  0.59216540  1
  Ti4+  Ti6  1  0.83343518  0.16503254  0.58758265  1
  Ti4+  Ti7  1  0.83564187  0.66702828  0.58967464  1
  Ti4+  Ti8  1  0.16713520  0.33630367  0.92578120  1
  Ti4+  Ti9  1  0.16631605  0.83219996  0.92746105  1
  Ti4+  Ti10  1  0.66265648  0.33101507  0.92222464  1
  Ti4+  Ti11  1  0.66488352  0.83231716  0.92570763  1
  Ti4+  Ti12  1  0.00002901  -0.00078157  0.75766615  1
  Ti4+  Ti13  1  0.00113557  0.49919744  0.75752635  1
  Ti4+  Ti14  1  0.50124909  0.00150169  0.75597711  1
  Ti4+  Ti15  1  0.49980914  0.50056228  0.75290218  1
  Ti4+  Ti16  1  0.33372202  0.16710371  0.08907229  1
  Ti4+  Ti17  1  0.33294632  0.66831651  0.09039971  1
  Ti4+  Ti18  1  0.83652960  0.16687895  0.08987873  1
  Ti4+  Ti19  1  0.83134632  0.66537037  0.08800032  1
  Ti4+  Ti20  1  0.16744225  0.33101534  0.42161937  1
  Ti4+  Ti21  1  0.16687138  0.83310561  0.42076513  1
  Ti4+  Ti22  1  0.66890284  0.33446023  0.42001244  1
  Ti4+  Ti23  1  0.66657024  0.83528218  0.42247248  1
  Cu+  Cu24  1  0.73495878  0.75465845  0.14025978  1
  Cu+  Cu25  1  0.84709700  0.42312837  0.47849499  1
  Cu+  Cu26  1  0.23605988  0.76204534  0.14282125  1
  Cu+  Cu27  1  0.40058129  0.08531161  0.80974696  1
  Cu+  Cu28  1  0.08238209  0.41965330  0.48304888  1
  Cu+  Cu29  1  0.07142794  0.13932678  0.47216229  1
  Cu+  Cu30  1  0.02802794  0.26634798  0.14227395  1
  Cu+  Cu31  1  0.08014472  0.65715284  0.48151275  1
  Cu+  Cu32  1  0.40229898  0.31854016  0.80807582  1
  Cu+  Cu33  1  0.56796288  0.92889402  0.47204312  1
  Cu+  Cu34  1  0.40485563  0.59541507  0.80725865  1
  Cu+  Cu35  1  0.73776768  0.98352619  0.14305882  1
  Cu+  Cu36  1  0.16462719  0.08525240  0.17053285  1
  Cu+  Cu37  1  0.16540047  0.58751392  0.17293848  1
  Cu+  Cu38  1  0.66294211  0.07945497  0.17188178  1
  Cu+  Cu39  1  0.66296736  0.58250919  0.16994473  1
  Cu+  Cu40  1  0.41925958  0.33619401  0.17143050  1
  Cu+  Cu41  1  0.41290364  0.83567231  0.17118253  1
  Cu+  Cu42  1  0.92516990  0.33682564  0.17328984  1
  Cu+  Cu43  1  0.91235067  0.83381184  0.16815477  1
  Cu+  Cu44  1  0.41738809  0.08212357  0.17102609  1
  Cu+  Cu45  1  0.41903322  0.58078511  0.17122382  1
  Cu+  Cu46  1  0.92053371  0.08447898  0.16864311  1
  Cu+  Cu47  1  0.91871830  0.58104569  0.17229668  1
  Cu+  Cu48  1  0.49660618  0.24817378  0.50629834  1
  Cu+  Cu49  1  0.49933292  0.75514444  0.50630500  1
  Cu+  Cu50  1  0.99698728  0.24233336  0.49940664  1
  Cu+  Cu51  1  0.99630309  0.74823201  0.50115313  1
  Cu+  Cu52  1  0.25166700  0.00332650  0.50424497  1
  Cu+  Cu53  1  0.25605610  0.50495696  0.50470571  1
  Cu+  Cu54  1  0.74628168  0.00283946  0.50101708  1
  Cu+  Cu55  1  0.75469158  0.50482419  0.50096350  1
  Cu+  Cu56  1  0.24634984  0.24112315  0.50388693  1
  Cu+  Cu57  1  0.25355590  0.74779476  0.50254906  1
  Cu+  Cu58  1  0.75245020  0.24822352  0.49938335  1
  Cu+  Cu59  1  0.75407589  0.74984915  0.50435475  1
  Cu+  Cu60  1  0.32899470  0.41895144  0.83575381  1
  Cu+  Cu61  1  0.32975049  0.91427911  0.84125882  1
  Cu+  Cu62  1  0.82980298  0.41422600  0.83835214  1
  Cu+  Cu63  1  0.83087909  0.91464323  0.84094395  1
  Cu+  Cu64  1  0.07981008  0.16806769  0.83960049  1
  Cu+  Cu65  1  0.08699428  0.66795801  0.84214675  1
  Cu+  Cu66  1  0.57946634  0.16949656  0.83486215  1
  Cu+  Cu67  1  0.58104048  0.67023357  0.83648395  1
  Cu+  Cu68  1  0.08385970  0.41401817  0.83987607  1
  Cu+  Cu69  1  0.08283622  0.91301700  0.84011220  1
  Cu+  Cu70  1  0.58069492  0.40922969  0.83224880  1
  Cu+  Cu71  1  0.58774443  0.91644486  0.83897690  1
  Cu+  Cu72  1  0.16505554  0.08278461  0.67705012  1
  Cu+  Cu73  1  0.16835937  0.58256873  0.67861109  1
  Cu+  Cu74  1  0.66942839  0.08364087  0.67359960  1
  Cu+  Cu75  1  0.67147845  0.58555313  0.67162011  1
  Cu+  Cu76  1  0.41477902  0.33035070  0.67799266  1
  Cu+  Cu77  1  0.41949887  0.83476238  0.67757553  1
  Cu+  Cu78  1  0.91855702  0.33175871  0.67441179  1
  Cu+  Cu79  1  0.91666403  0.83066442  0.67411949  1
  Cu+  Cu80  1  0.41541251  0.08528917  0.68019830  1
  Cu+  Cu81  1  0.41800825  0.58907690  0.67813080  1
  Cu+  Cu82  1  0.91584185  0.08176756  0.67215352  1
  Cu+  Cu83  1  0.91863102  0.58489546  0.67652017  1
  Cu+  Cu84  1  0.00589076  0.25486524  0.01445801  1
  Cu+  Cu85  1  0.00058154  0.74703639  0.00909490  1
  Cu+  Cu86  1  0.50117732  0.24996802  0.00803667  1
  Cu+  Cu87  1  0.49893409  0.74964446  0.00846396  1
  Cu+  Cu88  1  0.25039957  0.50141903  0.00955435  1
  Cu+  Cu89  1  0.24930685  0.99806351  0.01115859  1
  Cu+  Cu90  1  0.74775750  0.49534900  0.00473471  1
  Cu+  Cu91  1  0.75098955  0.99737368  0.01364888  1
  Cu+  Cu92  1  0.25023243  0.25259737  0.00808976  1
  Cu+  Cu93  1  0.24779898  0.75318744  0.01474231  1
  Cu+  Cu94  1  0.74862705  0.25118976  0.00569996  1
  Cu+  Cu95  1  0.74618662  0.75005507  0.01125090  1
  Cu+  Cu96  1  0.33937497  0.41658622  0.34052418  1
  Cu+  Cu97  1  0.33302679  0.91729373  0.34201683  1
  Cu+  Cu98  1  0.83874367  0.41857252  0.34678573  1
  Cu+  Cu99  1  0.83330413  0.91824167  0.34102906  1
  Cu+  Cu100  1  0.08338942  0.16406613  0.34475517  1
  Cu+  Cu101  1  0.08445150  0.66688982  0.34888738  1
  Cu+  Cu102  1  0.58135478  0.16495076  0.33971241  1
  Cu+  Cu103  1  0.58321549  0.66344698  0.34198101  1
  Cu+  Cu104  1  0.08810506  0.41998536  0.34870658  1
  Cu+  Cu105  1  0.08333205  0.91958266  0.33829288  1
  Cu+  Cu106  1  0.58294031  0.41777156  0.33910351  1
  Cu+  Cu107  1  0.57915327  0.91761497  0.34463874  1
  Cu+  Cu108  1  0.00307236  -0.00376599  0.11222896  1
  Cu+  Cu109  1  -0.00181120  0.49874733  0.11680180  1
  Cu+  Cu110  1  0.50128729  0.00287225  0.11410675  1
  Cu+  Cu111  1  0.49871039  0.49678329  0.11317999  1
  Cu+  Cu112  1  0.33701774  0.16726253  0.44909679  1
  Cu+  Cu113  1  0.33784739  0.66679619  0.44765591  1
  Cu+  Cu114  1  0.83305605  0.16555931  0.44073724  1
  Cu+  Cu115  1  0.83117329  0.66849693  0.44379797  1
  Cu+  Cu116  1  0.16260409  0.32937396  0.78200099  1
  Cu+  Cu117  1  0.16301628  0.82975200  0.78498833  1
  Cu+  Cu118  1  0.67221783  0.33437853  0.77786901  1
  Cu+  Cu119  1  0.67125526  0.83508716  0.78280138  1
  Te2-  Te120  1  -0.00236010  -0.00314035  0.38588254  1
  Te2-  Te121  1  0.00379153  0.50118066  0.39398142  1
  Te2-  Te122  1  0.49697078  0.00208737  0.38789744  1
  Te2-  Te123  1  0.50249557  0.49976465  0.38676267  1
  Te2-  Te124  1  0.32903094  0.16522877  0.72476021  1
  Te2-  Te125  1  0.33335515  0.67009782  0.72247646  1
  Te2-  Te126  1  0.83492680  0.16587099  0.71589323  1
  Te2-  Te127  1  0.83463436  0.66614610  0.71859904  1
  Te2-  Te128  1  0.17263735  0.33786778  0.05637227  1
  Te2-  Te129  1  0.16292143  0.83464741  0.05808100  1
  Te2-  Te130  1  0.66594003  0.33208885  0.05127166  1
  Te2-  Te131  1  0.66216535  0.83147093  0.05790463  1
  Te2-  Te132  1  0.48516621  0.24314723  0.88196737  1
  Te2-  Te133  1  0.49164132  0.74921989  0.88309398  1
  Te2-  Te134  1  0.99509855  0.24873645  0.88730068  1
  Te2-  Te135  1  0.99567939  0.74541805  0.88352210  1
  Te2-  Te136  1  0.24958739  0.00527268  0.88537872  1
  Te2-  Te137  1  0.25187072  0.50956735  0.88358443  1
  Te2-  Te138  1  0.75310363  0.00413114  0.88644053  1
  Te2-  Te139  1  0.74758294  0.50168237  0.87885902  1
  Te2-  Te140  1  0.24939634  0.24726806  0.88193846  1
  Te2-  Te141  1  0.25403241  0.74818230  0.88763800  1
  Te2-  Te142  1  0.74762159  0.24506641  0.87992190  1
  Te2-  Te143  1  0.74803964  0.74529853  0.88383322  1
  Te2-  Te144  1  0.32973193  0.41396501  0.21524538  1
  Te2-  Te145  1  0.32404078  0.91571499  0.21665348  1
  Te2-  Te146  1  0.83461934  0.41425637  0.21887253  1
  Te2-  Te147  1  0.82282888  0.91332269  0.21491510  1
  Te2-  Te148  1  0.08926764  0.17594243  0.21743876  1
  Te2-  Te149  1  0.08428161  0.67448653  0.22078824  1
  Te2-  Te150  1  0.58513443  0.16963509  0.21420295  1
  Te2-  Te151  1  0.58506570  0.67425815  0.21649771  1
  Te2-  Te152  1  0.09453393  0.42040766  0.21991236  1
  Te2-  Te153  1  0.08156519  0.91590829  0.21239973  1
  Te2-  Te154  1  0.58763400  0.41497030  0.21354469  1
  Te2-  Te155  1  0.58079602  0.90884055  0.21742623  1
  Te2-  Te156  1  0.15602894  0.07359226  0.55118913  1
  Te2-  Te157  1  0.15918507  0.57841011  0.55204833  1
  Te2-  Te158  1  0.65935092  0.08311876  0.54769336  1
  Te2-  Te159  1  0.66467761  0.58128176  0.54600167  1
  Te2-  Te160  1  0.41410336  0.33458202  0.55035080  1
  Te2-  Te161  1  0.41789103  0.84276338  0.55150869  1
  Te2-  Te162  1  0.92260487  0.34018422  0.54797210  1
  Te2-  Te163  1  0.92146532  0.83861101  0.54827794  1
  Te2-  Te164  1  0.41739567  0.08070233  0.55247039  1
  Te2-  Te165  1  0.42231182  0.58617381  0.55080696  1
  Te2-  Te166  1  0.91544431  0.07433383  0.54595811  1
  Te2-  Te167  1  0.92367623  0.57867919  0.55011421  1
  Te2-  Te168  1  -0.00036533  -0.00084321  0.88418241  1
  Te2-  Te169  1  -0.00190646  0.49779925  0.88378615  1
  Te2-  Te170  1  0.50186697  0.00105549  0.88290678  1
  Te2-  Te171  1  0.50044960  0.49910279  0.88036596  1
  Te2-  Te172  1  0.33368206  0.16738166  0.21543495  1
  Te2-  Te173  1  0.33550132  0.66645536  0.21723014  1
  Te2-  Te174  1  0.83336107  0.16640122  0.21751252  1
  Te2-  Te175  1  0.83291596  0.66569781  0.21521242  1
  Te2-  Te176  1  0.16723352  0.33255500  0.54952349  1
  Te2-  Te177  1  0.16679648  0.83251732  0.54808126  1
  Te2-  Te178  1  0.66840728  0.33411692  0.54734980  1
  Te2-  Te179  1  0.66966489  0.83470582  0.54926225  1
  Te2-  Te180  1  0.32573451  0.41482639  0.70794637  1
  Te2-  Te181  1  0.32700649  0.91275784  0.71349509  1
  Te2-  Te182  1  0.83079531  0.41400935  0.71061431  1
  Te2-  Te183  1  0.82935647  0.91320129  0.71262960  1
  Te2-  Te184  1  0.08384326  0.17120375  0.71240935  1
  Te2-  Te185  1  0.08777505  0.67194148  0.71450549  1
  Te2-  Te186  1  0.58878777  0.17344948  0.70836466  1
  Te2-  Te187  1  0.59040029  0.67391541  0.70940077  1
  Te2-  Te188  1  0.08707898  0.41257981  0.71309043  1
  Te2-  Te189  1  0.08572936  0.91270539  0.71345261  1
  Te2-  Te190  1  0.58779138  0.41533495  0.70648792  1
  Te2-  Te191  1  0.58879271  0.91564397  0.71283943  1
  Te2-  Te192  1  0.16181469  0.08227693  0.04381463  1
  Te2-  Te193  1  0.15955096  0.58013822  0.04602187  1
  Te2-  Te194  1  0.66337112  0.08237381  0.04445846  1
  Te2-  Te195  1  0.65919140  0.57702777  0.04225974  1
  Te2-  Te196  1  0.41991756  0.33876383  0.04406340  1
  Te2-  Te197  1  0.42103877  0.84121914  0.04460801  1
  Te2-  Te198  1  0.91782458  0.33928656  0.04546189  1
  Te2-  Te199  1  0.91943421  0.83761496  0.04121953  1
  Te2-  Te200  1  0.41965595  0.08038902  0.04478101  1
  Te2-  Te201  1  0.41934480  0.58150752  0.04546431  1
  Te2-  Te202  1  0.92382232  0.08092937  0.04239834  1
  Te2-  Te203  1  0.91660064  0.57777336  0.04538914  1
  Te2-  Te204  1  0.49619102  0.24854906  0.37842999  1
  Te2-  Te205  1  0.49436223  0.74535229  0.37810664  1
  Te2-  Te206  1  0.99366036  0.24701590  0.37278358  1
  Te2-  Te207  1  0.99360475  0.74971233  0.37459450  1
  Te2-  Te208  1  0.25174738  0.00594597  0.37781899  1
  Te2-  Te209  1  0.25948187  0.50577716  0.37810501  1
  Te2-  Te210  1  0.75231926  0.00704591  0.37419574  1
  Te2-  Te211  1  0.75378931  0.50722729  0.37410364  1
  Te2-  Te212  1  0.25569762  0.24682326  0.37698513  1
  Te2-  Te213  1  0.25693479  0.74796335  0.37665241  1
  Te2-  Te214  1  0.75210958  0.24493375  0.37310822  1
  Te2-  Te215  1  0.75269462  0.74921098  0.37740979  1
