# generated using pymatgen
data_Ti(CuTe)4
_symmetry_space_group_name_H-M   'P 1'
_cell_length_a   16.88586878
_cell_length_b   16.88989032
_cell_length_c   20.70931248
_cell_angle_alpha   90.06453814
_cell_angle_beta   90.00942776
_cell_angle_gamma   119.98676924
_symmetry_Int_Tables_number   1
_chemical_formula_structural   Ti(CuTe)4
_chemical_formula_sum   'Ti24 Cu96 Te96'
_cell_volume   5115.68752408
_cell_formula_units_Z   24
loop_
 _symmetry_equiv_pos_site_id
 _symmetry_equiv_pos_as_xyz
  1  'x, y, z'
loop_
 _atom_type_symbol
 _atom_type_oxidation_number
  Ti4+  4.0
  Cu+  1.0
  Te2-  -2.0
loop_
 _atom_site_type_symbol
 _atom_site_label
 _atom_site_symmetry_multiplicity
 _atom_site_fract_x
 _atom_site_fract_y
 _atom_site_fract_z
 _atom_site_occupancy
  Ti4+  Ti0  1  -0.00192168  0.00077821  0.26158580  1
  Ti4+  Ti1  1  -0.00338571  0.50021938  0.25635074  1
  Ti4+  Ti2  1  0.49943614  0.00204079  0.25703986  1
  Ti4+  Ti3  1  0.50071727  0.50258547  0.25802623  1
  Ti4+  Ti4  1  0.33364043  0.16799649  0.59151070  1
  Ti4+  Ti5  1  0.33239602  0.66830818  0.58545799  1
  Ti4+  Ti6  1  0.83234350  0.16422546  0.59082111  1
  Ti4+  Ti7  1  0.83260250  0.66506057  0.59405742  1
  Ti4+  Ti8  1  0.16627050  0.33063358  0.92171521  1
  Ti4+  Ti9  1  0.16894909  0.83335155  0.92377559  1
  Ti4+  Ti10  1  0.66756694  0.33106158  0.92586965  1
  Ti4+  Ti11  1  0.66941570  0.83033923  0.92562215  1
  Ti4+  Ti12  1  -0.00009575  -0.00059523  0.75471987  1
  Ti4+  Ti13  1  0.00003147  0.49870151  0.75559789  1
  Ti4+  Ti14  1  0.50075583  0.00023012  0.75526942  1
  Ti4+  Ti15  1  0.49993177  0.50020436  0.75578659  1
  Ti4+  Ti16  1  0.33434631  0.16669186  0.08962301  1
  Ti4+  Ti17  1  0.33393925  0.66622918  0.08750758  1
  Ti4+  Ti18  1  0.83411505  0.16693060  0.08966739  1
  Ti4+  Ti19  1  0.83370957  0.66756273  0.08955501  1
  Ti4+  Ti20  1  0.16694180  0.33421912  0.42021509  1
  Ti4+  Ti21  1  0.16580113  0.83327610  0.42071840  1
  Ti4+  Ti22  1  0.66705602  0.33568216  0.42461834  1
  Ti4+  Ti23  1  0.66527047  0.83498536  0.42115259  1
  Cu+  Cu24  1  0.06879913  0.64245713  0.47129670  1
  Cu+  Cu25  1  0.74045023  0.76278371  0.14514139  1
  Cu+  Cu26  1  0.68131952  0.58538656  0.81351318  1
  Cu+  Cu27  1  0.91362222  0.81619126  0.81114534  1
  Cu+  Cu28  1  0.84290364  0.91856598  0.48156292  1
  Cu+  Cu29  1  0.90424111  0.30629388  0.80720267  1
  Cu+  Cu30  1  0.73766066  0.25589141  0.14380873  1
  Cu+  Cu31  1  0.07931140  0.15232313  0.47819417  1
  Cu+  Cu32  1  0.73815190  0.48659558  0.14443075  1
  Cu+  Cu33  1  0.57486512  0.64863456  0.47525289  1
  Cu+  Cu34  1  0.57277426  0.93029842  0.47108784  1
  Cu+  Cu35  1  0.40736070  0.31052139  0.80754299  1
  Cu+  Cu36  1  0.16534291  0.08477735  0.17414242  1
  Cu+  Cu37  1  0.16351276  0.58473502  0.17032515  1
  Cu+  Cu38  1  0.66246335  0.08437056  0.17156808  1
  Cu+  Cu39  1  0.66198003  0.58486302  0.17099528  1
  Cu+  Cu40  1  0.41882657  0.33554023  0.17095824  1
  Cu+  Cu41  1  0.41857999  0.83631657  0.17080856  1
  Cu+  Cu42  1  0.91230640  0.33676602  0.16942999  1
  Cu+  Cu43  1  0.91338742  0.83917807  0.17317607  1
  Cu+  Cu44  1  0.41828334  0.08302152  0.17055597  1
  Cu+  Cu45  1  0.41793672  0.58342354  0.17074860  1
  Cu+  Cu46  1  0.91871338  0.08223787  0.17443895  1
  Cu+  Cu47  1  0.91436913  0.57858816  0.16980387  1
  Cu+  Cu48  1  0.49811625  0.25133573  0.50696411  1
  Cu+  Cu49  1  0.49648322  0.75108200  0.49924921  1
  Cu+  Cu50  1  0.99866735  0.24717464  0.50321776  1
  Cu+  Cu51  1  0.99906373  0.74646994  0.50491529  1
  Cu+  Cu52  1  0.25324373  0.00471111  0.50304731  1
  Cu+  Cu53  1  0.25249996  0.50638277  0.49870621  1
  Cu+  Cu54  1  0.75082080  0.00551070  0.50148911  1
  Cu+  Cu55  1  0.74946610  0.50347995  0.50727366  1
  Cu+  Cu56  1  0.25187761  0.24839393  0.50456018  1
  Cu+  Cu57  1  0.24714640  0.74554184  0.49878927  1
  Cu+  Cu58  1  0.75084871  0.24956526  0.50609670  1
  Cu+  Cu59  1  0.74980648  0.74493381  0.50600405  1
  Cu+  Cu60  1  0.33064216  0.41012291  0.83570904  1
  Cu+  Cu61  1  0.33224572  0.91602664  0.83764686  1
  Cu+  Cu62  1  0.83258970  0.40987565  0.83870967  1
  Cu+  Cu63  1  0.83214079  0.90958087  0.83747722  1
  Cu+  Cu64  1  0.08695486  0.17171136  0.83477247  1
  Cu+  Cu65  1  0.08809948  0.67095150  0.83740619  1
  Cu+  Cu66  1  0.58652483  0.16820295  0.83733925  1
  Cu+  Cu67  1  0.59184664  0.67039585  0.83742571  1
  Cu+  Cu68  1  0.07953188  0.40953112  0.83627801  1
  Cu+  Cu69  1  0.08537480  0.91276821  0.83752658  1
  Cu+  Cu70  1  0.58382267  0.41273114  0.83904881  1
  Cu+  Cu71  1  0.58512050  0.91413633  0.83919608  1
  Cu+  Cu72  1  0.16867684  0.08618217  0.67556950  1
  Cu+  Cu73  1  0.16758888  0.58557512  0.67132299  1
  Cu+  Cu74  1  0.66669920  0.08229114  0.67539278  1
  Cu+  Cu75  1  0.66842091  0.58666844  0.68287005  1
  Cu+  Cu76  1  0.41391171  0.33058792  0.67838534  1
  Cu+  Cu77  1  0.41603619  0.83291394  0.67033002  1
  Cu+  Cu78  1  0.91441392  0.32785160  0.67859589  1
  Cu+  Cu79  1  0.91441704  0.82943573  0.68133771  1
  Cu+  Cu80  1  0.41717904  0.08667427  0.67531910  1
  Cu+  Cu81  1  0.41610547  0.58794177  0.67113718  1
  Cu+  Cu82  1  0.91631528  0.08335750  0.67597203  1
  Cu+  Cu83  1  0.91707418  0.58349309  0.67771945  1
  Cu+  Cu84  1  0.00340466  0.24950822  0.00796842  1
  Cu+  Cu85  1  0.00614199  0.75468865  0.00928404  1
  Cu+  Cu86  1  0.50138730  0.24988163  0.00963904  1
  Cu+  Cu87  1  0.50384042  0.74875161  0.00812541  1
  Cu+  Cu88  1  0.24832252  0.49544745  0.00419967  1
  Cu+  Cu89  1  0.24889467  0.99719143  0.00737364  1
  Cu+  Cu90  1  0.75137437  0.49749051  0.01449608  1
  Cu+  Cu91  1  0.75260599  0.99629816  0.00926413  1
  Cu+  Cu92  1  0.25029156  0.25016312  0.00731603  1
  Cu+  Cu93  1  0.25108646  0.75191491  0.00646978  1
  Cu+  Cu94  1  0.75048981  0.24971357  0.01446716  1
  Cu+  Cu95  1  0.75152321  0.75110030  0.01521875  1
  Cu+  Cu96  1  0.33613359  0.41933671  0.34066254  1
  Cu+  Cu97  1  0.33441998  0.91945962  0.33927737  1
  Cu+  Cu98  1  0.83238733  0.41921303  0.34360360  1
  Cu+  Cu99  1  0.83527458  0.91986607  0.35012339  1
  Cu+  Cu100  1  0.08189474  0.16406361  0.34868818  1
  Cu+  Cu101  1  0.07857836  0.66312513  0.34308957  1
  Cu+  Cu102  1  0.58268104  0.16728234  0.34306429  1
  Cu+  Cu103  1  0.58257913  0.66553292  0.34556325  1
  Cu+  Cu104  1  0.08137366  0.41936443  0.33823731  1
  Cu+  Cu105  1  0.08141766  0.91879831  0.34242042  1
  Cu+  Cu106  1  0.58462180  0.42148580  0.34347082  1
  Cu+  Cu107  1  0.58092481  0.92219342  0.34288174  1
  Cu+  Cu108  1  0.00496406  0.00338711  0.11861790  1
  Cu+  Cu109  1  0.00489684  0.50044489  0.11244653  1
  Cu+  Cu110  1  0.49781784  -0.00270856  0.11380552  1
  Cu+  Cu111  1  0.49367853  0.49686901  0.11473283  1
  Cu+  Cu112  1  0.33695996  0.16789618  0.44843332  1
  Cu+  Cu113  1  0.33173268  0.66769130  0.43929914  1
  Cu+  Cu114  1  0.83637486  0.17526213  0.44746216  1
  Cu+  Cu115  1  0.83588534  0.66751238  0.45033666  1
  Cu+  Cu116  1  0.16988004  0.33912501  0.77795593  1
  Cu+  Cu117  1  0.17125895  0.83489239  0.78031524  1
  Cu+  Cu118  1  0.66796466  0.33298679  0.78245354  1
  Cu+  Cu119  1  0.66627816  0.83613835  0.78242862  1
  Te2-  Te120  1  0.00049882  -0.00131654  0.39405050  1
  Te2-  Te121  1  -0.00300332  0.49705051  0.38682196  1
  Te2-  Te122  1  0.49667026  0.00332452  0.38783238  1
  Te2-  Te123  1  0.49891065  0.49962797  0.38880653  1
  Te2-  Te124  1  0.33211702  0.16467822  0.72213165  1
  Te2-  Te125  1  0.33240309  0.66856485  0.71405596  1
  Te2-  Te126  1  0.83040969  0.16124628  0.72119302  1
  Te2-  Te127  1  0.83439112  0.66375308  0.72600367  1
  Te2-  Te128  1  0.16806671  0.33262409  0.05050633  1
  Te2-  Te129  1  0.17007844  0.83401901  0.05297204  1
  Te2-  Te130  1  0.66470722  0.33115519  0.05738231  1
  Te2-  Te131  1  0.66667677  0.83315257  0.05616356  1
  Te2-  Te132  1  0.49506506  0.24391126  0.88350332  1
  Te2-  Te133  1  0.49943146  0.74519002  0.88216952  1
  Te2-  Te134  1  0.99088814  0.24041485  0.88238638  1
  Te2-  Te135  1  0.99355029  0.74270027  0.88394726  1
  Te2-  Te136  1  0.25231507  0.00455208  0.88143820  1
  Te2-  Te137  1  0.25049220  0.50025146  0.87783902  1
  Te2-  Te138  1  0.75468276  0.00011815  0.88277621  1
  Te2-  Te139  1  0.75616339  0.50282966  0.88579107  1
  Te2-  Te140  1  0.25238502  0.24163017  0.88178176  1
  Te2-  Te141  1  0.25525004  0.74808061  0.88101278  1
  Te2-  Te142  1  0.75199414  0.24210989  0.88644229  1
  Te2-  Te143  1  0.75879441  0.74211646  0.88734905  1
  Te2-  Te144  1  0.33061022  0.41551082  0.21483152  1
  Te2-  Te145  1  0.32882046  0.91534007  0.21381077  1
  Te2-  Te146  1  0.81904696  0.41160366  0.21780529  1
  Te2-  Te147  1  0.82336233  0.91654145  0.22217888  1
  Te2-  Te148  1  0.08510007  0.17176350  0.22118073  1
  Te2-  Te149  1  0.08120552  0.67087793  0.21584900  1
  Te2-  Te150  1  0.58421019  0.17624096  0.21737888  1
  Te2-  Te151  1  0.58504181  0.67608741  0.21809931  1
  Te2-  Te152  1  0.08098565  0.41492247  0.21236572  1
  Te2-  Te153  1  0.08175607  0.91503962  0.21648955  1
  Te2-  Te154  1  0.58555887  0.41417725  0.21754804  1
  Te2-  Te155  1  0.58637136  0.91747238  0.21629778  1
  Te2-  Te156  1  0.15984100  0.07782202  0.55003808  1
  Te2-  Te157  1  0.15782093  0.57738867  0.54579238  1
  Te2-  Te158  1  0.65913342  0.08106365  0.54952863  1
  Te2-  Te159  1  0.65864538  0.57867607  0.55497261  1
  Te2-  Te160  1  0.41822693  0.33946478  0.55142830  1
  Te2-  Te161  1  0.41638674  0.84111502  0.54447876  1
  Te2-  Te162  1  0.91893319  0.33432372  0.55082907  1
  Te2-  Te163  1  0.92089493  0.83682581  0.55307070  1
  Te2-  Te164  1  0.41966878  0.08283835  0.54941390  1
  Te2-  Te165  1  0.41897570  0.58071039  0.54562005  1
  Te2-  Te166  1  0.92087763  0.07686949  0.54997736  1
  Te2-  Te167  1  0.91748550  0.57753558  0.55132462  1
  Te2-  Te168  1  0.00288143  0.00138908  0.88140204  1
  Te2-  Te169  1  0.00270815  0.50110083  0.88235988  1
  Te2-  Te170  1  0.50103653  -0.00090258  0.88154482  1
  Te2-  Te171  1  0.49947909  0.50002112  0.88333280  1
  Te2-  Te172  1  0.33432909  0.16774380  0.21608386  1
  Te2-  Te173  1  0.33220457  0.66732198  0.21379726  1
  Te2-  Te174  1  0.83292174  0.16788101  0.21652937  1
  Te2-  Te175  1  0.83325981  0.66810603  0.21691190  1
  Te2-  Te176  1  0.16898855  0.33733469  0.54711696  1
  Te2-  Te177  1  0.16927056  0.83524329  0.54759099  1
  Te2-  Te178  1  0.66686353  0.33408474  0.55095967  1
  Te2-  Te179  1  0.66632763  0.83419192  0.54948477  1
  Te2-  Te180  1  0.32863237  0.41799402  0.70850067  1
  Te2-  Te181  1  0.32998672  0.91587169  0.71036256  1
  Te2-  Te182  1  0.82660187  0.41271790  0.71150260  1
  Te2-  Te183  1  0.82555796  0.91325195  0.71065804  1
  Te2-  Te184  1  0.08617706  0.17304732  0.70995178  1
  Te2-  Te185  1  0.08658963  0.67189676  0.71163680  1
  Te2-  Te186  1  0.58702149  0.17257675  0.71144038  1
  Te2-  Te187  1  0.58389659  0.67425187  0.71115512  1
  Te2-  Te188  1  0.08754425  0.41550950  0.70845613  1
  Te2-  Te189  1  0.08841108  0.91477998  0.71011885  1
  Te2-  Te190  1  0.58668620  0.41294103  0.71099203  1
  Te2-  Te191  1  0.58443573  0.91256460  0.71131867  1
  Te2-  Te192  1  0.16295766  0.08089564  0.04652515  1
  Te2-  Te193  1  0.16361202  0.58117486  0.04259728  1
  Te2-  Te194  1  0.66146068  0.07665537  0.04421449  1
  Te2-  Te195  1  0.65910314  0.57809000  0.04373718  1
  Te2-  Te196  1  0.41986574  0.33826795  0.04438010  1
  Te2-  Te197  1  0.42125509  0.83733558  0.04366933  1
  Te2-  Te198  1  0.92304274  0.33934861  0.04298134  1
  Te2-  Te199  1  0.92367879  0.84160510  0.04634352  1
  Te2-  Te200  1  0.41917205  0.07982715  0.04442223  1
  Te2-  Te201  1  0.41809232  0.57872280  0.04367308  1
  Te2-  Te202  1  0.92144612  0.08083730  0.04807351  1
  Te2-  Te203  1  0.92393684  0.58406335  0.04406187  1
  Te2-  Te204  1  0.49621483  0.25092133  0.37987250  1
  Te2-  Te205  1  0.49283255  0.74935069  0.37243490  1
  Te2-  Te206  1  0.99365251  0.24992716  0.37599904  1
  Te2-  Te207  1  0.99214872  0.74858655  0.37753263  1
  Te2-  Te208  1  0.25183278  0.00610735  0.37712897  1
  Te2-  Te209  1  0.25142691  0.50551082  0.37319586  1
  Te2-  Te210  1  0.75245167  0.01036260  0.37562166  1
  Te2-  Te211  1  0.75282463  0.50816588  0.38108259  1
  Te2-  Te212  1  0.25576700  0.24917655  0.37726259  1
  Te2-  Te213  1  0.25222100  0.74879178  0.37222715  1
  Te2-  Te214  1  0.75201476  0.24942750  0.37928189  1
  Te2-  Te215  1  0.75390288  0.74726365  0.37843262  1
