# generated using pymatgen
data_Ti(CuTe)4
_symmetry_space_group_name_H-M   'P 1'
_cell_length_a   16.85069758
_cell_length_b   16.85483100
_cell_length_c   20.65442543
_cell_angle_alpha   90.01175562
_cell_angle_beta   90.01567226
_cell_angle_gamma   120.00112064
_symmetry_Int_Tables_number   1
_chemical_formula_structural   Ti(CuTe)4
_chemical_formula_sum   'Ti24 Cu96 Te96'
_cell_volume   5080.20318259
_cell_formula_units_Z   24
loop_
 _symmetry_equiv_pos_site_id
 _symmetry_equiv_pos_as_xyz
  1  'x, y, z'
loop_
 _atom_type_symbol
 _atom_type_oxidation_number
  Ti4+  4.0
  Cu+  1.0
  Te2-  -2.0
loop_
 _atom_site_type_symbol
 _atom_site_label
 _atom_site_symmetry_multiplicity
 _atom_site_fract_x
 _atom_site_fract_y
 _atom_site_fract_z
 _atom_site_occupancy
  Ti4+  Ti0  1  -0.00146835  -0.00420075  0.25602168  1
  Ti4+  Ti1  1  -0.00244487  0.49912933  0.25535226  1
  Ti4+  Ti2  1  0.50340594  0.00183121  0.26032264  1
  Ti4+  Ti3  1  0.49810673  0.49846147  0.25968573  1
  Ti4+  Ti4  1  0.33463534  0.16658649  0.59418356  1
  Ti4+  Ti5  1  0.33384075  0.66769131  0.59348672  1
  Ti4+  Ti6  1  0.83307480  0.16459515  0.58652592  1
  Ti4+  Ti7  1  0.83656411  0.67021609  0.59195526  1
  Ti4+  Ti8  1  0.16721968  0.33452849  0.92161812  1
  Ti4+  Ti9  1  0.16779755  0.83477682  0.92792154  1
  Ti4+  Ti10  1  0.66400909  0.33417797  0.92301661  1
  Ti4+  Ti11  1  0.66293144  0.83018225  0.92447078  1
  Ti4+  Ti12  1  0.00113250  0.00087052  0.75733211  1
  Ti4+  Ti13  1  0.00028123  0.50010864  0.75524824  1
  Ti4+  Ti14  1  0.50079950  0.00075272  0.75695458  1
  Ti4+  Ti15  1  0.50259412  0.50180552  0.75052226  1
  Ti4+  Ti16  1  0.33393854  0.16751970  0.08965809  1
  Ti4+  Ti17  1  0.33437875  0.66691510  0.08991007  1
  Ti4+  Ti18  1  0.83062520  0.16558090  0.08966185  1
  Ti4+  Ti19  1  0.83489482  0.66785286  0.08720764  1
  Ti4+  Ti20  1  0.16718412  0.33337117  0.42176593  1
  Ti4+  Ti21  1  0.16789988  0.83374417  0.42469304  1
  Ti4+  Ti22  1  0.66527662  0.33193658  0.42291794  1
  Ti4+  Ti23  1  0.66872828  0.83459135  0.42177155  1
  Cu+  Cu24  1  0.73214492  0.25964646  0.13970472  1
  Cu+  Cu25  1  0.01785617  0.75627822  0.14394021  1
  Cu+  Cu26  1  0.68950948  0.59537763  0.80499825  1
  Cu+  Cu27  1  0.40740399  0.58706514  0.80812227  1
  Cu+  Cu28  1  0.57190863  0.91901181  0.47851104  1
  Cu+  Cu29  1  0.40358721  0.81811855  0.81259899  1
  Cu+  Cu30  1  0.56710070  0.14644970  0.47711313  1
  Cu+  Cu31  1  0.24869119  0.98374540  0.14540153  1
  Cu+  Cu32  1  0.40317978  0.08684715  0.81273800  1
  Cu+  Cu33  1  0.73415699  0.97260975  0.14194620  1
  Cu+  Cu34  1  0.40727267  0.32193235  0.80849601  1
  Cu+  Cu35  1  0.85847167  0.92821197  0.47177989  1
  Cu+  Cu36  1  0.16490611  0.07745297  0.16935015  1
  Cu+  Cu37  1  0.16486077  0.58133398  0.17006577  1
  Cu+  Cu38  1  0.66544195  0.08252440  0.17317708  1
  Cu+  Cu39  1  0.66291034  0.58060329  0.17149152  1
  Cu+  Cu40  1  0.41781145  0.33743823  0.17210949  1
  Cu+  Cu41  1  0.42062643  0.83519019  0.17292475  1
  Cu+  Cu42  1  0.91119028  0.33567724  0.16823185  1
  Cu+  Cu43  1  0.92197803  0.83709518  0.16831805  1
  Cu+  Cu44  1  0.42034652  0.08317188  0.17312196  1
  Cu+  Cu45  1  0.41637255  0.58027524  0.17299417  1
  Cu+  Cu46  1  0.91123710  0.07464702  0.16978111  1
  Cu+  Cu47  1  0.92063697  0.58190009  0.16763497  1
  Cu+  Cu48  1  0.49540687  0.24618450  0.50816994  1
  Cu+  Cu49  1  0.49371517  0.74735315  0.50682190  1
  Cu+  Cu50  1  0.99821188  0.24859829  0.50036081  1
  Cu+  Cu51  1  0.99892307  0.74921727  0.50582630  1
  Cu+  Cu52  1  0.25292554  0.00213510  0.50773758  1
  Cu+  Cu53  1  0.25057840  0.50139528  0.50647059  1
  Cu+  Cu54  1  0.75431687  0.00443418  0.49853076  1
  Cu+  Cu55  1  0.75037543  0.50279650  0.50624040  1
  Cu+  Cu56  1  0.25113217  0.24973794  0.50694403  1
  Cu+  Cu57  1  0.25250504  0.75074444  0.50728201  1
  Cu+  Cu58  1  0.74695822  0.24508537  0.50055284  1
  Cu+  Cu59  1  0.75875562  0.75428550  0.50436428  1
  Cu+  Cu60  1  0.32289300  0.41227309  0.83163400  1
  Cu+  Cu61  1  0.32691581  0.91444920  0.84069003  1
  Cu+  Cu62  1  0.83108935  0.41359786  0.83708941  1
  Cu+  Cu63  1  0.83147928  0.91792385  0.83927821  1
  Cu+  Cu64  1  0.08372752  0.16897219  0.83651457  1
  Cu+  Cu65  1  0.08081868  0.66725361  0.84042599  1
  Cu+  Cu66  1  0.58119159  0.17049696  0.83612230  1
  Cu+  Cu67  1  0.58577793  0.67125355  0.83182684  1
  Cu+  Cu68  1  0.08347984  0.41542349  0.83506477  1
  Cu+  Cu69  1  0.08442018  0.91721713  0.84238061  1
  Cu+  Cu70  1  0.58703608  0.41596556  0.83065709  1
  Cu+  Cu71  1  0.58122726  0.91142566  0.83714781  1
  Cu+  Cu72  1  0.16953102  0.08315632  0.67606207  1
  Cu+  Cu73  1  0.16851403  0.58584379  0.67518816  1
  Cu+  Cu74  1  0.66994448  0.08383311  0.67342570  1
  Cu+  Cu75  1  0.67503086  0.58932999  0.67676509  1
  Cu+  Cu76  1  0.41827967  0.33018769  0.67962790  1
  Cu+  Cu77  1  0.41816127  0.83222507  0.68269340  1
  Cu+  Cu78  1  0.91511439  0.33002457  0.66909202  1
  Cu+  Cu79  1  0.91838854  0.83452360  0.67708852  1
  Cu+  Cu80  1  0.41957063  0.08744408  0.68335211  1
  Cu+  Cu81  1  0.41702582  0.58768602  0.67915120  1
  Cu+  Cu82  1  0.91613843  0.08350871  0.67141852  1
  Cu+  Cu83  1  0.91643486  0.58400826  0.67463712  1
  Cu+  Cu84  1  0.00176209  0.25089112  0.00536740  1
  Cu+  Cu85  1  0.00449740  0.75464527  0.01461565  1
  Cu+  Cu86  1  0.49979377  0.25242254  0.00839463  1
  Cu+  Cu87  1  0.49971827  0.74951427  0.00940379  1
  Cu+  Cu88  1  0.25013476  0.49819318  0.00598928  1
  Cu+  Cu89  1  0.25179823  0.99972829  0.01626902  1
  Cu+  Cu90  1  0.74882810  0.49964595  0.00640575  1
  Cu+  Cu91  1  0.74530716  0.99429203  0.01279606  1
  Cu+  Cu92  1  0.25095646  0.25445089  0.00676699  1
  Cu+  Cu93  1  0.25306320  0.75324953  0.01133667  1
  Cu+  Cu94  1  0.74546756  0.25205629  0.01112752  1
  Cu+  Cu95  1  0.74793836  0.74997610  0.00771733  1
  Cu+  Cu96  1  0.33566312  0.41777152  0.34236095  1
  Cu+  Cu97  1  0.33489644  0.91769819  0.34464197  1
  Cu+  Cu98  1  0.83491084  0.42044061  0.34035259  1
  Cu+  Cu99  1  0.83698815  0.91446075  0.34349896  1
  Cu+  Cu100  1  0.08358458  0.16380183  0.33828874  1
  Cu+  Cu101  1  0.08361173  0.66534355  0.34162130  1
  Cu+  Cu102  1  0.58211177  0.16458983  0.34868518  1
  Cu+  Cu103  1  0.58022157  0.66291420  0.34318132  1
  Cu+  Cu104  1  0.08271792  0.41897986  0.33789155  1
  Cu+  Cu105  1  0.08510043  0.91677466  0.34413986  1
  Cu+  Cu106  1  0.57988278  0.41717059  0.34302409  1
  Cu+  Cu107  1  0.58391612  0.91847991  0.34914810  1
  Cu+  Cu108  1  0.00250442  0.00607131  0.11137745  1
  Cu+  Cu109  1  0.00315442  0.49776175  0.11002157  1
  Cu+  Cu110  1  0.50050797  -0.00045716  0.11648907  1
  Cu+  Cu111  1  0.50044660  0.50251724  0.11595148  1
  Cu+  Cu112  1  0.32870703  0.16659622  0.45167415  1
  Cu+  Cu113  1  0.32560601  0.66143494  0.45112602  1
  Cu+  Cu114  1  0.83866242  0.17386982  0.44116451  1
  Cu+  Cu115  1  0.83565981  0.66405733  0.44941821  1
  Cu+  Cu116  1  0.15491993  0.32782851  0.77667325  1
  Cu+  Cu117  1  0.15894824  0.82856514  0.78537059  1
  Cu+  Cu118  1  0.67231070  0.33442679  0.77884941  1
  Cu+  Cu119  1  0.67234576  0.83828417  0.78077626  1
  Te2-  Te120  1  0.00453324  0.00124816  0.38623385  1
  Te2-  Te121  1  0.00000690  0.49999063  0.38445573  1
  Te2-  Te122  1  0.49688593  -0.00216523  0.39233718  1
  Te2-  Te123  1  0.49864548  0.49946078  0.38978091  1
  Te2-  Te124  1  0.33070441  0.16526388  0.72668202  1
  Te2-  Te125  1  0.32963688  0.66548936  0.72583506  1
  Te2-  Te126  1  0.83511131  0.16689126  0.71553971  1
  Te2-  Te127  1  0.84050073  0.67060818  0.72297336  1
  Te2-  Te128  1  0.16561965  0.33379594  0.05074238  1
  Te2-  Te129  1  0.17048813  0.83303694  0.05984428  1
  Te2-  Te130  1  0.66338814  0.33691429  0.05365897  1
  Te2-  Te131  1  0.66295666  0.82746828  0.05525471  1
  Te2-  Te132  1  0.48869488  0.24780408  0.88227651  1
  Te2-  Te133  1  0.48767074  0.74178126  0.88309602  1
  Te2-  Te134  1  0.99514821  0.24815465  0.87970572  1
  Te2-  Te135  1  0.99606840  0.74944180  0.88745583  1
  Te2-  Te136  1  0.25247331  0.00822685  0.88879893  1
  Te2-  Te137  1  0.25151006  0.50790356  0.88019518  1
  Te2-  Te138  1  0.74722606  0.00210677  0.88540720  1
  Te2-  Te139  1  0.75395827  0.50633422  0.88049673  1
  Te2-  Te140  1  0.25201836  0.24552100  0.88108605  1
  Te2-  Te141  1  0.24993639  0.74449830  0.88539209  1
  Te2-  Te142  1  0.74737390  0.24555888  0.88398763  1
  Te2-  Te143  1  0.75263106  0.74769163  0.88172151  1
  Te2-  Te144  1  0.32573561  0.41221535  0.21640340  1
  Te2-  Te145  1  0.33068776  0.91214293  0.21897878  1
  Te2-  Te146  1  0.82312813  0.41673040  0.21395401  1
  Te2-  Te147  1  0.82462130  0.90548121  0.21645425  1
  Te2-  Te148  1  0.08280380  0.16527068  0.21143119  1
  Te2-  Te149  1  0.09008361  0.67324560  0.21579419  1
  Te2-  Te150  1  0.58558057  0.17471515  0.22015375  1
  Te2-  Te151  1  0.58492328  0.67030718  0.21687998  1
  Te2-  Te152  1  0.08090983  0.41188463  0.21145193  1
  Te2-  Te153  1  0.09022599  0.91040070  0.21808222  1
  Te2-  Te154  1  0.58483779  0.41302097  0.21688802  1
  Te2-  Te155  1  0.58693757  0.91195444  0.22107985  1
  Te2-  Te156  1  0.16380844  0.08125802  0.55021273  1
  Te2-  Te157  1  0.16289892  0.58231850  0.54932392  1
  Te2-  Te158  1  0.65650283  0.07621221  0.54773369  1
  Te2-  Te159  1  0.66503992  0.58677130  0.54999857  1
  Te2-  Te160  1  0.42032141  0.33804203  0.55237435  1
  Te2-  Te161  1  0.41887870  0.84202060  0.55520318  1
  Te2-  Te162  1  0.91589281  0.33523395  0.54318634  1
  Te2-  Te163  1  0.92703563  0.84448640  0.55081719  1
  Te2-  Te164  1  0.41866350  0.07610527  0.55611399  1
  Te2-  Te165  1  0.41973570  0.58178821  0.55196726  1
  Te2-  Te166  1  0.92308358  0.08125027  0.54580330  1
  Te2-  Te167  1  0.91886043  0.58116574  0.54879796  1
  Te2-  Te168  1  -0.00049714  0.00223259  0.88396482  1
  Te2-  Te169  1  -0.00106161  0.49799421  0.88201355  1
  Te2-  Te170  1  0.50050946  0.00084376  0.88474688  1
  Te2-  Te171  1  0.49842729  0.49915834  0.87892498  1
  Te2-  Te172  1  0.33335547  0.16764459  0.21690015  1
  Te2-  Te173  1  0.33290743  0.66574392  0.21635960  1
  Te2-  Te174  1  0.83598836  0.16780713  0.21690979  1
  Te2-  Te175  1  0.83379758  0.66602246  0.21423610  1
  Te2-  Te176  1  0.16487827  0.33262830  0.54840893  1
  Te2-  Te177  1  0.16696471  0.83338498  0.55128869  1
  Te2-  Te178  1  0.66791675  0.33355703  0.55003125  1
  Te2-  Te179  1  0.66791098  0.83538949  0.54918934  1
  Te2-  Te180  1  0.32641804  0.41313943  0.70520852  1
  Te2-  Te181  1  0.32554441  0.91343764  0.71273069  1
  Te2-  Te182  1  0.82997745  0.41344351  0.70918776  1
  Te2-  Te183  1  0.83004142  0.91605356  0.71167425  1
  Te2-  Te184  1  0.08574246  0.17043611  0.70877577  1
  Te2-  Te185  1  0.08590292  0.67266452  0.71251090  1
  Te2-  Te186  1  0.59231166  0.17435869  0.70952093  1
  Te2-  Te187  1  0.59063329  0.67803976  0.70527791  1
  Te2-  Te188  1  0.08451110  0.41436586  0.70738168  1
  Te2-  Te189  1  0.08786543  0.91480504  0.71458701  1
  Te2-  Te190  1  0.59219358  0.41552227  0.70417853  1
  Te2-  Te191  1  0.59065643  0.91644855  0.71049546  1
  Te2-  Te192  1  0.16214106  0.08432373  0.04192840  1
  Te2-  Te193  1  0.16358645  0.58170575  0.04270266  1
  Te2-  Te194  1  0.65753950  0.07955337  0.04444204  1
  Te2-  Te195  1  0.66121285  0.58086391  0.04428465  1
  Te2-  Te196  1  0.41894911  0.34025956  0.04520060  1
  Te2-  Te197  1  0.42211896  0.84055862  0.04599416  1
  Te2-  Te198  1  0.91852430  0.33700648  0.04093621  1
  Te2-  Te199  1  0.91818163  0.84192906  0.04168205  1
  Te2-  Te200  1  0.42462093  0.08398976  0.04517835  1
  Te2-  Te201  1  0.41879462  0.57965237  0.04495630  1
  Te2-  Te202  1  0.91856565  0.08187910  0.04211480  1
  Te2-  Te203  1  0.91952302  0.57950139  0.04051288  1
  Te2-  Te204  1  0.49132699  0.24703851  0.38008987  1
  Te2-  Te205  1  0.49300512  0.74529811  0.37961970  1
  Te2-  Te206  1  0.99785244  0.24844739  0.37300200  1
  Te2-  Te207  1  0.99602861  0.74700144  0.37885423  1
  Te2-  Te208  1  0.25482459  0.00667426  0.38039330  1
  Te2-  Te209  1  0.25179875  0.50483170  0.37821658  1
  Te2-  Te210  1  0.75768998  0.00845819  0.37206639  1
  Te2-  Te211  1  0.75016936  0.50407058  0.37897559  1
  Te2-  Te212  1  0.25248221  0.24695267  0.37853780  1
  Te2-  Te213  1  0.25351477  0.74752577  0.37942197  1
  Te2-  Te214  1  0.75561732  0.25049760  0.37359347  1
  Te2-  Te215  1  0.75103862  0.74311164  0.37745750  1
