# generated using pymatgen
data_Ti(CuTe)4
_symmetry_space_group_name_H-M   'P 1'
_cell_length_a   16.89006397
_cell_length_b   16.88977324
_cell_length_c   20.71016909
_cell_angle_alpha   89.98690703
_cell_angle_beta   90.03172217
_cell_angle_gamma   120.00367504
_symmetry_Int_Tables_number   1
_chemical_formula_structural   Ti(CuTe)4
_chemical_formula_sum   'Ti24 Cu96 Te96'
_cell_volume   5116.26744534
_cell_formula_units_Z   24
loop_
 _symmetry_equiv_pos_site_id
 _symmetry_equiv_pos_as_xyz
  1  'x, y, z'
loop_
 _atom_type_symbol
 _atom_type_oxidation_number
  Ti4+  4.0
  Cu+  1.0
  Te2-  -2.0
loop_
 _atom_site_type_symbol
 _atom_site_label
 _atom_site_symmetry_multiplicity
 _atom_site_fract_x
 _atom_site_fract_y
 _atom_site_fract_z
 _atom_site_occupancy
  Ti4+  Ti0  1  -0.00229405  -0.00146506  0.25760293  1
  Ti4+  Ti1  1  -0.00312823  0.49781132  0.25644393  1
  Ti4+  Ti2  1  0.50184285  0.00079366  0.26184606  1
  Ti4+  Ti3  1  0.49818770  0.49959804  0.25811221  1
  Ti4+  Ti4  1  0.33799676  0.16729461  0.59153802  1
  Ti4+  Ti5  1  0.33020286  0.66539401  0.59012842  1
  Ti4+  Ti6  1  0.83648302  0.16829952  0.59315006  1
  Ti4+  Ti7  1  0.83237691  0.66868973  0.58771036  1
  Ti4+  Ti8  1  0.16768857  0.33225857  0.92329489  1
  Ti4+  Ti9  1  0.16758491  0.83212039  0.92259008  1
  Ti4+  Ti10  1  0.66446783  0.33158824  0.92518938  1
  Ti4+  Ti11  1  0.66617640  0.83661178  0.92392524  1
  Ti4+  Ti12  1  0.00181492  0.00265310  0.75422204  1
  Ti4+  Ti13  1  0.00012271  0.50074749  0.75493224  1
  Ti4+  Ti14  1  0.50052600  -0.00179758  0.75338530  1
  Ti4+  Ti15  1  0.50044424  0.50006645  0.75475776  1
  Ti4+  Ti16  1  0.33377362  0.16636788  0.09089268  1
  Ti4+  Ti17  1  0.33298726  0.66587664  0.08967147  1
  Ti4+  Ti18  1  0.83223975  0.16601493  0.08991160  1
  Ti4+  Ti19  1  0.83310063  0.66693742  0.08721949  1
  Ti4+  Ti20  1  0.16503689  0.33346165  0.42230575  1
  Ti4+  Ti21  1  0.16850550  0.83271472  0.42042831  1
  Ti4+  Ti22  1  0.66469952  0.33345699  0.42275491  1
  Ti4+  Ti23  1  0.66948229  0.83393020  0.42290294  1
  Cu+  Cu24  1  0.41075104  0.08377775  0.81610376  1
  Cu+  Cu25  1  0.40389574  0.31341801  0.80766739  1
  Cu+  Cu26  1  0.58056989  0.15279023  0.48126526  1
  Cu+  Cu27  1  0.67646117  0.09124839  0.81469065  1
  Cu+  Cu28  1  0.40630284  0.81254460  0.80834535  1
  Cu+  Cu29  1  0.35155515  0.92225490  0.47777734  1
  Cu+  Cu30  1  0.85983640  0.93153924  0.47472573  1
  Cu+  Cu31  1  0.57119586  0.42918575  0.47279614  1
  Cu+  Cu32  1  0.73748722  0.97854082  0.14376921  1
  Cu+  Cu33  1  0.91186919  0.09558694  0.81103695  1
  Cu+  Cu34  1  0.06902883  0.42882682  0.47093123  1
  Cu+  Cu35  1  0.73680379  0.25815828  0.14351238  1
  Cu+  Cu36  1  0.16401428  0.08266438  0.17270848  1
  Cu+  Cu37  1  0.16301462  0.57734926  0.17127097  1
  Cu+  Cu38  1  0.66313985  0.08224132  0.17328803  1
  Cu+  Cu39  1  0.66322394  0.58070673  0.17127569  1
  Cu+  Cu40  1  0.41768230  0.33627864  0.17329020  1
  Cu+  Cu41  1  0.41558939  0.83361677  0.17445885  1
  Cu+  Cu42  1  0.91342387  0.33626772  0.17085915  1
  Cu+  Cu43  1  0.91496948  0.83536440  0.16994846  1
  Cu+  Cu44  1  0.41843069  0.08269527  0.17544092  1
  Cu+  Cu45  1  0.41753099  0.58108291  0.17178210  1
  Cu+  Cu46  1  0.91301509  0.07523406  0.17094937  1
  Cu+  Cu47  1  0.91638611  0.58102820  0.16874947  1
  Cu+  Cu48  1  0.49778290  0.24929737  0.50385677  1
  Cu+  Cu49  1  0.49808172  0.74788115  0.50486946  1
  Cu+  Cu50  1  0.99893410  0.25342866  0.50511649  1
  Cu+  Cu51  1  0.99657717  0.74751073  0.50116946  1
  Cu+  Cu52  1  0.25743739  0.00140793  0.50354700  1
  Cu+  Cu53  1  0.24320918  0.50129164  0.50301483  1
  Cu+  Cu54  1  0.75749111  0.00294730  0.50646570  1
  Cu+  Cu55  1  0.74516192  0.50398935  0.50266788  1
  Cu+  Cu56  1  0.25427312  0.25093782  0.50426865  1
  Cu+  Cu57  1  0.25504958  0.74890918  0.50251999  1
  Cu+  Cu58  1  0.75202223  0.24646563  0.50615758  1
  Cu+  Cu59  1  0.75783102  0.75380033  0.50192528  1
  Cu+  Cu60  1  0.33118343  0.41181933  0.83660758  1
  Cu+  Cu61  1  0.32506568  0.90836657  0.83413704  1
  Cu+  Cu62  1  0.83215127  0.41560465  0.83808127  1
  Cu+  Cu63  1  0.83233389  0.92203608  0.83623938  1
  Cu+  Cu64  1  0.08542931  0.17297673  0.83588701  1
  Cu+  Cu65  1  0.08465514  0.66897330  0.83613542  1
  Cu+  Cu66  1  0.58712650  0.17590847  0.83581999  1
  Cu+  Cu67  1  0.58310869  0.67032799  0.83658193  1
  Cu+  Cu68  1  0.08642740  0.41698665  0.83704309  1
  Cu+  Cu69  1  0.08632788  0.91722050  0.83598478  1
  Cu+  Cu70  1  0.57839514  0.41144575  0.83660857  1
  Cu+  Cu71  1  0.58649779  0.91353675  0.83416942  1
  Cu+  Cu72  1  0.17182973  0.08513130  0.67375185  1
  Cu+  Cu73  1  0.16648529  0.58529942  0.67401816  1
  Cu+  Cu74  1  0.67157069  0.08240843  0.68234180  1
  Cu+  Cu75  1  0.66914016  0.58716346  0.67229986  1
  Cu+  Cu76  1  0.41912256  0.33148231  0.67943132  1
  Cu+  Cu77  1  0.41417920  0.82884365  0.67931192  1
  Cu+  Cu78  1  0.91706266  0.33325318  0.67674090  1
  Cu+  Cu79  1  0.91641323  0.83263516  0.67287886  1
  Cu+  Cu80  1  0.42024784  0.08535332  0.68232134  1
  Cu+  Cu81  1  0.41461911  0.58515225  0.67261495  1
  Cu+  Cu82  1  0.91913654  0.08716630  0.68047377  1
  Cu+  Cu83  1  0.91294756  0.58536181  0.67164304  1
  Cu+  Cu84  1  0.00391785  0.25112384  0.00894684  1
  Cu+  Cu85  1  0.00284566  0.75160934  0.00645102  1
  Cu+  Cu86  1  0.50031009  0.24833938  0.01118223  1
  Cu+  Cu87  1  0.50072827  0.75308502  0.00993142  1
  Cu+  Cu88  1  0.25057009  0.49678174  0.00657794  1
  Cu+  Cu89  1  0.25044920  0.99637913  0.00883966  1
  Cu+  Cu90  1  0.74791954  0.49774108  0.00767130  1
  Cu+  Cu91  1  0.74868942  0.99932020  0.01360014  1
  Cu+  Cu92  1  0.25017804  0.25068775  0.00851473  1
  Cu+  Cu93  1  0.24930235  0.75009060  0.00762353  1
  Cu+  Cu94  1  0.74828754  0.25131115  0.01418090  1
  Cu+  Cu95  1  0.74920295  0.75287230  0.00698874  1
  Cu+  Cu96  1  0.33320784  0.41685481  0.34081081  1
  Cu+  Cu97  1  0.33869285  0.91849587  0.34884868  1
  Cu+  Cu98  1  0.83311183  0.41667889  0.34061738  1
  Cu+  Cu99  1  0.83698289  0.91811734  0.34601536  1
  Cu+  Cu100  1  0.08079020  0.16385408  0.34081614  1
  Cu+  Cu101  1  0.08385343  0.66381007  0.33879357  1
  Cu+  Cu102  1  0.58221682  0.16486170  0.34983378  1
  Cu+  Cu103  1  0.58241702  0.66335987  0.34115101  1
  Cu+  Cu104  1  0.07741553  0.41630630  0.34370031  1
  Cu+  Cu105  1  0.08213351  0.91718322  0.34030797  1
  Cu+  Cu106  1  0.57836089  0.41805238  0.34494688  1
  Cu+  Cu107  1  0.58512092  0.91842540  0.34435830  1
  Cu+  Cu108  1  0.00334394  -0.00116605  0.11475044  1
  Cu+  Cu109  1  0.00239488  0.50335753  0.11289943  1
  Cu+  Cu110  1  0.49466815  -0.00382590  0.11953820  1
  Cu+  Cu111  1  0.50105064  0.50091707  0.11527810  1
  Cu+  Cu112  1  0.32667581  0.16400354  0.44805237  1
  Cu+  Cu113  1  0.33730044  0.66358021  0.44709088  1
  Cu+  Cu114  1  0.83426077  0.16697109  0.44985991  1
  Cu+  Cu115  1  0.83665258  0.66560636  0.44333376  1
  Cu+  Cu116  1  0.16992683  0.33829462  0.77980379  1
  Cu+  Cu117  1  0.15780603  0.82954178  0.77849279  1
  Cu+  Cu118  1  0.67255264  0.34404951  0.78209728  1
  Cu+  Cu119  1  0.67114062  0.82918097  0.77955435  1
  Te2-  Te120  1  0.00377216  0.00140046  0.38843609  1
  Te2-  Te121  1  -0.00367775  0.50170554  0.38726450  1
  Te2-  Te122  1  0.50421678  -0.00051458  0.39454887  1
  Te2-  Te123  1  0.49551488  0.50105137  0.38955481  1
  Te2-  Te124  1  0.33354854  0.16502083  0.72340955  1
  Te2-  Te125  1  0.32963247  0.66235127  0.72079855  1
  Te2-  Te126  1  0.83712197  0.17072508  0.72511738  1
  Te2-  Te127  1  0.83286768  0.66870419  0.71682418  1
  Te2-  Te128  1  0.16835554  0.33330340  0.05231107  1
  Te2-  Te129  1  0.16648033  0.83150605  0.05151817  1
  Te2-  Te130  1  0.66459076  0.33467057  0.05531454  1
  Te2-  Te131  1  0.66532251  0.83222423  0.05402342  1
  Te2-  Te132  1  0.48781985  0.24285936  0.88488570  1
  Te2-  Te133  1  0.49293385  0.74690651  0.88359471  1
  Te2-  Te134  1  0.99331796  0.25000730  0.88324091  1
  Te2-  Te135  1  0.99658192  0.74918453  0.88021320  1
  Te2-  Te136  1  0.25294341  0.00617173  0.88291109  1
  Te2-  Te137  1  0.25476380  0.50295117  0.88053193  1
  Te2-  Te138  1  0.75473695  0.01331204  0.88563892  1
  Te2-  Te139  1  0.74726645  0.50024754  0.88113131  1
  Te2-  Te140  1  0.25098121  0.24167611  0.88268010  1
  Te2-  Te141  1  0.25178491  0.74193183  0.88186104  1
  Te2-  Te142  1  0.75465752  0.24841959  0.88619648  1
  Te2-  Te143  1  0.75206967  0.75336566  0.88029972  1
  Te2-  Te144  1  0.32657601  0.41339273  0.21557976  1
  Te2-  Te145  1  0.33126869  0.91569789  0.22166845  1
  Te2-  Te146  1  0.82247616  0.41427859  0.21547300  1
  Te2-  Te147  1  0.82263572  0.90835275  0.21906695  1
  Te2-  Te148  1  0.08135240  0.16940412  0.21488071  1
  Te2-  Te149  1  0.08455666  0.66827653  0.21300568  1
  Te2-  Te150  1  0.58565314  0.17385920  0.22171089  1
  Te2-  Te151  1  0.58544460  0.67089549  0.21558898  1
  Te2-  Te152  1  0.08055181  0.40974293  0.21699579  1
  Te2-  Te153  1  0.08322295  0.91337647  0.21447171  1
  Te2-  Te154  1  0.58476087  0.41388348  0.21853322  1
  Te2-  Te155  1  0.58477112  0.91175539  0.21826208  1
  Te2-  Te156  1  0.16918584  0.08176320  0.54758196  1
  Te2-  Te157  1  0.15668220  0.58326521  0.54836220  1
  Te2-  Te158  1  0.66365848  0.07675587  0.55394657  1
  Te2-  Te159  1  0.65794176  0.58576720  0.54709896  1
  Te2-  Te160  1  0.42103707  0.34010244  0.55202612  1
  Te2-  Te161  1  0.42314924  0.83973726  0.55209202  1
  Te2-  Te162  1  0.91815304  0.34118418  0.55071195  1
  Te2-  Te163  1  0.92617877  0.84359132  0.54766678  1
  Te2-  Te164  1  0.42611124  0.07912791  0.55337276  1
  Te2-  Te165  1  0.41315177  0.57860754  0.54655574  1
  Te2-  Te166  1  0.92635375  0.08578249  0.55261028  1
  Te2-  Te167  1  0.91418154  0.57950173  0.54558755  1
  Te2-  Te168  1  0.00231290  0.00225670  0.88124474  1
  Te2-  Te169  1  0.00079502  0.50065384  0.88112935  1
  Te2-  Te170  1  0.49968024  -0.00000769  0.88155174  1
  Te2-  Te171  1  0.50043632  0.50214763  0.88176991  1
  Te2-  Te172  1  0.33248156  0.16678044  0.21736087  1
  Te2-  Te173  1  0.33137409  0.66379386  0.21599988  1
  Te2-  Te174  1  0.83436025  0.16659488  0.21701124  1
  Te2-  Te175  1  0.83277899  0.66611146  0.21345284  1
  Te2-  Te176  1  0.16832325  0.33309403  0.54914381  1
  Te2-  Te177  1  0.16590790  0.83079813  0.54733629  1
  Te2-  Te178  1  0.66854206  0.33437857  0.55010803  1
  Te2-  Te179  1  0.66758575  0.83234138  0.54966468  1
  Te2-  Te180  1  0.32858616  0.41470919  0.70879273  1
  Te2-  Te181  1  0.32493488  0.91222351  0.70785056  1
  Te2-  Te182  1  0.82870254  0.41574595  0.71078494  1
  Te2-  Te183  1  0.82880481  0.91426172  0.70911269  1
  Te2-  Te184  1  0.09247727  0.17588974  0.70909768  1
  Te2-  Te185  1  0.08291694  0.67150460  0.70933193  1
  Te2-  Te186  1  0.59215418  0.17574351  0.70976563  1
  Te2-  Te187  1  0.58421952  0.67150114  0.70973684  1
  Te2-  Te188  1  0.08712535  0.41572554  0.71066865  1
  Te2-  Te189  1  0.08634027  0.91540053  0.70924643  1
  Te2-  Te190  1  0.59088929  0.41785442  0.70949536  1
  Te2-  Te191  1  0.58737219  0.90958088  0.70819665  1
  Te2-  Te192  1  0.16339635  0.08039950  0.04553639  1
  Te2-  Te193  1  0.16266187  0.57914807  0.04402796  1
  Te2-  Te194  1  0.65703600  0.07930991  0.04574900  1
  Te2-  Te195  1  0.66112761  0.58171745  0.04376065  1
  Te2-  Te196  1  0.41948218  0.33801221  0.04660693  1
  Te2-  Te197  1  0.41767842  0.83873298  0.04744431  1
  Te2-  Te198  1  0.92148995  0.33901620  0.04439670  1
  Te2-  Te199  1  0.91952742  0.83898272  0.04328440  1
  Te2-  Te200  1  0.41911265  0.07910641  0.04839107  1
  Te2-  Te201  1  0.42003298  0.58182264  0.04497279  1
  Te2-  Te202  1  0.92111181  0.08145890  0.04453062  1
  Te2-  Te203  1  0.91873980  0.58086476  0.04239253  1
  Te2-  Te204  1  0.49011757  0.24589852  0.37737659  1
  Te2-  Te205  1  0.49714832  0.74778933  0.37845061  1
  Te2-  Te206  1  0.99235349  0.24474652  0.37811574  1
  Te2-  Te207  1  0.99684063  0.74703481  0.37492395  1
  Te2-  Te208  1  0.25244433  0.00613410  0.37640669  1
  Te2-  Te209  1  0.25072687  0.50480759  0.37578070  1
  Te2-  Te210  1  0.75470412  0.00776130  0.37935795  1
  Te2-  Te211  1  0.75151092  0.50525433  0.37566640  1
  Te2-  Te212  1  0.25088256  0.24754507  0.37770385  1
  Te2-  Te213  1  0.25347577  0.74434975  0.37601876  1
  Te2-  Te214  1  0.75469075  0.24868877  0.37917609  1
  Te2-  Te215  1  0.75236498  0.74505167  0.37587808  1
