# generated using pymatgen
data_Ti(CuTe)4
_symmetry_space_group_name_H-M   'P 1'
_cell_length_a   16.88599940
_cell_length_b   16.88978972
_cell_length_c   20.70583062
_cell_angle_alpha   90.01664969
_cell_angle_beta   90.01644647
_cell_angle_gamma   119.99893196
_symmetry_Int_Tables_number   1
_chemical_formula_structural   Ti(CuTe)4
_chemical_formula_sum   'Ti24 Cu96 Te96'
_cell_volume   5114.21406380
_cell_formula_units_Z   24
loop_
 _symmetry_equiv_pos_site_id
 _symmetry_equiv_pos_as_xyz
  1  'x, y, z'
loop_
 _atom_type_symbol
 _atom_type_oxidation_number
  Ti4+  4.0
  Cu+  1.0
  Te2-  -2.0
loop_
 _atom_site_type_symbol
 _atom_site_label
 _atom_site_symmetry_multiplicity
 _atom_site_fract_x
 _atom_site_fract_y
 _atom_site_fract_z
 _atom_site_occupancy
  Ti4+  Ti0  1  0.00008341  0.00089322  0.25667184  1
  Ti4+  Ti1  1  -0.00293008  0.49758924  0.26026477  1
  Ti4+  Ti2  1  0.49802799  -0.00271670  0.25820309  1
  Ti4+  Ti3  1  0.49638969  0.49755169  0.25661999  1
  Ti4+  Ti4  1  0.33635845  0.17058009  0.59143963  1
  Ti4+  Ti5  1  0.33257412  0.66597123  0.59654322  1
  Ti4+  Ti6  1  0.83612036  0.16658115  0.59058282  1
  Ti4+  Ti7  1  0.83526344  0.66702668  0.58562317  1
  Ti4+  Ti8  1  0.16672838  0.33356598  0.92695677  1
  Ti4+  Ti9  1  0.16633950  0.83298746  0.92331057  1
  Ti4+  Ti10  1  0.66558137  0.33313993  0.92452883  1
  Ti4+  Ti11  1  0.66868856  0.83660762  0.92087270  1
  Ti4+  Ti12  1  0.00023539  0.00139766  0.75470662  1
  Ti4+  Ti13  1  0.00086250  0.50193525  0.75622348  1
  Ti4+  Ti14  1  0.50166706  0.00072875  0.75169503  1
  Ti4+  Ti15  1  0.50194869  0.49916230  0.75550616  1
  Ti4+  Ti16  1  0.33256626  0.16714450  0.08768701  1
  Ti4+  Ti17  1  0.33404566  0.66793153  0.08958549  1
  Ti4+  Ti18  1  0.83339987  0.16694137  0.08949107  1
  Ti4+  Ti19  1  0.83171477  0.66508570  0.08907649  1
  Ti4+  Ti20  1  0.16617228  0.33312516  0.42509170  1
  Ti4+  Ti21  1  0.16573475  0.83175613  0.42134465  1
  Ti4+  Ti22  1  0.66406231  0.33324339  0.42019822  1
  Ti4+  Ti23  1  0.66834772  0.83345498  0.42181145  1
  Cu+  Cu24  1  0.40607678  0.31054763  0.80960960  1
  Cu+  Cu25  1  0.84487109  0.41874964  0.47754838  1
  Cu+  Cu26  1  0.73669672  0.47447243  0.14203794  1
  Cu+  Cu27  1  0.08062725  0.64709110  0.47509370  1
  Cu+  Cu28  1  0.23711940  0.25505421  0.14402365  1
  Cu+  Cu29  1  0.86028865  0.93054887  0.47172529  1
  Cu+  Cu30  1  0.23725142  0.48429565  0.14687848  1
  Cu+  Cu31  1  0.17755998  0.58927630  0.81741557  1
  Cu+  Cu32  1  0.41201681  0.82470035  0.81282651  1
  Cu+  Cu33  1  0.57067217  0.42857245  0.47139318  1
  Cu+  Cu34  1  0.90737797  0.09826050  0.80754720  1
  Cu+  Cu35  1  0.41346895  0.58594584  0.81785461  1
  Cu+  Cu36  1  0.16155622  0.08334163  0.16993531  1
  Cu+  Cu37  1  0.16255069  0.58098063  0.17400633  1
  Cu+  Cu38  1  0.66271163  0.07968817  0.17229590  1
  Cu+  Cu39  1  0.66293053  0.57644572  0.17080539  1
  Cu+  Cu40  1  0.41278981  0.33625872  0.16857616  1
  Cu+  Cu41  1  0.41880728  0.83788288  0.17183662  1
  Cu+  Cu42  1  0.91683946  0.33541629  0.17244282  1
  Cu+  Cu43  1  0.91636613  0.83608300  0.17146397  1
  Cu+  Cu44  1  0.41539168  0.07826327  0.17156172  1
  Cu+  Cu45  1  0.41323782  0.57854125  0.16998679  1
  Cu+  Cu46  1  0.91720567  0.08120332  0.17096165  1
  Cu+  Cu47  1  0.91193254  0.57724432  0.17344349  1
  Cu+  Cu48  1  0.49664942  0.25564100  0.50319227  1
  Cu+  Cu49  1  0.49844765  0.74810830  0.50881793  1
  Cu+  Cu50  1  0.99757220  0.24749789  0.50556360  1
  Cu+  Cu51  1  0.99791486  0.74317412  0.49864120  1
  Cu+  Cu52  1  0.25303465  0.00337020  0.50483476  1
  Cu+  Cu53  1  0.25142330  0.50317355  0.50951339  1
  Cu+  Cu54  1  0.75847139  0.00165430  0.50409053  1
  Cu+  Cu55  1  0.75011086  0.50298733  0.49840648  1
  Cu+  Cu56  1  0.25508019  0.25213516  0.50667440  1
  Cu+  Cu57  1  0.24982098  0.74558504  0.50770700  1
  Cu+  Cu58  1  0.75318312  0.24779843  0.50398364  1
  Cu+  Cu59  1  0.75786973  0.75341732  0.49961450  1
  Cu+  Cu60  1  0.33088028  0.41167380  0.83916376  1
  Cu+  Cu61  1  0.32957159  0.91502620  0.83396221  1
  Cu+  Cu62  1  0.83002807  0.41821271  0.83905435  1
  Cu+  Cu63  1  0.83166983  0.92156161  0.83469473  1
  Cu+  Cu64  1  0.08139377  0.16925012  0.83883642  1
  Cu+  Cu65  1  0.08706703  0.67290302  0.83668288  1
  Cu+  Cu66  1  0.58660816  0.17153410  0.83491450  1
  Cu+  Cu67  1  0.58763046  0.67239884  0.83492719  1
  Cu+  Cu68  1  0.08626528  0.41671224  0.83920230  1
  Cu+  Cu69  1  0.08350778  0.91399050  0.83730044  1
  Cu+  Cu70  1  0.58321317  0.41108758  0.83748479  1
  Cu+  Cu71  1  0.58713312  0.91460285  0.83188906  1
  Cu+  Cu72  1  0.17172284  0.08722980  0.67521002  1
  Cu+  Cu73  1  0.16939665  0.58608761  0.68464467  1
  Cu+  Cu74  1  0.67121085  0.08498202  0.67209117  1
  Cu+  Cu75  1  0.67149603  0.58377778  0.67011030  1
  Cu+  Cu76  1  0.41944102  0.33167874  0.68039840  1
  Cu+  Cu77  1  0.41479410  0.83061253  0.68055042  1
  Cu+  Cu78  1  0.91646657  0.33267325  0.67616779  1
  Cu+  Cu79  1  0.91824597  0.83224724  0.67024492  1
  Cu+  Cu80  1  0.41949705  0.08848755  0.67267984  1
  Cu+  Cu81  1  0.41596523  0.58461274  0.68406902  1
  Cu+  Cu82  1  0.91688779  0.08577036  0.67896563  1
  Cu+  Cu83  1  0.91630357  0.58364455  0.67257988  1
  Cu+  Cu84  1  0.00102428  0.25132985  0.01197180  1
  Cu+  Cu85  1  0.00252637  0.75053008  0.00765692  1
  Cu+  Cu86  1  0.50097779  0.25031113  0.00833916  1
  Cu+  Cu87  1  0.50326690  0.75476344  0.00812311  1
  Cu+  Cu88  1  0.25025108  0.49989596  0.01672432  1
  Cu+  Cu89  1  0.24848032  0.99648990  0.00622866  1
  Cu+  Cu90  1  0.74699824  0.49562521  0.01229764  1
  Cu+  Cu91  1  0.75022796  1.00023968  0.00619864  1
  Cu+  Cu92  1  0.24952449  0.25197484  0.01392669  1
  Cu+  Cu93  1  0.25044788  0.75302223  0.00996057  1
  Cu+  Cu94  1  0.74983154  0.25209403  0.00836755  1
  Cu+  Cu95  1  0.74914652  0.75300423  0.00447568  1
  Cu+  Cu96  1  0.33092303  0.41684324  0.34439196  1
  Cu+  Cu97  1  0.33514787  0.91522178  0.34193430  1
  Cu+  Cu98  1  0.83258284  0.41625408  0.34716648  1
  Cu+  Cu99  1  0.83782818  0.91966708  0.34363892  1
  Cu+  Cu100  1  0.08354218  0.16633024  0.34255368  1
  Cu+  Cu101  1  0.08101719  0.66154679  0.34591907  1
  Cu+  Cu102  1  0.57751305  0.15963131  0.34070955  1
  Cu+  Cu103  1  0.57973923  0.66394963  0.33968293  1
  Cu+  Cu104  1  0.08219907  0.41652166  0.34600758  1
  Cu+  Cu105  1  0.08372286  0.91904195  0.33884362  1
  Cu+  Cu106  1  0.57636628  0.41471468  0.34312329  1
  Cu+  Cu107  1  0.58050239  0.91657305  0.34211167  1
  Cu+  Cu108  1  -0.00279597  -0.00384800  0.11299696  1
  Cu+  Cu109  1  -0.00036300  0.50217982  0.11730925  1
  Cu+  Cu110  1  0.50122961  0.00239792  0.11479878  1
  Cu+  Cu111  1  0.50282309  0.50499384  0.11309003  1
  Cu+  Cu112  1  0.32911065  0.16278907  0.44849849  1
  Cu+  Cu113  1  0.33735666  0.66734773  0.45356112  1
  Cu+  Cu114  1  0.83046509  0.16410732  0.44701001  1
  Cu+  Cu115  1  0.83339790  0.66764340  0.44000321  1
  Cu+  Cu116  1  0.16590369  0.33270213  0.78323814  1
  Cu+  Cu117  1  0.16639976  0.83777074  0.77827053  1
  Cu+  Cu118  1  0.67090690  0.33405427  0.77989698  1
  Cu+  Cu119  1  0.67070853  0.83257507  0.77537126  1
  Te2-  Te120  1  0.00441369  0.00212342  0.38716859  1
  Te2-  Te121  1  -0.00158888  0.49640964  0.39223292  1
  Te2-  Te122  1  0.49825621  -0.00261432  0.38803721  1
  Te2-  Te123  1  0.49628743  0.50091249  0.38682112  1
  Te2-  Te124  1  0.33458522  0.16528856  0.72239675  1
  Te2-  Te125  1  0.33414885  0.66724298  0.73004692  1
  Te2-  Te126  1  0.83313005  0.16872590  0.72114261  1
  Te2-  Te127  1  0.83546722  0.66797307  0.71424242  1
  Te2-  Te128  1  0.16454607  0.33305041  0.05842511  1
  Te2-  Te129  1  0.16622463  0.83347991  0.05224934  1
  Te2-  Te130  1  0.66411169  0.32960698  0.05531708  1
  Te2-  Te131  1  0.66844242  0.83581331  0.04955932  1
  Te2-  Te132  1  0.49118678  0.24192654  0.88274819  1
  Te2-  Te133  1  0.49146054  0.74667074  0.88247172  1
  Te2-  Te134  1  0.99423978  0.25100903  0.88554685  1
  Te2-  Te135  1  0.99493139  0.74653232  0.88175817  1
  Te2-  Te136  1  0.25230867  0.00351929  0.88023835  1
  Te2-  Te137  1  0.25594304  0.50870539  0.88827071  1
  Te2-  Te138  1  0.75142948  0.01031693  0.88042540  1
  Te2-  Te139  1  0.74998785  0.50496106  0.88497207  1
  Te2-  Te140  1  0.24929233  0.24409133  0.88604798  1
  Te2-  Te141  1  0.25693098  0.74601707  0.88432502  1
  Te2-  Te142  1  0.75301258  0.24950000  0.88225560  1
  Te2-  Te143  1  0.75461739  0.75212686  0.87834386  1
  Te2-  Te144  1  0.31939920  0.41015448  0.21829005  1
  Te2-  Te145  1  0.32525495  0.91104721  0.21652931  1
  Te2-  Te146  1  0.82352014  0.40838584  0.21953216  1
  Te2-  Te147  1  0.82806680  0.91480582  0.21686664  1
  Te2-  Te148  1  0.08357595  0.17516952  0.21697954  1
  Te2-  Te149  1  0.08135766  0.66719627  0.21836997  1
  Te2-  Te150  1  0.58335395  0.16911184  0.21513111  1
  Te2-  Te151  1  0.58219911  0.66649033  0.21322603  1
  Te2-  Te152  1  0.08295536  0.41010536  0.21984349  1
  Te2-  Te153  1  0.08581862  0.91585135  0.21309719  1
  Te2-  Te154  1  0.57899657  0.40699003  0.21616437  1
  Te2-  Te155  1  0.58545750  0.91212422  0.21657620  1
  Te2-  Te156  1  0.16514290  0.08364659  0.54930956  1
  Te2-  Te157  1  0.15901418  0.57716858  0.55638610  1
  Te2-  Te158  1  0.66637216  0.07987057  0.54615536  1
  Te2-  Te159  1  0.66248768  0.58439913  0.54448788  1
  Te2-  Te160  1  0.42130933  0.34597197  0.55326776  1
  Te2-  Te161  1  0.41719144  0.83565269  0.55284379  1
  Te2-  Te162  1  0.92359126  0.34050505  0.55049342  1
  Te2-  Te163  1  0.92696563  0.83998853  0.54460243  1
  Te2-  Te164  1  0.42270664  0.08692046  0.54690790  1
  Te2-  Te165  1  0.41852756  0.58100486  0.55572084  1
  Te2-  Te166  1  0.92603712  0.08194367  0.55191828  1
  Te2-  Te167  1  0.92090598  0.57618011  0.54696311  1
  Te2-  Te168  1  -0.00028594  -0.00097218  0.88154077  1
  Te2-  Te169  1  -0.00014325  0.50206372  0.88334420  1
  Te2-  Te170  1  0.50163471  0.00046625  0.87878130  1
  Te2-  Te171  1  0.50371847  0.50232200  0.88324009  1
  Te2-  Te172  1  0.33216315  0.16567303  0.21450593  1
  Te2-  Te173  1  0.33376981  0.66806305  0.21647575  1
  Te2-  Te174  1  0.83199044  0.16522572  0.21586979  1
  Te2-  Te175  1  0.83161166  0.66706413  0.21594668  1
  Te2-  Te176  1  0.16692165  0.33298870  0.55150438  1
  Te2-  Te177  1  0.16613548  0.83396933  0.54834169  1
  Te2-  Te178  1  0.66795434  0.33390555  0.54772688  1
  Te2-  Te179  1  0.66938828  0.83229823  0.54869367  1
  Te2-  Te180  1  0.32663398  0.41181027  0.71191082  1
  Te2-  Te181  1  0.32794202  0.91742825  0.70717280  1
  Te2-  Te182  1  0.82933999  0.41541892  0.71174698  1
  Te2-  Te183  1  0.82933930  0.91267568  0.70722552  1
  Te2-  Te184  1  0.08930226  0.17461468  0.71166865  1
  Te2-  Te185  1  0.08510610  0.67489376  0.71012187  1
  Te2-  Te186  1  0.58937814  0.17343789  0.70871894  1
  Te2-  Te187  1  0.58988928  0.67143042  0.70813683  1
  Te2-  Te188  1  0.08614684  0.41290721  0.71258085  1
  Te2-  Te189  1  0.08667597  0.91657248  0.71002882  1
  Te2-  Te190  1  0.59181716  0.41620348  0.71050053  1
  Te2-  Te191  1  0.58913877  0.91453486  0.70597918  1
  Te2-  Te192  1  0.15983468  0.07831662  0.04257814  1
  Te2-  Te193  1  0.16021970  0.58293209  0.04624846  1
  Te2-  Te194  1  0.66232076  0.08163024  0.04508661  1
  Te2-  Te195  1  0.66094148  0.58296567  0.04262158  1
  Te2-  Te196  1  0.42210379  0.34139936  0.04270999  1
  Te2-  Te197  1  0.42018199  0.84049694  0.04560374  1
  Te2-  Te198  1  0.91934261  0.34013272  0.04651077  1
  Te2-  Te199  1  0.91785729  0.83620948  0.04428161  1
  Te2-  Te200  1  0.41780329  0.07994767  0.04466502  1
  Te2-  Te201  1  0.42341351  0.58464127  0.04315911  1
  Te2-  Te202  1  0.91917210  0.08054920  0.04479408  1
  Te2-  Te203  1  0.91972379  0.58074376  0.04542938  1
  Te2-  Te204  1  0.49057157  0.24312727  0.37658542  1
  Te2-  Te205  1  0.49504157  0.74730266  0.38108038  1
  Te2-  Te206  1  0.99394560  0.24606796  0.37993688  1
  Te2-  Te207  1  0.99420208  0.74850890  0.37257113  1
  Te2-  Te208  1  0.25269292  0.00347457  0.37770027  1
  Te2-  Te209  1  0.25166895  0.50629983  0.38283387  1
  Te2-  Te210  1  0.75143179  0.00525141  0.37675378  1
  Te2-  Te211  1  0.74957628  0.50651910  0.37164186  1
  Te2-  Te212  1  0.25255042  0.24765080  0.38027002  1
  Te2-  Te213  1  0.25330967  0.74530636  0.37980591  1
  Te2-  Te214  1  0.74807333  0.24335762  0.37672077  1
  Te2-  Te215  1  0.75101176  0.74599472  0.37272122  1
