# generated using pymatgen
data_Ti(CuTe)4
_symmetry_space_group_name_H-M   'P 1'
_cell_length_a   16.89189768
_cell_length_b   16.88659767
_cell_length_c   20.71031560
_cell_angle_alpha   89.96817786
_cell_angle_beta   89.96398456
_cell_angle_gamma   119.99777713
_symmetry_Int_Tables_number   1
_chemical_formula_structural   Ti(CuTe)4
_chemical_formula_sum   'Ti24 Cu96 Te96'
_cell_volume   5116.19830666
_cell_formula_units_Z   24
loop_
 _symmetry_equiv_pos_site_id
 _symmetry_equiv_pos_as_xyz
  1  'x, y, z'
loop_
 _atom_type_symbol
 _atom_type_oxidation_number
  Ti4+  4.0
  Cu+  1.0
  Te2-  -2.0
loop_
 _atom_site_type_symbol
 _atom_site_label
 _atom_site_symmetry_multiplicity
 _atom_site_fract_x
 _atom_site_fract_y
 _atom_site_fract_z
 _atom_site_occupancy
  Ti4+  Ti0  1  -0.00035738  0.00113873  0.25946656  1
  Ti4+  Ti1  1  -0.00103648  0.50036466  0.25696617  1
  Ti4+  Ti2  1  0.49768175  -0.00022193  0.26080722  1
  Ti4+  Ti3  1  0.49961207  0.50218790  0.25533052  1
  Ti4+  Ti4  1  0.33292413  0.16679258  0.59266860  1
  Ti4+  Ti5  1  0.33232292  0.66876013  0.59012183  1
  Ti4+  Ti6  1  0.83217519  0.16441079  0.59069440  1
  Ti4+  Ti7  1  0.83468462  0.66669019  0.59077815  1
  Ti4+  Ti8  1  0.16659854  0.33109281  0.91921118  1
  Ti4+  Ti9  1  0.16969856  0.83244621  0.92625876  1
  Ti4+  Ti10  1  0.66813155  0.33391156  0.92272906  1
  Ti4+  Ti11  1  0.66961240  0.83379320  0.92692658  1
  Ti4+  Ti12  1  -0.00147532  -0.00015493  0.75509997  1
  Ti4+  Ti13  1  0.00144751  0.49969513  0.75439998  1
  Ti4+  Ti14  1  0.49802896  -0.00155235  0.75733958  1
  Ti4+  Ti15  1  0.50187913  0.50031949  0.75338376  1
  Ti4+  Ti16  1  0.33375471  0.16678526  0.08945326  1
  Ti4+  Ti17  1  0.33233904  0.66536013  0.08831013  1
  Ti4+  Ti18  1  0.83417521  0.16610711  0.08979008  1
  Ti4+  Ti19  1  0.83352126  0.66667088  0.08796179  1
  Ti4+  Ti20  1  0.16599216  0.33383634  0.42223167  1
  Ti4+  Ti21  1  0.16434502  0.83079125  0.42217421  1
  Ti4+  Ti22  1  0.66441752  0.33338234  0.42183538  1
  Ti4+  Ti23  1  0.66729877  0.83455307  0.42242940  1
  Cu+  Cu24  1  0.19214208  0.59571259  0.80747415  1
  Cu+  Cu25  1  0.06977138  0.64138683  0.47290974  1
  Cu+  Cu26  1  0.74629067  0.76270248  0.14479382  1
  Cu+  Cu27  1  0.51164796  0.76139014  0.14576443  1
  Cu+  Cu28  1  0.18228566  0.08534533  0.80840097  1
  Cu+  Cu29  1  0.41560554  0.31902759  0.80888550  1
  Cu+  Cu30  1  0.69185953  0.59613899  0.80729728  1
  Cu+  Cu31  1  0.85595359  0.92675424  0.47581589  1
  Cu+  Cu32  1  0.34451392  0.92623027  0.47960021  1
  Cu+  Cu33  1  0.90293883  0.09244672  0.80695782  1
  Cu+  Cu34  1  0.57905110  0.92921653  0.47653089  1
  Cu+  Cu35  1  0.23974199  0.76082471  0.14499480  1
  Cu+  Cu36  1  0.16464864  0.08321742  0.17306288  1
  Cu+  Cu37  1  0.16098240  0.58556271  0.16987817  1
  Cu+  Cu38  1  0.66545527  0.08291529  0.17322265  1
  Cu+  Cu39  1  0.66297189  0.58636288  0.16789653  1
  Cu+  Cu40  1  0.41682364  0.33723020  0.17018934  1
  Cu+  Cu41  1  0.41563008  0.83840024  0.17329244  1
  Cu+  Cu42  1  0.91811184  0.33565591  0.17130594  1
  Cu+  Cu43  1  0.91670056  0.83828479  0.17233734  1
  Cu+  Cu44  1  0.41543038  0.08183354  0.17333507  1
  Cu+  Cu45  1  0.42151119  0.58456462  0.16836027  1
  Cu+  Cu46  1  0.91872667  0.08255698  0.17241856  1
  Cu+  Cu47  1  0.91873657  0.58181418  0.17024719  1
  Cu+  Cu48  1  0.49634616  0.24957412  0.50426352  1
  Cu+  Cu49  1  0.49692499  0.75465016  0.50299702  1
  Cu+  Cu50  1  0.99696751  0.24578121  0.50423875  1
  Cu+  Cu51  1  0.99514000  0.74210347  0.50287086  1
  Cu+  Cu52  1  0.25169923  0.00514748  0.50601375  1
  Cu+  Cu53  1  0.24932593  0.50306763  0.50429981  1
  Cu+  Cu54  1  0.75397151  0.00386554  0.50361497  1
  Cu+  Cu55  1  0.74844741  0.50253302  0.50402751  1
  Cu+  Cu56  1  0.25082967  0.24940975  0.50662752  1
  Cu+  Cu57  1  0.24907849  0.74690000  0.50229271  1
  Cu+  Cu58  1  0.74796844  0.24791048  0.50362855  1
  Cu+  Cu59  1  0.75603545  0.75269473  0.50513010  1
  Cu+  Cu60  1  0.32951271  0.40943293  0.83146830  1
  Cu+  Cu61  1  0.32973714  0.91263159  0.83933055  1
  Cu+  Cu62  1  0.83063541  0.41391306  0.83605933  1
  Cu+  Cu63  1  0.82915107  0.91709365  0.83764122  1
  Cu+  Cu64  1  0.08306384  0.16780619  0.83260640  1
  Cu+  Cu65  1  0.09088436  0.66714985  0.83931322  1
  Cu+  Cu66  1  0.58513403  0.16828218  0.83753473  1
  Cu+  Cu67  1  0.59071450  0.66878821  0.83898172  1
  Cu+  Cu68  1  0.08924119  0.41767555  0.83311357  1
  Cu+  Cu69  1  0.08675095  0.91540921  0.83968047  1
  Cu+  Cu70  1  0.58991540  0.41718826  0.83478036  1
  Cu+  Cu71  1  0.58328404  0.91383689  0.84078182  1
  Cu+  Cu72  1  0.16952845  0.08473388  0.67918714  1
  Cu+  Cu73  1  0.16969114  0.58638558  0.67854358  1
  Cu+  Cu74  1  0.66618137  0.08026392  0.67594439  1
  Cu+  Cu75  1  0.67192613  0.58754651  0.67814464  1
  Cu+  Cu76  1  0.41574527  0.33097339  0.67894044  1
  Cu+  Cu77  1  0.41415684  0.83396875  0.67626007  1
  Cu+  Cu78  1  0.91408742  0.32886879  0.67304331  1
  Cu+  Cu79  1  0.91543049  0.83129747  0.67471712  1
  Cu+  Cu80  1  0.41401135  0.08218288  0.67700687  1
  Cu+  Cu81  1  0.41681872  0.58772914  0.67259766  1
  Cu+  Cu82  1  0.91011051  0.08002343  0.67869560  1
  Cu+  Cu83  1  0.91572334  0.58299719  0.67517776  1
  Cu+  Cu84  1  0.00107561  0.24871786  0.00498986  1
  Cu+  Cu85  1  0.00489687  0.75011782  0.00871926  1
  Cu+  Cu86  1  0.50337371  0.25105527  0.00793359  1
  Cu+  Cu87  1  0.50423500  0.74928365  0.01480121  1
  Cu+  Cu88  1  0.24722340  0.49486429  0.00468976  1
  Cu+  Cu89  1  0.25074059  0.99792624  0.01119674  1
  Cu+  Cu90  1  0.74945205  0.49735310  0.00688591  1
  Cu+  Cu91  1  0.75118757  0.99925515  0.01113993  1
  Cu+  Cu92  1  0.24886861  0.24775474  0.00570869  1
  Cu+  Cu93  1  0.24928613  0.74954914  0.01481676  1
  Cu+  Cu94  1  0.74856855  0.25028118  0.00781452  1
  Cu+  Cu95  1  0.75105494  0.75184565  0.01366149  1
  Cu+  Cu96  1  0.33576045  0.41880023  0.33947331  1
  Cu+  Cu97  1  0.33290609  0.91554746  0.34901719  1
  Cu+  Cu98  1  0.83329736  0.41790745  0.34053287  1
  Cu+  Cu99  1  0.83654952  0.91828132  0.34734000  1
  Cu+  Cu100  1  0.08255737  0.16549570  0.34278279  1
  Cu+  Cu101  1  0.07890987  0.66198573  0.34518430  1
  Cu+  Cu102  1  0.57935295  0.16467038  0.34373080  1
  Cu+  Cu103  1  0.58246924  0.66442789  0.34117243  1
  Cu+  Cu104  1  0.08177301  0.41822432  0.33985672  1
  Cu+  Cu105  1  0.07944881  0.91677767  0.34213842  1
  Cu+  Cu106  1  0.58051191  0.41808955  0.33835042  1
  Cu+  Cu107  1  0.57991082  0.91709008  0.34769856  1
  Cu+  Cu108  1  0.00313884  0.00227942  0.11660696  1
  Cu+  Cu109  1  -0.00313114  0.49549221  0.11329200  1
  Cu+  Cu110  1  0.50385484  0.00682553  0.11845536  1
  Cu+  Cu111  1  0.49905653  0.49613750  0.11101619  1
  Cu+  Cu112  1  0.33258745  0.17040266  0.44919031  1
  Cu+  Cu113  1  0.33409081  0.66272934  0.44639169  1
  Cu+  Cu114  1  0.83570955  0.17457683  0.44753312  1
  Cu+  Cu115  1  0.82858258  0.66313744  0.44692755  1
  Cu+  Cu116  1  0.16670265  0.33336053  0.77344250  1
  Cu+  Cu117  1  0.16207261  0.82993686  0.78373633  1
  Cu+  Cu118  1  0.66842986  0.32964246  0.77861591  1
  Cu+  Cu119  1  0.66120753  0.83085349  0.78383545  1
  Te2-  Te120  1  0.00274424  0.00234588  0.39037621  1
  Te2-  Te121  1  -0.00360290  0.49553145  0.38766460  1
  Te2-  Te122  1  0.49874591  0.00178459  0.39274479  1
  Te2-  Te123  1  0.49943953  0.50013759  0.38416265  1
  Te2-  Te124  1  0.33466765  0.16578510  0.72479350  1
  Te2-  Te125  1  0.33642761  0.66965869  0.72057338  1
  Te2-  Te126  1  0.82996241  0.16618427  0.72128390  1
  Te2-  Te127  1  0.83773972  0.66843951  0.72151164  1
  Te2-  Te128  1  0.16598838  0.33027448  0.04748248  1
  Te2-  Te129  1  0.16733151  0.83388620  0.05680906  1
  Te2-  Te130  1  0.66753560  0.33363583  0.05164894  1
  Te2-  Te131  1  0.66980645  0.83608981  0.05877238  1
  Te2-  Te132  1  0.49480387  0.24553128  0.88194137  1
  Te2-  Te133  1  0.49982583  0.74602895  0.88632418  1
  Te2-  Te134  1  0.99415468  0.24878877  0.87891329  1
  Te2-  Te135  1  1.00023124  0.74674632  0.88245186  1
  Te2-  Te136  1  0.25694976  0.00624464  0.88524914  1
  Te2-  Te137  1  0.25815807  0.50479137  0.87899614  1
  Te2-  Te138  1  0.75164551  0.00718601  0.88496908  1
  Te2-  Te139  1  0.75797132  0.50836927  0.88132991  1
  Te2-  Te140  1  0.25366459  0.24181373  0.87985157  1
  Te2-  Te141  1  0.25887521  0.74725449  0.88708222  1
  Te2-  Te142  1  0.75276919  0.24699169  0.88182904  1
  Te2-  Te143  1  0.75927795  0.75039396  0.88593664  1
  Te2-  Te144  1  0.32862245  0.41745304  0.21359065  1
  Te2-  Te145  1  0.32427421  0.91483254  0.22096559  1
  Te2-  Te146  1  0.82808409  0.41456504  0.21470027  1
  Te2-  Te147  1  0.82564633  0.91650402  0.22002504  1
  Te2-  Te148  1  0.08578445  0.17208866  0.21708330  1
  Te2-  Te149  1  0.08378660  0.67576253  0.21856467  1
  Te2-  Te150  1  0.58330073  0.16920684  0.21761217  1
  Te2-  Te151  1  0.58928035  0.68090269  0.21595291  1
  Te2-  Te152  1  0.08672873  0.41750746  0.21409800  1
  Te2-  Te153  1  0.08387494  0.91453046  0.21651662  1
  Te2-  Te154  1  0.58597055  0.41834176  0.21236473  1
  Te2-  Te155  1  0.58618610  0.91556820  0.22010205  1
  Te2-  Te156  1  0.16180736  0.08133879  0.55197618  1
  Te2-  Te157  1  0.15898672  0.57958178  0.55112046  1
  Te2-  Te158  1  0.65925869  0.08047115  0.55010823  1
  Te2-  Te159  1  0.66413009  0.58503038  0.55063106  1
  Te2-  Te160  1  0.41841399  0.33762587  0.55165610  1
  Te2-  Te161  1  0.41945839  0.84502568  0.55051134  1
  Te2-  Te162  1  0.91656292  0.33424486  0.54716978  1
  Te2-  Te163  1  0.92581255  0.84034552  0.54935754  1
  Te2-  Te164  1  0.42201594  0.08264254  0.55117911  1
  Te2-  Te165  1  0.41906361  0.58613113  0.54649978  1
  Te2-  Te166  1  0.92107669  0.07917730  0.55164425  1
  Te2-  Te167  1  0.91629970  0.57460122  0.54934715  1
  Te2-  Te168  1  -0.00025360  -0.00070811  0.88264508  1
  Te2-  Te169  1  0.00016316  0.49650664  0.88119638  1
  Te2-  Te170  1  0.49979040  -0.00039138  0.88360179  1
  Te2-  Te171  1  0.49868878  0.49718794  0.88084969  1
  Te2-  Te172  1  0.33346884  0.16935291  0.21584822  1
  Te2-  Te173  1  0.33144245  0.66500837  0.21571889  1
  Te2-  Te174  1  0.83427497  0.16770008  0.21620484  1
  Te2-  Te175  1  0.83238747  0.66631333  0.21478423  1
  Te2-  Te176  1  0.16604603  0.33417417  0.54847724  1
  Te2-  Te177  1  0.16516016  0.83326694  0.54958968  1
  Te2-  Te178  1  0.66519904  0.33372499  0.54815006  1
  Te2-  Te179  1  0.66625387  0.83314438  0.54983131  1
  Te2-  Te180  1  0.32880526  0.41717009  0.70582956  1
  Te2-  Te181  1  0.32502046  0.91316843  0.71373279  1
  Te2-  Te182  1  0.82895525  0.41303291  0.71010538  1
  Te2-  Te183  1  0.82414176  0.90878117  0.71160557  1
  Te2-  Te184  1  0.08407463  0.17234754  0.70615817  1
  Te2-  Te185  1  0.08519861  0.67326000  0.71153634  1
  Te2-  Te186  1  0.58477945  0.16954013  0.71122448  1
  Te2-  Te187  1  0.58629438  0.67411114  0.71099483  1
  Te2-  Te188  1  0.08501913  0.41232996  0.70644343  1
  Te2-  Te189  1  0.08522877  0.91264546  0.71190581  1
  Te2-  Te190  1  0.58892595  0.41384778  0.70742319  1
  Te2-  Te191  1  0.58348702  0.91181338  0.71379052  1
  Te2-  Te192  1  0.16203761  0.07965392  0.04592227  1
  Te2-  Te193  1  0.15955244  0.57636664  0.04307903  1
  Te2-  Te194  1  0.66202990  0.08070381  0.04654364  1
  Te2-  Te195  1  0.66087460  0.57883238  0.04156509  1
  Te2-  Te196  1  0.41854689  0.33680520  0.04289647  1
  Te2-  Te197  1  0.42240463  0.84058434  0.04550074  1
  Te2-  Te198  1  0.91897435  0.33621793  0.04400659  1
  Te2-  Te199  1  0.92387723  0.84025282  0.04458757  1
  Te2-  Te200  1  0.42075846  0.08131292  0.04677958  1
  Te2-  Te201  1  0.41648118  0.57627697  0.04226290  1
  Te2-  Te202  1  0.92098521  0.08061731  0.04593037  1
  Te2-  Te203  1  0.91946471  0.58003021  0.04439931  1
  Te2-  Te204  1  0.49253429  0.24844333  0.37784324  1
  Te2-  Te205  1  0.49363872  0.74498484  0.37673715  1
  Te2-  Te206  1  0.99472293  0.24810120  0.37759726  1
  Te2-  Te207  1  0.99119104  0.74673695  0.37691271  1
  Te2-  Te208  1  0.24953360  0.00532225  0.37901253  1
  Te2-  Te209  1  0.25145146  0.50450068  0.37717822  1
  Te2-  Te210  1  0.75322476  0.00860615  0.37674710  1
  Te2-  Te211  1  0.74992426  0.50448566  0.37706645  1
  Te2-  Te212  1  0.25272049  0.24910343  0.37909785  1
  Te2-  Te213  1  0.25109525  0.74292938  0.37598018  1
  Te2-  Te214  1  0.75033351  0.24744993  0.37710404  1
  Te2-  Te215  1  0.75163124  0.74568556  0.37789956  1
