# generated using pymatgen
data_Ti(CuTe)4
_symmetry_space_group_name_H-M   'P 1'
_cell_length_a   16.87092286
_cell_length_b   16.86965637
_cell_length_c   20.68167634
_cell_angle_alpha   90.00288193
_cell_angle_beta   89.96190907
_cell_angle_gamma   119.99164607
_symmetry_Int_Tables_number   1
_chemical_formula_structural   Ti(CuTe)4
_chemical_formula_sum   'Ti24 Cu96 Te96'
_cell_volume   5097.97707921
_cell_formula_units_Z   24
loop_
 _symmetry_equiv_pos_site_id
 _symmetry_equiv_pos_as_xyz
  1  'x, y, z'
loop_
 _atom_type_symbol
 _atom_type_oxidation_number
  Ti4+  4.0
  Cu+  1.0
  Te2-  -2.0
loop_
 _atom_site_type_symbol
 _atom_site_label
 _atom_site_symmetry_multiplicity
 _atom_site_fract_x
 _atom_site_fract_y
 _atom_site_fract_z
 _atom_site_occupancy
  Ti4+  Ti0  1  0.00224542  0.00158893  0.25540642  1
  Ti4+  Ti1  1  0.00338612  0.50147437  0.25702430  1
  Ti4+  Ti2  1  0.50035542  0.00084960  0.25972686  1
  Ti4+  Ti3  1  0.50063810  0.50216604  0.25795806  1
  Ti4+  Ti4  1  0.33136606  0.16185554  0.58719859  1
  Ti4+  Ti5  1  0.33526393  0.66505833  0.59362159  1
  Ti4+  Ti6  1  0.83419257  0.16790337  0.59102232  1
  Ti4+  Ti7  1  0.83332918  0.66653903  0.59067476  1
  Ti4+  Ti8  1  0.16724098  0.33486524  0.92327024  1
  Ti4+  Ti9  1  0.16487183  0.83105731  0.92448582  1
  Ti4+  Ti10  1  0.66517734  0.33501029  0.92259412  1
  Ti4+  Ti11  1  0.66574849  0.83410589  0.93132131  1
  Ti4+  Ti12  1  -0.00211910  -0.00132202  0.75799993  1
  Ti4+  Ti13  1  0.00012846  0.50148014  0.75435034  1
  Ti4+  Ti14  1  0.49974944  -0.00111565  0.75723597  1
  Ti4+  Ti15  1  0.49955020  0.49801899  0.75606175  1
  Ti4+  Ti16  1  0.33167363  0.16531762  0.08930286  1
  Ti4+  Ti17  1  0.33259889  0.66655105  0.08866208  1
  Ti4+  Ti18  1  0.83409592  0.16885540  0.08739652  1
  Ti4+  Ti19  1  0.83330578  0.66682755  0.08867527  1
  Ti4+  Ti20  1  0.16618184  0.33322550  0.42193809  1
  Ti4+  Ti21  1  0.16606226  0.83572640  0.42233060  1
  Ti4+  Ti22  1  0.66950491  0.33377929  0.41941295  1
  Ti4+  Ti23  1  0.66467084  0.83059167  0.42316491  1
  Cu+  Cu24  1  0.34846386  0.91837591  0.47726732  1
  Cu+  Cu25  1  0.06832644  0.92748262  0.47269892  1
  Cu+  Cu26  1  0.02626439  0.26480546  0.13633989  1
  Cu+  Cu27  1  0.86045703  0.42978787  0.47283778  1
  Cu+  Cu28  1  0.18806415  0.59489223  0.80845372  1
  Cu+  Cu29  1  0.02482480  0.76091393  0.14003121  1
  Cu+  Cu30  1  0.90521292  0.59636134  0.80688478  1
  Cu+  Cu31  1  0.56955639  0.63849427  0.47579117  1
  Cu+  Cu32  1  0.74664426  0.75618007  0.14872061  1
  Cu+  Cu33  1  0.51082398  0.75688635  0.14805004  1
  Cu+  Cu34  1  0.74669808  0.99480229  0.14897938  1
  Cu+  Cu35  1  0.58212948  0.15150224  0.47591329  1
  Cu+  Cu36  1  0.16278497  0.07936600  0.16906303  1
  Cu+  Cu37  1  0.16192979  0.58028082  0.16933816  1
  Cu+  Cu38  1  0.66085978  0.08293082  0.16999364  1
  Cu+  Cu39  1  0.66078256  0.58313391  0.16993995  1
  Cu+  Cu40  1  0.41665599  0.33505581  0.17219321  1
  Cu+  Cu41  1  0.41678794  0.83644897  0.17169263  1
  Cu+  Cu42  1  0.92315692  0.33711443  0.16927758  1
  Cu+  Cu43  1  0.92292687  0.83619906  0.16847366  1
  Cu+  Cu44  1  0.41753224  0.08200820  0.17404553  1
  Cu+  Cu45  1  0.41962327  0.58398965  0.17018290  1
  Cu+  Cu46  1  0.92326094  0.08858446  0.16647772  1
  Cu+  Cu47  1  0.92292604  0.58634142  0.17088260  1
  Cu+  Cu48  1  0.49679398  0.24291944  0.49912900  1
  Cu+  Cu49  1  0.49703885  0.74169907  0.50488231  1
  Cu+  Cu50  1  0.99619154  0.24643329  0.50403364  1
  Cu+  Cu51  1  0.99567392  0.75263294  0.50376616  1
  Cu+  Cu52  1  0.24985957  0.00269952  0.49957756  1
  Cu+  Cu53  1  0.25104058  0.50143197  0.50676784  1
  Cu+  Cu54  1  0.75157831  0.00152699  0.50467506  1
  Cu+  Cu55  1  0.75747226  0.50299810  0.50159599  1
  Cu+  Cu56  1  0.24993702  0.24602193  0.50176553  1
  Cu+  Cu57  1  0.25305397  0.74866882  0.50799592  1
  Cu+  Cu58  1  0.75631357  0.25086629  0.50159724  1
  Cu+  Cu59  1  0.74584680  0.74378421  0.50344460  1
  Cu+  Cu60  1  0.32997952  0.41401554  0.83670835  1
  Cu+  Cu61  1  0.33057029  0.91462152  0.83831142  1
  Cu+  Cu62  1  0.82747945  0.42048302  0.83520790  1
  Cu+  Cu63  1  0.82893347  0.91601062  0.84457239  1
  Cu+  Cu64  1  0.08201870  0.16881144  0.83932241  1
  Cu+  Cu65  1  0.08360608  0.66966034  0.83639348  1
  Cu+  Cu66  1  0.58332491  0.16933832  0.83793231  1
  Cu+  Cu67  1  0.58315293  0.66798706  0.84386422  1
  Cu+  Cu68  1  0.08938732  0.41893457  0.83689251  1
  Cu+  Cu69  1  0.08193140  0.91368088  0.83927318  1
  Cu+  Cu70  1  0.58313551  0.41315828  0.83622660  1
  Cu+  Cu71  1  0.58424213  0.91540339  0.84405783  1
  Cu+  Cu72  1  0.16559581  0.08070094  0.67343795  1
  Cu+  Cu73  1  0.17206755  0.58535808  0.68014108  1
  Cu+  Cu74  1  0.66905363  0.08378198  0.67607862  1
  Cu+  Cu75  1  0.66670563  0.58251898  0.67598390  1
  Cu+  Cu76  1  0.41442862  0.32733324  0.67095036  1
  Cu+  Cu77  1  0.41892069  0.83136699  0.67762430  1
  Cu+  Cu78  1  0.91495037  0.33153248  0.67444274  1
  Cu+  Cu79  1  0.91351036  0.83331231  0.67631160  1
  Cu+  Cu80  1  0.41428596  0.07996560  0.67322590  1
  Cu+  Cu81  1  0.41803412  0.58288723  0.67862764  1
  Cu+  Cu82  1  0.91296555  0.08283128  0.67599740  1
  Cu+  Cu83  1  0.91551947  0.58534980  0.67795960  1
  Cu+  Cu84  1  0.00538236  0.25626244  0.00885248  1
  Cu+  Cu85  1  0.00259329  0.74840837  0.01226386  1
  Cu+  Cu86  1  0.50158117  0.24995057  0.00670329  1
  Cu+  Cu87  1  0.50200481  0.75279078  0.01700487  1
  Cu+  Cu88  1  0.24895639  0.49943537  0.00740597  1
  Cu+  Cu89  1  0.24861955  0.99710517  0.00752984  1
  Cu+  Cu90  1  0.74646234  0.49674972  0.00683035  1
  Cu+  Cu91  1  0.74689939  0.99921288  0.01764418  1
  Cu+  Cu92  1  0.24735131  0.24904063  0.00670778  1
  Cu+  Cu93  1  0.24636633  0.74776082  0.00863432  1
  Cu+  Cu94  1  0.74747238  0.25377693  0.00413681  1
  Cu+  Cu95  1  0.74732438  0.75111347  0.01718786  1
  Cu+  Cu96  1  0.33538854  0.42063799  0.34091202  1
  Cu+  Cu97  1  0.33633282  0.91888591  0.34731963  1
  Cu+  Cu98  1  0.84039875  0.42079192  0.34256924  1
  Cu+  Cu99  1  0.83378447  0.91737128  0.34140796  1
  Cu+  Cu100  1  0.08267194  0.16710619  0.33917903  1
  Cu+  Cu101  1  0.08329195  0.66730036  0.34179046  1
  Cu+  Cu102  1  0.58333178  0.16441620  0.34578034  1
  Cu+  Cu103  1  0.58127518  0.66418680  0.34835195  1
  Cu+  Cu104  1  0.08263020  0.41648610  0.34186770  1
  Cu+  Cu105  1  0.07945476  0.91668989  0.34504327  1
  Cu+  Cu106  1  0.58480513  0.42105614  0.33951116  1
  Cu+  Cu107  1  0.58243260  0.91579403  0.34477953  1
  Cu+  Cu108  1  0.00024212  0.00147585  0.10944870  1
  Cu+  Cu109  1  -0.00368028  0.49848559  0.11272281  1
  Cu+  Cu110  1  0.49549163  0.00094831  0.11561116  1
  Cu+  Cu111  1  0.49391103  0.49319507  0.11407510  1
  Cu+  Cu112  1  0.33491005  0.17182470  0.44151757  1
  Cu+  Cu113  1  0.33068394  0.66454165  0.45051758  1
  Cu+  Cu114  1  0.83445132  0.16306255  0.44583421  1
  Cu+  Cu115  1  0.83122230  0.66661220  0.44601757  1
  Cu+  Cu116  1  0.16718095  0.32841584  0.78034291  1
  Cu+  Cu117  1  0.16900362  0.83894911  0.78099819  1
  Cu+  Cu118  1  0.66239669  0.32878958  0.77861178  1
  Cu+  Cu119  1  0.66542539  0.83139989  0.78990989  1
  Te2-  Te120  1  -0.00172032  0.00288291  0.38551018  1
  Te2-  Te121  1  0.00558697  0.50342507  0.38775691  1
  Te2-  Te122  1  0.50215407  -0.00093604  0.39171398  1
  Te2-  Te123  1  0.49850216  0.49687637  0.38839581  1
  Te2-  Te124  1  0.33140054  0.16262486  0.71562835  1
  Te2-  Te125  1  0.33820480  0.66753588  0.72395551  1
  Te2-  Te126  1  0.83338482  0.16787630  0.72008035  1
  Te2-  Te127  1  0.83149169  0.66823178  0.72076688  1
  Te2-  Te128  1  0.17118197  0.33606961  0.05395132  1
  Te2-  Te129  1  0.16910778  0.83389070  0.05507482  1
  Te2-  Te130  1  0.66513048  0.33342540  0.05216491  1
  Te2-  Te131  1  0.66652528  0.83483454  0.06501205  1
  Te2-  Te132  1  0.49312575  0.24671761  0.88101284  1
  Te2-  Te133  1  0.49562834  0.74820811  0.88928220  1
  Te2-  Te134  1  0.99598088  0.25161943  0.88191625  1
  Te2-  Te135  1  0.99148374  0.74668011  0.88459606  1
  Te2-  Te136  1  0.25025872  0.00190659  0.88166658  1
  Te2-  Te137  1  0.25827085  0.50913367  0.88192279  1
  Te2-  Te138  1  0.75060745  0.00478515  0.89001293  1
  Te2-  Te139  1  0.74938120  0.51017387  0.88135110  1
  Te2-  Te140  1  0.25069888  0.24698372  0.88099721  1
  Te2-  Te141  1  0.25411751  0.74724220  0.88283827  1
  Te2-  Te142  1  0.75289074  0.25192018  0.87846579  1
  Te2-  Te143  1  0.75041597  0.74851029  0.88940202  1
  Te2-  Te144  1  0.33027412  0.41752718  0.21499053  1
  Te2-  Te145  1  0.32940426  0.91429349  0.21953629  1
  Te2-  Te146  1  0.83340418  0.41669979  0.21452944  1
  Te2-  Te147  1  0.82824807  0.91542183  0.21520251  1
  Te2-  Te148  1  0.09046241  0.17447722  0.21344158  1
  Te2-  Te149  1  0.09236441  0.67600212  0.21624072  1
  Te2-  Te150  1  0.58553398  0.17170856  0.21835218  1
  Te2-  Te151  1  0.58887931  0.67888763  0.22059397  1
  Te2-  Te152  1  0.09133932  0.41503567  0.21606852  1
  Te2-  Te153  1  0.08930545  0.91435781  0.21743153  1
  Te2-  Te154  1  0.58576463  0.41689847  0.21401164  1
  Te2-  Te155  1  0.58811804  0.91340442  0.21879961  1
  Te2-  Te156  1  0.15741993  0.07909018  0.54721903  1
  Te2-  Te157  1  0.16396907  0.58158442  0.55253275  1
  Te2-  Te158  1  0.66129578  0.07855397  0.54953820  1
  Te2-  Te159  1  0.66067884  0.57409030  0.54923590  1
  Te2-  Te160  1  0.41863765  0.33244501  0.54460334  1
  Te2-  Te161  1  0.42515940  0.83768939  0.55133343  1
  Te2-  Te162  1  0.92424812  0.34177881  0.54849660  1
  Te2-  Te163  1  0.91376630  0.83978368  0.54974055  1
  Te2-  Te164  1  0.42067953  0.07459063  0.54717907  1
  Te2-  Te165  1  0.41797710  0.57392706  0.55243981  1
  Te2-  Te166  1  0.91793051  0.07981829  0.54984237  1
  Te2-  Te167  1  0.92517534  0.58506687  0.55017003  1
  Te2-  Te168  1  -0.00013792  0.00058523  0.88444035  1
  Te2-  Te169  1  -0.00215345  0.49882297  0.88151336  1
  Te2-  Te170  1  0.49888979  0.00135840  0.88356603  1
  Te2-  Te171  1  0.49805093  0.49658756  0.88248383  1
  Te2-  Te172  1  0.33182249  0.16629682  0.21588724  1
  Te2-  Te173  1  0.33161721  0.66601792  0.21606038  1
  Te2-  Te174  1  0.83238460  0.16742311  0.21560492  1
  Te2-  Te175  1  0.83213526  0.66595522  0.21659211  1
  Te2-  Te176  1  0.16588769  0.33036609  0.54826236  1
  Te2-  Te177  1  0.16636482  0.83392460  0.55001710  1
  Te2-  Te178  1  0.66596959  0.33195240  0.54698142  1
  Te2-  Te179  1  0.66644753  0.83259838  0.55009256  1
  Te2-  Te180  1  0.32813480  0.41081607  0.71009636  1
  Te2-  Te181  1  0.32797568  0.91129898  0.71144801  1
  Te2-  Te182  1  0.82666800  0.41316195  0.70843290  1
  Te2-  Te183  1  0.82513037  0.91388067  0.71630346  1
  Te2-  Te184  1  0.08384127  0.16897746  0.71151002  1
  Te2-  Te185  1  0.08836593  0.67551098  0.70883411  1
  Te2-  Te186  1  0.58392915  0.16943511  0.71035079  1
  Te2-  Te187  1  0.58739360  0.67214019  0.71575228  1
  Te2-  Te188  1  0.08498607  0.41238685  0.71019364  1
  Te2-  Te189  1  0.08323761  0.91226919  0.71221189  1
  Te2-  Te190  1  0.58401308  0.41129840  0.70952864  1
  Te2-  Te191  1  0.58841422  0.91428927  0.71607554  1
  Te2-  Te192  1  0.16030626  0.07913030  0.04276459  1
  Te2-  Te193  1  0.15954359  0.57882675  0.04409609  1
  Te2-  Te194  1  0.65939897  0.08501255  0.04369866  1
  Te2-  Te195  1  0.65875601  0.57823822  0.04401487  1
  Te2-  Te196  1  0.41747855  0.33615512  0.04416980  1
  Te2-  Te197  1  0.41659664  0.84065431  0.04462912  1
  Te2-  Te198  1  0.91741577  0.34035206  0.04151398  1
  Te2-  Te199  1  0.92132554  0.84067411  0.04134045  1
  Te2-  Te200  1  0.41830386  0.08038393  0.04556269  1
  Te2-  Te201  1  0.41883577  0.57905637  0.04343858  1
  Te2-  Te202  1  0.92183286  0.08302991  0.03948204  1
  Te2-  Te203  1  0.91599321  0.57699842  0.04331121  1
  Te2-  Te204  1  0.49617535  0.25035207  0.37277895  1
  Te2-  Te205  1  0.49061556  0.74605795  0.37833110  1
  Te2-  Te206  1  0.99378811  0.24667446  0.37712669  1
  Te2-  Te207  1  0.99241950  0.74550602  0.37693534  1
  Te2-  Te208  1  0.25284844  0.00874548  0.37314118  1
  Te2-  Te209  1  0.25251585  0.50634565  0.37957940  1
  Te2-  Te210  1  0.75196243  0.00395729  0.37838668  1
  Te2-  Te211  1  0.75431260  0.50719553  0.37456618  1
  Te2-  Te212  1  0.25273102  0.24917984  0.37472406  1
  Te2-  Te213  1  0.25221660  0.74709850  0.37978848  1
  Te2-  Te214  1  0.75687852  0.24745320  0.37354590  1
  Te2-  Te215  1  0.75457267  0.74801230  0.37634962  1
