# generated using pymatgen
data_Ti(CuTe)4
_symmetry_space_group_name_H-M   'P 1'
_cell_length_a   16.88635584
_cell_length_b   16.88563782
_cell_length_c   20.70666558
_cell_angle_alpha   90.00557891
_cell_angle_beta   89.99692752
_cell_angle_gamma   119.99145668
_symmetry_Int_Tables_number   1
_chemical_formula_structural   Ti(CuTe)4
_chemical_formula_sum   'Ti24 Cu96 Te96'
_cell_volume   5113.65691358
_cell_formula_units_Z   24
loop_
 _symmetry_equiv_pos_site_id
 _symmetry_equiv_pos_as_xyz
  1  'x, y, z'
loop_
 _atom_type_symbol
 _atom_type_oxidation_number
  Ti4+  4.0
  Cu+  1.0
  Te2-  -2.0
loop_
 _atom_site_type_symbol
 _atom_site_label
 _atom_site_symmetry_multiplicity
 _atom_site_fract_x
 _atom_site_fract_y
 _atom_site_fract_z
 _atom_site_occupancy
  Ti4+  Ti0  1  0.00420551  0.00222598  0.25623393  1
  Ti4+  Ti1  1  0.00027062  0.50032893  0.25893944  1
  Ti4+  Ti2  1  0.49935349  -0.00271315  0.25677174  1
  Ti4+  Ti3  1  0.49956904  0.50140176  0.26009987  1
  Ti4+  Ti4  1  0.33151335  0.16558230  0.59404487  1
  Ti4+  Ti5  1  0.33095669  0.66684997  0.59296794  1
  Ti4+  Ti6  1  0.82950037  0.16793811  0.58641438  1
  Ti4+  Ti7  1  0.82897618  0.66629145  0.59269477  1
  Ti4+  Ti8  1  0.17093706  0.33587975  0.92233887  1
  Ti4+  Ti9  1  0.16705733  0.83207300  0.92463619  1
  Ti4+  Ti10  1  0.66751903  0.33286634  0.92359972  1
  Ti4+  Ti11  1  0.66847938  0.83184486  0.92360687  1
  Ti4+  Ti12  1  -0.00086937  0.00008222  0.75424333  1
  Ti4+  Ti13  1  -0.00014746  0.50076104  0.75462193  1
  Ti4+  Ti14  1  0.49877028  -0.00054246  0.75583199  1
  Ti4+  Ti15  1  0.49829493  0.49954418  0.75198827  1
  Ti4+  Ti16  1  0.33170034  0.16538775  0.08904753  1
  Ti4+  Ti17  1  0.33699216  0.66749123  0.09065191  1
  Ti4+  Ti18  1  0.83509822  0.16741863  0.08695330  1
  Ti4+  Ti19  1  0.83402865  0.66594096  0.08966803  1
  Ti4+  Ti20  1  0.16595528  0.33431221  0.42348491  1
  Ti4+  Ti21  1  0.16683960  0.83390809  0.42429269  1
  Ti4+  Ti22  1  0.66579453  0.33233361  0.42096503  1
  Ti4+  Ti23  1  0.66656647  0.83282118  0.42262782  1
  Cu+  Cu24  1  0.07083285  0.43055046  0.47446747  1
  Cu+  Cu25  1  0.24040767  0.26318158  0.14079659  1
  Cu+  Cu26  1  0.52728351  0.76194793  0.14259065  1
  Cu+  Cu27  1  0.23911566  0.97617967  0.14088298  1
  Cu+  Cu28  1  0.56884351  0.92437117  0.47332254  1
  Cu+  Cu29  1  0.41534228  0.32217055  0.81200413  1
  Cu+  Cu30  1  0.91244818  0.81505473  0.80653587  1
  Cu+  Cu31  1  0.18483157  0.59474683  0.81028673  1
  Cu+  Cu32  1  0.67680245  0.58487707  0.81246515  1
  Cu+  Cu33  1  0.18234366  0.08780902  0.80985010  1
  Cu+  Cu34  1  0.41468479  0.59291368  0.81152213  1
  Cu+  Cu35  1  0.57067683  0.64585840  0.47803701  1
  Cu+  Cu36  1  0.16455982  0.08196429  0.16828801  1
  Cu+  Cu37  1  0.16392713  0.58150665  0.17405822  1
  Cu+  Cu38  1  0.66511728  0.08205648  0.16950243  1
  Cu+  Cu39  1  0.66514996  0.58300710  0.17330109  1
  Cu+  Cu40  1  0.41278600  0.33590416  0.17248216  1
  Cu+  Cu41  1  0.42387519  0.83619425  0.17093036  1
  Cu+  Cu42  1  0.92058697  0.33674697  0.17157880  1
  Cu+  Cu43  1  0.92112660  0.83607684  0.17070976  1
  Cu+  Cu44  1  0.41189629  0.07520187  0.17077063  1
  Cu+  Cu45  1  0.42461611  0.58718031  0.17346949  1
  Cu+  Cu46  1  0.92131643  0.08447005  0.16905499  1
  Cu+  Cu47  1  0.91925352  0.58214340  0.17288250  1
  Cu+  Cu48  1  0.49649038  0.24900835  0.50594198  1
  Cu+  Cu49  1  0.49703223  0.74833716  0.50567379  1
  Cu+  Cu50  1  0.99567165  0.25432118  0.50237088  1
  Cu+  Cu51  1  0.99638563  0.75243538  0.50705142  1
  Cu+  Cu52  1  0.24911256  0.00269606  0.50782844  1
  Cu+  Cu53  1  0.24530845  0.50252313  0.50655219  1
  Cu+  Cu54  1  0.74527938  0.00355868  0.50118964  1
  Cu+  Cu55  1  0.74687842  0.50120410  0.50442438  1
  Cu+  Cu56  1  0.25007799  0.24663556  0.50867069  1
  Cu+  Cu57  1  0.24865677  0.74809158  0.50589478  1
  Cu+  Cu58  1  0.74894042  0.24596081  0.49937324  1
  Cu+  Cu59  1  0.74599611  0.74337924  0.50594578  1
  Cu+  Cu60  1  0.32733390  0.41353897  0.83208897  1
  Cu+  Cu61  1  0.33077959  0.91497076  0.83765058  1
  Cu+  Cu62  1  0.83161342  0.41592108  0.83658282  1
  Cu+  Cu63  1  0.83213490  0.91079704  0.83478429  1
  Cu+  Cu64  1  0.08977211  0.17050868  0.83440953  1
  Cu+  Cu65  1  0.08742686  0.67012541  0.83671057  1
  Cu+  Cu66  1  0.58548587  0.16799787  0.83756617  1
  Cu+  Cu67  1  0.58912611  0.67533526  0.83349000  1
  Cu+  Cu68  1  0.08939055  0.42033035  0.83495508  1
  Cu+  Cu69  1  0.08497146  0.91428539  0.83766424  1
  Cu+  Cu70  1  0.58912124  0.41094529  0.83484250  1
  Cu+  Cu71  1  0.58306226  0.91372400  0.83772482  1
  Cu+  Cu72  1  0.16840975  0.08504640  0.68058128  1
  Cu+  Cu73  1  0.16710084  0.58435307  0.68141636  1
  Cu+  Cu74  1  0.66597411  0.08334097  0.67204688  1
  Cu+  Cu75  1  0.66581943  0.58473270  0.68084859  1
  Cu+  Cu76  1  0.41279554  0.32892811  0.68058725  1
  Cu+  Cu77  1  0.41493590  0.83269639  0.67608421  1
  Cu+  Cu78  1  0.91277324  0.33168607  0.67133138  1
  Cu+  Cu79  1  0.91073139  0.83000746  0.67854703  1
  Cu+  Cu80  1  0.41443496  0.08400162  0.67629392  1
  Cu+  Cu81  1  0.41210287  0.58385257  0.68039233  1
  Cu+  Cu82  1  0.91199268  0.08740120  0.66874064  1
  Cu+  Cu83  1  0.91295369  0.58486112  0.67485301  1
  Cu+  Cu84  1  0.00453020  0.25263212  0.00553414  1
  Cu+  Cu85  1  0.00186154  0.74926485  0.00899500  1
  Cu+  Cu86  1  0.50426641  0.25165868  0.00833089  1
  Cu+  Cu87  1  0.50556631  0.75068499  0.01397534  1
  Cu+  Cu88  1  0.25376912  0.50144491  0.00986352  1
  Cu+  Cu89  1  0.24721668  0.99598601  0.01245139  1
  Cu+  Cu90  1  0.74853491  0.49655337  0.00906539  1
  Cu+  Cu91  1  0.75059166  0.99834660  0.00586805  1
  Cu+  Cu92  1  0.25150458  0.25212884  0.01202818  1
  Cu+  Cu93  1  0.25118975  0.74981792  0.01071744  1
  Cu+  Cu94  1  0.75139832  0.25232786  0.00718802  1
  Cu+  Cu95  1  0.74978519  0.74789992  0.00885316  1
  Cu+  Cu96  1  0.33472482  0.41790893  0.34401199  1
  Cu+  Cu97  1  0.33388745  0.91575782  0.34257279  1
  Cu+  Cu98  1  0.83464318  0.41717659  0.34120410  1
  Cu+  Cu99  1  0.84057753  0.91832122  0.33985479  1
  Cu+  Cu100  1  0.08639176  0.16603020  0.34062862  1
  Cu+  Cu101  1  0.08174250  0.66503102  0.34290703  1
  Cu+  Cu102  1  0.58023249  0.16339725  0.33968117  1
  Cu+  Cu103  1  0.58403267  0.66399710  0.34889288  1
  Cu+  Cu104  1  0.08147910  0.41993026  0.34590690  1
  Cu+  Cu105  1  0.08596798  0.91989538  0.34175671  1
  Cu+  Cu106  1  0.58093201  0.41724456  0.34246116  1
  Cu+  Cu107  1  0.58270541  0.91720533  0.34475728  1
  Cu+  Cu108  1  -0.00481246  -0.00241008  0.11254996  1
  Cu+  Cu109  1  0.00131427  0.50013746  0.11667493  1
  Cu+  Cu110  1  0.50319378  0.00393833  0.11341146  1
  Cu+  Cu111  1  0.50291501  0.49820435  0.11752951  1
  Cu+  Cu112  1  0.33397116  0.16611465  0.45165769  1
  Cu+  Cu113  1  0.33242019  0.66740947  0.44981524  1
  Cu+  Cu114  1  0.83442872  0.16493303  0.44213862  1
  Cu+  Cu115  1  0.83606327  0.66496691  0.45002224  1
  Cu+  Cu116  1  0.15846479  0.32944175  0.77685821  1
  Cu+  Cu117  1  0.16673353  0.83331641  0.78061434  1
  Cu+  Cu118  1  0.67168142  0.32821453  0.77945693  1
  Cu+  Cu119  1  0.67101786  0.84367580  0.77917571  1
  Te2-  Te120  1  0.00374122  0.00212969  0.38539764  1
  Te2-  Te121  1  -0.00284695  0.50188710  0.38984717  1
  Te2-  Te122  1  0.49837422  -0.00001815  0.38695198  1
  Te2-  Te123  1  0.49817458  0.49739756  0.39071937  1
  Te2-  Te124  1  0.33329633  0.16447717  0.72724480  1
  Te2-  Te125  1  0.33371564  0.67035125  0.72501605  1
  Te2-  Te126  1  0.83033328  0.16785234  0.71567909  1
  Te2-  Te127  1  0.83140596  0.66470764  0.72517535  1
  Te2-  Te128  1  0.16792193  0.33614673  0.05218465  1
  Te2-  Te129  1  0.16573032  0.82915726  0.05474012  1
  Te2-  Te130  1  0.66799015  0.33232261  0.05280333  1
  Te2-  Te131  1  0.67313162  0.83542495  0.05380221  1
  Te2-  Te132  1  0.49333183  0.24323097  0.88286582  1
  Te2-  Te133  1  0.49456960  0.74726686  0.88597906  1
  Te2-  Te134  1  1.00217266  0.25151353  0.87887076  1
  Te2-  Te135  1  0.99456389  0.74391994  0.88288683  1
  Te2-  Te136  1  0.25429469  0.00511037  0.88491389  1
  Te2-  Te137  1  0.25890278  0.51206911  0.88345906  1
  Te2-  Te138  1  0.75325006  0.00068255  0.87936981  1
  Te2-  Te139  1  0.75639596  0.50707844  0.88331302  1
  Te2-  Te140  1  0.25803015  0.24685181  0.88419198  1
  Te2-  Te141  1  0.25698971  0.74863625  0.88446179  1
  Te2-  Te142  1  0.75398151  0.24829788  0.88095433  1
  Te2-  Te143  1  0.75587486  0.74287729  0.88291629  1
  Te2-  Te144  1  0.32633980  0.41867575  0.21797567  1
  Te2-  Te145  1  0.32568115  0.90637554  0.21652973  1
  Te2-  Te146  1  0.82936660  0.41383228  0.21552529  1
  Te2-  Te147  1  0.83309700  0.91631722  0.21386053  1
  Te2-  Te148  1  0.08864719  0.17586464  0.21476868  1
  Te2-  Te149  1  0.08670927  0.67235786  0.21729612  1
  Te2-  Te150  1  0.58101165  0.16694838  0.21332322  1
  Te2-  Te151  1  0.59213886  0.67589579  0.22121849  1
  Te2-  Te152  1  0.08691842  0.41452497  0.21910968  1
  Te2-  Te153  1  0.08838117  0.91259191  0.21590446  1
  Te2-  Te154  1  0.58166799  0.41388719  0.21621298  1
  Te2-  Te155  1  0.59183596  0.91551704  0.21755277  1
  Te2-  Te156  1  0.15954527  0.07987070  0.55391894  1
  Te2-  Te157  1  0.15742517  0.58248895  0.55391224  1
  Te2-  Te158  1  0.65426802  0.08074512  0.54680127  1
  Te2-  Te159  1  0.65503669  0.57555417  0.55313304  1
  Te2-  Te160  1  0.41756816  0.33699498  0.55325254  1
  Te2-  Te161  1  0.41641042  0.83880960  0.55006763  1
  Te2-  Te162  1  0.91456011  0.34269130  0.54632367  1
  Te2-  Te163  1  0.91342405  0.83738396  0.55185315  1
  Te2-  Te164  1  0.41735645  0.08119139  0.55064898  1
  Te2-  Te165  1  0.41408277  0.57771105  0.55224025  1
  Te2-  Te166  1  0.91543445  0.08345186  0.54303426  1
  Te2-  Te167  1  0.91522467  0.58266127  0.54883756  1
  Te2-  Te168  1  0.00102649  0.00190244  0.88194496  1
  Te2-  Te169  1  0.00060968  0.50015733  0.88176203  1
  Te2-  Te170  1  0.50048050  -0.00068568  0.88209313  1
  Te2-  Te171  1  0.50131571  0.49964457  0.88018284  1
  Te2-  Te172  1  0.33325098  0.16598785  0.21634834  1
  Te2-  Te173  1  0.33405885  0.66704377  0.21730750  1
  Te2-  Te174  1  0.83458692  0.16673769  0.21317681  1
  Te2-  Te175  1  0.83483803  0.66731815  0.21616424  1
  Te2-  Te176  1  0.16383856  0.33205115  0.55019416  1
  Te2-  Te177  1  0.16477568  0.83341197  0.55074851  1
  Te2-  Te178  1  0.66602529  0.33169124  0.54717867  1
  Te2-  Te179  1  0.66759540  0.83565704  0.54992743  1
  Te2-  Te180  1  0.32186921  0.41103049  0.70652907  1
  Te2-  Te181  1  0.32642820  0.91409398  0.71157572  1
  Te2-  Te182  1  0.82782176  0.41522529  0.70993188  1
  Te2-  Te183  1  0.82678042  0.91847068  0.70791921  1
  Te2-  Te184  1  0.08142360  0.17188916  0.70731174  1
  Te2-  Te185  1  0.08309762  0.67395078  0.70985028  1
  Te2-  Te186  1  0.58450063  0.17061056  0.71084312  1
  Te2-  Te187  1  0.58488088  0.67638452  0.70759624  1
  Te2-  Te188  1  0.08209628  0.41114923  0.70791228  1
  Te2-  Te189  1  0.08414946  0.91114880  0.70929521  1
  Te2-  Te190  1  0.58619989  0.41135835  0.70811159  1
  Te2-  Te191  1  0.58479291  0.91451677  0.71047355  1
  Te2-  Te192  1  0.15817061  0.07947118  0.04131630  1
  Te2-  Te193  1  0.16380582  0.58062426  0.04739003  1
  Te2-  Te194  1  0.66345802  0.08138792  0.04266072  1
  Te2-  Te195  1  0.66171122  0.57912821  0.04639101  1
  Te2-  Te196  1  0.42265513  0.33928403  0.04511078  1
  Te2-  Te197  1  0.42169008  0.84018258  0.04447815  1
  Te2-  Te198  1  0.92180382  0.33947235  0.04420974  1
  Te2-  Te199  1  0.92020005  0.83740781  0.04405038  1
  Te2-  Te200  1  0.42006654  0.08101576  0.04358553  1
  Te2-  Te201  1  0.42247116  0.57898812  0.04650864  1
  Te2-  Te202  1  0.92121954  0.08226158  0.04180494  1
  Te2-  Te203  1  0.91919499  0.57945971  0.04604877  1
  Te2-  Te204  1  0.49342675  0.24650692  0.37852460  1
  Te2-  Te205  1  0.49230524  0.74558042  0.37775660  1
  Te2-  Te206  1  0.99570645  0.24649139  0.37514716  1
  Te2-  Te207  1  0.99607547  0.74974071  0.37973477  1
  Te2-  Te208  1  0.25430509  0.00568455  0.38072945  1
  Te2-  Te209  1  0.25369114  0.50735797  0.37949225  1
  Te2-  Te210  1  0.75550053  0.00406920  0.37442591  1
  Te2-  Te211  1  0.75162005  0.50488011  0.37788784  1
  Te2-  Te212  1  0.25366781  0.24864618  0.38187745  1
  Te2-  Te213  1  0.25128375  0.74636963  0.37979984  1
  Te2-  Te214  1  0.75097123  0.24599231  0.37408369  1
  Te2-  Te215  1  0.75691759  0.74927214  0.37920578  1
