# generated using pymatgen
data_Ti(CuTe)4
_symmetry_space_group_name_H-M   'P 1'
_cell_length_a   16.85194509
_cell_length_b   16.85098774
_cell_length_c   20.65531227
_cell_angle_alpha   89.99136646
_cell_angle_beta   89.98911290
_cell_angle_gamma   120.00266033
_symmetry_Int_Tables_number   1
_chemical_formula_structural   Ti(CuTe)4
_chemical_formula_sum   'Ti24 Cu96 Te96'
_cell_volume   5079.56037290
_cell_formula_units_Z   24
loop_
 _symmetry_equiv_pos_site_id
 _symmetry_equiv_pos_as_xyz
  1  'x, y, z'
loop_
 _atom_type_symbol
 _atom_type_oxidation_number
  Ti4+  4.0
  Cu+  1.0
  Te2-  -2.0
loop_
 _atom_site_type_symbol
 _atom_site_label
 _atom_site_symmetry_multiplicity
 _atom_site_fract_x
 _atom_site_fract_y
 _atom_site_fract_z
 _atom_site_occupancy
  Ti4+  Ti0  1  -0.00140197  0.00011450  0.25812462  1
  Ti4+  Ti1  1  0.00350628  0.50164156  0.25855094  1
  Ti4+  Ti2  1  0.49641046  0.00002425  0.25665552  1
  Ti4+  Ti3  1  0.49949404  0.50297077  0.25723644  1
  Ti4+  Ti4  1  0.33353464  0.16272535  0.59080496  1
  Ti4+  Ti5  1  0.33170582  0.66501247  0.59120173  1
  Ti4+  Ti6  1  0.83471885  0.16511155  0.58953593  1
  Ti4+  Ti7  1  0.83090273  0.66626781  0.59091467  1
  Ti4+  Ti8  1  0.16959455  0.33434397  0.92462490  1
  Ti4+  Ti9  1  0.16918243  0.83691155  0.92663808  1
  Ti4+  Ti10  1  0.67003288  0.33549950  0.92294065  1
  Ti4+  Ti11  1  0.66581732  0.83022672  0.92636030  1
  Ti4+  Ti12  1  0.00221701  -0.00075224  0.75688468  1
  Ti4+  Ti13  1  -0.00114815  0.49889139  0.75731587  1
  Ti4+  Ti14  1  0.49838354  -0.00282260  0.75627594  1
  Ti4+  Ti15  1  0.49943255  0.50066231  0.75588435  1
  Ti4+  Ti16  1  0.33420680  0.16693948  0.08927121  1
  Ti4+  Ti17  1  0.33150284  0.66565545  0.08799147  1
  Ti4+  Ti18  1  0.83438198  0.16574561  0.08852237  1
  Ti4+  Ti19  1  0.83317366  0.66873786  0.09011636  1
  Ti4+  Ti20  1  0.16475766  0.33345032  0.42200488  1
  Ti4+  Ti21  1  0.16765368  0.83439343  0.42136829  1
  Ti4+  Ti22  1  0.66549130  0.33362671  0.42062350  1
  Ti4+  Ti23  1  0.66617773  0.83167944  0.42376788  1
  Cu+  Cu24  1  0.35816072  0.92727417  0.47312693  1
  Cu+  Cu25  1  0.23665069  0.75956273  0.14226105  1
  Cu+  Cu26  1  0.56864780  0.63847167  0.47675378  1
  Cu+  Cu27  1  0.85790187  0.92616493  0.47356198  1
  Cu+  Cu28  1  0.07134446  0.42403922  0.47724633  1
  Cu+  Cu29  1  0.50878155  0.75958831  0.14618543  1
  Cu+  Cu30  1  0.40631473  0.59835011  0.80999174  1
  Cu+  Cu31  1  0.69015365  0.59828257  0.80854950  1
  Cu+  Cu32  1  0.07294301  0.65128587  0.47723917  1
  Cu+  Cu33  1  0.23891210  0.47983615  0.14240372  1
  Cu+  Cu34  1  0.74092862  0.76552975  0.14418442  1
  Cu+  Cu35  1  0.19832710  0.09978069  0.80569162  1
  Cu+  Cu36  1  0.16518406  0.08390707  0.17222311  1
  Cu+  Cu37  1  0.16129160  0.58070180  0.16999512  1
  Cu+  Cu38  1  0.66613180  0.08552951  0.17018085  1
  Cu+  Cu39  1  0.66531911  0.58974509  0.17073143  1
  Cu+  Cu40  1  0.41779152  0.33427919  0.17079976  1
  Cu+  Cu41  1  0.41411820  0.84076631  0.16905626  1
  Cu+  Cu42  1  0.92074225  0.33415305  0.17122202  1
  Cu+  Cu43  1  0.91524010  0.83807859  0.17229484  1
  Cu+  Cu44  1  0.41537741  0.08111068  0.17081727  1
  Cu+  Cu45  1  0.41871434  0.57961194  0.16747170  1
  Cu+  Cu46  1  0.91676479  0.08065413  0.17113455  1
  Cu+  Cu47  1  0.92061678  0.58575868  0.17213421  1
  Cu+  Cu48  1  0.49658105  0.24633737  0.50316280  1
  Cu+  Cu49  1  0.49598092  0.74132736  0.50442222  1
  Cu+  Cu50  1  0.99393461  0.24787306  0.50202530  1
  Cu+  Cu51  1  0.99429489  0.74646583  0.50236709  1
  Cu+  Cu52  1  0.25738645  0.00384979  0.50295343  1
  Cu+  Cu53  1  0.24848507  0.50185205  0.50351791  1
  Cu+  Cu54  1  0.75681756  0.00140574  0.50335560  1
  Cu+  Cu55  1  0.74868664  0.50175106  0.50324749  1
  Cu+  Cu56  1  0.24688710  0.24428705  0.50545057  1
  Cu+  Cu57  1  0.25136879  0.74946370  0.50181101  1
  Cu+  Cu58  1  0.74924284  0.24772905  0.50218221  1
  Cu+  Cu59  1  0.74833557  0.74626614  0.50440933  1
  Cu+  Cu60  1  0.32936496  0.42034020  0.83658641  1
  Cu+  Cu61  1  0.32920005  0.91339744  0.83939698  1
  Cu+  Cu62  1  0.83034977  0.41433543  0.83744435  1
  Cu+  Cu63  1  0.83114905  0.91231423  0.83940203  1
  Cu+  Cu64  1  0.09035577  0.16652459  0.83811647  1
  Cu+  Cu65  1  0.08475809  0.66797004  0.84203880  1
  Cu+  Cu66  1  0.58491898  0.16709978  0.83762227  1
  Cu+  Cu67  1  0.58502952  0.67041336  0.83876687  1
  Cu+  Cu68  1  0.08600851  0.41675990  0.83938484  1
  Cu+  Cu69  1  0.09214614  0.92291696  0.83850639  1
  Cu+  Cu70  1  0.59260862  0.42133962  0.83565090  1
  Cu+  Cu71  1  0.58266760  0.91429158  0.83914484  1
  Cu+  Cu72  1  0.17208356  0.08271279  0.67744556  1
  Cu+  Cu73  1  0.16620464  0.58330754  0.67725193  1
  Cu+  Cu74  1  0.66948626  0.08134604  0.67233169  1
  Cu+  Cu75  1  0.66809472  0.58594984  0.67994243  1
  Cu+  Cu76  1  0.41443357  0.33081775  0.67451482  1
  Cu+  Cu77  1  0.41520461  0.83055424  0.67436632  1
  Cu+  Cu78  1  0.91619315  0.33058690  0.67479153  1
  Cu+  Cu79  1  0.91485096  0.83240399  0.67541366  1
  Cu+  Cu80  1  0.41408213  0.07818658  0.67563420  1
  Cu+  Cu81  1  0.41202041  0.58262490  0.68078750  1
  Cu+  Cu82  1  0.91577236  0.08193017  0.67525565  1
  Cu+  Cu83  1  0.91476093  0.58371997  0.67605677  1
  Cu+  Cu84  1  0.00280724  0.24867927  0.00659367  1
  Cu+  Cu85  1  0.00270741  0.75321342  0.00885582  1
  Cu+  Cu86  1  0.50495655  0.25178265  0.00520630  1
  Cu+  Cu87  1  0.50104957  0.74856083  0.01535717  1
  Cu+  Cu88  1  0.24715384  0.49627677  0.01362466  1
  Cu+  Cu89  1  0.25063808  0.99983625  0.00987558  1
  Cu+  Cu90  1  0.75181781  0.49873111  0.00856610  1
  Cu+  Cu91  1  0.74967203  0.99715525  0.00807281  1
  Cu+  Cu92  1  0.25110847  0.25189666  0.00806060  1
  Cu+  Cu93  1  0.24666091  0.75186177  0.01420768  1
  Cu+  Cu94  1  0.75120969  0.25196674  0.00633409  1
  Cu+  Cu95  1  0.74679727  0.74948380  0.01471112  1
  Cu+  Cu96  1  0.33462919  0.41701644  0.34138372  1
  Cu+  Cu97  1  0.33622181  0.92097920  0.34485873  1
  Cu+  Cu98  1  0.83502538  0.41873525  0.33979159  1
  Cu+  Cu99  1  0.83634102  0.91764340  0.34658442  1
  Cu+  Cu100  1  0.08125807  0.16513253  0.34078151  1
  Cu+  Cu101  1  0.08367259  0.66543957  0.34709789  1
  Cu+  Cu102  1  0.58010169  0.16572368  0.33905158  1
  Cu+  Cu103  1  0.57994675  0.66427690  0.34717446  1
  Cu+  Cu104  1  0.08440612  0.42052259  0.34741747  1
  Cu+  Cu105  1  0.08189472  0.91763418  0.34108694  1
  Cu+  Cu106  1  0.58297607  0.42020333  0.33955007  1
  Cu+  Cu107  1  0.58002414  0.91619838  0.34139425  1
  Cu+  Cu108  1  0.00501525  0.00406243  0.11476680  1
  Cu+  Cu109  1  -0.00849409  0.49427345  0.11549298  1
  Cu+  Cu110  1  0.50689595  0.01036729  0.11378412  1
  Cu+  Cu111  1  0.50313806  0.49367906  0.11406501  1
  Cu+  Cu112  1  0.33546055  0.17261014  0.44739771  1
  Cu+  Cu113  1  0.33296519  0.66727353  0.44597995  1
  Cu+  Cu114  1  0.82752922  0.16561609  0.44394676  1
  Cu+  Cu115  1  0.83078462  0.66469002  0.44560297  1
  Cu+  Cu116  1  0.15757582  0.32724479  0.78176291  1
  Cu+  Cu117  1  0.16250306  0.82882947  0.78407292  1
  Cu+  Cu118  1  0.66517807  0.32686141  0.77909965  1
  Cu+  Cu119  1  0.66780885  0.83805901  0.78310836  1
  Te2-  Te120  1  0.00410989  0.00247115  0.38914370  1
  Te2-  Te121  1  -0.00388324  0.49901692  0.39084218  1
  Te2-  Te122  1  0.50364016  0.00336666  0.38720775  1
  Te2-  Te123  1  0.49759685  0.49659636  0.38797140  1
  Te2-  Te124  1  0.33974706  0.16766216  0.72148120  1
  Te2-  Te125  1  0.33009459  0.66794914  0.72186416  1
  Te2-  Te126  1  0.83361915  0.16528122  0.71838955  1
  Te2-  Te127  1  0.83579381  0.66872907  0.72134598  1
  Te2-  Te128  1  0.16503470  0.32904078  0.05535956  1
  Te2-  Te129  1  0.16498388  0.83706968  0.05781285  1
  Te2-  Te130  1  0.66875811  0.33354814  0.05210646  1
  Te2-  Te131  1  0.66706938  0.83647670  0.05867626  1
  Te2-  Te132  1  0.49975184  0.25250275  0.87868391  1
  Te2-  Te133  1  0.49239194  0.74728061  0.88722637  1
  Te2-  Te134  1  0.99973343  0.24595394  0.88012503  1
  Te2-  Te135  1  0.99937208  0.75368752  0.88244280  1
  Te2-  Te136  1  0.26045201  0.01130420  0.88415105  1
  Te2-  Te137  1  0.25252209  0.50967904  0.88668126  1
  Te2-  Te138  1  0.75121435  0.00042355  0.88229588  1
  Te2-  Te139  1  0.76057889  0.51151761  0.88257021  1
  Te2-  Te140  1  0.26098706  0.25301710  0.88195546  1
  Te2-  Te141  1  0.25239363  0.74756444  0.88770618  1
  Te2-  Te142  1  0.75339191  0.24691097  0.88055283  1
  Te2-  Te143  1  0.75529795  0.74641047  0.88680966  1
  Te2-  Te144  1  0.32683565  0.41174643  0.21553228  1
  Te2-  Te145  1  0.32185224  0.91448013  0.21796332  1
  Te2-  Te146  1  0.83378195  0.41680834  0.21376761  1
  Te2-  Te147  1  0.82331075  0.91557054  0.22017916  1
  Te2-  Te148  1  0.08431016  0.17128218  0.21514254  1
  Te2-  Te149  1  0.08715749  0.67525237  0.21937316  1
  Te2-  Te150  1  0.58360005  0.17105460  0.21344258  1
  Te2-  Te151  1  0.58578704  0.67952460  0.21901210  1
  Te2-  Te152  1  0.08792626  0.41252143  0.21925762  1
  Te2-  Te153  1  0.08337918  0.91418171  0.21496512  1
  Te2-  Te154  1  0.58703401  0.42045355  0.21350532  1
  Te2-  Te155  1  0.58543486  0.91633344  0.21544261  1
  Te2-  Te156  1  0.16205258  0.07540446  0.55024455  1
  Te2-  Te157  1  0.15625075  0.57975187  0.55073089  1
  Te2-  Te158  1  0.66441076  0.07812733  0.54582598  1
  Te2-  Te159  1  0.65708299  0.57672215  0.55237179  1
  Te2-  Te160  1  0.41581697  0.33366125  0.54843660  1
  Te2-  Te161  1  0.42156165  0.83646237  0.54811313  1
  Te2-  Te162  1  0.91626228  0.33952160  0.54892751  1
  Te2-  Te163  1  0.92096000  0.83873853  0.54904285  1
  Te2-  Te164  1  0.42495987  0.07929217  0.54971567  1
  Te2-  Te165  1  0.41428167  0.57360031  0.55317893  1
  Te2-  Te166  1  0.92596224  0.08169907  0.54887113  1
  Te2-  Te167  1  0.91573921  0.57774898  0.55009365  1
  Te2-  Te168  1  -0.00028821  -0.00111924  0.88408194  1
  Te2-  Te169  1  -0.00103288  0.49837594  0.88368954  1
  Te2-  Te170  1  0.49930787  -0.00064990  0.88273249  1
  Te2-  Te171  1  0.50042807  0.49922345  0.88314241  1
  Te2-  Te172  1  0.33318763  0.16701119  0.21591268  1
  Te2-  Te173  1  0.33418297  0.66706707  0.21638440  1
  Te2-  Te174  1  0.83324733  0.16625485  0.21529543  1
  Te2-  Te175  1  0.83394500  0.66772057  0.21730890  1
  Te2-  Te176  1  0.16421921  0.33124173  0.54915295  1
  Te2-  Te177  1  0.16527827  0.83261215  0.54905692  1
  Te2-  Te178  1  0.66524349  0.33203777  0.54724041  1
  Te2-  Te179  1  0.66546110  0.83240882  0.55126272  1
  Te2-  Te180  1  0.32490012  0.41012291  0.71037177  1
  Te2-  Te181  1  0.32534560  0.90946524  0.71256360  1
  Te2-  Te182  1  0.82786211  0.41302766  0.71043046  1
  Te2-  Te183  1  0.82869235  0.91371964  0.71274890  1
  Te2-  Te184  1  0.08637951  0.17038219  0.70971591  1
  Te2-  Te185  1  0.08440529  0.67112968  0.71352904  1
  Te2-  Te186  1  0.58567922  0.16763519  0.70963332  1
  Te2-  Te187  1  0.58521770  0.67554779  0.71107206  1
  Te2-  Te188  1  0.08543419  0.41359273  0.71185843  1
  Te2-  Te189  1  0.08523408  0.91035816  0.71070319  1
  Te2-  Te190  1  0.58439865  0.41248446  0.70896269  1
  Te2-  Te191  1  0.58485796  0.91220638  0.71115499  1
  Te2-  Te192  1  0.16257152  0.08212756  0.04438852  1
  Te2-  Te193  1  0.15617419  0.57835688  0.04312069  1
  Te2-  Te194  1  0.66340926  0.08154312  0.04251404  1
  Te2-  Te195  1  0.66062958  0.57730907  0.04348308  1
  Te2-  Te196  1  0.42110604  0.33757229  0.04304254  1
  Te2-  Te197  1  0.42016048  0.84131707  0.04243284  1
  Te2-  Te198  1  0.92110154  0.33698672  0.04352893  1
  Te2-  Te199  1  0.92059387  0.84135382  0.04454716  1
  Te2-  Te200  1  0.42104825  0.08241091  0.04353441  1
  Te2-  Te201  1  0.41956930  0.57656946  0.04157326  1
  Te2-  Te202  1  0.91949665  0.07884762  0.04386922  1
  Te2-  Te203  1  0.92087113  0.58399471  0.04530689  1
  Te2-  Te204  1  0.49414478  0.24932936  0.37551247  1
  Te2-  Te205  1  0.49254573  0.74840383  0.37726913  1
  Te2-  Te206  1  0.99213154  0.24596076  0.37497481  1
  Te2-  Te207  1  0.99339696  0.74845554  0.37540558  1
  Te2-  Te208  1  0.25124694  0.00823845  0.37635493  1
  Te2-  Te209  1  0.25650379  0.50759623  0.37671846  1
  Te2-  Te210  1  0.74958215  0.00410352  0.37606970  1
  Te2-  Te211  1  0.75230360  0.50586567  0.37597077  1
  Te2-  Te212  1  0.25070051  0.24732426  0.37775440  1
  Te2-  Te213  1  0.25591358  0.74821268  0.37434939  1
  Te2-  Te214  1  0.75095575  0.24807760  0.37450243  1
  Te2-  Te215  1  0.75255100  0.74493213  0.37623119  1
