# generated using pymatgen
data_Ti(CuTe)4
_symmetry_space_group_name_H-M   'P 1'
_cell_length_a   16.89737607
_cell_length_b   16.90005922
_cell_length_c   20.72250853
_cell_angle_alpha   89.96948229
_cell_angle_beta   90.06709809
_cell_angle_gamma   120.01566514
_symmetry_Int_Tables_number   1
_chemical_formula_structural   Ti(CuTe)4
_chemical_formula_sum   'Ti24 Cu96 Te96'
_cell_volume   5124.02901731
_cell_formula_units_Z   24
loop_
 _symmetry_equiv_pos_site_id
 _symmetry_equiv_pos_as_xyz
  1  'x, y, z'
loop_
 _atom_type_symbol
 _atom_type_oxidation_number
  Ti4+  4.0
  Cu+  1.0
  Te2-  -2.0
loop_
 _atom_site_type_symbol
 _atom_site_label
 _atom_site_symmetry_multiplicity
 _atom_site_fract_x
 _atom_site_fract_y
 _atom_site_fract_z
 _atom_site_occupancy
  Ti4+  Ti0  1  0.00034027  0.00430712  0.25679799  1
  Ti4+  Ti1  1  -0.00212395  0.49934026  0.25907694  1
  Ti4+  Ti2  1  0.49964225  0.00064927  0.25718678  1
  Ti4+  Ti3  1  0.50247834  0.50355332  0.25715927  1
  Ti4+  Ti4  1  0.33572319  0.16773360  0.58889905  1
  Ti4+  Ti5  1  0.32765406  0.66214151  0.59093770  1
  Ti4+  Ti6  1  0.83338684  0.16272155  0.58952302  1
  Ti4+  Ti7  1  0.83200635  0.66602120  0.58893353  1
  Ti4+  Ti8  1  0.16828109  0.33495758  0.92809596  1
  Ti4+  Ti9  1  0.16722011  0.83382806  0.92373049  1
  Ti4+  Ti10  1  0.66881997  0.33323388  0.92776749  1
  Ti4+  Ti11  1  0.66382497  0.83144501  0.92397965  1
  Ti4+  Ti12  1  0.00135565  -0.00114200  0.75692819  1
  Ti4+  Ti13  1  -0.00157527  0.49762856  0.75693256  1
  Ti4+  Ti14  1  0.50034690  -0.00120579  0.75448506  1
  Ti4+  Ti15  1  0.49934627  0.50019060  0.75737078  1
  Ti4+  Ti16  1  0.33494622  0.16782846  0.08806257  1
  Ti4+  Ti17  1  0.33314303  0.66671290  0.08950156  1
  Ti4+  Ti18  1  0.83448696  0.16676485  0.08827099  1
  Ti4+  Ti19  1  0.83317707  0.66847440  0.08897676  1
  Ti4+  Ti20  1  0.16765668  0.33436685  0.42094067  1
  Ti4+  Ti21  1  0.16544799  0.83229331  0.41929022  1
  Ti4+  Ti22  1  0.66555712  0.33304066  0.42144494  1
  Ti4+  Ti23  1  0.66805284  0.83476513  0.42162278  1
  Cu+  Cu24  1  0.08102748  0.15446224  0.47963826  1
  Cu+  Cu25  1  0.24635697  0.26423051  0.14242376  1
  Cu+  Cu26  1  0.40232128  0.59440941  0.80776835  1
  Cu+  Cu27  1  0.57240870  0.14364194  0.47333371  1
  Cu+  Cu28  1  0.73895639  0.76465963  0.13859109  1
  Cu+  Cu29  1  0.85381446  0.92262019  0.47336677  1
  Cu+  Cu30  1  0.01563032  0.26203671  0.14546420  1
  Cu+  Cu31  1  0.74011099  0.48651538  0.14301120  1
  Cu+  Cu32  1  0.57079956  0.42719722  0.47319514  1
  Cu+  Cu33  1  0.74062753  0.25393443  0.14476431  1
  Cu+  Cu34  1  0.07317119  0.41886207  0.47961141  1
  Cu+  Cu35  1  0.06998423  0.64735897  0.47507649  1
  Cu+  Cu36  1  0.16635387  0.08953756  0.16919954  1
  Cu+  Cu37  1  0.16417404  0.58340830  0.17254196  1
  Cu+  Cu38  1  0.66083914  0.08232886  0.17074233  1
  Cu+  Cu39  1  0.66510780  0.58595737  0.17032538  1
  Cu+  Cu40  1  0.41902821  0.33888033  0.17051799  1
  Cu+  Cu41  1  0.41786567  0.83572354  0.17169800  1
  Cu+  Cu42  1  0.91873842  0.33915192  0.17071189  1
  Cu+  Cu43  1  0.91206632  0.83855579  0.16954338  1
  Cu+  Cu44  1  0.41972009  0.08215149  0.16993070  1
  Cu+  Cu45  1  0.42009263  0.58514408  0.17034849  1
  Cu+  Cu46  1  0.92420601  0.08574634  0.16902110  1
  Cu+  Cu47  1  0.91543714  0.58078468  0.17124389  1
  Cu+  Cu48  1  0.49837333  0.24949186  0.50178902  1
  Cu+  Cu49  1  0.49610831  0.74522143  0.50582821  1
  Cu+  Cu50  1  0.99471247  0.24458016  0.50229874  1
  Cu+  Cu51  1  0.99511384  0.74482664  0.50097804  1
  Cu+  Cu52  1  0.25229980  0.00306458  0.50051711  1
  Cu+  Cu53  1  0.24865716  0.50431154  0.50298646  1
  Cu+  Cu54  1  0.75655045  0.00140979  0.50206722  1
  Cu+  Cu55  1  0.74556967  0.50288027  0.50218205  1
  Cu+  Cu56  1  0.25462764  0.24670320  0.50218607  1
  Cu+  Cu57  1  0.24414754  0.74215103  0.50153616  1
  Cu+  Cu58  1  0.74700503  0.24278359  0.50260389  1
  Cu+  Cu59  1  0.75458616  0.75062484  0.50274562  1
  Cu+  Cu60  1  0.33171516  0.41983861  0.84057720  1
  Cu+  Cu61  1  0.33100687  0.91485216  0.83713782  1
  Cu+  Cu62  1  0.83012560  0.41397962  0.84110547  1
  Cu+  Cu63  1  0.83162695  0.91306531  0.84016110  1
  Cu+  Cu64  1  0.08590514  0.16818984  0.84242104  1
  Cu+  Cu65  1  0.08394939  0.66879331  0.83875899  1
  Cu+  Cu66  1  0.58786973  0.16826934  0.83967051  1
  Cu+  Cu67  1  0.57917809  0.66858250  0.83795035  1
  Cu+  Cu68  1  0.08270464  0.41263920  0.84058839  1
  Cu+  Cu69  1  0.08688970  0.91494441  0.83835045  1
  Cu+  Cu70  1  0.58812240  0.41673328  0.84126210  1
  Cu+  Cu71  1  0.58377430  0.91330358  0.83608218  1
  Cu+  Cu72  1  0.17031621  0.08483860  0.67554886  1
  Cu+  Cu73  1  0.16326835  0.57891859  0.67702142  1
  Cu+  Cu74  1  0.66775028  0.08143495  0.67391076  1
  Cu+  Cu75  1  0.66746633  0.58342562  0.67420467  1
  Cu+  Cu76  1  0.41833164  0.33180458  0.67539560  1
  Cu+  Cu77  1  0.41335345  0.82861886  0.67346927  1
  Cu+  Cu78  1  0.91390376  0.32802466  0.67611188  1
  Cu+  Cu79  1  0.91695217  0.83037685  0.67440275  1
  Cu+  Cu80  1  0.41886626  0.08558641  0.67358260  1
  Cu+  Cu81  1  0.41175053  0.58250230  0.67938431  1
  Cu+  Cu82  1  0.91791270  0.08282099  0.67665054  1
  Cu+  Cu83  1  0.91304226  0.58135756  0.67454547  1
  Cu+  Cu84  1  0.00461560  0.24945221  0.01557625  1
  Cu+  Cu85  1  0.00463399  0.75376486  0.00683199  1
  Cu+  Cu86  1  0.50434706  0.25011590  0.00880605  1
  Cu+  Cu87  1  0.49942074  0.74919650  0.00849241  1
  Cu+  Cu88  1  0.24950045  0.49962246  0.01086997  1
  Cu+  Cu89  1  0.25064880  0.99707064  0.00665879  1
  Cu+  Cu90  1  0.75123299  0.49695394  0.01444998  1
  Cu+  Cu91  1  0.74893749  0.99650098  0.00686221  1
  Cu+  Cu92  1  0.25054952  0.25323075  0.01352545  1
  Cu+  Cu93  1  0.24794727  0.75170946  0.00708718  1
  Cu+  Cu94  1  0.75055398  0.25186687  0.01455299  1
  Cu+  Cu95  1  0.74709484  0.75206373  0.01036348  1
  Cu+  Cu96  1  0.33775982  0.41983168  0.34228385  1
  Cu+  Cu97  1  0.33481149  0.91781313  0.33976815  1
  Cu+  Cu98  1  0.83417944  0.41705686  0.34286836  1
  Cu+  Cu99  1  0.83687986  0.92142116  0.34501564  1
  Cu+  Cu100  1  0.08504347  0.16757208  0.34780826  1
  Cu+  Cu101  1  0.08089901  0.66366465  0.34542296  1
  Cu+  Cu102  1  0.58151694  0.16314654  0.34519470  1
  Cu+  Cu103  1  0.58505262  0.66833973  0.34116592  1
  Cu+  Cu104  1  0.08415400  0.42043488  0.34828675  1
  Cu+  Cu105  1  0.08290044  0.91982706  0.33763618  1
  Cu+  Cu106  1  0.58298092  0.42096502  0.34451619  1
  Cu+  Cu107  1  0.58122312  0.91858239  0.34067569  1
  Cu+  Cu108  1  0.00474201  -0.00168147  0.11212663  1
  Cu+  Cu109  1  0.00345479  0.50599410  0.11522058  1
  Cu+  Cu110  1  0.49757886  -0.00357081  0.11349973  1
  Cu+  Cu111  1  0.50063094  0.50117569  0.11341572  1
  Cu+  Cu112  1  0.33367762  0.16354013  0.44374337  1
  Cu+  Cu113  1  0.33793463  0.67247890  0.44772325  1
  Cu+  Cu114  1  0.83144583  0.16604634  0.44569033  1
  Cu+  Cu115  1  0.83358233  0.66697358  0.44477621  1
  Cu+  Cu116  1  0.16589891  0.32998111  0.78604565  1
  Cu+  Cu117  1  0.16791728  0.83146304  0.78092566  1
  Cu+  Cu118  1  0.66543098  0.33172931  0.78498013  1
  Cu+  Cu119  1  0.66967678  0.83416013  0.78152857  1
  Te2-  Te120  1  0.00331055  0.00088876  0.38851585  1
  Te2-  Te121  1  -0.00374816  0.49823052  0.39084593  1
  Te2-  Te122  1  0.49700391  -0.00325793  0.38792549  1
  Te2-  Te123  1  0.50104314  0.50508445  0.38755257  1
  Te2-  Te124  1  0.33569903  0.16673035  0.71727188  1
  Te2-  Te125  1  0.32802533  0.66577501  0.72096977  1
  Te2-  Te126  1  0.83227941  0.16266845  0.71769306  1
  Te2-  Te127  1  0.83227332  0.66552398  0.71725218  1
  Te2-  Te128  1  0.16967410  0.33753338  0.06048952  1
  Te2-  Te129  1  0.16743284  0.83435427  0.05331183  1
  Te2-  Te130  1  0.66531323  0.33179014  0.06050081  1
  Te2-  Te131  1  0.66326911  0.83427942  0.05464579  1
  Te2-  Te132  1  0.49868197  0.24777946  0.88306405  1
  Te2-  Te133  1  0.48956148  0.74747132  0.88297338  1
  Te2-  Te134  1  0.99686216  0.24659450  0.88844093  1
  Te2-  Te135  1  0.99462129  0.74745522  0.88175276  1
  Te2-  Te136  1  0.25469220  0.00595515  0.88140601  1
  Te2-  Te137  1  0.25041431  0.50778827  0.88495253  1
  Te2-  Te138  1  0.75129287  0.00225876  0.88130578  1
  Te2-  Te139  1  0.75476512  0.50517139  0.88774597  1
  Te2-  Te140  1  0.25503688  0.25163140  0.88629922  1
  Te2-  Te141  1  0.25231008  0.74712724  0.88148480  1
  Te2-  Te142  1  0.75435234  0.24727794  0.88757066  1
  Te2-  Te143  1  0.74768932  0.74426526  0.88354111  1
  Te2-  Te144  1  0.32914941  0.41864185  0.21690692  1
  Te2-  Te145  1  0.32863849  0.91499875  0.21441022  1
  Te2-  Te146  1  0.82262736  0.41148491  0.21731435  1
  Te2-  Te147  1  0.82664328  0.92030077  0.21776130  1
  Te2-  Te148  1  0.09076148  0.18107423  0.21957947  1
  Te2-  Te149  1  0.08223700  0.66938240  0.21805547  1
  Te2-  Te150  1  0.58504252  0.17537757  0.21863962  1
  Te2-  Te151  1  0.58724073  0.67663032  0.21569645  1
  Te2-  Te152  1  0.08753519  0.41639335  0.22014130  1
  Te2-  Te153  1  0.08295195  0.91900233  0.21122502  1
  Te2-  Te154  1  0.58594664  0.41460177  0.21732730  1
  Te2-  Te155  1  0.58637647  0.91611268  0.21505094  1
  Te2-  Te156  1  0.16147938  0.07754023  0.54947153  1
  Te2-  Te157  1  0.15054926  0.57407527  0.55107112  1
  Te2-  Te158  1  0.66050009  0.07369698  0.54789492  1
  Te2-  Te159  1  0.65802406  0.58346360  0.54834292  1
  Te2-  Te160  1  0.42008561  0.34153471  0.54919606  1
  Te2-  Te161  1  0.41220128  0.83164169  0.54709449  1
  Te2-  Te162  1  0.91512814  0.33544983  0.54937959  1
  Te2-  Te163  1  0.92449953  0.83962031  0.54838191  1
  Te2-  Te164  1  0.41966405  0.07896931  0.54731190  1
  Te2-  Te165  1  0.41402676  0.57714088  0.55188162  1
  Te2-  Te166  1  0.92410026  0.07666515  0.55049848  1
  Te2-  Te167  1  0.91341258  0.57464080  0.54809472  1
  Te2-  Te168  1  0.00119593  -0.00187389  0.88336957  1
  Te2-  Te169  1  -0.00007651  0.49973247  0.88333117  1
  Te2-  Te170  1  0.50027260  -0.00166772  0.88097318  1
  Te2-  Te171  1  0.50172679  0.50000710  0.88404672  1
  Te2-  Te172  1  0.33574066  0.16821449  0.21488179  1
  Te2-  Te173  1  0.33353885  0.66740177  0.21587782  1
  Te2-  Te174  1  0.83330570  0.16666793  0.21563279  1
  Te2-  Te175  1  0.83506136  0.66991632  0.21649702  1
  Te2-  Te176  1  0.16747878  0.33175259  0.54827948  1
  Te2-  Te177  1  0.16539951  0.83325525  0.54614125  1
  Te2-  Te178  1  0.66785046  0.33296233  0.54860323  1
  Te2-  Te179  1  0.66603730  0.83181132  0.54837595  1
  Te2-  Te180  1  0.32682685  0.41035878  0.71321756  1
  Te2-  Te181  1  0.32898427  0.91448009  0.71006740  1
  Te2-  Te182  1  0.82677759  0.41153622  0.71380665  1
  Te2-  Te183  1  0.82993476  0.91256238  0.71284755  1
  Te2-  Te184  1  0.08741251  0.17104748  0.71476531  1
  Te2-  Te185  1  0.08296760  0.66906538  0.71190683  1
  Te2-  Te186  1  0.58809278  0.17121962  0.71239212  1
  Te2-  Te187  1  0.58546867  0.67156088  0.71080553  1
  Te2-  Te188  1  0.08329183  0.40965622  0.71412808  1
  Te2-  Te189  1  0.08712678  0.91400437  0.71165970  1
  Te2-  Te190  1  0.58696490  0.41525052  0.71434141  1
  Te2-  Te191  1  0.58400821  0.91091383  0.70973424  1
  Te2-  Te192  1  0.16297200  0.07992855  0.04225260  1
  Te2-  Te193  1  0.16155712  0.58214361  0.04565275  1
  Te2-  Te194  1  0.66093910  0.07842308  0.04383400  1
  Te2-  Te195  1  0.66012137  0.57959877  0.04285868  1
  Te2-  Te196  1  0.42408039  0.34063454  0.04342097  1
  Te2-  Te197  1  0.41774814  0.83731851  0.04473609  1
  Te2-  Te198  1  0.92352927  0.34188566  0.04404063  1
  Te2-  Te199  1  0.92004745  0.83968632  0.04229687  1
  Te2-  Te200  1  0.42019809  0.08051025  0.04413309  1
  Te2-  Te201  1  0.41941657  0.58050977  0.04472751  1
  Te2-  Te202  1  0.91827814  0.07655756  0.04346587  1
  Te2-  Te203  1  0.92334736  0.58497180  0.04479847  1
  Te2-  Te204  1  0.49302590  0.24796411  0.37443006  1
  Te2-  Te205  1  0.49604074  0.74884147  0.37827004  1
  Te2-  Te206  1  0.99247785  0.24740655  0.37528787  1
  Te2-  Te207  1  0.99312031  0.74955452  0.37359811  1
  Te2-  Te208  1  0.25205780  0.00484108  0.37435711  1
  Te2-  Te209  1  0.25694858  0.50880075  0.37697493  1
  Te2-  Te210  1  0.75100564  0.00734446  0.37572759  1
  Te2-  Te211  1  0.75467531  0.50700292  0.37579631  1
  Te2-  Te212  1  0.25774031  0.25033906  0.37587523  1
  Te2-  Te213  1  0.25390485  0.74771416  0.37483078  1
  Te2-  Te214  1  0.75381633  0.24758161  0.37596228  1
  Te2-  Te215  1  0.75453101  0.74872928  0.37570509  1
