# generated using pymatgen
data_Ti(CuTe)4
_symmetry_space_group_name_H-M   'P 1'
_cell_length_a   16.89161663
_cell_length_b   16.89033399
_cell_length_c   20.71399493
_cell_angle_alpha   89.97236653
_cell_angle_beta   90.01293003
_cell_angle_gamma   120.00347454
_symmetry_Int_Tables_number   1
_chemical_formula_structural   Ti(CuTe)4
_chemical_formula_sum   'Ti24 Cu96 Te96'
_cell_volume   5117.86344609
_cell_formula_units_Z   24
loop_
 _symmetry_equiv_pos_site_id
 _symmetry_equiv_pos_as_xyz
  1  'x, y, z'
loop_
 _atom_type_symbol
 _atom_type_oxidation_number
  Ti4+  4.0
  Cu+  1.0
  Te2-  -2.0
loop_
 _atom_site_type_symbol
 _atom_site_label
 _atom_site_symmetry_multiplicity
 _atom_site_fract_x
 _atom_site_fract_y
 _atom_site_fract_z
 _atom_site_occupancy
  Ti4+  Ti0  1  0.00189927  0.00249751  0.26091955  1
  Ti4+  Ti1  1  0.00045156  0.50171317  0.26069547  1
  Ti4+  Ti2  1  0.49964788  -0.00108380  0.25575658  1
  Ti4+  Ti3  1  0.49925445  0.50098958  0.25824069  1
  Ti4+  Ti4  1  0.33379629  0.16651007  0.59087676  1
  Ti4+  Ti5  1  0.33611026  0.66748138  0.59047804  1
  Ti4+  Ti6  1  0.83489447  0.16742882  0.58600600  1
  Ti4+  Ti7  1  0.83111843  0.66521987  0.59254801  1
  Ti4+  Ti8  1  0.16750814  0.33356620  0.92501977  1
  Ti4+  Ti9  1  0.16275440  0.83268163  0.92302396  1
  Ti4+  Ti10  1  0.66729429  0.33216561  0.92410539  1
  Ti4+  Ti11  1  0.66474345  0.83220066  0.92509995  1
  Ti4+  Ti12  1  0.00197879  0.00014930  0.75538604  1
  Ti4+  Ti13  1  -0.00188025  0.49871015  0.75494447  1
  Ti4+  Ti14  1  0.50108448  -0.00043080  0.75426152  1
  Ti4+  Ti15  1  0.49898263  0.50099246  0.75605011  1
  Ti4+  Ti16  1  0.33103290  0.16666191  0.08892782  1
  Ti4+  Ti17  1  0.33510038  0.66778030  0.08958430  1
  Ti4+  Ti18  1  0.83320836  0.16598314  0.09008205  1
  Ti4+  Ti19  1  0.83279692  0.66547336  0.09139780  1
  Ti4+  Ti20  1  0.16718940  0.33273740  0.42032498  1
  Ti4+  Ti21  1  0.16676070  0.83408136  0.42236330  1
  Ti4+  Ti22  1  0.66825935  0.33400705  0.42021625  1
  Ti4+  Ti23  1  0.66547537  0.83247376  0.42112631  1
  Cu+  Cu24  1  0.52467559  0.76170173  0.14243600  1
  Cu+  Cu25  1  0.90518345  0.81836064  0.81168943  1
  Cu+  Cu26  1  0.85182404  0.42975521  0.47554425  1
  Cu+  Cu27  1  0.57208508  0.64414852  0.47431799  1
  Cu+  Cu28  1  0.57154920  0.92637636  0.47118889  1
  Cu+  Cu29  1  0.23694306  0.26297134  0.14178474  1
  Cu+  Cu30  1  0.19147228  0.09631133  0.80753334  1
  Cu+  Cu31  1  0.90282158  0.58751044  0.81015758  1
  Cu+  Cu32  1  0.08234104  0.42803297  0.47670939  1
  Cu+  Cu33  1  0.08066400  0.15222059  0.47795586  1
  Cu+  Cu34  1  0.40259770  0.59475116  0.80915816  1
  Cu+  Cu35  1  0.84482112  0.91816505  0.47823198  1
  Cu+  Cu36  1  0.16425175  0.08833683  0.17209429  1
  Cu+  Cu37  1  0.16371411  0.58303249  0.17392355  1
  Cu+  Cu38  1  0.66307475  0.08119619  0.17054375  1
  Cu+  Cu39  1  0.66415646  0.58210728  0.17290225  1
  Cu+  Cu40  1  0.41122051  0.33448300  0.17121662  1
  Cu+  Cu41  1  0.42286258  0.83658160  0.16991870  1
  Cu+  Cu42  1  0.91815313  0.33664579  0.17447427  1
  Cu+  Cu43  1  0.91771403  0.83506914  0.17526547  1
  Cu+  Cu44  1  0.41554912  0.07936994  0.17001855  1
  Cu+  Cu45  1  0.42433015  0.58770725  0.17149322  1
  Cu+  Cu46  1  0.91920107  0.08260804  0.17406824  1
  Cu+  Cu47  1  0.91751601  0.58136430  0.17430761  1
  Cu+  Cu48  1  0.49811595  0.24949962  0.50394303  1
  Cu+  Cu49  1  0.49730060  0.74691756  0.50228083  1
  Cu+  Cu50  1  0.99730754  0.24814129  0.49848549  1
  Cu+  Cu51  1  0.99708728  0.74959162  0.50478403  1
  Cu+  Cu52  1  0.25073653  0.00264744  0.50411751  1
  Cu+  Cu53  1  0.25501139  0.50539293  0.50360381  1
  Cu+  Cu54  1  0.75051352  0.00326630  0.49898346  1
  Cu+  Cu55  1  0.75310830  0.50300337  0.50384424  1
  Cu+  Cu56  1  0.25226525  0.24429519  0.50352730  1
  Cu+  Cu57  1  0.25291637  0.75075023  0.50324215  1
  Cu+  Cu58  1  0.75637138  0.25223502  0.49856078  1
  Cu+  Cu59  1  0.74856273  0.74425786  0.50422262  1
  Cu+  Cu60  1  0.32992427  0.41870136  0.83775641  1
  Cu+  Cu61  1  0.32984360  0.91455526  0.83629724  1
  Cu+  Cu62  1  0.82768778  0.41489150  0.83694255  1
  Cu+  Cu63  1  0.82882121  0.91330292  0.83867616  1
  Cu+  Cu64  1  0.09046200  0.16958760  0.83811657  1
  Cu+  Cu65  1  0.07782128  0.66744501  0.83589917  1
  Cu+  Cu66  1  0.58687746  0.16862795  0.83734742  1
  Cu+  Cu67  1  0.57861578  0.66911158  0.83750531  1
  Cu+  Cu68  1  0.08316263  0.41260674  0.83828538  1
  Cu+  Cu69  1  0.08444341  0.91475664  0.83459818  1
  Cu+  Cu70  1  0.58498963  0.41412740  0.83775017  1
  Cu+  Cu71  1  0.58433707  0.91440953  0.83784502  1
  Cu+  Cu72  1  0.17132731  0.08601151  0.67959876  1
  Cu+  Cu73  1  0.16903963  0.58242948  0.67577233  1
  Cu+  Cu74  1  0.66972728  0.08382000  0.67111544  1
  Cu+  Cu75  1  0.66625610  0.58344361  0.67598132  1
  Cu+  Cu76  1  0.41462092  0.33105275  0.67417705  1
  Cu+  Cu77  1  0.41989884  0.83272024  0.67419859  1
  Cu+  Cu78  1  0.91752487  0.33256292  0.67322823  1
  Cu+  Cu79  1  0.91502868  0.83100084  0.68140165  1
  Cu+  Cu80  1  0.41637517  0.08381176  0.67361965  1
  Cu+  Cu81  1  0.41567249  0.58533634  0.67959971  1
  Cu+  Cu82  1  0.91780659  0.08505581  0.67299727  1
  Cu+  Cu83  1  0.91346722  0.58268209  0.68097236  1
  Cu+  Cu84  1  0.00156101  0.24919520  0.00907376  1
  Cu+  Cu85  1  -0.00108645  0.74935385  0.01013462  1
  Cu+  Cu86  1  0.50343798  0.25045310  0.00694799  1
  Cu+  Cu87  1  0.50229125  0.75135605  0.01344892  1
  Cu+  Cu88  1  0.25040069  0.49977294  0.01042693  1
  Cu+  Cu89  1  0.24532585  0.99750656  0.00781555  1
  Cu+  Cu90  1  0.74951176  0.49595563  0.01031336  1
  Cu+  Cu91  1  0.74943669  0.99751375  0.00932120  1
  Cu+  Cu92  1  0.24805942  0.25172610  0.01240588  1
  Cu+  Cu93  1  0.24583086  0.75065316  0.00717642  1
  Cu+  Cu94  1  0.75010772  0.25150364  0.00764424  1
  Cu+  Cu95  1  0.74801245  0.74863155  0.00927421  1
  Cu+  Cu96  1  0.33567094  0.41790953  0.34111216  1
  Cu+  Cu97  1  0.33520638  0.91700458  0.33918553  1
  Cu+  Cu98  1  0.83784210  0.41998000  0.34658681  1
  Cu+  Cu99  1  0.83811417  0.91889264  0.34791709  1
  Cu+  Cu100  1  0.08468321  0.16431068  0.34807758  1
  Cu+  Cu101  1  0.08188800  0.66644392  0.34271984  1
  Cu+  Cu102  1  0.58131694  0.16379112  0.33857353  1
  Cu+  Cu103  1  0.58145871  0.66301878  0.34659308  1
  Cu+  Cu104  1  0.08221946  0.41985977  0.34692198  1
  Cu+  Cu105  1  0.08405686  0.91914071  0.34179033  1
  Cu+  Cu106  1  0.58183277  0.41809065  0.34064697  1
  Cu+  Cu107  1  0.57919531  0.91631020  0.34340701  1
  Cu+  Cu108  1  -0.00186247  -0.00384158  0.11854760  1
  Cu+  Cu109  1  0.00051410  0.49951687  0.11822217  1
  Cu+  Cu110  1  0.49836810  0.00192092  0.11202639  1
  Cu+  Cu111  1  0.50182272  0.49680725  0.11567598  1
  Cu+  Cu112  1  0.33848221  0.16497867  0.44708108  1
  Cu+  Cu113  1  0.33144182  0.66812993  0.44593162  1
  Cu+  Cu114  1  0.83171789  0.16620912  0.43997779  1
  Cu+  Cu115  1  0.83499590  0.66627857  0.44782449  1
  Cu+  Cu116  1  0.16399353  0.33210463  0.78131715  1
  Cu+  Cu117  1  0.16972357  0.83051244  0.77880323  1
  Cu+  Cu118  1  0.66210807  0.32948173  0.78013750  1
  Cu+  Cu119  1  0.66792454  0.83536335  0.78130885  1
  Te2-  Te120  1  0.00298748  -0.00095948  0.39313877  1
  Te2-  Te121  1  0.00258969  0.50489332  0.39328255  1
  Te2-  Te122  1  0.49803422  0.00117928  0.38657513  1
  Te2-  Te123  1  0.49815008  0.49662819  0.38907993  1
  Te2-  Te124  1  0.33778943  0.16826344  0.72152963  1
  Te2-  Te125  1  0.33303842  0.66929790  0.72073668  1
  Te2-  Te126  1  0.83446582  0.16700202  0.71412804  1
  Te2-  Te127  1  0.82893022  0.66465798  0.72407142  1
  Te2-  Te128  1  0.16531280  0.33529409  0.05529075  1
  Te2-  Te129  1  0.16430257  0.83316936  0.05156612  1
  Te2-  Te130  1  0.66650533  0.33133891  0.05316529  1
  Te2-  Te131  1  0.66912620  0.83365594  0.05531955  1
  Te2-  Te132  1  0.49616145  0.24634438  0.88116099  1
  Te2-  Te133  1  0.49069436  0.74831203  0.88573962  1
  Te2-  Te134  1  0.99717241  0.24488613  0.88283379  1
  Te2-  Te135  1  0.98626858  0.74465510  0.88366740  1
  Te2-  Te136  1  0.25301407  0.00591621  0.88171845  1
  Te2-  Te137  1  0.25015594  0.50764839  0.88440403  1
  Te2-  Te138  1  0.75182692  0.00292782  0.88318035  1
  Te2-  Te139  1  0.75107438  0.50745776  0.88441763  1
  Te2-  Te140  1  0.25857137  0.25113813  0.88495454  1
  Te2-  Te141  1  0.24606258  0.74603867  0.88072535  1
  Te2-  Te142  1  0.75463085  0.24828714  0.88181273  1
  Te2-  Te143  1  0.74722842  0.74190272  0.88321914  1
  Te2-  Te144  1  0.32632788  0.41927667  0.21572916  1
  Te2-  Te145  1  0.32892092  0.91143549  0.21362987  1
  Te2-  Te146  1  0.82898384  0.41472704  0.21985962  1
  Te2-  Te147  1  0.83072861  0.91572648  0.22045098  1
  Te2-  Te148  1  0.08595902  0.17699819  0.22056824  1
  Te2-  Te149  1  0.08550646  0.67268564  0.21741564  1
  Te2-  Te150  1  0.58371145  0.16989718  0.21320970  1
  Te2-  Te151  1  0.59145510  0.67564924  0.21974171  1
  Te2-  Te152  1  0.08601367  0.41592294  0.21966757  1
  Te2-  Te153  1  0.08769068  0.91921029  0.21598626  1
  Te2-  Te154  1  0.58079414  0.41311515  0.21478188  1
  Te2-  Te155  1  0.59068029  0.91484556  0.21702582  1
  Te2-  Te156  1  0.15869343  0.07621752  0.55250916  1
  Te2-  Te157  1  0.16296437  0.58335296  0.54983263  1
  Te2-  Te158  1  0.66257571  0.08423841  0.54501268  1
  Te2-  Te159  1  0.65861330  0.57570479  0.54999825  1
  Te2-  Te160  1  0.41848173  0.33772123  0.54857953  1
  Te2-  Te161  1  0.42065979  0.84004783  0.54824859  1
  Te2-  Te162  1  0.92438970  0.34392992  0.54746697  1
  Te2-  Te163  1  0.91905585  0.83790931  0.55291227  1
  Te2-  Te164  1  0.41896501  0.08128103  0.54776867  1
  Te2-  Te165  1  0.42029010  0.57806793  0.55196150  1
  Te2-  Te166  1  0.92157634  0.07843832  0.54706867  1
  Te2-  Te167  1  0.92147641  0.58288921  0.55276018  1
  Te2-  Te168  1  -0.00062125  -0.00063909  0.88285669  1
  Te2-  Te169  1  -0.00185861  0.49777190  0.88171408  1
  Te2-  Te170  1  0.49919892  -0.00083792  0.88026646  1
  Te2-  Te171  1  0.49997833  0.49912697  0.88260505  1
  Te2-  Te172  1  0.33364045  0.16558215  0.21574122  1
  Te2-  Te173  1  0.33402723  0.66773186  0.21628640  1
  Te2-  Te174  1  0.83233896  0.16640231  0.21610798  1
  Te2-  Te175  1  0.83269670  0.66578450  0.21763056  1
  Te2-  Te176  1  0.16783239  0.33286528  0.54782142  1
  Te2-  Te177  1  0.16704784  0.83346711  0.54851883  1
  Te2-  Te178  1  0.66787438  0.33218988  0.54721836  1
  Te2-  Te179  1  0.66779524  0.83475846  0.54946023  1
  Te2-  Te180  1  0.32642457  0.41248903  0.71102292  1
  Te2-  Te181  1  0.32969024  0.91353945  0.70949103  1
  Te2-  Te182  1  0.82509135  0.40983970  0.70978647  1
  Te2-  Te183  1  0.82816589  0.91631923  0.71103654  1
  Te2-  Te184  1  0.08652532  0.17336340  0.71078043  1
  Te2-  Te185  1  0.08694505  0.67149850  0.70908117  1
  Te2-  Te186  1  0.58678372  0.17060622  0.70986528  1
  Te2-  Te187  1  0.58788808  0.67450243  0.71092877  1
  Te2-  Te188  1  0.08582407  0.41339215  0.71178047  1
  Te2-  Te189  1  0.08820481  0.91256687  0.70833729  1
  Te2-  Te190  1  0.58427509  0.41367762  0.71161664  1
  Te2-  Te191  1  0.58887017  0.91518999  0.71083423  1
  Te2-  Te192  1  0.15788989  0.07937995  0.04481816  1
  Te2-  Te193  1  0.16222551  0.58179119  0.04717035  1
  Te2-  Te194  1  0.66217780  0.08097658  0.04444181  1
  Te2-  Te195  1  0.66168681  0.57896028  0.04629875  1
  Te2-  Te196  1  0.42099244  0.33852774  0.04368545  1
  Te2-  Te197  1  0.41672205  0.83931008  0.04293323  1
  Te2-  Te198  1  0.91965790  0.33774697  0.04705562  1
  Te2-  Te199  1  0.91736939  0.83720934  0.04765032  1
  Te2-  Te200  1  0.41596896  0.08046000  0.04348126  1
  Te2-  Te201  1  0.42019765  0.57915120  0.04517812  1
  Te2-  Te202  1  0.91933571  0.07959001  0.04739400  1
  Te2-  Te203  1  0.91896737  0.57976501  0.04770680  1
  Te2-  Te204  1  0.49633117  0.24802811  0.37688278  1
  Te2-  Te205  1  0.49104146  0.74498618  0.37551142  1
  Te2-  Te206  1  0.99313298  0.24650518  0.37260820  1
  Te2-  Te207  1  0.99445707  0.74895364  0.37843396  1
  Te2-  Te208  1  0.25396568  0.00541771  0.37751957  1
  Te2-  Te209  1  0.25517538  0.50703332  0.37701526  1
  Te2-  Te210  1  0.75193793  0.00595970  0.37266610  1
  Te2-  Te211  1  0.75203678  0.50746195  0.37668849  1
  Te2-  Te212  1  0.25723533  0.24828524  0.37694522  1
  Te2-  Te213  1  0.25220522  0.74809376  0.37716553  1
  Te2-  Te214  1  0.75169472  0.24588900  0.37241748  1
  Te2-  Te215  1  0.75419927  0.74605682  0.37697157  1
