# generated using pymatgen
data_Ti(CuTe)4
_symmetry_space_group_name_H-M   'P 1'
_cell_length_a   16.87739557
_cell_length_b   16.87641657
_cell_length_c   20.69372853
_cell_angle_alpha   90.01508600
_cell_angle_beta   89.97089179
_cell_angle_gamma   119.99404870
_symmetry_Int_Tables_number   1
_chemical_formula_structural   Ti(CuTe)4
_chemical_formula_sum   'Ti24 Cu96 Te96'
_cell_volume   5104.82702039
_cell_formula_units_Z   24
loop_
 _symmetry_equiv_pos_site_id
 _symmetry_equiv_pos_as_xyz
  1  'x, y, z'
loop_
 _atom_type_symbol
 _atom_type_oxidation_number
  Ti4+  4.0
  Cu+  1.0
  Te2-  -2.0
loop_
 _atom_site_type_symbol
 _atom_site_label
 _atom_site_symmetry_multiplicity
 _atom_site_fract_x
 _atom_site_fract_y
 _atom_site_fract_z
 _atom_site_occupancy
  Ti4+  Ti0  1  0.00137246  0.00112607  0.25971116  1
  Ti4+  Ti1  1  -0.00265324  0.49653643  0.25748998  1
  Ti4+  Ti2  1  0.49671276  -0.00036708  0.25535195  1
  Ti4+  Ti3  1  0.49792176  0.49952677  0.26076089  1
  Ti4+  Ti4  1  0.33655538  0.17166407  0.59115679  1
  Ti4+  Ti5  1  0.33439754  0.66931558  0.59112514  1
  Ti4+  Ti6  1  0.83811279  0.16761803  0.59245977  1
  Ti4+  Ti7  1  0.83640643  0.66719645  0.58887466  1
  Ti4+  Ti8  1  0.16466303  0.33178068  0.92511931  1
  Ti4+  Ti9  1  0.16722358  0.83165033  0.92392560  1
  Ti4+  Ti10  1  0.66373423  0.33111733  0.92451685  1
  Ti4+  Ti11  1  0.66684969  0.83187397  0.92432504  1
  Ti4+  Ti12  1  -0.00072982  0.00117674  0.75632304  1
  Ti4+  Ti13  1  0.00247055  0.50134682  0.75567004  1
  Ti4+  Ti14  1  0.50156299  0.00206801  0.75357416  1
  Ti4+  Ti15  1  0.49969301  0.49822977  0.75600427  1
  Ti4+  Ti16  1  0.33093448  0.16341595  0.09043381  1
  Ti4+  Ti17  1  0.33304286  0.66540425  0.08832406  1
  Ti4+  Ti18  1  0.83397915  0.16917390  0.09043586  1
  Ti4+  Ti19  1  0.83141676  0.66510365  0.08932210  1
  Ti4+  Ti20  1  0.16613293  0.33317175  0.42227095  1
  Ti4+  Ti21  1  0.16530303  0.83244685  0.42172777  1
  Ti4+  Ti22  1  0.66719263  0.33429117  0.42254369  1
  Ti4+  Ti23  1  0.66759435  0.83436639  0.42043083  1
  Cu+  Cu24  1  0.02254785  0.26070961  0.14405877  1
  Cu+  Cu25  1  0.90374574  0.08772776  0.81395219  1
  Cu+  Cu26  1  0.73694191  0.26282791  0.14085041  1
  Cu+  Cu27  1  0.19260058  0.59518139  0.80651015  1
  Cu+  Cu28  1  0.85926834  0.42787510  0.47427298  1
  Cu+  Cu29  1  0.85465440  0.92432106  0.47385891  1
  Cu+  Cu30  1  0.40213576  0.30645041  0.80928503  1
  Cu+  Cu31  1  0.08185755  0.15408195  0.47979757  1
  Cu+  Cu32  1  0.58068424  0.43186068  0.47443006  1
  Cu+  Cu33  1  0.34897577  0.42984350  0.47817537  1
  Cu+  Cu34  1  0.23337925  0.97170791  0.13992959  1
  Cu+  Cu35  1  0.90611766  0.31853604  0.81186926  1
  Cu+  Cu36  1  0.16350744  0.07856277  0.17219345  1
  Cu+  Cu37  1  0.16392568  0.58055669  0.17040778  1
  Cu+  Cu38  1  0.66301482  0.08835191  0.17058074  1
  Cu+  Cu39  1  0.66217675  0.57953207  0.17348672  1
  Cu+  Cu40  1  0.41619150  0.33656307  0.17525275  1
  Cu+  Cu41  1  0.41779053  0.83576579  0.16881038  1
  Cu+  Cu42  1  0.91693878  0.33615975  0.17100164  1
  Cu+  Cu43  1  0.91459504  0.83440737  0.17170509  1
  Cu+  Cu44  1  0.41083540  0.07488447  0.16936004  1
  Cu+  Cu45  1  0.41437332  0.57901568  0.17302948  1
  Cu+  Cu46  1  0.92311047  0.08663985  0.17368633  1
  Cu+  Cu47  1  0.91348706  0.57868156  0.17079218  1
  Cu+  Cu48  1  0.49926659  0.25649435  0.50370417  1
  Cu+  Cu49  1  0.49684789  0.75146878  0.50252750  1
  Cu+  Cu50  1  0.99496131  0.24377422  0.50348516  1
  Cu+  Cu51  1  0.99659386  0.74698036  0.50151047  1
  Cu+  Cu52  1  0.25372903  0.00253512  0.50433472  1
  Cu+  Cu53  1  0.25380708  0.50702375  0.50497784  1
  Cu+  Cu54  1  0.75708687  0.00124309  0.50284652  1
  Cu+  Cu55  1  0.75520666  0.50326158  0.50231492  1
  Cu+  Cu56  1  0.25678155  0.25229996  0.50321734  1
  Cu+  Cu57  1  0.24954090  0.74831428  0.50514541  1
  Cu+  Cu58  1  0.75811784  0.25468614  0.50496527  1
  Cu+  Cu59  1  0.75550419  0.75192256  0.50071597  1
  Cu+  Cu60  1  0.33039780  0.40987216  0.83722332  1
  Cu+  Cu61  1  0.33085567  0.91719507  0.83644177  1
  Cu+  Cu62  1  0.82830290  0.41302512  0.83796564  1
  Cu+  Cu63  1  0.82748616  0.91439367  0.83799541  1
  Cu+  Cu64  1  0.08011452  0.16950336  0.83767490  1
  Cu+  Cu65  1  0.09114050  0.67087015  0.83669353  1
  Cu+  Cu66  1  0.58556412  0.17057482  0.83597216  1
  Cu+  Cu67  1  0.58704708  0.66912357  0.83826685  1
  Cu+  Cu68  1  0.08440422  0.41648470  0.83700434  1
  Cu+  Cu69  1  0.08434392  0.91441640  0.83937133  1
  Cu+  Cu70  1  0.57816120  0.40906792  0.83756805  1
  Cu+  Cu71  1  0.58349369  0.91317900  0.83587156  1
  Cu+  Cu72  1  0.16961855  0.08662750  0.67627585  1
  Cu+  Cu73  1  0.17353843  0.58835102  0.67842074  1
  Cu+  Cu74  1  0.67053359  0.08562825  0.67342845  1
  Cu+  Cu75  1  0.67155851  0.58507571  0.67331298  1
  Cu+  Cu76  1  0.41621834  0.33281286  0.68073095  1
  Cu+  Cu77  1  0.41580959  0.83462674  0.67329903  1
  Cu+  Cu78  1  0.91805117  0.33259940  0.68077156  1
  Cu+  Cu79  1  0.91684042  0.83225539  0.67431693  1
  Cu+  Cu80  1  0.42010064  0.08871384  0.67354832  1
  Cu+  Cu81  1  0.41720873  0.58593461  0.67521919  1
  Cu+  Cu82  1  0.91713644  0.08418998  0.68337210  1
  Cu+  Cu83  1  0.91706031  0.58432608  0.67365883  1
  Cu+  Cu84  1  0.00102630  0.25141591  0.01613611  1
  Cu+  Cu85  1  0.00066542  0.74926784  0.00670540  1
  Cu+  Cu86  1  0.49837829  0.24994651  0.00991705  1
  Cu+  Cu87  1  0.50337173  0.74850790  0.00713109  1
  Cu+  Cu88  1  0.24897070  0.49767066  0.00846814  1
  Cu+  Cu89  1  0.24564231  0.99383000  0.01214756  1
  Cu+  Cu90  1  0.74665485  0.49702318  0.00629668  1
  Cu+  Cu91  1  0.74891642  0.99580921  0.00935121  1
  Cu+  Cu92  1  0.24860847  0.24908216  0.01069512  1
  Cu+  Cu93  1  0.24984071  0.74912100  0.00712584  1
  Cu+  Cu94  1  0.74806650  0.25249404  0.01310861  1
  Cu+  Cu95  1  0.74792845  0.74987267  0.00760472  1
  Cu+  Cu96  1  0.33524839  0.41923123  0.34820313  1
  Cu+  Cu97  1  0.33280034  0.91553550  0.34003051  1
  Cu+  Cu98  1  0.83492889  0.41461183  0.34581381  1
  Cu+  Cu99  1  0.83754280  0.92100429  0.34527684  1
  Cu+  Cu100  1  0.08139573  0.16542625  0.34833437  1
  Cu+  Cu101  1  0.07992176  0.66252542  0.34003708  1
  Cu+  Cu102  1  0.57909038  0.16267490  0.33974291  1
  Cu+  Cu103  1  0.58093474  0.66595260  0.34085047  1
  Cu+  Cu104  1  0.08021798  0.41473473  0.34198076  1
  Cu+  Cu105  1  0.08289042  0.91637599  0.34257537  1
  Cu+  Cu106  1  0.57898109  0.41788870  0.34673912  1
  Cu+  Cu107  1  0.58052668  0.91914461  0.33775446  1
  Cu+  Cu108  1  -0.00304519  -0.00361437  0.11616254  1
  Cu+  Cu109  1  0.00296661  0.50705333  0.11401481  1
  Cu+  Cu110  1  0.50095334  -0.00243801  0.11130851  1
  Cu+  Cu111  1  0.50008904  0.50106710  0.11812910  1
  Cu+  Cu112  1  0.33446278  0.16204155  0.44758421  1
  Cu+  Cu113  1  0.33410190  0.67220559  0.44753076  1
  Cu+  Cu114  1  0.82507078  0.16250799  0.44801380  1
  Cu+  Cu115  1  0.83201382  0.66650640  0.44259822  1
  Cu+  Cu116  1  0.16854761  0.33526668  0.78067245  1
  Cu+  Cu117  1  0.16707474  0.83694890  0.78047889  1
  Cu+  Cu118  1  0.66731466  0.33556752  0.77990913  1
  Cu+  Cu119  1  0.66204603  0.82999789  0.77952442  1
  Te2-  Te120  1  0.00299578  -0.00026629  0.39132333  1
  Te2-  Te121  1  0.00145968  0.49955948  0.38799712  1
  Te2-  Te122  1  0.49722194  -0.00110007  0.38417891  1
  Te2-  Te123  1  0.50088218  0.50478459  0.39280619  1
  Te2-  Te124  1  0.33380682  0.16577407  0.72138469  1
  Te2-  Te125  1  0.33945235  0.67155131  0.72182058  1
  Te2-  Te126  1  0.83273678  0.16666432  0.72424062  1
  Te2-  Te127  1  0.83557749  0.66728318  0.71752206  1
  Te2-  Te128  1  0.16862235  0.33391672  0.05534691  1
  Te2-  Te129  1  0.16373507  0.82672810  0.05437812  1
  Te2-  Te130  1  0.66299589  0.33444858  0.05483743  1
  Te2-  Te131  1  0.66656844  0.83189475  0.05351604  1
  Te2-  Te132  1  0.48992201  0.24060668  0.88378192  1
  Te2-  Te133  1  0.49598262  0.74594546  0.88105674  1
  Te2-  Te134  1  0.98891220  0.24625868  0.88712010  1
  Te2-  Te135  1  0.99676023  0.74528842  0.88082409  1
  Te2-  Te136  1  0.25131136  0.00349201  0.88466970  1
  Te2-  Te137  1  0.25473447  0.50332514  0.88224387  1
  Te2-  Te138  1  0.74944094  0.00678831  0.88357333  1
  Te2-  Te139  1  0.74763714  0.50101567  0.88045537  1
  Te2-  Te140  1  0.24729082  0.24139329  0.88440537  1
  Te2-  Te141  1  0.25954484  0.74963584  0.88150065  1
  Te2-  Te142  1  0.75040834  0.24363820  0.88534987  1
  Te2-  Te143  1  0.75394571  0.74729179  0.88208760  1
  Te2-  Te144  1  0.32595889  0.41320947  0.22075619  1
  Te2-  Te145  1  0.32213833  0.90661212  0.21449815  1
  Te2-  Te146  1  0.82370822  0.41247312  0.21812838  1
  Te2-  Te147  1  0.83095177  0.91808935  0.21770586  1
  Te2-  Te148  1  0.09192996  0.17453779  0.21997187  1
  Te2-  Te149  1  0.08196142  0.66671128  0.21402049  1
  Te2-  Te150  1  0.57928098  0.17402313  0.21427577  1
  Te2-  Te151  1  0.58310914  0.66960803  0.21537828  1
  Te2-  Te152  1  0.08791234  0.41357671  0.21630267  1
  Te2-  Te153  1  0.08212497  0.90919636  0.21677103  1
  Te2-  Te154  1  0.58323962  0.41304563  0.21976123  1
  Te2-  Te155  1  0.58601567  0.91846557  0.21191321  1
  Te2-  Te156  1  0.16415172  0.08094501  0.55010503  1
  Te2-  Te157  1  0.16264046  0.58168703  0.55144456  1
  Te2-  Te158  1  0.66968405  0.08382377  0.54694497  1
  Te2-  Te159  1  0.66399674  0.58460705  0.54724317  1
  Te2-  Te160  1  0.42402938  0.34815792  0.55289836  1
  Te2-  Te161  1  0.41822580  0.83962395  0.54750722  1
  Te2-  Te162  1  0.92658651  0.34062890  0.55256883  1
  Te2-  Te163  1  0.92463790  0.84092518  0.54825603  1
  Te2-  Te164  1  0.42257676  0.08785109  0.54742595  1
  Te2-  Te165  1  0.42464495  0.58527471  0.54956261  1
  Te2-  Te166  1  0.92420264  0.07745577  0.55407339  1
  Te2-  Te167  1  0.92434023  0.58129640  0.54786245  1
  Te2-  Te168  1  -0.00176076  -0.00135181  0.88316819  1
  Te2-  Te169  1  -0.00137284  0.50112920  0.88331265  1
  Te2-  Te170  1  0.50058309  0.00002695  0.87980507  1
  Te2-  Te171  1  0.49954892  0.49939888  0.88276896  1
  Te2-  Te172  1  0.33281631  0.16566577  0.21720008  1
  Te2-  Te173  1  0.33261550  0.66709595  0.21455741  1
  Te2-  Te174  1  0.83202707  0.16624372  0.21774161  1
  Te2-  Te175  1  0.83146422  0.66536918  0.21575480  1
  Te2-  Te176  1  0.16736238  0.33490936  0.54994473  1
  Te2-  Te177  1  0.16602600  0.83371509  0.54805572  1
  Te2-  Te178  1  0.66856211  0.33413230  0.55036461  1
  Te2-  Te179  1  0.66632883  0.83221276  0.54750232  1
  Te2-  Te180  1  0.32681737  0.41602225  0.71021928  1
  Te2-  Te181  1  0.32921654  0.91799126  0.70974859  1
  Te2-  Te182  1  0.82877057  0.41541493  0.71039333  1
  Te2-  Te183  1  0.82602207  0.91089560  0.71080841  1
  Te2-  Te184  1  0.08965300  0.17573286  0.71143236  1
  Te2-  Te185  1  0.08687263  0.67405200  0.71008463  1
  Te2-  Te186  1  0.58984883  0.17514782  0.70965156  1
  Te2-  Te187  1  0.58716075  0.67016568  0.71141090  1
  Te2-  Te188  1  0.09056387  0.41571405  0.70969825  1
  Te2-  Te189  1  0.08633764  0.91635796  0.71216709  1
  Te2-  Te190  1  0.58920756  0.41544313  0.70989840  1
  Te2-  Te191  1  0.58669542  0.91500136  0.70897055  1
  Te2-  Te192  1  0.15789808  0.07861453  0.04532915  1
  Te2-  Te193  1  0.16069189  0.57938881  0.04344394  1
  Te2-  Te194  1  0.66205214  0.07983163  0.04368273  1
  Te2-  Te195  1  0.65977927  0.57953156  0.04564787  1
  Te2-  Te196  1  0.41730045  0.33739385  0.04830515  1
  Te2-  Te197  1  0.42016676  0.83658108  0.04249559  1
  Te2-  Te198  1  0.92001061  0.34336757  0.04399849  1
  Te2-  Te199  1  0.91820277  0.83674702  0.04479861  1
  Te2-  Te200  1  0.41873226  0.07911745  0.04321030  1
  Te2-  Te201  1  0.41892026  0.57864335  0.04551418  1
  Te2-  Te202  1  0.91795373  0.07898908  0.04643567  1
  Te2-  Te203  1  0.91653096  0.57895287  0.04361250  1
  Te2-  Te204  1  0.49341387  0.24600752  0.37754958  1
  Te2-  Te205  1  0.49485376  0.74976609  0.37636041  1
  Te2-  Te206  1  0.99064418  0.24632647  0.37809025  1
  Te2-  Te207  1  0.99302131  0.74559757  0.37585607  1
  Te2-  Te208  1  0.25276516  0.00477641  0.37738766  1
  Te2-  Te209  1  0.25022832  0.50685600  0.37807802  1
  Te2-  Te210  1  0.75059570  0.00676484  0.37532288  1
  Te2-  Te211  1  0.75290051  0.50645109  0.37434595  1
  Te2-  Te212  1  0.25437004  0.24647183  0.37665899  1
  Te2-  Te213  1  0.25004571  0.74577506  0.37750704  1
  Te2-  Te214  1  0.74860920  0.24318348  0.37712096  1
  Te2-  Te215  1  0.75226461  0.74671430  0.37352869  1
