# generated using pymatgen
data_Ti(CuTe)4
_symmetry_space_group_name_H-M   'P 1'
_cell_length_a   16.88946487
_cell_length_b   16.88995790
_cell_length_c   20.71437665
_cell_angle_alpha   90.09426910
_cell_angle_beta   89.94799229
_cell_angle_gamma   119.97914829
_symmetry_Int_Tables_number   1
_chemical_formula_structural   Ti(CuTe)4
_chemical_formula_sum   'Ti24 Cu96 Te96'
_cell_volume   5118.43957676
_cell_formula_units_Z   24
loop_
 _symmetry_equiv_pos_site_id
 _symmetry_equiv_pos_as_xyz
  1  'x, y, z'
loop_
 _atom_type_symbol
 _atom_type_oxidation_number
  Ti4+  4.0
  Cu+  1.0
  Te2-  -2.0
loop_
 _atom_site_type_symbol
 _atom_site_label
 _atom_site_symmetry_multiplicity
 _atom_site_fract_x
 _atom_site_fract_y
 _atom_site_fract_z
 _atom_site_occupancy
  Ti4+  Ti0  1  -0.00050627  -0.00165332  0.25849008  1
  Ti4+  Ti1  1  -0.00388177  0.49761239  0.25938354  1
  Ti4+  Ti2  1  0.49714033  -0.00206727  0.26082780  1
  Ti4+  Ti3  1  0.50049597  0.49832351  0.25709031  1
  Ti4+  Ti4  1  0.33328831  0.16868106  0.59006870  1
  Ti4+  Ti5  1  0.33281956  0.66872603  0.58768767  1
  Ti4+  Ti6  1  0.83359138  0.16687532  0.59251868  1
  Ti4+  Ti7  1  0.83343369  0.66820255  0.59194664  1
  Ti4+  Ti8  1  0.16739352  0.33403356  0.92282899  1
  Ti4+  Ti9  1  0.16827393  0.83225093  0.92508576  1
  Ti4+  Ti10  1  0.66966620  0.33277391  0.92417418  1
  Ti4+  Ti11  1  0.66688617  0.83104562  0.92188623  1
  Ti4+  Ti12  1  0.00037463  0.00183823  0.75397164  1
  Ti4+  Ti13  1  -0.00048847  0.50073094  0.75483263  1
  Ti4+  Ti14  1  0.49927860  -0.00061503  0.75522318  1
  Ti4+  Ti15  1  0.50121865  0.50272832  0.75408241  1
  Ti4+  Ti16  1  0.33308716  0.16504538  0.08791170  1
  Ti4+  Ti17  1  0.33506622  0.66810383  0.09065306  1
  Ti4+  Ti18  1  0.83427085  0.16704822  0.09049126  1
  Ti4+  Ti19  1  0.83225667  0.66540208  0.09033701  1
  Ti4+  Ti20  1  0.16612215  0.33454480  0.42049791  1
  Ti4+  Ti21  1  0.16547223  0.83292035  0.42154809  1
  Ti4+  Ti22  1  0.66478766  0.33315428  0.42390906  1
  Ti4+  Ti23  1  0.66736159  0.83385410  0.42165521  1
  Cu+  Cu24  1  0.73756383  0.47421306  0.14177983  1
  Cu+  Cu25  1  0.23763704  0.97542811  0.14171310  1
  Cu+  Cu26  1  0.68216696  0.08630896  0.81015233  1
  Cu+  Cu27  1  0.85470453  0.92777049  0.47568181  1
  Cu+  Cu28  1  0.34663460  0.92832809  0.47786691  1
  Cu+  Cu29  1  0.06994654  0.64449184  0.47321718  1
  Cu+  Cu30  1  0.57387808  0.64590743  0.47179948  1
  Cu+  Cu31  1  0.91273071  0.31744417  0.81028899  1
  Cu+  Cu32  1  0.91501166  0.81815975  0.80954776  1
  Cu+  Cu33  1  0.40437093  0.80789756  0.80568657  1
  Cu+  Cu34  1  0.58148305  0.92807758  0.47837850  1
  Cu+  Cu35  1  0.68482718  0.58787719  0.81003203  1
  Cu+  Cu36  1  0.16402327  0.07675137  0.16994595  1
  Cu+  Cu37  1  0.16474854  0.58366192  0.17439715  1
  Cu+  Cu38  1  0.66480118  0.08116240  0.17459647  1
  Cu+  Cu39  1  0.66318997  0.57611585  0.17133844  1
  Cu+  Cu40  1  0.41902252  0.33637034  0.16870693  1
  Cu+  Cu41  1  0.41907400  0.83732732  0.17400560  1
  Cu+  Cu42  1  0.91622545  0.33571008  0.17235377  1
  Cu+  Cu43  1  0.91608211  0.83725157  0.17283219  1
  Cu+  Cu44  1  0.41144735  0.07619362  0.17193335  1
  Cu+  Cu45  1  0.41989592  0.58383793  0.17288026  1
  Cu+  Cu46  1  0.91598026  0.08037430  0.17307145  1
  Cu+  Cu47  1  0.91158295  0.57623885  0.17329275  1
  Cu+  Cu48  1  0.49600066  0.24925141  0.50431339  1
  Cu+  Cu49  1  0.49720084  0.74972858  0.50051239  1
  Cu+  Cu50  1  0.99862293  0.25188048  0.50408207  1
  Cu+  Cu51  1  0.99689767  0.74678451  0.50412346  1
  Cu+  Cu52  1  0.25466221  0.00814733  0.50369719  1
  Cu+  Cu53  1  0.25092354  0.50493774  0.50012981  1
  Cu+  Cu54  1  0.75552438  0.00709843  0.50393602  1
  Cu+  Cu55  1  0.74855835  0.50314994  0.50556962  1
  Cu+  Cu56  1  0.25011911  0.25023752  0.50359012  1
  Cu+  Cu57  1  0.25025438  0.74956629  0.50081302  1
  Cu+  Cu58  1  0.74966324  0.24947551  0.50689930  1
  Cu+  Cu59  1  0.75197001  0.74976397  0.50427276  1
  Cu+  Cu60  1  0.33071289  0.41716975  0.83683959  1
  Cu+  Cu61  1  0.33121044  0.91057764  0.83781868  1
  Cu+  Cu62  1  0.83068547  0.41153979  0.83617732  1
  Cu+  Cu63  1  0.83150843  0.91150153  0.83378193  1
  Cu+  Cu64  1  0.08707149  0.17315495  0.83545632  1
  Cu+  Cu65  1  0.08753540  0.67179713  0.83744295  1
  Cu+  Cu66  1  0.58970825  0.16943974  0.83653765  1
  Cu+  Cu67  1  0.58932261  0.67047474  0.83443069  1
  Cu+  Cu68  1  0.08472614  0.41399320  0.83661229  1
  Cu+  Cu69  1  0.08610959  0.91577149  0.83880374  1
  Cu+  Cu70  1  0.58855318  0.41793807  0.83818290  1
  Cu+  Cu71  1  0.58202823  0.91160916  0.83540193  1
  Cu+  Cu72  1  0.17060051  0.08762884  0.67269325  1
  Cu+  Cu73  1  0.16604143  0.58672413  0.67326563  1
  Cu+  Cu74  1  0.66884894  0.08588706  0.68052113  1
  Cu+  Cu75  1  0.66960200  0.58802938  0.68010998  1
  Cu+  Cu76  1  0.41511961  0.33269757  0.67292542  1
  Cu+  Cu77  1  0.41261164  0.83208443  0.67682991  1
  Cu+  Cu78  1  0.91423615  0.33155628  0.68037338  1
  Cu+  Cu79  1  0.91645528  0.83325286  0.67918566  1
  Cu+  Cu80  1  0.41318251  0.08621636  0.67552956  1
  Cu+  Cu81  1  0.41609743  0.58644619  0.67250726  1
  Cu+  Cu82  1  0.91781018  0.08681860  0.67483476  1
  Cu+  Cu83  1  0.91729399  0.58611819  0.67656962  1
  Cu+  Cu84  1  0.00302674  0.25203060  0.00888569  1
  Cu+  Cu85  1  0.00192552  0.75263865  0.01078506  1
  Cu+  Cu86  1  0.50309075  0.25067254  0.00704862  1
  Cu+  Cu87  1  0.50192956  0.75154937  0.00724783  1
  Cu+  Cu88  1  0.24873001  0.49726580  0.00728254  1
  Cu+  Cu89  1  0.24873302  0.99535994  0.01154430  1
  Cu+  Cu90  1  0.74908264  0.49657426  0.01288518  1
  Cu+  Cu91  1  0.74914152  0.99714372  0.00739463  1
  Cu+  Cu92  1  0.24917209  0.25142629  0.00601766  1
  Cu+  Cu93  1  0.25309774  0.75249715  0.01042149  1
  Cu+  Cu94  1  0.75179151  0.24991463  0.01108963  1
  Cu+  Cu95  1  0.75037480  0.75030601  0.00901209  1
  Cu+  Cu96  1  0.33551781  0.41854023  0.33972226  1
  Cu+  Cu97  1  0.33379249  0.91721278  0.34766866  1
  Cu+  Cu98  1  0.83219112  0.41684878  0.34436299  1
  Cu+  Cu99  1  0.83710031  0.91925202  0.34681665  1
  Cu+  Cu100  1  0.08068949  0.16407552  0.34028215  1
  Cu+  Cu101  1  0.07643849  0.66041410  0.34521663  1
  Cu+  Cu102  1  0.57987538  0.16319484  0.34279733  1
  Cu+  Cu103  1  0.58262379  0.66126754  0.34337602  1
  Cu+  Cu104  1  0.08051744  0.41774192  0.34169613  1
  Cu+  Cu105  1  0.08159691  0.91767511  0.34194463  1
  Cu+  Cu106  1  0.58273006  0.41713394  0.34208745  1
  Cu+  Cu107  1  0.58097047  0.91805293  0.34806359  1
  Cu+  Cu108  1  0.00113786  0.00493970  0.11552899  1
  Cu+  Cu109  1  0.00417613  0.50205025  0.11759385  1
  Cu+  Cu110  1  0.50388600  0.00449360  0.11824747  1
  Cu+  Cu111  1  0.49713404  0.49999489  0.11400480  1
  Cu+  Cu112  1  0.33235760  0.17180650  0.44661433  1
  Cu+  Cu113  1  0.33299648  0.66631020  0.44219103  1
  Cu+  Cu114  1  0.83610603  0.17409916  0.44924337  1
  Cu+  Cu115  1  0.83288294  0.66516936  0.44775261  1
  Cu+  Cu116  1  0.17061208  0.33735091  0.77825707  1
  Cu+  Cu117  1  0.16746483  0.83587324  0.78139687  1
  Cu+  Cu118  1  0.66306348  0.33226846  0.78042923  1
  Cu+  Cu119  1  0.66802683  0.83543210  0.77757834  1
  Te2-  Te120  1  0.00327231  0.00212895  0.38951888  1
  Te2-  Te121  1  -0.00434667  0.49514270  0.39026888  1
  Te2-  Te122  1  0.49924138  0.00150142  0.39339947  1
  Te2-  Te123  1  0.49802304  0.49608326  0.38804587  1
  Te2-  Te124  1  0.33311222  0.16987927  0.71948944  1
  Te2-  Te125  1  0.33038985  0.66465309  0.71778965  1
  Te2-  Te126  1  0.83479327  0.16564415  0.72469351  1
  Te2-  Te127  1  0.83563934  0.66738976  0.72389231  1
  Te2-  Te128  1  0.16768392  0.33334476  0.05181975  1
  Te2-  Te129  1  0.16616507  0.82978072  0.05539445  1
  Te2-  Te130  1  0.66599349  0.32934351  0.05408460  1
  Te2-  Te131  1  0.66675080  0.83229065  0.05020451  1
  Te2-  Te132  1  0.50051228  0.24893953  0.88065865  1
  Te2-  Te133  1  0.49391245  0.74276346  0.88103841  1
  Te2-  Te134  1  0.99238023  0.24360482  0.88310234  1
  Te2-  Te135  1  0.99437452  0.74468303  0.88472012  1
  Te2-  Te136  1  0.25393110  0.00206922  0.88385098  1
  Te2-  Te137  1  0.25164079  0.50581365  0.88132366  1
  Te2-  Te138  1  0.75495942  0.00289555  0.88092106  1
  Te2-  Te139  1  0.75883268  0.50591695  0.88517809  1
  Te2-  Te140  1  0.25393257  0.24888764  0.88036783  1
  Te2-  Te141  1  0.25339697  0.74280660  0.88443980  1
  Te2-  Te142  1  0.75729061  0.24351458  0.88468886  1
  Te2-  Te143  1  0.75733596  0.74391093  0.88290479  1
  Te2-  Te144  1  0.32984429  0.41437011  0.21398815  1
  Te2-  Te145  1  0.32359642  0.90865061  0.22014117  1
  Te2-  Te146  1  0.82189429  0.40749829  0.21875655  1
  Te2-  Te147  1  0.82681374  0.91372591  0.22002682  1
  Te2-  Te148  1  0.08582888  0.16772282  0.21410565  1
  Te2-  Te149  1  0.08019078  0.66839325  0.21811269  1
  Te2-  Te150  1  0.58061359  0.16704448  0.21645122  1
  Te2-  Te151  1  0.58834452  0.66963493  0.21656490  1
  Te2-  Te152  1  0.08371266  0.41444910  0.21618467  1
  Te2-  Te153  1  0.08337845  0.90811326  0.21667463  1
  Te2-  Te154  1  0.58422366  0.40756715  0.21657727  1
  Te2-  Te155  1  0.58517987  0.91418448  0.22095191  1
  Te2-  Te156  1  0.16175132  0.08179741  0.54724240  1
  Te2-  Te157  1  0.15997762  0.58073358  0.54751379  1
  Te2-  Te158  1  0.66036443  0.08204441  0.55285296  1
  Te2-  Te159  1  0.66019585  0.58150647  0.55244528  1
  Te2-  Te160  1  0.41855810  0.33982335  0.54738992  1
  Te2-  Te161  1  0.42071061  0.84390463  0.54934841  1
  Te2-  Te162  1  0.91730113  0.33696337  0.55249443  1
  Te2-  Te163  1  0.92244405  0.84036729  0.55138287  1
  Te2-  Te164  1  0.42369004  0.08316899  0.55051770  1
  Te2-  Te165  1  0.41807291  0.58116728  0.54660178  1
  Te2-  Te166  1  0.92364265  0.08395818  0.54907128  1
  Te2-  Te167  1  0.91681436  0.57846570  0.55058814  1
  Te2-  Te168  1  0.00105921  0.00241451  0.88074081  1
  Te2-  Te169  1  0.00125018  0.50108317  0.88163584  1
  Te2-  Te170  1  0.50112329  0.00033076  0.88261306  1
  Te2-  Te171  1  0.50051843  0.50110760  0.88101523  1
  Te2-  Te172  1  0.33297233  0.16776651  0.21479098  1
  Te2-  Te173  1  0.33413679  0.66713983  0.21694645  1
  Te2-  Te174  1  0.83363352  0.16657958  0.21689325  1
  Te2-  Te175  1  0.83205526  0.66700918  0.21695874  1
  Te2-  Te176  1  0.16785715  0.33710613  0.54661460  1
  Te2-  Te177  1  0.16745269  0.83676668  0.54888285  1
  Te2-  Te178  1  0.66474424  0.33422936  0.55005158  1
  Te2-  Te179  1  0.66670925  0.83572843  0.54994570  1
  Te2-  Te180  1  0.32978212  0.41708470  0.70982806  1
  Te2-  Te181  1  0.32607922  0.91666739  0.71092913  1
  Te2-  Te182  1  0.82546552  0.41567981  0.71010803  1
  Te2-  Te183  1  0.82702667  0.91667588  0.70747015  1
  Te2-  Te184  1  0.08754140  0.17422236  0.70973926  1
  Te2-  Te185  1  0.08634141  0.67466256  0.71171543  1
  Te2-  Te186  1  0.58332869  0.17287645  0.71018656  1
  Te2-  Te187  1  0.58492274  0.67579134  0.70813791  1
  Te2-  Te188  1  0.08774723  0.41642191  0.70904732  1
  Te2-  Te189  1  0.08925409  0.91774586  0.71074999  1
  Te2-  Te190  1  0.58553655  0.41452791  0.71006057  1
  Te2-  Te191  1  0.58535468  0.91257549  0.70759187  1
  Te2-  Te192  1  0.16110654  0.08095630  0.04250498  1
  Te2-  Te193  1  0.16388041  0.58189406  0.04696082  1
  Te2-  Te194  1  0.66255427  0.07972283  0.04693436  1
  Te2-  Te195  1  0.65993690  0.58010372  0.04423850  1
  Te2-  Te196  1  0.41921246  0.33696608  0.04281987  1
  Te2-  Te197  1  0.42223162  0.84041958  0.04762541  1
  Te2-  Te198  1  0.92113549  0.33941640  0.04648957  1
  Te2-  Te199  1  0.91893449  0.83882152  0.04713948  1
  Te2-  Te200  1  0.42156334  0.08037875  0.04404059  1
  Te2-  Te201  1  0.41885698  0.58152242  0.04534329  1
  Te2-  Te202  1  0.91908749  0.08115297  0.04548664  1
  Te2-  Te203  1  0.92146481  0.58150298  0.04614600  1
  Te2-  Te204  1  0.49362669  0.24704990  0.37818846  1
  Te2-  Te205  1  0.49355403  0.74507284  0.37394104  1
  Te2-  Te206  1  0.99394544  0.24751155  0.37741956  1
  Te2-  Te207  1  0.99176810  0.74798315  0.37751801  1
  Te2-  Te208  1  0.25114857  0.00713284  0.37708873  1
  Te2-  Te209  1  0.25173316  0.50541699  0.37428674  1
  Te2-  Te210  1  0.75372203  0.00894178  0.37714034  1
  Te2-  Te211  1  0.75109709  0.50520681  0.37957824  1
  Te2-  Te212  1  0.25121025  0.24830402  0.37631079  1
  Te2-  Te213  1  0.25011203  0.74410629  0.37410351  1
  Te2-  Te214  1  0.74986502  0.24627704  0.38001679  1
  Te2-  Te215  1  0.75410766  0.74631710  0.37706599  1
