# generated using pymatgen
data_Ti(CuTe)4
_symmetry_space_group_name_H-M   'P 1'
_cell_length_a   16.88990499
_cell_length_b   16.89531019
_cell_length_c   20.71033090
_cell_angle_alpha   89.97778114
_cell_angle_beta   90.08287361
_cell_angle_gamma   120.02275235
_symmetry_Int_Tables_number   1
_chemical_formula_structural   Ti(CuTe)4
_chemical_formula_sum   'Ti24 Cu96 Te96'
_cell_volume   5116.94729039
_cell_formula_units_Z   24
loop_
 _symmetry_equiv_pos_site_id
 _symmetry_equiv_pos_as_xyz
  1  'x, y, z'
loop_
 _atom_type_symbol
 _atom_type_oxidation_number
  Ti4+  4.0
  Cu+  1.0
  Te2-  -2.0
loop_
 _atom_site_type_symbol
 _atom_site_label
 _atom_site_symmetry_multiplicity
 _atom_site_fract_x
 _atom_site_fract_y
 _atom_site_fract_z
 _atom_site_occupancy
  Ti4+  Ti0  1  -0.00038366  0.00213098  0.25611597  1
  Ti4+  Ti1  1  -0.00247406  0.49812375  0.25977534  1
  Ti4+  Ti2  1  0.50220072  -0.00258690  0.25619386  1
  Ti4+  Ti3  1  0.49989980  0.49854184  0.25678018  1
  Ti4+  Ti4  1  0.33436614  0.16815146  0.58917360  1
  Ti4+  Ti5  1  0.33341893  0.66719483  0.59228716  1
  Ti4+  Ti6  1  0.83637654  0.17132686  0.59613961  1
  Ti4+  Ti7  1  0.83547609  0.67045983  0.59025802  1
  Ti4+  Ti8  1  0.16392859  0.33174815  0.92662604  1
  Ti4+  Ti9  1  0.16502976  0.83177455  0.92141635  1
  Ti4+  Ti10  1  0.66623867  0.33312844  0.92611795  1
  Ti4+  Ti11  1  0.66339341  0.82965606  0.92188644  1
  Ti4+  Ti12  1  0.00069827  0.00019315  0.75546547  1
  Ti4+  Ti13  1  0.00131356  0.50113933  0.75613438  1
  Ti4+  Ti14  1  0.50146045  0.00091921  0.75378524  1
  Ti4+  Ti15  1  0.50119023  0.50133480  0.75502801  1
  Ti4+  Ti16  1  0.33310373  0.16745051  0.08633156  1
  Ti4+  Ti17  1  0.33340662  0.66614508  0.08916963  1
  Ti4+  Ti18  1  0.83166805  0.16308990  0.08630006  1
  Ti4+  Ti19  1  0.83305983  0.66551243  0.08902691  1
  Ti4+  Ti20  1  0.16669616  0.33444311  0.42406922  1
  Ti4+  Ti21  1  0.16717129  0.83550337  0.42054145  1
  Ti4+  Ti22  1  0.66791402  0.33256519  0.42297477  1
  Ti4+  Ti23  1  0.66795420  0.83269176  0.42421541  1
  Cu+  Cu24  1  0.40000933  0.58469864  0.80712273  1
  Cu+  Cu25  1  0.40407613  0.81587708  0.80720755  1
  Cu+  Cu26  1  0.73659569  0.47955208  0.14126916  1
  Cu+  Cu27  1  0.07174404  0.42999956  0.47790777  1
  Cu+  Cu28  1  0.90536356  0.31874994  0.81449027  1
  Cu+  Cu29  1  0.73828728  0.97531131  0.13802408  1
  Cu+  Cu30  1  0.74408935  0.25047892  0.14804077  1
  Cu+  Cu31  1  0.00633741  0.25525835  0.15040205  1
  Cu+  Cu32  1  0.24392519  0.26179056  0.14305634  1
  Cu+  Cu33  1  0.90453067  0.81018547  0.80667974  1
  Cu+  Cu34  1  0.07237700  0.93145542  0.47265300  1
  Cu+  Cu35  1  0.90578746  0.08710841  0.81215216  1
  Cu+  Cu36  1  0.16524885  0.08636650  0.16854180  1
  Cu+  Cu37  1  0.16602228  0.58149590  0.17324130  1
  Cu+  Cu38  1  0.65971460  0.07384209  0.16679379  1
  Cu+  Cu39  1  0.66436456  0.57898037  0.17120208  1
  Cu+  Cu40  1  0.41685126  0.33854065  0.16786931  1
  Cu+  Cu41  1  0.42101294  0.83487673  0.17039683  1
  Cu+  Cu42  1  0.91994634  0.34263421  0.16928168  1
  Cu+  Cu43  1  0.91827431  0.83688610  0.17018158  1
  Cu+  Cu44  1  0.41902707  0.08206457  0.16828500  1
  Cu+  Cu45  1  0.41967135  0.58244604  0.17037386  1
  Cu+  Cu46  1  0.91753475  0.07751694  0.16625686  1
  Cu+  Cu47  1  0.91148249  0.57788354  0.17154590  1
  Cu+  Cu48  1  0.49865842  0.24937213  0.50402783  1
  Cu+  Cu49  1  0.49864327  0.74768607  0.50751301  1
  Cu+  Cu50  1  0.99922678  0.25575573  0.50902501  1
  Cu+  Cu51  1  0.99908433  0.75628664  0.50322588  1
  Cu+  Cu52  1  0.24770929  0.00456724  0.50177931  1
  Cu+  Cu53  1  0.24820622  0.50350339  0.50575364  1
  Cu+  Cu54  1  0.75428176  0.00251363  0.50990531  1
  Cu+  Cu55  1  0.75281862  0.50344763  0.50520705  1
  Cu+  Cu56  1  0.25502937  0.25015074  0.50394682  1
  Cu+  Cu57  1  0.25456259  0.75118847  0.50378344  1
  Cu+  Cu58  1  0.75549228  0.25283251  0.50739392  1
  Cu+  Cu59  1  0.75393615  0.74989213  0.50433829  1
  Cu+  Cu60  1  0.33008579  0.41495782  0.83997971  1
  Cu+  Cu61  1  0.32987879  0.91300183  0.83547811  1
  Cu+  Cu62  1  0.82935401  0.41449292  0.84007343  1
  Cu+  Cu63  1  0.82953215  0.91228930  0.83632885  1
  Cu+  Cu64  1  0.08084557  0.16897104  0.83928335  1
  Cu+  Cu65  1  0.08514731  0.67179476  0.83539695  1
  Cu+  Cu66  1  0.58584430  0.17092774  0.83750824  1
  Cu+  Cu67  1  0.57909288  0.66827828  0.83367061  1
  Cu+  Cu68  1  0.08018858  0.41015696  0.83791270  1
  Cu+  Cu69  1  0.07990036  0.90902951  0.83533875  1
  Cu+  Cu70  1  0.58716569  0.41766490  0.83873137  1
  Cu+  Cu71  1  0.58044667  0.91082126  0.83408862  1
  Cu+  Cu72  1  0.17255948  0.08668378  0.67381186  1
  Cu+  Cu73  1  0.16861833  0.58511485  0.67627055  1
  Cu+  Cu74  1  0.67142703  0.08878583  0.67703257  1
  Cu+  Cu75  1  0.67061028  0.58565896  0.67395001  1
  Cu+  Cu76  1  0.41844673  0.33169169  0.67364687  1
  Cu+  Cu77  1  0.41792206  0.83165126  0.67830070  1
  Cu+  Cu78  1  0.91774712  0.33400695  0.68391012  1
  Cu+  Cu79  1  0.91762595  0.83289577  0.67775397  1
  Cu+  Cu80  1  0.41751431  0.08735057  0.67131363  1
  Cu+  Cu81  1  0.41509729  0.58435853  0.67866553  1
  Cu+  Cu82  1  0.91947585  0.09082757  0.68232788  1
  Cu+  Cu83  1  0.91792477  0.58778005  0.67348818  1
  Cu+  Cu84  1  0.00053916  0.24782845  0.01745703  1
  Cu+  Cu85  1  0.00221842  0.75096935  0.00724330  1
  Cu+  Cu86  1  0.50116645  0.25077826  0.00727859  1
  Cu+  Cu87  1  0.49891339  0.74901080  0.00850576  1
  Cu+  Cu88  1  0.24803182  0.49791583  0.00995757  1
  Cu+  Cu89  1  0.24805150  0.99555889  0.00326698  1
  Cu+  Cu90  1  0.74939709  0.49516672  0.01304648  1
  Cu+  Cu91  1  0.74719954  0.99372457  0.00984695  1
  Cu+  Cu92  1  0.24696573  0.25090036  0.01280793  1
  Cu+  Cu93  1  0.24883058  0.75124262  0.00745417  1
  Cu+  Cu94  1  0.74896794  0.25029333  0.01557451  1
  Cu+  Cu95  1  0.75000181  0.75005143  0.00593639  1
  Cu+  Cu96  1  0.33581122  0.41728369  0.34218487  1
  Cu+  Cu97  1  0.33755736  0.91771873  0.33937341  1
  Cu+  Cu98  1  0.83390707  0.41450544  0.34467528  1
  Cu+  Cu99  1  0.83354670  0.91742034  0.34186472  1
  Cu+  Cu100  1  0.08324586  0.16799404  0.34267831  1
  Cu+  Cu101  1  0.08253303  0.66487056  0.34227596  1
  Cu+  Cu102  1  0.58527204  0.16208920  0.34155823  1
  Cu+  Cu103  1  0.58290323  0.66247889  0.34137561  1
  Cu+  Cu104  1  0.08064874  0.41780414  0.34899173  1
  Cu+  Cu105  1  0.08275239  0.92091661  0.34340061  1
  Cu+  Cu106  1  0.58247094  0.41645056  0.34080300  1
  Cu+  Cu107  1  0.58464290  0.91656571  0.34235081  1
  Cu+  Cu108  1  0.00362105  -0.00488571  0.11159998  1
  Cu+  Cu109  1  0.00675094  0.51168981  0.11757759  1
  Cu+  Cu110  1  0.49148674  -0.00410288  0.11176549  1
  Cu+  Cu111  1  0.50268726  0.50359385  0.11294129  1
  Cu+  Cu112  1  0.33781515  0.16780438  0.44541698  1
  Cu+  Cu113  1  0.33673342  0.66876296  0.44927203  1
  Cu+  Cu114  1  0.83195495  0.16311040  0.45442299  1
  Cu+  Cu115  1  0.83425425  0.66470037  0.44742731  1
  Cu+  Cu116  1  0.16960333  0.33323101  0.78323821  1
  Cu+  Cu117  1  0.16968833  0.83729142  0.77662771  1
  Cu+  Cu118  1  0.66513302  0.33488865  0.78220423  1
  Cu+  Cu119  1  0.66713270  0.83283206  0.77716306  1
  Te2-  Te120  1  -0.00159410  0.00303113  0.38619401  1
  Te2-  Te121  1  -0.00215915  0.50198714  0.38997678  1
  Te2-  Te122  1  0.50102812  -0.00226331  0.38496017  1
  Te2-  Te123  1  0.50050493  0.49833977  0.38549234  1
  Te2-  Te124  1  0.33601029  0.16809831  0.71858638  1
  Te2-  Te125  1  0.33130592  0.66603496  0.72437523  1
  Te2-  Te126  1  0.83255001  0.16847878  0.72859441  1
  Te2-  Te127  1  0.83367426  0.66638232  0.72095482  1
  Te2-  Te128  1  0.16653095  0.33535775  0.05835021  1
  Te2-  Te129  1  0.16660565  0.83340092  0.05033323  1
  Te2-  Te130  1  0.66279065  0.32968132  0.05815312  1
  Te2-  Te131  1  0.66378885  0.82717001  0.05212988  1
  Te2-  Te132  1  0.49622905  0.24893920  0.88162234  1
  Te2-  Te133  1  0.48713742  0.74291166  0.88232087  1
  Te2-  Te134  1  0.98697927  0.24272915  0.88835250  1
  Te2-  Te135  1  0.98932448  0.74109078  0.88197970  1
  Te2-  Te136  1  0.24973040  0.00187631  0.87747100  1
  Te2-  Te137  1  0.24708229  0.50348359  0.88402054  1
  Te2-  Te138  1  0.74758392  0.00207049  0.88264415  1
  Te2-  Te139  1  0.75339628  0.50451688  0.88617129  1
  Te2-  Te140  1  0.24851087  0.24703589  0.88508873  1
  Te2-  Te141  1  0.25061635  0.74274315  0.88190068  1
  Te2-  Te142  1  0.75104634  0.24408404  0.88716415  1
  Te2-  Te143  1  0.74760115  0.74202941  0.87998274  1
  Te2-  Te144  1  0.32554903  0.41576654  0.21633748  1
  Te2-  Te145  1  0.33149924  0.91418137  0.21322102  1
  Te2-  Te146  1  0.82108778  0.40921837  0.21870916  1
  Te2-  Te147  1  0.82592245  0.91158741  0.21575715  1
  Te2-  Te148  1  0.08759052  0.17813189  0.21653025  1
  Te2-  Te149  1  0.08131194  0.66677500  0.21551758  1
  Te2-  Te150  1  0.58639513  0.17090456  0.21528678  1
  Te2-  Te151  1  0.58708241  0.66945213  0.21512033  1
  Te2-  Te152  1  0.08687232  0.41426109  0.22079373  1
  Te2-  Te153  1  0.08633023  0.91897902  0.21533857  1
  Te2-  Te154  1  0.58278991  0.40800948  0.21507963  1
  Te2-  Te155  1  0.58772949  0.90816416  0.21630364  1
  Te2-  Te156  1  0.15868146  0.08369773  0.54860326  1
  Te2-  Te157  1  0.15966706  0.58449059  0.55057608  1
  Te2-  Te158  1  0.66674803  0.08496718  0.55134078  1
  Te2-  Te159  1  0.66410336  0.58271737  0.54851298  1
  Te2-  Te160  1  0.42190574  0.34034529  0.54817742  1
  Te2-  Te161  1  0.42071845  0.83803557  0.55122362  1
  Te2-  Te162  1  0.92086081  0.34550879  0.55623286  1
  Te2-  Te163  1  0.92021916  0.84506591  0.55071362  1
  Te2-  Te164  1  0.41687439  0.08022084  0.54561492  1
  Te2-  Te165  1  0.41624954  0.57952544  0.55161509  1
  Te2-  Te166  1  0.92286294  0.08760673  0.55462101  1
  Te2-  Te167  1  0.92216038  0.58692964  0.54757336  1
  Te2-  Te168  1  -0.00010893  -0.00206175  0.88295267  1
  Te2-  Te169  1  0.00091284  0.50176865  0.88294696  1
  Te2-  Te170  1  0.49982902  -0.00015705  0.88063413  1
  Te2-  Te171  1  0.50077884  0.50039954  0.88212148  1
  Te2-  Te172  1  0.33528246  0.16773035  0.21322303  1
  Te2-  Te173  1  0.33514358  0.66652664  0.21536855  1
  Te2-  Te174  1  0.83332246  0.16638551  0.21463027  1
  Te2-  Te175  1  0.83400903  0.66896990  0.21600374  1
  Te2-  Te176  1  0.17021690  0.33449071  0.55066310  1
  Te2-  Te177  1  0.16907062  0.83575941  0.54730895  1
  Te2-  Te178  1  0.66729799  0.33465717  0.54909386  1
  Te2-  Te179  1  0.66826822  0.83265631  0.55044804  1
  Te2-  Te180  1  0.32852490  0.41203270  0.71166179  1
  Te2-  Te181  1  0.32985554  0.91690728  0.70778083  1
  Te2-  Te182  1  0.82814528  0.41807124  0.71240541  1
  Te2-  Te183  1  0.82812284  0.91624148  0.70850623  1
  Te2-  Te184  1  0.09142154  0.17440465  0.71266470  1
  Te2-  Te185  1  0.08698273  0.67350440  0.71029599  1
  Te2-  Te186  1  0.58656018  0.17400468  0.71137184  1
  Te2-  Te187  1  0.58828510  0.67343061  0.70764736  1
  Te2-  Te188  1  0.09053294  0.41589916  0.71193200  1
  Te2-  Te189  1  0.08948268  0.91703098  0.70872729  1
  Te2-  Te190  1  0.58791434  0.41631742  0.71180547  1
  Te2-  Te191  1  0.59078320  0.91715305  0.70810186  1
  Te2-  Te192  1  0.16067970  0.07765136  0.04128741  1
  Te2-  Te193  1  0.16148571  0.58133625  0.04579778  1
  Te2-  Te194  1  0.65711872  0.07628057  0.04044605  1
  Te2-  Te195  1  0.66111605  0.58019316  0.04321805  1
  Te2-  Te196  1  0.42076756  0.34078893  0.04129286  1
  Te2-  Te197  1  0.41826661  0.83742943  0.04383598  1
  Te2-  Te198  1  0.92111936  0.34095766  0.04353417  1
  Te2-  Te199  1  0.91875026  0.83674724  0.04340257  1
  Te2-  Te200  1  0.41758688  0.08022395  0.04157372  1
  Te2-  Te201  1  0.41834897  0.57937404  0.04403260  1
  Te2-  Te202  1  0.91906162  0.07478664  0.04047282  1
  Te2-  Te203  1  0.92150384  0.58135938  0.04445768  1
  Te2-  Te204  1  0.49755671  0.24610373  0.37695788  1
  Te2-  Te205  1  0.49683912  0.74635416  0.38007320  1
  Te2-  Te206  1  0.99244031  0.24582944  0.38142523  1
  Te2-  Te207  1  0.99430349  0.74801034  0.37562505  1
  Te2-  Te208  1  0.25574324  0.00706725  0.37434664  1
  Te2-  Te209  1  0.25452948  0.50658755  0.37864062  1
  Te2-  Te210  1  0.75327524  0.00500745  0.38203289  1
  Te2-  Te211  1  0.75231125  0.50400542  0.37828381  1
  Te2-  Te212  1  0.25277135  0.24822204  0.37843742  1
  Te2-  Te213  1  0.25308700  0.74831227  0.37775865  1
  Te2-  Te214  1  0.75410624  0.24545536  0.38108599  1
  Te2-  Te215  1  0.75329338  0.74726132  0.37823045  1
