# generated using pymatgen
data_Ti(CuTe)4
_symmetry_space_group_name_H-M   'P 1'
_cell_length_a   16.89578061
_cell_length_b   16.89917187
_cell_length_c   20.72110096
_cell_angle_alpha   90.04757985
_cell_angle_beta   89.99909894
_cell_angle_gamma   119.98995757
_symmetry_Int_Tables_number   1
_chemical_formula_structural   Ti(CuTe)4
_chemical_formula_sum   'Ti24 Cu96 Te96'
_cell_volume   5124.25680016
_cell_formula_units_Z   24
loop_
 _symmetry_equiv_pos_site_id
 _symmetry_equiv_pos_as_xyz
  1  'x, y, z'
loop_
 _atom_type_symbol
 _atom_type_oxidation_number
  Ti4+  4.0
  Cu+  1.0
  Te2-  -2.0
loop_
 _atom_site_type_symbol
 _atom_site_label
 _atom_site_symmetry_multiplicity
 _atom_site_fract_x
 _atom_site_fract_y
 _atom_site_fract_z
 _atom_site_occupancy
  Ti4+  Ti0  1  0.00207109  0.00041285  0.25706489  1
  Ti4+  Ti1  1  0.00031956  0.50063394  0.25974879  1
  Ti4+  Ti2  1  0.49874261  -0.00013679  0.25473951  1
  Ti4+  Ti3  1  0.50122565  0.49906033  0.25842509  1
  Ti4+  Ti4  1  0.33311450  0.16935567  0.59139849  1
  Ti4+  Ti5  1  0.32995016  0.66518155  0.58950361  1
  Ti4+  Ti6  1  0.83217980  0.16429104  0.58860396  1
  Ti4+  Ti7  1  0.83113826  0.66386072  0.59595430  1
  Ti4+  Ti8  1  0.16816935  0.33282342  0.92491438  1
  Ti4+  Ti9  1  0.16791010  0.83454096  0.92297452  1
  Ti4+  Ti10  1  0.66901157  0.33615676  0.92715806  1
  Ti4+  Ti11  1  0.66406212  0.83240429  0.92038375  1
  Ti4+  Ti12  1  0.00248577  0.00246156  0.75420790  1
  Ti4+  Ti13  1  -0.00167776  0.49893330  0.75517751  1
  Ti4+  Ti14  1  0.49820126  -0.00178816  0.75398629  1
  Ti4+  Ti15  1  0.49968103  0.50093437  0.75556413  1
  Ti4+  Ti16  1  0.33337878  0.16649886  0.08672511  1
  Ti4+  Ti17  1  0.33436664  0.66775355  0.08901360  1
  Ti4+  Ti18  1  0.83459706  0.16719214  0.08726982  1
  Ti4+  Ti19  1  0.83424901  0.66673431  0.09053841  1
  Ti4+  Ti20  1  0.16648602  0.33130451  0.42062250  1
  Ti4+  Ti21  1  0.16675562  0.83172030  0.42457497  1
  Ti4+  Ti22  1  0.66569190  0.33503679  0.42371028  1
  Ti4+  Ti23  1  0.66722951  0.83492187  0.42175068  1
  Cu+  Cu24  1  0.07144137  0.14301314  0.47379719  1
  Cu+  Cu25  1  0.74635752  0.48426030  0.14724176  1
  Cu+  Cu26  1  0.67569052  0.58685048  0.81763277  1
  Cu+  Cu27  1  0.06807544  0.64125472  0.47677817  1
  Cu+  Cu28  1  0.19181878  0.09796396  0.80802083  1
  Cu+  Cu29  1  0.57145203  0.43054948  0.47730948  1
  Cu+  Cu30  1  0.91456118  0.82827038  0.81601080  1
  Cu+  Cu31  1  0.51073040  0.25336559  0.14663900  1
  Cu+  Cu32  1  0.91032091  0.58933557  0.81449980  1
  Cu+  Cu33  1  0.23940724  0.98068362  0.14092195  1
  Cu+  Cu34  1  0.24253301  0.25986765  0.14325963  1
  Cu+  Cu35  1  0.40329829  0.80776086  0.80348629  1
  Cu+  Cu36  1  0.16180009  0.08075447  0.16799108  1
  Cu+  Cu37  1  0.16605017  0.58605260  0.17335910  1
  Cu+  Cu38  1  0.66578777  0.08309629  0.16788204  1
  Cu+  Cu39  1  0.66585799  0.57853287  0.17176814  1
  Cu+  Cu40  1  0.42090251  0.33958722  0.16902362  1
  Cu+  Cu41  1  0.41702359  0.83653290  0.16881645  1
  Cu+  Cu42  1  0.91884513  0.33624436  0.17085308  1
  Cu+  Cu43  1  0.91999169  0.83694080  0.17158963  1
  Cu+  Cu44  1  0.41757148  0.07730876  0.16693721  1
  Cu+  Cu45  1  0.41912587  0.58377957  0.17172645  1
  Cu+  Cu46  1  0.91901931  0.08274387  0.16945535  1
  Cu+  Cu47  1  0.91936780  0.58104717  0.17390911  1
  Cu+  Cu48  1  0.49745561  0.25588716  0.50525564  1
  Cu+  Cu49  1  0.49650913  0.75030709  0.50377957  1
  Cu+  Cu50  1  0.99631929  0.24352606  0.50180592  1
  Cu+  Cu51  1  0.99784719  0.74340717  0.50927723  1
  Cu+  Cu52  1  0.25135629  0.00352373  0.50651011  1
  Cu+  Cu53  1  0.25065335  0.50304170  0.50237651  1
  Cu+  Cu54  1  0.75056985  0.00433453  0.50178150  1
  Cu+  Cu55  1  0.74627830  0.50318120  0.50716791  1
  Cu+  Cu56  1  0.24715268  0.24397524  0.50344733  1
  Cu+  Cu57  1  0.24533228  0.74278661  0.50465502  1
  Cu+  Cu58  1  0.75041797  0.24788170  0.50454613  1
  Cu+  Cu59  1  0.74945629  0.74917155  0.50806844  1
  Cu+  Cu60  1  0.32931371  0.41470565  0.83828831  1
  Cu+  Cu61  1  0.33109187  0.91125203  0.83521953  1
  Cu+  Cu62  1  0.82946373  0.41745463  0.83801523  1
  Cu+  Cu63  1  0.82843511  0.91526381  0.83409975  1
  Cu+  Cu64  1  0.09271170  0.17263860  0.83696369  1
  Cu+  Cu65  1  0.08393429  0.67102467  0.83524814  1
  Cu+  Cu66  1  0.58462864  0.16928670  0.83971920  1
  Cu+  Cu67  1  0.58676980  0.67309547  0.83405577  1
  Cu+  Cu68  1  0.08405159  0.41423132  0.83827819  1
  Cu+  Cu69  1  0.09004530  0.92039032  0.83548585  1
  Cu+  Cu70  1  0.58677030  0.41561755  0.83980059  1
  Cu+  Cu71  1  0.57804006  0.90944420  0.83412279  1
  Cu+  Cu72  1  0.17099276  0.08875846  0.67964783  1
  Cu+  Cu73  1  0.16495526  0.58189292  0.67445563  1
  Cu+  Cu74  1  0.66851556  0.08467023  0.67251667  1
  Cu+  Cu75  1  0.66766020  0.58321565  0.68455341  1
  Cu+  Cu76  1  0.41470548  0.33367186  0.67565730  1
  Cu+  Cu77  1  0.41131540  0.82825651  0.67528360  1
  Cu+  Cu78  1  0.91399578  0.32757783  0.67233229  1
  Cu+  Cu79  1  0.91598603  0.82989426  0.68261527  1
  Cu+  Cu80  1  0.41631205  0.08661901  0.67413683  1
  Cu+  Cu81  1  0.41354820  0.58443537  0.67318898  1
  Cu+  Cu82  1  0.91737328  0.08678147  0.67217151  1
  Cu+  Cu83  1  0.91253134  0.58095833  0.68249845  1
  Cu+  Cu84  1  0.00321380  0.24995597  0.00707866  1
  Cu+  Cu85  1  0.00181157  0.75252182  0.01041339  1
  Cu+  Cu86  1  0.50496811  0.25431622  0.01454220  1
  Cu+  Cu87  1  0.50121430  0.75049687  0.00573791  1
  Cu+  Cu88  1  0.24906632  0.49716139  0.00925745  1
  Cu+  Cu89  1  0.24976491  0.99838685  0.01047381  1
  Cu+  Cu90  1  0.75108112  0.49935122  0.01740390  1
  Cu+  Cu91  1  0.74861701  0.99712973  0.00294671  1
  Cu+  Cu92  1  0.24837666  0.25113079  0.01320458  1
  Cu+  Cu93  1  0.24976585  0.75116740  0.00792661  1
  Cu+  Cu94  1  0.75232273  0.25363970  0.00874194  1
  Cu+  Cu95  1  0.74946787  0.75212489  0.00886107  1
  Cu+  Cu96  1  0.33594594  0.41588695  0.34268376  1
  Cu+  Cu97  1  0.33550192  0.91829123  0.34039356  1
  Cu+  Cu98  1  0.83501493  0.41961289  0.34444463  1
  Cu+  Cu99  1  0.83627203  0.91885332  0.34187231  1
  Cu+  Cu100  1  0.08377518  0.16306149  0.34432705  1
  Cu+  Cu101  1  0.08139361  0.66239712  0.34771206  1
  Cu+  Cu102  1  0.58073710  0.16398367  0.33974042  1
  Cu+  Cu103  1  0.58498418  0.66574062  0.34213639  1
  Cu+  Cu104  1  0.08338628  0.41842718  0.34126902  1
  Cu+  Cu105  1  0.08505380  0.91753723  0.34246847  1
  Cu+  Cu106  1  0.58298655  0.41872006  0.34812316  1
  Cu+  Cu107  1  0.58270617  0.91877911  0.33820578  1
  Cu+  Cu108  1  -0.00626644  -0.00234945  0.11297668  1
  Cu+  Cu109  1  0.00463460  0.50020812  0.11720884  1
  Cu+  Cu110  1  0.50512822  -0.00209362  0.11057941  1
  Cu+  Cu111  1  0.50322347  0.50732848  0.11502250  1
  Cu+  Cu112  1  0.33479415  0.16369281  0.44876851  1
  Cu+  Cu113  1  0.33600707  0.66739239  0.44602176  1
  Cu+  Cu114  1  0.83227221  0.17008570  0.44488989  1
  Cu+  Cu115  1  0.83554625  0.67324708  0.45397321  1
  Cu+  Cu116  1  0.16610286  0.33724486  0.78112891  1
  Cu+  Cu117  1  0.16806113  0.83338895  0.77841871  1
  Cu+  Cu118  1  0.66457429  0.32851026  0.78322100  1
  Cu+  Cu119  1  0.66816492  0.83898266  0.77515986  1
  Te2-  Te120  1  0.00009765  -0.00317175  0.38739117  1
  Te2-  Te121  1  -0.00154633  0.49587895  0.39035390  1
  Te2-  Te122  1  0.50004400  -0.00024642  0.38352594  1
  Te2-  Te123  1  0.49953617  0.50247932  0.38862270  1
  Te2-  Te124  1  0.33749730  0.17034207  0.72207078  1
  Te2-  Te125  1  0.32861812  0.66240381  0.72013314  1
  Te2-  Te126  1  0.83198888  0.16445061  0.71784997  1
  Te2-  Te127  1  0.83281283  0.66572973  0.72974911  1
  Te2-  Te128  1  0.16536919  0.33387467  0.05570441  1
  Te2-  Te129  1  0.16677396  0.83210839  0.05289072  1
  Te2-  Te130  1  0.66992927  0.33292556  0.05913094  1
  Te2-  Te131  1  0.66576478  0.83410463  0.04892285  1
  Te2-  Te132  1  0.49802358  0.25029556  0.88666298  1
  Te2-  Te133  1  0.49016864  0.74119715  0.88031748  1
  Te2-  Te134  1  0.99784388  0.24566460  0.88132241  1
  Te2-  Te135  1  0.99232795  0.74854597  0.88417470  1
  Te2-  Te136  1  0.25766086  0.00661060  0.88259862  1
  Te2-  Te137  1  0.25163777  0.50410492  0.88334166  1
  Te2-  Te138  1  0.74814690  0.00192136  0.87681021  1
  Te2-  Te139  1  0.75672461  0.51227512  0.88913388  1
  Te2-  Te140  1  0.25963909  0.24903698  0.88614294  1
  Te2-  Te141  1  0.24927874  0.74324529  0.88181823  1
  Te2-  Te142  1  0.75366105  0.25139649  0.88281681  1
  Te2-  Te143  1  0.75569006  0.74598739  0.88323616  1
  Te2-  Te144  1  0.32853686  0.41503101  0.21660828  1
  Te2-  Te145  1  0.32416190  0.91063957  0.21472315  1
  Te2-  Te146  1  0.82670009  0.41052972  0.21868811  1
  Te2-  Te147  1  0.83125656  0.91548905  0.21575682  1
  Te2-  Te148  1  0.08674578  0.17356745  0.21672076  1
  Te2-  Te149  1  0.08511011  0.67219142  0.22050600  1
  Te2-  Te150  1  0.58812992  0.17319551  0.21410409  1
  Te2-  Te151  1  0.58762622  0.66835587  0.21584582  1
  Te2-  Te152  1  0.08652045  0.41678692  0.21558638  1
  Te2-  Te153  1  0.08720412  0.91190516  0.21648867  1
  Te2-  Te154  1  0.58863768  0.40998454  0.22018110  1
  Te2-  Te155  1  0.58503313  0.91551305  0.21236123  1
  Te2-  Te156  1  0.15869611  0.07775384  0.55279525  1
  Te2-  Te157  1  0.15542574  0.57373513  0.54925512  1
  Te2-  Te158  1  0.66003078  0.08024374  0.54729017  1
  Te2-  Te159  1  0.65819638  0.58195533  0.55601093  1
  Te2-  Te160  1  0.41468701  0.34260550  0.54995076  1
  Te2-  Te161  1  0.41379457  0.83579035  0.54858374  1
  Te2-  Te162  1  0.91962153  0.33529174  0.54649401  1
  Te2-  Te163  1  0.91797770  0.83247202  0.55400736  1
  Te2-  Te164  1  0.42054258  0.08680450  0.54830417  1
  Te2-  Te165  1  0.41753463  0.58164474  0.54757739  1
  Te2-  Te166  1  0.91746578  0.07471375  0.54721897  1
  Te2-  Te167  1  0.91326913  0.57385543  0.55459245  1
  Te2-  Te168  1  -0.00064125  0.00128547  0.88179430  1
  Te2-  Te169  1  0.00099628  0.50086461  0.88221238  1
  Te2-  Te170  1  0.50000297  -0.00039349  0.88078476  1
  Te2-  Te171  1  0.50030649  0.50242088  0.88253062  1
  Te2-  Te172  1  0.33422196  0.16636831  0.21460553  1
  Te2-  Te173  1  0.33537827  0.66897740  0.21499157  1
  Te2-  Te174  1  0.83389749  0.16648420  0.21324420  1
  Te2-  Te175  1  0.83535113  0.66830443  0.21731882  1
  Te2-  Te176  1  0.16594544  0.33341425  0.54717708  1
  Te2-  Te177  1  0.16824574  0.83456157  0.55125605  1
  Te2-  Te178  1  0.66644595  0.33244435  0.55032223  1
  Te2-  Te179  1  0.66526579  0.83552967  0.54765173  1
  Te2-  Te180  1  0.32727698  0.41556036  0.71211354  1
  Te2-  Te181  1  0.32655518  0.91581336  0.70817561  1
  Te2-  Te182  1  0.82514580  0.40837033  0.71112783  1
  Te2-  Te183  1  0.82939175  0.91676997  0.70760897  1
  Te2-  Te184  1  0.08587740  0.17564896  0.71046714  1
  Te2-  Te185  1  0.08583011  0.67216968  0.70894185  1
  Te2-  Te186  1  0.58545447  0.17056486  0.71231395  1
  Te2-  Te187  1  0.58362543  0.67347210  0.70826978  1
  Te2-  Te188  1  0.08320115  0.41245827  0.71116932  1
  Te2-  Te189  1  0.08924182  0.91492862  0.70851126  1
  Te2-  Te190  1  0.58416509  0.41066269  0.71286827  1
  Te2-  Te191  1  0.58447950  0.91397435  0.70674621  1
  Te2-  Te192  1  0.15830676  0.07856271  0.04157537  1
  Te2-  Te193  1  0.16256779  0.58154244  0.04585589  1
  Te2-  Te194  1  0.66377846  0.08205174  0.04106595  1
  Te2-  Te195  1  0.66130961  0.58282480  0.04474836  1
  Te2-  Te196  1  0.42112710  0.34255598  0.04282410  1
  Te2-  Te197  1  0.41964688  0.83847145  0.04229894  1
  Te2-  Te198  1  0.92229329  0.33962474  0.04430937  1
  Te2-  Te199  1  0.91866406  0.83862204  0.04512018  1
  Te2-  Te200  1  0.42222748  0.08068598  0.04042102  1
  Te2-  Te201  1  0.41960297  0.58150167  0.04474169  1
  Te2-  Te202  1  0.91812525  0.07956235  0.04230522  1
  Te2-  Te203  1  0.92425687  0.58296890  0.04658382  1
  Te2-  Te204  1  0.49369427  0.24577917  0.37782020  1
  Te2-  Te205  1  0.49649500  0.74881432  0.37649094  1
  Te2-  Te206  1  0.99424532  0.24735598  0.37473633  1
  Te2-  Te207  1  0.99413716  0.74770417  0.38112276  1
  Te2-  Te208  1  0.25308358  0.00372816  0.37992272  1
  Te2-  Te209  1  0.25315649  0.50409449  0.37661096  1
  Te2-  Te210  1  0.75245594  0.00593645  0.37579693  1
  Te2-  Te211  1  0.75515786  0.50903273  0.38071692  1
  Te2-  Te212  1  0.25564772  0.24624341  0.37704018  1
  Te2-  Te213  1  0.25468775  0.74850741  0.37771951  1
  Te2-  Te214  1  0.75029614  0.24853721  0.37775292  1
  Te2-  Te215  1  0.75427884  0.74892956  0.38057784  1
