# generated using pymatgen
data_Ti(CuTe)4
_symmetry_space_group_name_H-M   'P 1'
_cell_length_a   16.84836861
_cell_length_b   16.84784793
_cell_length_c   20.64911972
_cell_angle_alpha   90.00204998
_cell_angle_beta   89.99831806
_cell_angle_gamma   119.99630921
_symmetry_Int_Tables_number   1
_chemical_formula_structural   Ti(CuTe)4
_chemical_formula_sum   'Ti24 Cu96 Te96'
_cell_volume   5076.33896354
_cell_formula_units_Z   24
loop_
 _symmetry_equiv_pos_site_id
 _symmetry_equiv_pos_as_xyz
  1  'x, y, z'
loop_
 _atom_type_symbol
 _atom_type_oxidation_number
  Ti4+  4.0
  Cu+  1.0
  Te2-  -2.0
loop_
 _atom_site_type_symbol
 _atom_site_label
 _atom_site_symmetry_multiplicity
 _atom_site_fract_x
 _atom_site_fract_y
 _atom_site_fract_z
 _atom_site_occupancy
  Ti4+  Ti0  1  0.00245974  -0.00191005  0.26065953  1
  Ti4+  Ti1  1  0.00138656  0.49939378  0.25956605  1
  Ti4+  Ti2  1  0.49920035  -0.00300278  0.25419040  1
  Ti4+  Ti3  1  0.50603461  0.50178504  0.25757233  1
  Ti4+  Ti4  1  0.33205874  0.16753797  0.59056488  1
  Ti4+  Ti5  1  0.33076735  0.66636811  0.58849542  1
  Ti4+  Ti6  1  0.83399427  0.16651412  0.59009277  1
  Ti4+  Ti7  1  0.82868916  0.66330795  0.59709823  1
  Ti4+  Ti8  1  0.16427719  0.33172895  0.92238755  1
  Ti4+  Ti9  1  0.16683710  0.83646548  0.92336671  1
  Ti4+  Ti10  1  0.66733695  0.33553438  0.92726369  1
  Ti4+  Ti11  1  0.66745722  0.83646229  0.92299487  1
  Ti4+  Ti12  1  0.00126785  0.00260799  0.75242277  1
  Ti4+  Ti13  1  -0.00221244  0.49947246  0.75456171  1
  Ti4+  Ti14  1  0.49907067  -0.00022085  0.75645153  1
  Ti4+  Ti15  1  0.49960277  0.49924022  0.75554988  1
  Ti4+  Ti16  1  0.33196501  0.16559892  0.08881579  1
  Ti4+  Ti17  1  0.33552443  0.66853403  0.08848288  1
  Ti4+  Ti18  1  0.83418880  0.16842691  0.08928714  1
  Ti4+  Ti19  1  0.83209600  0.66592027  0.08973777  1
  Ti4+  Ti20  1  0.16633962  0.33185695  0.41982775  1
  Ti4+  Ti21  1  0.16781067  0.83257133  0.42383583  1
  Ti4+  Ti22  1  0.66610225  0.33469086  0.42480837  1
  Ti4+  Ti23  1  0.66836366  0.83279937  0.42382590  1
  Cu+  Cu24  1  0.51638534  0.25224940  0.14267365  1
  Cu+  Cu25  1  0.57017193  0.43254780  0.47737375  1
  Cu+  Cu26  1  0.67746715  0.58942593  0.81716259  1
  Cu+  Cu27  1  0.06925353  0.14185408  0.47455810  1
  Cu+  Cu28  1  0.90625145  0.09508863  0.80522226  1
  Cu+  Cu29  1  0.90861129  0.59117138  0.81256828  1
  Cu+  Cu30  1  0.06973113  0.42460584  0.47358701  1
  Cu+  Cu31  1  0.91523962  0.83084005  0.81624583  1
  Cu+  Cu32  1  0.74562481  0.48164134  0.14663620  1
  Cu+  Cu33  1  0.18883217  0.09539092  0.80688413  1
  Cu+  Cu34  1  0.23641601  0.97449149  0.14080235  1
  Cu+  Cu35  1  0.52986942  0.76304215  0.13855782  1
  Cu+  Cu36  1  0.16210824  0.07500269  0.17193004  1
  Cu+  Cu37  1  0.16501801  0.58108339  0.17271865  1
  Cu+  Cu38  1  0.66451670  0.08029275  0.16811891  1
  Cu+  Cu39  1  0.66283833  0.57602473  0.16922704  1
  Cu+  Cu40  1  0.42455277  0.33636100  0.16953180  1
  Cu+  Cu41  1  0.42406740  0.83602002  0.16704549  1
  Cu+  Cu42  1  0.92170239  0.33659786  0.17245940  1
  Cu+  Cu43  1  0.91926913  0.83562756  0.17269805  1
  Cu+  Cu44  1  0.41490511  0.07719725  0.16832146  1
  Cu+  Cu45  1  0.42519855  0.58941823  0.17088275  1
  Cu+  Cu46  1  0.91912858  0.08395867  0.17437963  1
  Cu+  Cu47  1  0.91841954  0.58019569  0.17273792  1
  Cu+  Cu48  1  0.49841794  0.25511483  0.50470172  1
  Cu+  Cu49  1  0.49786024  0.74944494  0.50373826  1
  Cu+  Cu50  1  0.99651055  0.24724737  0.50215315  1
  Cu+  Cu51  1  0.99892900  0.74765351  0.51130461  1
  Cu+  Cu52  1  0.25078085  0.00187345  0.50507105  1
  Cu+  Cu53  1  0.24682187  0.50436633  0.49994118  1
  Cu+  Cu54  1  0.75053196  0.00145515  0.50523702  1
  Cu+  Cu55  1  0.74482058  0.50242280  0.50957906  1
  Cu+  Cu56  1  0.24644887  0.24225283  0.50094004  1
  Cu+  Cu57  1  0.25198242  0.74831683  0.50296109  1
  Cu+  Cu58  1  0.74923257  0.24705129  0.50497615  1
  Cu+  Cu59  1  0.74938343  0.74651394  0.50982059  1
  Cu+  Cu60  1  0.32988867  0.41594542  0.83585384  1
  Cu+  Cu61  1  0.33072519  0.91877963  0.83752409  1
  Cu+  Cu62  1  0.82963463  0.41720785  0.83794008  1
  Cu+  Cu63  1  0.82629962  0.91907925  0.83239446  1
  Cu+  Cu64  1  0.08554749  0.17261558  0.83181714  1
  Cu+  Cu65  1  0.08299406  0.66844428  0.83604903  1
  Cu+  Cu66  1  0.58262589  0.16797915  0.84084959  1
  Cu+  Cu67  1  0.58265611  0.66935113  0.83709429  1
  Cu+  Cu68  1  0.08349206  0.41432894  0.83526078  1
  Cu+  Cu69  1  0.09195839  0.91862893  0.83358696  1
  Cu+  Cu70  1  0.58655767  0.41517878  0.83899661  1
  Cu+  Cu71  1  0.58256078  0.91500326  0.83774452  1
  Cu+  Cu72  1  0.17068923  0.08600614  0.67810918  1
  Cu+  Cu73  1  0.16784484  0.58383421  0.67264559  1
  Cu+  Cu74  1  0.66760736  0.08297214  0.67454952  1
  Cu+  Cu75  1  0.66538269  0.58117397  0.68510067  1
  Cu+  Cu76  1  0.41481387  0.33128489  0.67441587  1
  Cu+  Cu77  1  0.41388907  0.83079598  0.67228465  1
  Cu+  Cu78  1  0.91618339  0.33135015  0.67401850  1
  Cu+  Cu79  1  0.91526313  0.83049893  0.68405417  1
  Cu+  Cu80  1  0.41607895  0.08484359  0.67306314  1
  Cu+  Cu81  1  0.41227910  0.58390318  0.67070833  1
  Cu+  Cu82  1  0.91642491  0.08698531  0.67709654  1
  Cu+  Cu83  1  0.91148893  0.58185921  0.68224696  1
  Cu+  Cu84  1  0.00135276  0.25087178  0.00679231  1
  Cu+  Cu85  1  -0.00017642  0.75237628  0.00954491  1
  Cu+  Cu86  1  0.50334384  0.25517534  0.01377916  1
  Cu+  Cu87  1  0.50521877  0.75330678  0.01060878  1
  Cu+  Cu88  1  0.24704837  0.49757658  0.00592342  1
  Cu+  Cu89  1  0.24485321  0.99751664  0.01221116  1
  Cu+  Cu90  1  0.74832414  0.50020648  0.01678711  1
  Cu+  Cu91  1  0.75127345  1.00206636  0.00720348  1
  Cu+  Cu92  1  0.24569350  0.24955664  0.00727556  1
  Cu+  Cu93  1  0.24719303  0.75022954  0.00642458  1
  Cu+  Cu94  1  0.75197900  0.25461594  0.00957155  1
  Cu+  Cu95  1  0.75055772  0.75193146  0.00895984  1
  Cu+  Cu96  1  0.33897023  0.41768581  0.33943786  1
  Cu+  Cu97  1  0.33521664  0.91669672  0.33853060  1
  Cu+  Cu98  1  0.83426436  0.41719866  0.34482666  1
  Cu+  Cu99  1  0.83635797  0.91630169  0.34408034  1
  Cu+  Cu100  1  0.08406573  0.16052424  0.34583873  1
  Cu+  Cu101  1  0.08218153  0.66443604  0.34284380  1
  Cu+  Cu102  1  0.58185175  0.16351325  0.34009855  1
  Cu+  Cu103  1  0.58845551  0.66684487  0.34191069  1
  Cu+  Cu104  1  0.08180327  0.41817608  0.34527157  1
  Cu+  Cu105  1  0.08437803  0.91599261  0.34521615  1
  Cu+  Cu106  1  0.58497651  0.41920828  0.34878829  1
  Cu+  Cu107  1  0.58425026  0.91703757  0.33996607  1
  Cu+  Cu108  1  -0.00439506  0.00112797  0.11799269  1
  Cu+  Cu109  1  0.00281697  0.50111194  0.11587376  1
  Cu+  Cu110  1  0.50064524  -0.00000838  0.10768755  1
  Cu+  Cu111  1  0.49359790  0.49900112  0.11322381  1
  Cu+  Cu112  1  0.33731245  0.16409171  0.44721536  1
  Cu+  Cu113  1  0.33842370  0.67023618  0.44418136  1
  Cu+  Cu114  1  0.83050975  0.16500351  0.44659706  1
  Cu+  Cu115  1  0.83795224  0.66939711  0.45571500  1
  Cu+  Cu116  1  0.16909842  0.33834340  0.77751260  1
  Cu+  Cu117  1  0.17168608  0.82893239  0.77888759  1
  Cu+  Cu118  1  0.66428056  0.32687548  0.78307249  1
  Cu+  Cu119  1  0.65857001  0.83028609  0.77853100  1
  Te2-  Te120  1  -0.00064504  -0.00543442  0.39158876  1
  Te2-  Te121  1  -0.00170247  0.50110854  0.39020858  1
  Te2-  Te122  1  0.50012860  -0.00178335  0.38303096  1
  Te2-  Te123  1  0.50088508  0.50339479  0.38806719  1
  Te2-  Te124  1  0.33707755  0.16823392  0.72141375  1
  Te2-  Te125  1  0.33184487  0.66674903  0.71798077  1
  Te2-  Te126  1  0.83102974  0.16820575  0.72066794  1
  Te2-  Te127  1  0.83092746  0.66593359  0.73064660  1
  Te2-  Te128  1  0.16567296  0.33383760  0.05168846  1
  Te2-  Te129  1  0.16409935  0.82995234  0.05365302  1
  Te2-  Te130  1  0.66905789  0.33330464  0.05949903  1
  Te2-  Te131  1  0.67261595  0.83835747  0.05317935  1
  Te2-  Te132  1  0.49586192  0.25001096  0.88645960  1
  Te2-  Te133  1  0.49523840  0.74745070  0.88367861  1
  Te2-  Te134  1  0.99092044  0.24698055  0.88053048  1
  Te2-  Te135  1  0.99178138  0.74887310  0.88357788  1
  Te2-  Te136  1  0.25595209  0.01092355  0.88521438  1
  Te2-  Te137  1  0.25044130  0.50374070  0.88025004  1
  Te2-  Te138  1  0.75133730  0.00962153  0.88149631  1
  Te2-  Te139  1  0.75566565  0.51162149  0.88878913  1
  Te2-  Te140  1  0.25400460  0.24789012  0.88106033  1
  Te2-  Te141  1  0.25007667  0.74888379  0.88020314  1
  Te2-  Te142  1  0.75284593  0.25078925  0.88317476  1
  Te2-  Te143  1  0.75583016  0.74981203  0.88302507  1
  Te2-  Te144  1  0.33652825  0.41803828  0.21275489  1
  Te2-  Te145  1  0.32626970  0.90735068  0.21232400  1
  Te2-  Te146  1  0.82778304  0.40962007  0.21884154  1
  Te2-  Te147  1  0.83126733  0.91449285  0.21782658  1
  Te2-  Te148  1  0.08911605  0.16920617  0.21837144  1
  Te2-  Te149  1  0.08541088  0.67057989  0.21643766  1
  Te2-  Te150  1  0.58729009  0.17011236  0.21429104  1
  Te2-  Te151  1  0.59553073  0.67489288  0.21580072  1
  Te2-  Te152  1  0.08829484  0.41393081  0.21862033  1
  Te2-  Te153  1  0.08532877  0.90657993  0.21898030  1
  Te2-  Te154  1  0.59075879  0.40932205  0.22057465  1
  Te2-  Te155  1  0.59170559  0.91483735  0.21438411  1
  Te2-  Te156  1  0.15764449  0.07601710  0.55131144  1
  Te2-  Te157  1  0.15575651  0.58114813  0.54717987  1
  Te2-  Te158  1  0.66181078  0.08034062  0.54898244  1
  Te2-  Te159  1  0.65449416  0.58033015  0.55729761  1
  Te2-  Te160  1  0.41322389  0.34055480  0.54835316  1
  Te2-  Te161  1  0.41903135  0.83883371  0.54656736  1
  Te2-  Te162  1  0.91736253  0.33928459  0.54812645  1
  Te2-  Te163  1  0.91707474  0.83455638  0.55626516  1
  Te2-  Te164  1  0.42044986  0.08538859  0.54698921  1
  Te2-  Te165  1  0.41440959  0.57906459  0.54461077  1
  Te2-  Te166  1  0.91862374  0.07758537  0.55034787  1
  Te2-  Te167  1  0.91324687  0.57745265  0.55458443  1
  Te2-  Te168  1  -0.00027098  0.00137452  0.88090568  1
  Te2-  Te169  1  0.00046180  0.49973241  0.88206848  1
  Te2-  Te170  1  0.49856946  -0.00069658  0.88323750  1
  Te2-  Te171  1  0.49855764  0.49961780  0.88301515  1
  Te2-  Te172  1  0.33389683  0.16620399  0.21626232  1
  Te2-  Te173  1  0.33488040  0.66772984  0.21559952  1
  Te2-  Te174  1  0.83279067  0.16677598  0.21592728  1
  Te2-  Te175  1  0.83311365  0.66552179  0.21697363  1
  Te2-  Te176  1  0.16721116  0.33423166  0.54713056  1
  Te2-  Te177  1  0.16926267  0.83349784  0.55053922  1
  Te2-  Te178  1  0.66559417  0.33142788  0.55192727  1
  Te2-  Te179  1  0.66491357  0.83285802  0.55047369  1
  Te2-  Te180  1  0.32857238  0.41513069  0.70897602  1
  Te2-  Te181  1  0.32887368  0.91540106  0.70978475  1
  Te2-  Te182  1  0.82383417  0.40881006  0.71048498  1
  Te2-  Te183  1  0.82465247  0.91397343  0.70622771  1
  Te2-  Te184  1  0.08904057  0.17742197  0.70516922  1
  Te2-  Te185  1  0.08600942  0.67204351  0.70814662  1
  Te2-  Te186  1  0.58515492  0.17061141  0.71208747  1
  Te2-  Te187  1  0.58117573  0.67186008  0.70922628  1
  Te2-  Te188  1  0.08524381  0.41479884  0.70879561  1
  Te2-  Te189  1  0.08898997  0.91321410  0.70735823  1
  Te2-  Te190  1  0.58343327  0.40815780  0.71193240  1
  Te2-  Te191  1  0.58327180  0.91336126  0.71033526  1
  Te2-  Te192  1  0.15741650  0.08140666  0.04504469  1
  Te2-  Te193  1  0.16278725  0.58161508  0.04514933  1
  Te2-  Te194  1  0.66276894  0.08340388  0.04174680  1
  Te2-  Te195  1  0.65768581  0.58264426  0.04289314  1
  Te2-  Te196  1  0.41541621  0.33928955  0.04264926  1
  Te2-  Te197  1  0.41787040  0.83946616  0.03984887  1
  Te2-  Te198  1  0.92170517  0.34078173  0.04511964  1
  Te2-  Te199  1  0.91909280  0.83992621  0.04599652  1
  Te2-  Te200  1  0.41942110  0.08067700  0.04020033  1
  Te2-  Te201  1  0.41786495  0.58005865  0.04206239  1
  Te2-  Te202  1  0.91992774  0.08214019  0.04590144  1
  Te2-  Te203  1  0.92228862  0.58238452  0.04456109  1
  Te2-  Te204  1  0.49495147  0.24546145  0.37667268  1
  Te2-  Te205  1  0.49819886  0.74760562  0.37615129  1
  Te2-  Te206  1  0.99246114  0.24382736  0.37439970  1
  Te2-  Te207  1  0.99481058  0.74604845  0.38268560  1
  Te2-  Te208  1  0.25448626  0.00432399  0.37803471  1
  Te2-  Te209  1  0.25588280  0.50517217  0.37338761  1
  Te2-  Te210  1  0.75343988  0.00418501  0.37813325  1
  Te2-  Te211  1  0.75671587  0.50873948  0.38184225  1
  Te2-  Te212  1  0.25736977  0.24833064  0.37471572  1
  Te2-  Te213  1  0.25306174  0.74722373  0.37619278  1
  Te2-  Te214  1  0.75032319  0.24693631  0.37840217  1
  Te2-  Te215  1  0.75605789  0.74696166  0.38233732  1
