# generated using pymatgen
data_Ti(CuTe)4
_symmetry_space_group_name_H-M   'P 1'
_cell_length_a   16.88696133
_cell_length_b   16.88523277
_cell_length_c   20.70539588
_cell_angle_alpha   89.94351646
_cell_angle_beta   90.03060924
_cell_angle_gamma   120.00967443
_symmetry_Int_Tables_number   1
_chemical_formula_structural   Ti(CuTe)4
_chemical_formula_sum   'Ti24 Cu96 Te96'
_cell_volume   5112.46295041
_cell_formula_units_Z   24
loop_
 _symmetry_equiv_pos_site_id
 _symmetry_equiv_pos_as_xyz
  1  'x, y, z'
loop_
 _atom_type_symbol
 _atom_type_oxidation_number
  Ti4+  4.0
  Cu+  1.0
  Te2-  -2.0
loop_
 _atom_site_type_symbol
 _atom_site_label
 _atom_site_symmetry_multiplicity
 _atom_site_fract_x
 _atom_site_fract_y
 _atom_site_fract_z
 _atom_site_occupancy
  Ti4+  Ti0  1  0.00288675  0.00203449  0.25642516  1
  Ti4+  Ti1  1  0.00069644  0.49955911  0.25774577  1
  Ti4+  Ti2  1  0.49950141  -0.00390376  0.25691502  1
  Ti4+  Ti3  1  0.50340273  0.50133607  0.25848559  1
  Ti4+  Ti4  1  0.33326263  0.16728646  0.58996714  1
  Ti4+  Ti5  1  0.32997144  0.66430067  0.59722856  1
  Ti4+  Ti6  1  0.83315560  0.16837791  0.58995958  1
  Ti4+  Ti7  1  0.83195239  0.66636325  0.59068388  1
  Ti4+  Ti8  1  0.16375610  0.33251507  0.92440291  1
  Ti4+  Ti9  1  0.16781513  0.83455429  0.92359927  1
  Ti4+  Ti10  1  0.66430966  0.33468447  0.92361266  1
  Ti4+  Ti11  1  0.66752846  0.83433939  0.92255361  1
  Ti4+  Ti12  1  -0.00182007  0.00088455  0.75423642  1
  Ti4+  Ti13  1  -0.00058055  0.49916581  0.75566173  1
  Ti4+  Ti14  1  0.49753013  -0.00034834  0.75400338  1
  Ti4+  Ti15  1  0.50223358  0.50002808  0.75495555  1
  Ti4+  Ti16  1  0.33244039  0.16618919  0.08794893  1
  Ti4+  Ti17  1  0.33492458  0.66906617  0.08961622  1
  Ti4+  Ti18  1  0.83562148  0.16723980  0.08826851  1
  Ti4+  Ti19  1  0.83126299  0.66396575  0.08883570  1
  Ti4+  Ti20  1  0.16659059  0.33396162  0.42331072  1
  Ti4+  Ti21  1  0.16816444  0.83236787  0.42354018  1
  Ti4+  Ti22  1  0.66617502  0.33290991  0.42135079  1
  Ti4+  Ti23  1  0.66842484  0.83257647  0.42384672  1
  Cu+  Cu24  1  0.23900254  0.76079601  0.14215966  1
  Cu+  Cu25  1  0.69207964  0.59573633  0.80662927  1
  Cu+  Cu26  1  0.07168054  0.43012160  0.47529226  1
  Cu+  Cu27  1  0.41278654  0.58669178  0.81527777  1
  Cu+  Cu28  1  0.40396281  0.09601228  0.80424831  1
  Cu+  Cu29  1  0.17555308  0.58780183  0.81744299  1
  Cu+  Cu30  1  0.90307904  0.09706992  0.80430629  1
  Cu+  Cu31  1  0.52522111  0.76204253  0.14058333  1
  Cu+  Cu32  1  0.57166464  0.42731632  0.47547218  1
  Cu+  Cu33  1  0.73798046  0.47395092  0.14227772  1
  Cu+  Cu34  1  0.41099956  0.82447252  0.81569100  1
  Cu+  Cu35  1  0.02535410  0.26192929  0.14262286  1
  Cu+  Cu36  1  0.16328781  0.08113968  0.16944708  1
  Cu+  Cu37  1  0.16406827  0.58532685  0.17129813  1
  Cu+  Cu38  1  0.66463109  0.07886871  0.17079114  1
  Cu+  Cu39  1  0.66383856  0.57661052  0.17080127  1
  Cu+  Cu40  1  0.41798429  0.33525521  0.17154120  1
  Cu+  Cu41  1  0.41958034  0.83610170  0.16938570  1
  Cu+  Cu42  1  0.92465550  0.33588785  0.17018032  1
  Cu+  Cu43  1  0.91831903  0.83587479  0.17135860  1
  Cu+  Cu44  1  0.41633672  0.07906255  0.17010941  1
  Cu+  Cu45  1  0.42495212  0.58839449  0.17211725  1
  Cu+  Cu46  1  0.92494587  0.08666776  0.16970481  1
  Cu+  Cu47  1  0.91374027  0.57736242  0.17051865  1
  Cu+  Cu48  1  0.49681562  0.25156873  0.50368936  1
  Cu+  Cu49  1  0.49830306  0.74815036  0.51050789  1
  Cu+  Cu50  1  0.99714673  0.25368226  0.50426742  1
  Cu+  Cu51  1  0.99824540  0.74881021  0.50532889  1
  Cu+  Cu52  1  0.25299075  0.00206261  0.50522170  1
  Cu+  Cu53  1  0.24562339  0.50137590  0.50828093  1
  Cu+  Cu54  1  0.75354177  0.00228063  0.50557255  1
  Cu+  Cu55  1  0.74608908  0.50219278  0.50389682  1
  Cu+  Cu56  1  0.25159112  0.24765571  0.50395961  1
  Cu+  Cu57  1  0.24976950  0.74602836  0.50868050  1
  Cu+  Cu58  1  0.75159145  0.24763590  0.50314357  1
  Cu+  Cu59  1  0.75120179  0.74676051  0.50464571  1
  Cu+  Cu60  1  0.32925986  0.41367595  0.83742529  1
  Cu+  Cu61  1  0.32846035  0.91760233  0.83479392  1
  Cu+  Cu62  1  0.82893791  0.41729260  0.83786073  1
  Cu+  Cu63  1  0.83050620  0.92102238  0.83473494  1
  Cu+  Cu64  1  0.07676253  0.16787071  0.83710119  1
  Cu+  Cu65  1  0.08606635  0.67052953  0.83673343  1
  Cu+  Cu66  1  0.57727120  0.16890053  0.83617479  1
  Cu+  Cu67  1  0.58841850  0.66983603  0.83511172  1
  Cu+  Cu68  1  0.08466160  0.41281605  0.83745633  1
  Cu+  Cu69  1  0.08463289  0.91602501  0.83617725  1
  Cu+  Cu70  1  0.59163716  0.42009171  0.83562631  1
  Cu+  Cu71  1  0.58454263  0.91261249  0.83447834  1
  Cu+  Cu72  1  0.16773107  0.08397220  0.67296682  1
  Cu+  Cu73  1  0.16730332  0.58185590  0.68448725  1
  Cu+  Cu74  1  0.66790210  0.08360655  0.67243017  1
  Cu+  Cu75  1  0.67026181  0.58316184  0.67856425  1
  Cu+  Cu76  1  0.41819321  0.33085738  0.67473502  1
  Cu+  Cu77  1  0.41250514  0.82881762  0.68326900  1
  Cu+  Cu78  1  0.91559002  0.33240045  0.67485720  1
  Cu+  Cu79  1  0.91428872  0.83124845  0.67383035  1
  Cu+  Cu80  1  0.41401121  0.08576670  0.67620407  1
  Cu+  Cu81  1  0.41378794  0.58329741  0.68273213  1
  Cu+  Cu82  1  0.91408048  0.08725251  0.67635480  1
  Cu+  Cu83  1  0.91341967  0.58340775  0.67294184  1
  Cu+  Cu84  1  0.00216528  0.25140355  0.01267751  1
  Cu+  Cu85  1  0.00235438  0.74980667  0.00722987  1
  Cu+  Cu86  1  0.49920812  0.25167513  0.00653037  1
  Cu+  Cu87  1  0.50301036  0.75110117  0.01267165  1
  Cu+  Cu88  1  0.24881714  0.49934185  0.01125062  1
  Cu+  Cu89  1  0.25052277  0.99926381  0.00811430  1
  Cu+  Cu90  1  0.74617540  0.49644925  0.01373021  1
  Cu+  Cu91  1  0.74971283  0.99913341  0.00752926  1
  Cu+  Cu92  1  0.24620829  0.24964244  0.00725504  1
  Cu+  Cu93  1  0.24993262  0.75269522  0.01361704  1
  Cu+  Cu94  1  0.74719634  0.25173429  0.00660014  1
  Cu+  Cu95  1  0.74841519  0.74905224  0.00696436  1
  Cu+  Cu96  1  0.33752959  0.41925536  0.34273723  1
  Cu+  Cu97  1  0.33550484  0.91317680  0.34208917  1
  Cu+  Cu98  1  0.83492206  0.41515527  0.34190451  1
  Cu+  Cu99  1  0.83918655  0.91919176  0.33997565  1
  Cu+  Cu100  1  0.08399046  0.16564784  0.34142680  1
  Cu+  Cu101  1  0.08517820  0.66577707  0.34266590  1
  Cu+  Cu102  1  0.58097338  0.16041503  0.34075402  1
  Cu+  Cu103  1  0.58576700  0.66665497  0.34277246  1
  Cu+  Cu104  1  0.08359723  0.41882741  0.34650343  1
  Cu+  Cu105  1  0.08425281  0.91918635  0.34049707  1
  Cu+  Cu106  1  0.58253206  0.41727556  0.34632676  1
  Cu+  Cu107  1  0.58200456  0.91420375  0.34256968  1
  Cu+  Cu108  1  -0.00245256  -0.00507383  0.11284378  1
  Cu+  Cu109  1  -0.00074367  0.49977350  0.11403108  1
  Cu+  Cu110  1  0.50418312  0.00614470  0.11316509  1
  Cu+  Cu111  1  0.49622297  0.49729042  0.11575817  1
  Cu+  Cu112  1  0.33135591  0.16312571  0.44682898  1
  Cu+  Cu113  1  0.33737835  0.66734055  0.45459794  1
  Cu+  Cu114  1  0.83189225  0.16302408  0.44687282  1
  Cu+  Cu115  1  0.83745507  0.66724684  0.44772342  1
  Cu+  Cu116  1  0.16835169  0.32882272  0.78067949  1
  Cu+  Cu117  1  0.16089774  0.83242117  0.77853171  1
  Cu+  Cu118  1  0.66949811  0.32990867  0.77953078  1
  Cu+  Cu119  1  0.66834557  0.83418224  0.77707599  1
  Te2-  Te120  1  0.00267410  0.00146293  0.38549717  1
  Te2-  Te121  1  -0.00101072  0.50145175  0.38782221  1
  Te2-  Te122  1  0.49983727  -0.00336385  0.38586123  1
  Te2-  Te123  1  0.50126551  0.50261293  0.38882773  1
  Te2-  Te124  1  0.33030030  0.16786689  0.72087938  1
  Te2-  Te125  1  0.33192984  0.66516511  0.73100730  1
  Te2-  Te126  1  0.82998662  0.16900551  0.72100441  1
  Te2-  Te127  1  0.83662811  0.66859101  0.72171696  1
  Te2-  Te128  1  0.16864953  0.33481850  0.05464421  1
  Te2-  Te129  1  0.16559830  0.83532763  0.05392595  1
  Te2-  Te130  1  0.66223151  0.32935154  0.05418253  1
  Te2-  Te131  1  0.67069834  0.83501349  0.05261238  1
  Te2-  Te132  1  0.49118507  0.25213714  0.88090687  1
  Te2-  Te133  1  0.49151992  0.74422472  0.88514809  1
  Te2-  Te134  1  0.98990952  0.24837416  0.88540133  1
  Te2-  Te135  1  0.99755760  0.74839366  0.88124054  1
  Te2-  Te136  1  0.25173016  0.00760151  0.88210246  1
  Te2-  Te137  1  0.25455685  0.50934491  0.88541721  1
  Te2-  Te138  1  0.74930066  0.00763036  0.88163748  1
  Te2-  Te139  1  0.75685585  0.51028554  0.88636124  1
  Te2-  Te140  1  0.24664296  0.24631876  0.88084993  1
  Te2-  Te141  1  0.25619659  0.74665096  0.88599573  1
  Te2-  Te142  1  0.74709362  0.24767539  0.88013734  1
  Te2-  Te143  1  0.75691365  0.75192919  0.88068751  1
  Te2-  Te144  1  0.33331793  0.41917595  0.21611933  1
  Te2-  Te145  1  0.32562774  0.91195235  0.21608100  1
  Te2-  Te146  1  0.82805194  0.40772020  0.21569293  1
  Te2-  Te147  1  0.83174128  0.91800426  0.21387924  1
  Te2-  Te148  1  0.09381998  0.17752505  0.21597059  1
  Te2-  Te149  1  0.08239792  0.67254876  0.21652934  1
  Te2-  Te150  1  0.58460463  0.16711774  0.21454636  1
  Te2-  Te151  1  0.59412954  0.67484788  0.21683279  1
  Te2-  Te152  1  0.09262942  0.41820796  0.21859614  1
  Te2-  Te153  1  0.08670315  0.91421829  0.21463397  1
  Te2-  Te154  1  0.58486929  0.40890619  0.21857488  1
  Te2-  Te155  1  0.58931985  0.91186051  0.21646929  1
  Te2-  Te156  1  0.16206799  0.08017457  0.54741297  1
  Te2-  Te157  1  0.15649370  0.57991150  0.55611898  1
  Te2-  Te158  1  0.66193878  0.08008940  0.54705602  1
  Te2-  Te159  1  0.65723957  0.58103758  0.55176365  1
  Te2-  Te160  1  0.41815442  0.34187504  0.54952573  1
  Te2-  Te161  1  0.41648277  0.83473898  0.55525886  1
  Te2-  Te162  1  0.91754873  0.34300080  0.54951627  1
  Te2-  Te163  1  0.91859267  0.83760461  0.54833374  1
  Te2-  Te164  1  0.42087718  0.08371451  0.54944456  1
  Te2-  Te165  1  0.41424659  0.57900709  0.55449978  1
  Te2-  Te166  1  0.92138444  0.08553645  0.54949292  1
  Te2-  Te167  1  0.91517107  0.57929781  0.54720423  1
  Te2-  Te168  1  -0.00110603  -0.00121636  0.88112857  1
  Te2-  Te169  1  -0.00102087  0.49920241  0.88280096  1
  Te2-  Te170  1  0.50000724  -0.00107733  0.88185075  1
  Te2-  Te171  1  0.50003064  0.49895793  0.88276805  1
  Te2-  Te172  1  0.33297135  0.16514612  0.21400847  1
  Te2-  Te173  1  0.33373979  0.66657630  0.21686350  1
  Te2-  Te174  1  0.83449281  0.16580930  0.21504614  1
  Te2-  Te175  1  0.83383900  0.66666876  0.21566766  1
  Te2-  Te176  1  0.16601214  0.33085307  0.55010294  1
  Te2-  Te177  1  0.16659281  0.83348329  0.54984439  1
  Te2-  Te178  1  0.66653185  0.33209634  0.54816024  1
  Te2-  Te179  1  0.66887565  0.83357122  0.55018711  1
  Te2-  Te180  1  0.32792922  0.41061716  0.71061097  1
  Te2-  Te181  1  0.32318044  0.91308100  0.70805090  1
  Te2-  Te182  1  0.82783869  0.41469372  0.71112784  1
  Te2-  Te183  1  0.82663617  0.91408927  0.70770323  1
  Te2-  Te184  1  0.08635033  0.17274221  0.70918347  1
  Te2-  Te185  1  0.08343839  0.67201400  0.70976269  1
  Te2-  Te186  1  0.58623068  0.17201588  0.70872060  1
  Te2-  Te187  1  0.58735374  0.67376622  0.70803640  1
  Te2-  Te188  1  0.08412815  0.40926716  0.71163623  1
  Te2-  Te189  1  0.08411369  0.91477267  0.70976629  1
  Te2-  Te190  1  0.58714252  0.41118516  0.70989558  1
  Te2-  Te191  1  0.58630321  0.91420465  0.70841914  1
  Te2-  Te192  1  0.16039388  0.07966703  0.04334216  1
  Te2-  Te193  1  0.16047112  0.58039650  0.04479715  1
  Te2-  Te194  1  0.66327656  0.08195625  0.04399835  1
  Te2-  Te195  1  0.65776530  0.58037940  0.04420169  1
  Te2-  Te196  1  0.41656679  0.33834565  0.04438467  1
  Te2-  Te197  1  0.42255192  0.84292084  0.04250156  1
  Te2-  Te198  1  0.91766119  0.33979911  0.04312703  1
  Te2-  Te199  1  0.91828498  0.83562654  0.04394310  1
  Te2-  Te200  1  0.42007906  0.08182595  0.04333526  1
  Te2-  Te201  1  0.41897237  0.57942688  0.04491690  1
  Te2-  Te202  1  0.91952159  0.07859421  0.04256900  1
  Te2-  Te203  1  0.91983770  0.58009199  0.04344050  1
  Te2-  Te204  1  0.49361392  0.24382587  0.37651632  1
  Te2-  Te205  1  0.49581694  0.74566499  0.38239746  1
  Te2-  Te206  1  0.99440119  0.24596284  0.37720485  1
  Te2-  Te207  1  0.99751061  0.74894514  0.37813899  1
  Te2-  Te208  1  0.25408615  0.00294176  0.37804928  1
  Te2-  Te209  1  0.25588186  0.50761372  0.38046756  1
  Te2-  Te210  1  0.75313121  0.00294715  0.37823901  1
  Te2-  Te211  1  0.75547788  0.50620643  0.37654010  1
  Te2-  Te212  1  0.25373581  0.24904754  0.37813652  1
  Te2-  Te213  1  0.25362842  0.74471697  0.38193565  1
  Te2-  Te214  1  0.75118506  0.24521906  0.37728480  1
  Te2-  Te215  1  0.75594811  0.74900301  0.37843033  1
