# generated using pymatgen
data_Ti(CuTe)4
_symmetry_space_group_name_H-M   'P 1'
_cell_length_a   16.87265433
_cell_length_b   16.87335511
_cell_length_c   20.68750660
_cell_angle_alpha   89.97384383
_cell_angle_beta   90.01700484
_cell_angle_gamma   120.00967730
_symmetry_Int_Tables_number   1
_chemical_formula_structural   Ti(CuTe)4
_chemical_formula_sum   'Ti24 Cu96 Te96'
_cell_volume   5100.12983520
_cell_formula_units_Z   24
loop_
 _symmetry_equiv_pos_site_id
 _symmetry_equiv_pos_as_xyz
  1  'x, y, z'
loop_
 _atom_type_symbol
 _atom_type_oxidation_number
  Ti4+  4.0
  Cu+  1.0
  Te2-  -2.0
loop_
 _atom_site_type_symbol
 _atom_site_label
 _atom_site_symmetry_multiplicity
 _atom_site_fract_x
 _atom_site_fract_y
 _atom_site_fract_z
 _atom_site_occupancy
  Ti4+  Ti0  1  0.00061866  -0.00061891  0.25757530  1
  Ti4+  Ti1  1  0.00496549  0.50190125  0.25632260  1
  Ti4+  Ti2  1  0.50311394  -0.00201757  0.25991875  1
  Ti4+  Ti3  1  0.50073352  0.49960844  0.25960298  1
  Ti4+  Ti4  1  0.33139601  0.16672748  0.58662147  1
  Ti4+  Ti5  1  0.33484371  0.66643985  0.59272945  1
  Ti4+  Ti6  1  0.83143896  0.16648106  0.58963110  1
  Ti4+  Ti7  1  0.83586937  0.66508191  0.58883169  1
  Ti4+  Ti8  1  0.16366705  0.33453118  0.92512463  1
  Ti4+  Ti9  1  0.16615741  0.83473211  0.92596430  1
  Ti4+  Ti10  1  0.66389944  0.33373702  0.92502130  1
  Ti4+  Ti11  1  0.66435426  0.83539613  0.92566069  1
  Ti4+  Ti12  1  -0.00109188  0.00028958  0.75773605  1
  Ti4+  Ti13  1  -0.00045566  0.49900359  0.75577690  1
  Ti4+  Ti14  1  0.50012601  0.00050112  0.75581377  1
  Ti4+  Ti15  1  0.49923559  0.49973826  0.75578565  1
  Ti4+  Ti16  1  0.33251592  0.16796378  0.09038072  1
  Ti4+  Ti17  1  0.33241583  0.66638736  0.08971688  1
  Ti4+  Ti18  1  0.83227349  0.16564881  0.09050094  1
  Ti4+  Ti19  1  0.83436892  0.66770302  0.08892459  1
  Ti4+  Ti20  1  0.16771308  0.33218622  0.42181209  1
  Ti4+  Ti21  1  0.16705125  0.83360595  0.42083619  1
  Ti4+  Ti22  1  0.66944484  0.33371392  0.41754900  1
  Ti4+  Ti23  1  0.66707543  0.83301426  0.42184858  1
  Cu+  Cu24  1  0.57228079  0.92041985  0.47929683  1
  Cu+  Cu25  1  0.35134102  0.42994284  0.47483951  1
  Cu+  Cu26  1  0.73923676  0.97629718  0.14253378  1
  Cu+  Cu27  1  0.02592478  0.76188642  0.14060345  1
  Cu+  Cu28  1  0.57357261  0.15279670  0.47415410  1
  Cu+  Cu29  1  0.02175372  0.25947153  0.14204070  1
  Cu+  Cu30  1  0.90184380  0.09711888  0.80888445  1
  Cu+  Cu31  1  0.07047492  0.92147689  0.47481789  1
  Cu+  Cu32  1  0.40358152  0.59536898  0.80976947  1
  Cu+  Cu33  1  0.06960149  0.14866081  0.47558473  1
  Cu+  Cu34  1  0.58211468  0.42606018  0.47548854  1
  Cu+  Cu35  1  0.85864718  0.42769359  0.46862775  1
  Cu+  Cu36  1  0.16374341  0.08245543  0.17129733  1
  Cu+  Cu37  1  0.16413545  0.58126362  0.16970057  1
  Cu+  Cu38  1  0.66314545  0.07427575  0.17300827  1
  Cu+  Cu39  1  0.66351370  0.58056943  0.17254869  1
  Cu+  Cu40  1  0.41781353  0.33671768  0.17398515  1
  Cu+  Cu41  1  0.42174057  0.83429358  0.17257750  1
  Cu+  Cu42  1  0.92360337  0.33623350  0.17146232  1
  Cu+  Cu43  1  0.92381469  0.83509137  0.16945411  1
  Cu+  Cu44  1  0.42010658  0.08477058  0.17424975  1
  Cu+  Cu45  1  0.41661818  0.58038045  0.17313361  1
  Cu+  Cu46  1  0.91792346  0.08191369  0.17087529  1
  Cu+  Cu47  1  0.92357043  0.58732747  0.17075070  1
  Cu+  Cu48  1  0.49399260  0.24808688  0.49734080  1
  Cu+  Cu49  1  0.49609656  0.74781169  0.50522075  1
  Cu+  Cu50  1  0.99457920  0.24526498  0.50340636  1
  Cu+  Cu51  1  0.99652645  0.74859675  0.50184752  1
  Cu+  Cu52  1  0.24690516  0.00275582  0.49928732  1
  Cu+  Cu53  1  0.25459076  0.50325335  0.50634128  1
  Cu+  Cu54  1  0.74898892  0.00237863  0.50224739  1
  Cu+  Cu55  1  0.75800037  0.50424226  0.49896558  1
  Cu+  Cu56  1  0.25049996  0.24793283  0.49929853  1
  Cu+  Cu57  1  0.25131080  0.74792764  0.50506429  1
  Cu+  Cu58  1  0.75310260  0.24958041  0.49856854  1
  Cu+  Cu59  1  0.75284411  0.74763012  0.50184323  1
  Cu+  Cu60  1  0.33036265  0.41995638  0.83822310  1
  Cu+  Cu61  1  0.33049719  0.91746167  0.83946546  1
  Cu+  Cu62  1  0.82855647  0.41537304  0.83887717  1
  Cu+  Cu63  1  0.83079417  0.92227594  0.84009515  1
  Cu+  Cu64  1  0.07754421  0.16866954  0.83963223  1
  Cu+  Cu65  1  0.08277508  0.66902870  0.84010473  1
  Cu+  Cu66  1  0.58166299  0.17039188  0.83849601  1
  Cu+  Cu67  1  0.57864852  0.66841261  0.83846344  1
  Cu+  Cu68  1  0.08322309  0.41409683  0.83745155  1
  Cu+  Cu69  1  0.08463787  0.91430465  0.84068703  1
  Cu+  Cu70  1  0.58362825  0.41334954  0.83802841  1
  Cu+  Cu71  1  0.58520570  0.91653980  0.83825553  1
  Cu+  Cu72  1  0.16578324  0.08249188  0.67499596  1
  Cu+  Cu73  1  0.16903305  0.58286300  0.67646549  1
  Cu+  Cu74  1  0.66540545  0.08343343  0.67533220  1
  Cu+  Cu75  1  0.67026550  0.58201757  0.67417693  1
  Cu+  Cu76  1  0.41647365  0.33207648  0.67324945  1
  Cu+  Cu77  1  0.41797245  0.83255550  0.67803301  1
  Cu+  Cu78  1  0.91600123  0.33220003  0.67468711  1
  Cu+  Cu79  1  0.91722040  0.83047974  0.67598230  1
  Cu+  Cu80  1  0.41473345  0.08403746  0.67232351  1
  Cu+  Cu81  1  0.41587056  0.58497153  0.68063812  1
  Cu+  Cu82  1  0.91352896  0.08391658  0.67996719  1
  Cu+  Cu83  1  0.91687538  0.58298107  0.67311898  1
  Cu+  Cu84  1  0.00096214  0.25224231  0.01337265  1
  Cu+  Cu85  1  0.00430556  0.75264080  0.01233706  1
  Cu+  Cu86  1  0.50145484  0.25342507  0.00896231  1
  Cu+  Cu87  1  0.49957074  0.74965692  0.01014194  1
  Cu+  Cu88  1  0.24801082  0.49927969  0.00987210  1
  Cu+  Cu89  1  0.24874701  1.00012793  0.00961566  1
  Cu+  Cu90  1  0.74659365  0.49729748  0.00760743  1
  Cu+  Cu91  1  0.74604907  0.99733454  0.01432015  1
  Cu+  Cu92  1  0.24761002  0.25223386  0.00797396  1
  Cu+  Cu93  1  0.24849114  0.75202320  0.00926474  1
  Cu+  Cu94  1  0.74417946  0.25123767  0.00838989  1
  Cu+  Cu95  1  0.74710479  0.75147085  0.00805069  1
  Cu+  Cu96  1  0.33875780  0.41844513  0.34661867  1
  Cu+  Cu97  1  0.33786011  0.91619786  0.34128701  1
  Cu+  Cu98  1  0.84243798  0.42096550  0.34072893  1
  Cu+  Cu99  1  0.83493047  0.91560796  0.33973794  1
  Cu+  Cu100  1  0.08114225  0.16333649  0.34602529  1
  Cu+  Cu101  1  0.08485357  0.66605780  0.34129708  1
  Cu+  Cu102  1  0.58599602  0.16155124  0.34475579  1
  Cu+  Cu103  1  0.58260913  0.66421189  0.34134592  1
  Cu+  Cu104  1  0.08510664  0.41742879  0.34133323  1
  Cu+  Cu105  1  0.08284477  0.91749907  0.34564779  1
  Cu+  Cu106  1  0.58298250  0.41775057  0.34499438  1
  Cu+  Cu107  1  0.58417978  0.91709801  0.34878321  1
  Cu+  Cu108  1  -0.00082372  -0.00101358  0.11296166  1
  Cu+  Cu109  1  -0.00344030  0.49858616  0.11306288  1
  Cu+  Cu110  1  0.49390373  -0.00133247  0.11778914  1
  Cu+  Cu111  1  0.49980617  0.50075266  0.11689310  1
  Cu+  Cu112  1  0.33327406  0.16480800  0.44003686  1
  Cu+  Cu113  1  0.33064484  0.66571976  0.44910394  1
  Cu+  Cu114  1  0.83422351  0.16548690  0.44404749  1
  Cu+  Cu115  1  0.83368565  0.66764880  0.44278114  1
  Cu+  Cu116  1  0.16818882  0.33077540  0.78192397  1
  Cu+  Cu117  1  0.16808245  0.83193302  0.78391315  1
  Cu+  Cu118  1  0.66713455  0.33226999  0.78137802  1
  Cu+  Cu119  1  0.66878230  0.83045302  0.78293127  1
  Te2-  Te120  1  -0.00354556  -0.00266709  0.38955212  1
  Te2-  Te121  1  0.00719447  0.50275710  0.38720535  1
  Te2-  Te122  1  0.49892594  -0.00238875  0.39235581  1
  Te2-  Te123  1  0.50396771  0.50297419  0.39253583  1
  Te2-  Te124  1  0.33205565  0.16661938  0.71474003  1
  Te2-  Te125  1  0.33249423  0.66823966  0.72291723  1
  Te2-  Te126  1  0.82998072  0.16811029  0.71989428  1
  Te2-  Te127  1  0.83480727  0.66508992  0.71754383  1
  Te2-  Te128  1  0.16780966  0.33515575  0.05560588  1
  Te2-  Te129  1  0.17043172  0.83691901  0.05714888  1
  Te2-  Te130  1  0.66488767  0.33469503  0.05496435  1
  Te2-  Te131  1  0.66355969  0.83028332  0.05612031  1
  Te2-  Te132  1  0.49108330  0.24707039  0.88336175  1
  Te2-  Te133  1  0.49081282  0.74986399  0.88429860  1
  Te2-  Te134  1  0.98927820  0.24912608  0.88597889  1
  Te2-  Te135  1  0.99378241  0.74728369  0.88559029  1
  Te2-  Te136  1  0.25222198  0.00674118  0.88398652  1
  Te2-  Te137  1  0.24937534  0.50822617  0.88402710  1
  Te2-  Te138  1  0.74999612  0.00998959  0.88694609  1
  Te2-  Te139  1  0.75092069  0.50599354  0.88206953  1
  Te2-  Te140  1  0.24888238  0.24971449  0.88119490  1
  Te2-  Te141  1  0.25159294  0.74902145  0.88324425  1
  Te2-  Te142  1  0.74949763  0.24716993  0.88260991  1
  Te2-  Te143  1  0.74927344  0.75056431  0.88129194  1
  Te2-  Te144  1  0.32839690  0.41399350  0.22000683  1
  Te2-  Te145  1  0.33325067  0.91447288  0.21556637  1
  Te2-  Te146  1  0.83426565  0.41704030  0.21370581  1
  Te2-  Te147  1  0.82913733  0.90971756  0.21390737  1
  Te2-  Te148  1  0.08774811  0.17283244  0.21834209  1
  Te2-  Te149  1  0.09299253  0.67588819  0.21602188  1
  Te2-  Te150  1  0.58945005  0.16858974  0.21764117  1
  Te2-  Te151  1  0.58532228  0.67048399  0.21593061  1
  Te2-  Te152  1  0.09290320  0.41532043  0.21610533  1
  Te2-  Te153  1  0.09089710  0.91597193  0.21811046  1
  Te2-  Te154  1  0.58604687  0.41343087  0.21790930  1
  Te2-  Te155  1  0.58733070  0.90699600  0.22112683  1
  Te2-  Te156  1  0.15464886  0.07852909  0.54845221  1
  Te2-  Te157  1  0.16361681  0.58006910  0.55008307  1
  Te2-  Te158  1  0.65623776  0.08004155  0.54882549  1
  Te2-  Te159  1  0.66277851  0.58035417  0.54778587  1
  Te2-  Te160  1  0.42080508  0.34269259  0.54690122  1
  Te2-  Te161  1  0.41795967  0.84004467  0.55192339  1
  Te2-  Te162  1  0.92094907  0.33908590  0.54824889  1
  Te2-  Te163  1  0.91820048  0.83975301  0.54976630  1
  Te2-  Te164  1  0.41485150  0.07818176  0.54594299  1
  Te2-  Te165  1  0.42442510  0.58233327  0.55316239  1
  Te2-  Te166  1  0.91469947  0.07611261  0.55183259  1
  Te2-  Te167  1  0.92534681  0.58120931  0.54704156  1
  Te2-  Te168  1  -0.00004853  -0.00032688  0.88456275  1
  Te2-  Te169  1  -0.00191529  0.49906560  0.88216682  1
  Te2-  Te170  1  0.49958078  0.00142198  0.88222547  1
  Te2-  Te171  1  0.49962471  0.49907157  0.88267705  1
  Te2-  Te172  1  0.33325576  0.16691973  0.21685872  1
  Te2-  Te173  1  0.33284364  0.66532926  0.21633148  1
  Te2-  Te174  1  0.83385555  0.16694079  0.21795758  1
  Te2-  Te175  1  0.83359507  0.66626808  0.21588654  1
  Te2-  Te176  1  0.16505943  0.33150039  0.54956964  1
  Te2-  Te177  1  0.16664012  0.83377649  0.54776020  1
  Te2-  Te178  1  0.66468179  0.33245814  0.54625232  1
  Te2-  Te179  1  0.66788153  0.83236475  0.54876660  1
  Te2-  Te180  1  0.32661850  0.41174374  0.71029925  1
  Te2-  Te181  1  0.32819533  0.91459764  0.71203557  1
  Te2-  Te182  1  0.82768758  0.41372639  0.71133248  1
  Te2-  Te183  1  0.82707134  0.91129760  0.71196319  1
  Te2-  Te184  1  0.08599582  0.17238959  0.71147021  1
  Te2-  Te185  1  0.08629066  0.67110498  0.71257242  1
  Te2-  Te186  1  0.58394539  0.17231677  0.71091135  1
  Te2-  Te187  1  0.58936672  0.67205927  0.71059572  1
  Te2-  Te188  1  0.08584702  0.41236572  0.71156315  1
  Te2-  Te189  1  0.08570289  0.91415471  0.71424865  1
  Te2-  Te190  1  0.58519716  0.41305163  0.71148055  1
  Te2-  Te191  1  0.58786162  0.91426124  0.71258635  1
  Te2-  Te192  1  0.16073779  0.08228445  0.04515076  1
  Te2-  Te193  1  0.16005190  0.58156726  0.04431100  1
  Te2-  Te194  1  0.65836841  0.08182331  0.04657481  1
  Te2-  Te195  1  0.66166108  0.58172336  0.04581322  1
  Te2-  Te196  1  0.41760572  0.33950815  0.04666691  1
  Te2-  Te197  1  0.41893043  0.83902991  0.04616562  1
  Te2-  Te198  1  0.91450879  0.33802845  0.04444472  1
  Te2-  Te199  1  0.91804866  0.83993806  0.04250686  1
  Te2-  Te200  1  0.41905853  0.08317283  0.04675704  1
  Te2-  Te201  1  0.41810526  0.57960246  0.04612547  1
  Te2-  Te202  1  0.91928527  0.07952394  0.04319543  1
  Te2-  Te203  1  0.91753144  0.57930345  0.04313849  1
  Te2-  Te204  1  0.49455145  0.24418264  0.37065516  1
  Te2-  Te205  1  0.49291971  0.74369609  0.37831024  1
  Te2-  Te206  1  0.99411339  0.24815078  0.37632061  1
  Te2-  Te207  1  0.99380411  0.74481482  0.37487536  1
  Te2-  Te208  1  0.25634329  0.00578295  0.37280160  1
  Te2-  Te209  1  0.25445635  0.50644551  0.37874309  1
  Te2-  Te210  1  0.75719980  0.00656975  0.37563425  1
  Te2-  Te211  1  0.75678618  0.50792919  0.37165283  1
  Te2-  Te212  1  0.25419464  0.24519377  0.37281300  1
  Te2-  Te213  1  0.25419419  0.74726927  0.37850238  1
  Te2-  Te214  1  0.75889891  0.24835699  0.37192992  1
  Te2-  Te215  1  0.75271783  0.74638250  0.37582195  1
