# generated using pymatgen
data_Ti(CuTe)4
_symmetry_space_group_name_H-M   'P 1'
_cell_length_a   16.87820547
_cell_length_b   16.87596349
_cell_length_c   20.68585681
_cell_angle_alpha   89.93256032
_cell_angle_beta   90.05349820
_cell_angle_gamma   120.02203558
_symmetry_Int_Tables_number   1
_chemical_formula_structural   Ti(CuTe)4
_chemical_formula_sum   'Ti24 Cu96 Te96'
_cell_volume   5101.55039963
_cell_formula_units_Z   24
loop_
 _symmetry_equiv_pos_site_id
 _symmetry_equiv_pos_as_xyz
  1  'x, y, z'
loop_
 _atom_type_symbol
 _atom_type_oxidation_number
  Ti4+  4.0
  Cu+  1.0
  Te2-  -2.0
loop_
 _atom_site_type_symbol
 _atom_site_label
 _atom_site_symmetry_multiplicity
 _atom_site_fract_x
 _atom_site_fract_y
 _atom_site_fract_z
 _atom_site_occupancy
  Ti4+  Ti0  1  -0.00438277  -0.00301242  0.25551065  1
  Ti4+  Ti1  1  0.00185829  0.50381746  0.25463381  1
  Ti4+  Ti2  1  0.50014263  0.00271995  0.25793156  1
  Ti4+  Ti3  1  0.50054083  0.49851208  0.26145151  1
  Ti4+  Ti4  1  0.33440741  0.16836942  0.59075609  1
  Ti4+  Ti5  1  0.33378815  0.66632608  0.58991123  1
  Ti4+  Ti6  1  0.82973197  0.16350967  0.58875407  1
  Ti4+  Ti7  1  0.83358982  0.66521119  0.59588370  1
  Ti4+  Ti8  1  0.16752744  0.33404800  0.92187708  1
  Ti4+  Ti9  1  0.16915351  0.83618811  0.92282238  1
  Ti4+  Ti10  1  0.66564990  0.33496729  0.92704102  1
  Ti4+  Ti11  1  0.66689339  0.83215899  0.92854571  1
  Ti4+  Ti12  1  -0.00020075  -0.00123735  0.75406917  1
  Ti4+  Ti13  1  0.00054377  0.49870521  0.75386478  1
  Ti4+  Ti14  1  0.49949163  0.00032074  0.75927859  1
  Ti4+  Ti15  1  0.50093188  0.49912221  0.75680046  1
  Ti4+  Ti16  1  0.33533026  0.16730709  0.09031281  1
  Ti4+  Ti17  1  0.33274714  0.66735730  0.08911773  1
  Ti4+  Ti18  1  0.83305963  0.16546839  0.08601391  1
  Ti4+  Ti19  1  0.83372936  0.66639726  0.08826854  1
  Ti4+  Ti20  1  0.16748143  0.33325750  0.41905607  1
  Ti4+  Ti21  1  0.16689338  0.83304000  0.42296552  1
  Ti4+  Ti22  1  0.66690503  0.33235900  0.42238976  1
  Ti4+  Ti23  1  0.66528504  0.83298875  0.42193762  1
  Cu+  Cu24  1  0.35196811  0.42948598  0.47524048  1
  Cu+  Cu25  1  0.68361580  0.59461256  0.81398404  1
  Cu+  Cu26  1  0.56946568  0.92244608  0.47452657  1
  Cu+  Cu27  1  0.74539022  0.26157296  0.14259844  1
  Cu+  Cu28  1  0.52037978  0.26556065  0.14442039  1
  Cu+  Cu29  1  0.58163171  0.42699728  0.48183807  1
  Cu+  Cu30  1  0.73658424  0.98371355  0.14377615  1
  Cu+  Cu31  1  0.40539021  0.09966420  0.80816715  1
  Cu+  Cu32  1  0.91387803  0.59356595  0.81204777  1
  Cu+  Cu33  1  0.23913244  0.76651096  0.13727593  1
  Cu+  Cu34  1  0.57232639  0.15265128  0.47966507  1
  Cu+  Cu35  1  0.73731803  0.75186128  0.14559117  1
  Cu+  Cu36  1  0.16248900  0.08033525  0.17130679  1
  Cu+  Cu37  1  0.16523816  0.59023638  0.16807318  1
  Cu+  Cu38  1  0.66277263  0.08386097  0.16921916  1
  Cu+  Cu39  1  0.66269704  0.58001815  0.17312663  1
  Cu+  Cu40  1  0.42045281  0.33523246  0.17548380  1
  Cu+  Cu41  1  0.41291366  0.83540022  0.17048672  1
  Cu+  Cu42  1  0.91745949  0.33827207  0.16762437  1
  Cu+  Cu43  1  0.91404356  0.83529561  0.16831029  1
  Cu+  Cu44  1  0.42442544  0.08889332  0.16983494  1
  Cu+  Cu45  1  0.41449022  0.57834213  0.17334381  1
  Cu+  Cu46  1  0.91254474  0.07389883  0.16647151  1
  Cu+  Cu47  1  0.92156152  0.58256591  0.16799181  1
  Cu+  Cu48  1  0.49380384  0.24810095  0.50292207  1
  Cu+  Cu49  1  0.49476391  0.74968427  0.50217520  1
  Cu+  Cu50  1  0.99537505  0.24660092  0.50140224  1
  Cu+  Cu51  1  0.99909271  0.74730936  0.50877429  1
  Cu+  Cu52  1  0.25171341  0.00160536  0.50420159  1
  Cu+  Cu53  1  0.25394153  0.50246743  0.50224635  1
  Cu+  Cu54  1  0.74563460  0.00148804  0.50160537  1
  Cu+  Cu55  1  0.75313133  0.50514631  0.50805165  1
  Cu+  Cu56  1  0.25435739  0.25302805  0.50108797  1
  Cu+  Cu57  1  0.25229821  0.74824324  0.50316011  1
  Cu+  Cu58  1  0.74777241  0.24150421  0.50156257  1
  Cu+  Cu59  1  0.74884751  0.74602620  0.50734653  1
  Cu+  Cu60  1  0.32862246  0.41441675  0.83738379  1
  Cu+  Cu61  1  0.33254158  0.92146870  0.83857903  1
  Cu+  Cu62  1  0.83283530  0.41746530  0.83798292  1
  Cu+  Cu63  1  0.83131022  0.91503126  0.83971403  1
  Cu+  Cu64  1  0.08582621  0.16921609  0.83560299  1
  Cu+  Cu65  1  0.08764899  0.67057213  0.83708591  1
  Cu+  Cu66  1  0.57855181  0.16902875  0.84228816  1
  Cu+  Cu67  1  0.58704312  0.66938174  0.84089683  1
  Cu+  Cu68  1  0.08818041  0.41447332  0.83479733  1
  Cu+  Cu69  1  0.08766584  0.91643893  0.83433482  1
  Cu+  Cu70  1  0.58711172  0.41708864  0.83868833  1
  Cu+  Cu71  1  0.58558536  0.91512496  0.84333208  1
  Cu+  Cu72  1  0.16783659  0.08331071  0.67240258  1
  Cu+  Cu73  1  0.16993979  0.58249497  0.67139350  1
  Cu+  Cu74  1  0.66665317  0.08180631  0.67705667  1
  Cu+  Cu75  1  0.66934976  0.58189627  0.68439799  1
  Cu+  Cu76  1  0.41727658  0.33290853  0.67675924  1
  Cu+  Cu77  1  0.41721264  0.83030957  0.67640463  1
  Cu+  Cu78  1  0.91451830  0.32753738  0.67134718  1
  Cu+  Cu79  1  0.91490433  0.83063265  0.67703842  1
  Cu+  Cu80  1  0.41597356  0.08574756  0.68036347  1
  Cu+  Cu81  1  0.41666626  0.58478993  0.67504446  1
  Cu+  Cu82  1  0.91251956  0.08116680  0.67146835  1
  Cu+  Cu83  1  0.91407195  0.58236759  0.68207730  1
  Cu+  Cu84  1  0.00506961  0.25155744  0.00366645  1
  Cu+  Cu85  1  0.00254365  0.74952359  0.00714350  1
  Cu+  Cu86  1  0.50259745  0.25256010  0.01533042  1
  Cu+  Cu87  1  0.50140612  0.74772960  0.01040524  1
  Cu+  Cu88  1  0.24889117  0.49664398  0.00543782  1
  Cu+  Cu89  1  0.25219301  1.00077565  0.00808732  1
  Cu+  Cu90  1  0.75111542  0.50058795  0.01165930  1
  Cu+  Cu91  1  0.74948589  0.99492612  0.01447426  1
  Cu+  Cu92  1  0.24941666  0.25310088  0.00606844  1
  Cu+  Cu93  1  0.24983855  0.75432955  0.00865609  1
  Cu+  Cu94  1  0.74729923  0.25057633  0.01236623  1
  Cu+  Cu95  1  0.74808493  0.74946065  0.01620301  1
  Cu+  Cu96  1  0.33787259  0.41647356  0.34662927  1
  Cu+  Cu97  1  0.33304311  0.91776694  0.34058923  1
  Cu+  Cu98  1  0.83803624  0.41976655  0.34059842  1
  Cu+  Cu99  1  0.83348783  0.91442559  0.34233174  1
  Cu+  Cu100  1  0.07934106  0.16178505  0.33691889  1
  Cu+  Cu101  1  0.08343677  0.66658940  0.34045993  1
  Cu+  Cu102  1  0.58574535  0.16615018  0.34919118  1
  Cu+  Cu103  1  0.58387547  0.66558571  0.34438403  1
  Cu+  Cu104  1  0.08252884  0.41945125  0.33534458  1
  Cu+  Cu105  1  0.07889545  0.91543402  0.34009499  1
  Cu+  Cu106  1  0.58407488  0.41727788  0.35098049  1
  Cu+  Cu107  1  0.58188935  0.91821240  0.34593835  1
  Cu+  Cu108  1  0.00518838  0.00071625  0.11117227  1
  Cu+  Cu109  1  0.00472581  0.49837724  0.10936730  1
  Cu+  Cu110  1  0.49831304  -0.00228222  0.11297087  1
  Cu+  Cu111  1  0.49619096  0.49867710  0.11824450  1
  Cu+  Cu112  1  0.32382072  0.16067874  0.44640349  1
  Cu+  Cu113  1  0.32795260  0.66374327  0.44435038  1
  Cu+  Cu114  1  0.83787929  0.16604264  0.44359078  1
  Cu+  Cu115  1  0.83839238  0.67280883  0.45363294  1
  Cu+  Cu116  1  0.16528182  0.32974416  0.77724493  1
  Cu+  Cu117  1  0.16857286  0.83256956  0.77843503  1
  Cu+  Cu118  1  0.66977495  0.32980754  0.78409079  1
  Cu+  Cu119  1  0.66633708  0.83508782  0.78572884  1
  Te2-  Te120  1  -0.00161573  -0.00088335  0.38454994  1
  Te2-  Te121  1  0.00280961  0.50171540  0.38335377  1
  Te2-  Te122  1  0.49647516  -0.00063448  0.38934585  1
  Te2-  Te123  1  0.50299389  0.50239888  0.39312366  1
  Te2-  Te124  1  0.33104625  0.16833578  0.72106230  1
  Te2-  Te125  1  0.33285664  0.66520227  0.71867845  1
  Te2-  Te126  1  0.83223707  0.16429731  0.71783080  1
  Te2-  Te127  1  0.83517308  0.66840154  0.72791893  1
  Te2-  Te128  1  0.16694991  0.33373507  0.05170803  1
  Te2-  Te129  1  0.16638812  0.83670071  0.05316143  1
  Te2-  Te130  1  0.66880937  0.33687306  0.05904170  1
  Te2-  Te131  1  0.66311310  0.83007706  0.06058708  1
  Te2-  Te132  1  0.49256252  0.25216820  0.88771594  1
  Te2-  Te133  1  0.49660254  0.74624111  0.88491293  1
  Te2-  Te134  1  0.99569177  0.24718558  0.87824958  1
  Te2-  Te135  1  0.99590093  0.75042228  0.88149527  1
  Te2-  Te136  1  0.25248536  0.01042548  0.88243904  1
  Te2-  Te137  1  0.25426286  0.50708431  0.88023572  1
  Te2-  Te138  1  0.75329003  0.00296192  0.88687604  1
  Te2-  Te139  1  0.75615932  0.51039091  0.88567932  1
  Te2-  Te140  1  0.25324151  0.24729435  0.88058041  1
  Te2-  Te141  1  0.25559296  0.75192903  0.88148079  1
  Te2-  Te142  1  0.74918525  0.24922402  0.88411517  1
  Te2-  Te143  1  0.75711719  0.74888369  0.88812070  1
  Te2-  Te144  1  0.32961434  0.41196849  0.21926531  1
  Te2-  Te145  1  0.32857895  0.92071157  0.21481593  1
  Te2-  Te146  1  0.82666454  0.41730840  0.21491873  1
  Te2-  Te147  1  0.81787503  0.90770205  0.21659002  1
  Te2-  Te148  1  0.08003281  0.16750603  0.21115629  1
  Te2-  Te149  1  0.08635962  0.67918593  0.21472611  1
  Te2-  Te150  1  0.59099032  0.17890222  0.22013939  1
  Te2-  Te151  1  0.58221832  0.67077498  0.21848652  1
  Te2-  Te152  1  0.08667725  0.41928018  0.20922942  1
  Te2-  Te153  1  0.08136177  0.91161721  0.21382815  1
  Te2-  Te154  1  0.59077775  0.41542798  0.22264165  1
  Te2-  Te155  1  0.58119228  0.91246245  0.21764347  1
  Te2-  Te156  1  0.16505454  0.08432794  0.54602288  1
  Te2-  Te157  1  0.16364712  0.57996451  0.54537024  1
  Te2-  Te158  1  0.65153407  0.07479301  0.55085253  1
  Te2-  Te159  1  0.65906891  0.58054557  0.55630241  1
  Te2-  Te160  1  0.42239142  0.34448345  0.55067036  1
  Te2-  Te161  1  0.41799650  0.84097797  0.55014447  1
  Te2-  Te162  1  0.91535094  0.33450130  0.54550088  1
  Te2-  Te163  1  0.91692267  0.83470248  0.55104219  1
  Te2-  Te164  1  0.41774681  0.07868038  0.55227885  1
  Te2-  Te165  1  0.42430416  0.58335488  0.54905806  1
  Te2-  Te166  1  0.91438315  0.07790129  0.54505273  1
  Te2-  Te167  1  0.91894157  0.57988468  0.55448505  1
  Te2-  Te168  1  0.00255530  0.00062480  0.88020381  1
  Te2-  Te169  1  0.00378463  0.49968725  0.88093414  1
  Te2-  Te170  1  0.50056085  -0.00033887  0.88623002  1
  Te2-  Te171  1  0.49797463  0.49844686  0.88366795  1
  Te2-  Te172  1  0.33078043  0.16418821  0.21735258  1
  Te2-  Te173  1  0.33229506  0.66600907  0.21620760  1
  Te2-  Te174  1  0.83510579  0.16734459  0.21377128  1
  Te2-  Te175  1  0.83462892  0.66584245  0.21511368  1
  Te2-  Te176  1  0.16428483  0.33195278  0.54619571  1
  Te2-  Te177  1  0.16880258  0.83318991  0.54914184  1
  Te2-  Te178  1  0.66673377  0.33139326  0.55003376  1
  Te2-  Te179  1  0.66465750  0.83241098  0.54885489  1
  Te2-  Te180  1  0.32909179  0.41488655  0.71108284  1
  Te2-  Te181  1  0.32861506  0.91267768  0.71119846  1
  Te2-  Te182  1  0.82670034  0.40900293  0.71058828  1
  Te2-  Te183  1  0.82621946  0.91239847  0.71262764  1
  Te2-  Te184  1  0.08356599  0.16949279  0.70792848  1
  Te2-  Te185  1  0.08884020  0.67143505  0.70904798  1
  Te2-  Te186  1  0.58754419  0.17249972  0.71384578  1
  Te2-  Te187  1  0.58619670  0.67277849  0.71323184  1
  Te2-  Te188  1  0.08499439  0.41233270  0.70802224  1
  Te2-  Te189  1  0.08687438  0.91324388  0.70861674  1
  Te2-  Te190  1  0.58616829  0.40926653  0.71290088  1
  Te2-  Te191  1  0.58528497  0.91355185  0.71609798  1
  Te2-  Te192  1  0.16485302  0.08336756  0.04407526  1
  Te2-  Te193  1  0.16278839  0.58139462  0.04029370  1
  Te2-  Te194  1  0.65810664  0.07766817  0.04146454  1
  Te2-  Te195  1  0.65785956  0.57695628  0.04624256  1
  Te2-  Te196  1  0.41799120  0.34052067  0.04705971  1
  Te2-  Te197  1  0.42169562  0.83967272  0.04300252  1
  Te2-  Te198  1  0.92102953  0.33782928  0.03984433  1
  Te2-  Te199  1  0.92198736  0.83935047  0.04208494  1
  Te2-  Te200  1  0.42125055  0.07971044  0.04356267  1
  Te2-  Te201  1  0.41705590  0.57842168  0.04673281  1
  Te2-  Te202  1  0.92288160  0.08183398  0.04070210  1
  Te2-  Te203  1  0.92166314  0.58060657  0.04328225  1
  Te2-  Te204  1  0.49094076  0.24405873  0.37644192  1
  Te2-  Te205  1  0.49187067  0.74497544  0.37574052  1
  Te2-  Te206  1  0.99669680  0.24919781  0.37353806  1
  Te2-  Te207  1  0.99466109  0.74679616  0.38063611  1
  Te2-  Te208  1  0.24966708  0.00411922  0.37675636  1
  Te2-  Te209  1  0.25243009  0.50574692  0.37371223  1
  Te2-  Te210  1  0.75416539  0.00580864  0.37506991  1
  Te2-  Te211  1  0.75690875  0.50727108  0.38085782  1
  Te2-  Te212  1  0.24974279  0.24265129  0.37384918  1
  Te2-  Te213  1  0.25334657  0.74825467  0.37626523  1
  Te2-  Te214  1  0.75794212  0.24995017  0.37578008  1
  Te2-  Te215  1  0.75278184  0.74595467  0.38087238  1
