# generated using pymatgen
data_Ti(CuTe)4
_symmetry_space_group_name_H-M   'P 1'
_cell_length_a   16.85561500
_cell_length_b   16.85455647
_cell_length_c   20.66209215
_cell_angle_alpha   89.98860850
_cell_angle_beta   90.01992407
_cell_angle_gamma   120.00094098
_symmetry_Int_Tables_number   1
_chemical_formula_structural   Ti(CuTe)4
_chemical_formula_sum   'Ti24 Cu96 Te96'
_cell_volume   5083.49865175
_cell_formula_units_Z   24
loop_
 _symmetry_equiv_pos_site_id
 _symmetry_equiv_pos_as_xyz
  1  'x, y, z'
loop_
 _atom_type_symbol
 _atom_type_oxidation_number
  Ti4+  4.0
  Cu+  1.0
  Te2-  -2.0
loop_
 _atom_site_type_symbol
 _atom_site_label
 _atom_site_symmetry_multiplicity
 _atom_site_fract_x
 _atom_site_fract_y
 _atom_site_fract_z
 _atom_site_occupancy
  Ti4+  Ti0  1  -0.00008545  0.00109113  0.25947748  1
  Ti4+  Ti1  1  -0.00054453  0.50113107  0.25767747  1
  Ti4+  Ti2  1  0.49752941  -0.00223949  0.25738699  1
  Ti4+  Ti3  1  0.50017604  0.50133659  0.25281985  1
  Ti4+  Ti4  1  0.33099421  0.16446204  0.59129518  1
  Ti4+  Ti5  1  0.33467878  0.66853129  0.59071874  1
  Ti4+  Ti6  1  0.83305535  0.16412111  0.59073817  1
  Ti4+  Ti7  1  0.83379155  0.66223603  0.59249539  1
  Ti4+  Ti8  1  0.16284322  0.33272401  0.92467522  1
  Ti4+  Ti9  1  0.16987055  0.83716852  0.92625863  1
  Ti4+  Ti10  1  0.66579335  0.33487645  0.92395665  1
  Ti4+  Ti11  1  0.67037107  0.83461011  0.92533885  1
  Ti4+  Ti12  1  -0.00184619  -0.00027741  0.75565327  1
  Ti4+  Ti13  1  0.00148941  0.49869083  0.75757619  1
  Ti4+  Ti14  1  0.49754041  -0.00038004  0.75762218  1
  Ti4+  Ti15  1  0.50393943  0.50069721  0.75644637  1
  Ti4+  Ti16  1  0.33381870  0.16799486  0.08834399  1
  Ti4+  Ti17  1  0.33373295  0.66771253  0.08665038  1
  Ti4+  Ti18  1  0.83366328  0.16667838  0.09051494  1
  Ti4+  Ti19  1  0.83320493  0.66615387  0.08864430  1
  Ti4+  Ti20  1  0.16562269  0.33033940  0.42216318  1
  Ti4+  Ti21  1  0.16660129  0.83158145  0.42073282  1
  Ti4+  Ti22  1  0.66814883  0.33484807  0.42277287  1
  Ti4+  Ti23  1  0.66480540  0.83379667  0.42400345  1
  Cu+  Cu24  1  0.90239657  0.09566820  0.80622354  1
  Cu+  Cu25  1  0.51376805  0.76218709  0.14217442  1
  Cu+  Cu26  1  0.06844854  0.13672817  0.47543925  1
  Cu+  Cu27  1  0.40148303  0.09783087  0.80665476  1
  Cu+  Cu28  1  0.85129323  0.42138196  0.47848835  1
  Cu+  Cu29  1  0.23787041  0.48032955  0.13951086  1
  Cu+  Cu30  1  0.07838710  0.64702157  0.47502796  1
  Cu+  Cu31  1  0.57081338  0.93217354  0.47314420  1
  Cu+  Cu32  1  0.69725369  0.59993115  0.80922369  1
  Cu+  Cu33  1  0.74658188  0.76195707  0.14302625  1
  Cu+  Cu34  1  0.23732086  0.75999990  0.14066862  1
  Cu+  Cu35  1  0.74000944  0.47597548  0.14008701  1
  Cu+  Cu36  1  0.16604902  0.08554087  0.17357069  1
  Cu+  Cu37  1  0.16317279  0.58313126  0.16837251  1
  Cu+  Cu38  1  0.66582977  0.08117131  0.17206721  1
  Cu+  Cu39  1  0.66486030  0.58058847  0.16575138  1
  Cu+  Cu40  1  0.41731617  0.33770746  0.16691470  1
  Cu+  Cu41  1  0.41672789  0.83996829  0.16779931  1
  Cu+  Cu42  1  0.91352244  0.33516357  0.17158974  1
  Cu+  Cu43  1  0.91863733  0.83943169  0.17197136  1
  Cu+  Cu44  1  0.41746263  0.08275252  0.17073028  1
  Cu+  Cu45  1  0.41814790  0.58152544  0.16401546  1
  Cu+  Cu46  1  0.92001649  0.08402251  0.17348386  1
  Cu+  Cu47  1  0.91445399  0.57797957  0.17057715  1
  Cu+  Cu48  1  0.49642301  0.24700610  0.50548055  1
  Cu+  Cu49  1  0.49806172  0.75476528  0.50427375  1
  Cu+  Cu50  1  0.99819842  0.24192830  0.50366464  1
  Cu+  Cu51  1  0.99785500  0.74327136  0.50282568  1
  Cu+  Cu52  1  0.25381558  0.00352902  0.50395444  1
  Cu+  Cu53  1  0.25336609  0.50257906  0.50336607  1
  Cu+  Cu54  1  0.74656728  0.00084175  0.50501732  1
  Cu+  Cu55  1  0.75503015  0.50283111  0.50468605  1
  Cu+  Cu56  1  0.24486142  0.24193549  0.50413563  1
  Cu+  Cu57  1  0.25201251  0.74555131  0.50168822  1
  Cu+  Cu58  1  0.75255802  0.24849075  0.50413322  1
  Cu+  Cu59  1  0.74812542  0.74394526  0.50721921  1
  Cu+  Cu60  1  0.33094278  0.41700884  0.83911934  1
  Cu+  Cu61  1  0.33114828  0.92199043  0.83998630  1
  Cu+  Cu62  1  0.83176056  0.41580792  0.83903703  1
  Cu+  Cu63  1  0.83104648  0.91986840  0.83671825  1
  Cu+  Cu64  1  0.07730680  0.16921664  0.83692136  1
  Cu+  Cu65  1  0.08762958  0.66933315  0.84198880  1
  Cu+  Cu66  1  0.57763206  0.16744509  0.83846602  1
  Cu+  Cu67  1  0.59170084  0.66896832  0.83973696  1
  Cu+  Cu68  1  0.08508593  0.41458090  0.83909183  1
  Cu+  Cu69  1  0.08610421  0.91642210  0.83858607  1
  Cu+  Cu70  1  0.59210196  0.42163135  0.83632646  1
  Cu+  Cu71  1  0.58467568  0.91420295  0.83966664  1
  Cu+  Cu72  1  0.16563299  0.08220845  0.67548677  1
  Cu+  Cu73  1  0.17028626  0.58399183  0.67564045  1
  Cu+  Cu74  1  0.66573246  0.08083236  0.67710819  1
  Cu+  Cu75  1  0.67266921  0.58350135  0.67987263  1
  Cu+  Cu76  1  0.41534725  0.33161482  0.67375828  1
  Cu+  Cu77  1  0.41539387  0.83179090  0.67581374  1
  Cu+  Cu78  1  0.91867771  0.33116673  0.67588584  1
  Cu+  Cu79  1  0.91660574  0.82967998  0.67459847  1
  Cu+  Cu80  1  0.41171158  0.08402708  0.67854311  1
  Cu+  Cu81  1  0.41801562  0.58665091  0.67323971  1
  Cu+  Cu82  1  0.91250972  0.08102011  0.67851694  1
  Cu+  Cu83  1  0.91809890  0.58103137  0.67890552  1
  Cu+  Cu84  1  -0.00076504  0.25075564  0.00965565  1
  Cu+  Cu85  1  0.00383954  0.75121864  0.00899728  1
  Cu+  Cu86  1  0.50070436  0.25189926  0.00699354  1
  Cu+  Cu87  1  0.50555579  0.75143605  0.01194312  1
  Cu+  Cu88  1  0.24532517  0.49520459  0.01093853  1
  Cu+  Cu89  1  0.25085254  0.99996026  0.01047057  1
  Cu+  Cu90  1  0.75041244  0.49704018  0.01247396  1
  Cu+  Cu91  1  0.75295028  1.00060715  0.00951714  1
  Cu+  Cu92  1  0.24639963  0.25077924  0.00570851  1
  Cu+  Cu93  1  0.25126284  0.75604796  0.01183717  1
  Cu+  Cu94  1  0.74738871  0.24986641  0.00710872  1
  Cu+  Cu95  1  0.75211274  0.75293272  0.01319083  1
  Cu+  Cu96  1  0.33505997  0.41823417  0.33834465  1
  Cu+  Cu97  1  0.33334134  0.91589333  0.34108583  1
  Cu+  Cu98  1  0.83468016  0.42019204  0.34898523  1
  Cu+  Cu99  1  0.83286223  0.91586067  0.34383032  1
  Cu+  Cu100  1  0.08096345  0.16151880  0.34661195  1
  Cu+  Cu101  1  0.08191549  0.66464915  0.34508820  1
  Cu+  Cu102  1  0.58206957  0.16539680  0.34053514  1
  Cu+  Cu103  1  0.58329067  0.66621043  0.33922220  1
  Cu+  Cu104  1  0.08340795  0.41705149  0.34098158  1
  Cu+  Cu105  1  0.08420931  0.91923353  0.34203501  1
  Cu+  Cu106  1  0.58235864  0.41812019  0.33896007  1
  Cu+  Cu107  1  0.57988109  0.91792270  0.34603981  1
  Cu+  Cu108  1  0.00452546  0.00433844  0.11679338  1
  Cu+  Cu109  1  0.00030731  0.49773344  0.11372248  1
  Cu+  Cu110  1  0.50509549  0.00921058  0.11413497  1
  Cu+  Cu111  1  0.50041558  0.49869513  0.10670296  1
  Cu+  Cu112  1  0.33640343  0.17120278  0.44774237  1
  Cu+  Cu113  1  0.33586158  0.66313722  0.44504277  1
  Cu+  Cu114  1  0.83410815  0.16742223  0.44624347  1
  Cu+  Cu115  1  0.83300695  0.67063393  0.44842621  1
  Cu+  Cu116  1  0.17103740  0.33321749  0.78137855  1
  Cu+  Cu117  1  0.16468304  0.82961607  0.78407653  1
  Cu+  Cu118  1  0.66831729  0.32957391  0.78067546  1
  Cu+  Cu119  1  0.66338246  0.83064732  0.78196739  1
  Te2-  Te120  1  -0.00326814  -0.00539932  0.39010329  1
  Te2-  Te121  1  0.00188892  0.49824513  0.38981443  1
  Te2-  Te122  1  0.49684668  0.00237818  0.38795066  1
  Te2-  Te123  1  0.49983014  0.50078582  0.38141530  1
  Te2-  Te124  1  0.32924939  0.16876172  0.72191461  1
  Te2-  Te125  1  0.33498489  0.66706783  0.71992935  1
  Te2-  Te126  1  0.83058218  0.16666358  0.72092365  1
  Te2-  Te127  1  0.83953673  0.66719084  0.72292291  1
  Te2-  Te128  1  0.16318390  0.32970123  0.05565322  1
  Te2-  Te129  1  0.16620817  0.83664370  0.05729267  1
  Te2-  Te130  1  0.66414430  0.32984442  0.05457603  1
  Te2-  Te131  1  0.67060651  0.83762081  0.05785238  1
  Te2-  Te132  1  0.49292718  0.25317122  0.88117598  1
  Te2-  Te133  1  0.50018225  0.74656470  0.88457952  1
  Te2-  Te134  1  0.98823235  0.24805918  0.88390382  1
  Te2-  Te135  1  0.99849760  0.74961074  0.88356820  1
  Te2-  Te136  1  0.25170551  0.01163697  0.88486021  1
  Te2-  Te137  1  0.25161505  0.50511595  0.88446283  1
  Te2-  Te138  1  0.75157597  0.00802775  0.88411139  1
  Te2-  Te139  1  0.75924800  0.50984956  0.88543400  1
  Te2-  Te140  1  0.24639957  0.24661197  0.87958397  1
  Te2-  Te141  1  0.25728176  0.75345221  0.88496110  1
  Te2-  Te142  1  0.74718642  0.24647387  0.88115885  1
  Te2-  Te143  1  0.76233821  0.75346484  0.88532005  1
  Te2-  Te144  1  0.32632063  0.41368080  0.21279585  1
  Te2-  Te145  1  0.32393648  0.91441658  0.21529860  1
  Te2-  Te146  1  0.82490529  0.41172255  0.22103484  1
  Te2-  Te147  1  0.82590983  0.91614185  0.21811417  1
  Te2-  Te148  1  0.08667262  0.17321994  0.21971131  1
  Te2-  Te149  1  0.08305364  0.67305386  0.21676294  1
  Te2-  Te150  1  0.58473260  0.16840273  0.21510807  1
  Te2-  Te151  1  0.58820334  0.67650238  0.21257665  1
  Te2-  Te152  1  0.08331452  0.41328305  0.21483758  1
  Te2-  Te153  1  0.08543923  0.91575998  0.21610779  1
  Te2-  Te154  1  0.58457678  0.41197963  0.21307499  1
  Te2-  Te155  1  0.58647916  0.91317108  0.21833447  1
  Te2-  Te156  1  0.15673682  0.07266767  0.54993800  1
  Te2-  Te157  1  0.16072693  0.57636398  0.54963250  1
  Te2-  Te158  1  0.65919125  0.08253883  0.55092569  1
  Te2-  Te159  1  0.66228093  0.57626598  0.55260709  1
  Te2-  Te160  1  0.41427524  0.33462142  0.54743632  1
  Te2-  Te161  1  0.41710262  0.84287330  0.54945830  1
  Te2-  Te162  1  0.92427524  0.33654414  0.54935442  1
  Te2-  Te163  1  0.91873769  0.83208537  0.54839940  1
  Te2-  Te164  1  0.41897207  0.07992465  0.55186864  1
  Te2-  Te165  1  0.42169190  0.58517722  0.54708769  1
  Te2-  Te166  1  0.91467875  0.07250029  0.55111679  1
  Te2-  Te167  1  0.92393024  0.57555784  0.55199775  1
  Te2-  Te168  1  0.00053358  0.00053610  0.88271029  1
  Te2-  Te169  1  0.00073483  0.49961824  0.88424534  1
  Te2-  Te170  1  0.50089605  -0.00048380  0.88466663  1
  Te2-  Te171  1  0.50017386  0.49907381  0.88350554  1
  Te2-  Te172  1  0.33589577  0.16988984  0.21500003  1
  Te2-  Te173  1  0.33396499  0.66700196  0.21493000  1
  Te2-  Te174  1  0.83358661  0.16694770  0.21736956  1
  Te2-  Te175  1  0.83280982  0.66777951  0.21639913  1
  Te2-  Te176  1  0.16793171  0.33368094  0.54925808  1
  Te2-  Te177  1  0.16777128  0.83233262  0.54769047  1
  Te2-  Te178  1  0.66608883  0.33215335  0.54996286  1
  Te2-  Te179  1  0.66623824  0.83110810  0.55105583  1
  Te2-  Te180  1  0.33199290  0.41750516  0.71174255  1
  Te2-  Te181  1  0.32518615  0.91169519  0.71243522  1
  Te2-  Te182  1  0.82896019  0.41111834  0.71224665  1
  Te2-  Te183  1  0.82513410  0.90830810  0.70989292  1
  Te2-  Te184  1  0.08558633  0.17253540  0.70952296  1
  Te2-  Te185  1  0.08829034  0.67095383  0.71406494  1
  Te2-  Te186  1  0.58503881  0.17104112  0.71052077  1
  Te2-  Te187  1  0.58773979  0.67245778  0.71123942  1
  Te2-  Te188  1  0.08837882  0.41367957  0.71236346  1
  Te2-  Te189  1  0.08533971  0.91330320  0.71239631  1
  Te2-  Te190  1  0.58564839  0.41029110  0.70977984  1
  Te2-  Te191  1  0.58394851  0.91269070  0.71329048  1
  Te2-  Te192  1  0.16157692  0.08197552  0.04553607  1
  Te2-  Te193  1  0.15964518  0.58213616  0.04094304  1
  Te2-  Te194  1  0.66237725  0.08043685  0.04456591  1
  Te2-  Te195  1  0.65999191  0.57986683  0.03889694  1
  Te2-  Te196  1  0.41690824  0.33861869  0.04045930  1
  Te2-  Te197  1  0.42429772  0.84297188  0.04134556  1
  Te2-  Te198  1  0.91652223  0.33835818  0.04489536  1
  Te2-  Te199  1  0.92393626  0.84074204  0.04498421  1
  Te2-  Te200  1  0.42103728  0.08251183  0.04378300  1
  Te2-  Te201  1  0.41879272  0.57874449  0.03780990  1
  Te2-  Te202  1  0.92141506  0.08146513  0.04669300  1
  Te2-  Te203  1  0.92250475  0.58169339  0.04400213  1
  Te2-  Te204  1  0.49660376  0.24912248  0.37792348  1
  Te2-  Te205  1  0.49347062  0.74522252  0.37626791  1
  Te2-  Te206  1  0.99298918  0.24710085  0.37621460  1
  Te2-  Te207  1  0.99290030  0.74820475  0.37572138  1
  Te2-  Te208  1  0.25347251  0.00543736  0.37788811  1
  Te2-  Te209  1  0.25204462  0.50305844  0.37674545  1
  Te2-  Te210  1  0.75302780  0.00636967  0.37772576  1
  Te2-  Te211  1  0.75062789  0.50852572  0.37794708  1
  Te2-  Te212  1  0.25498729  0.24821712  0.37608047  1
  Te2-  Te213  1  0.25498278  0.74603295  0.37476661  1
  Te2-  Te214  1  0.75167408  0.24564424  0.37651121  1
  Te2-  Te215  1  0.75031831  0.74681488  0.37957315  1
