# generated using pymatgen
data_Ti(CuTe)4
_symmetry_space_group_name_H-M   'P 1'
_cell_length_a   16.88770910
_cell_length_b   16.88928925
_cell_length_c   20.71167811
_cell_angle_alpha   90.08375266
_cell_angle_beta   89.93251776
_cell_angle_gamma   119.97825701
_symmetry_Int_Tables_number   1
_chemical_formula_structural   Ti(CuTe)4
_chemical_formula_sum   'Ti24 Cu96 Te96'
_cell_volume   5117.08488868
_cell_formula_units_Z   24
loop_
 _symmetry_equiv_pos_site_id
 _symmetry_equiv_pos_as_xyz
  1  'x, y, z'
loop_
 _atom_type_symbol
 _atom_type_oxidation_number
  Ti4+  4.0
  Cu+  1.0
  Te2-  -2.0
loop_
 _atom_site_type_symbol
 _atom_site_label
 _atom_site_symmetry_multiplicity
 _atom_site_fract_x
 _atom_site_fract_y
 _atom_site_fract_z
 _atom_site_occupancy
  Ti4+  Ti0  1  -0.00213470  -0.00382725  0.26227698  1
  Ti4+  Ti1  1  0.00026313  0.49953409  0.25608665  1
  Ti4+  Ti2  1  0.50153498  -0.00185465  0.25597863  1
  Ti4+  Ti3  1  0.49859688  0.49651893  0.25588818  1
  Ti4+  Ti4  1  0.32775441  0.16516635  0.59307870  1
  Ti4+  Ti5  1  0.33240033  0.66835177  0.58886755  1
  Ti4+  Ti6  1  0.83460717  0.17121131  0.59031409  1
  Ti4+  Ti7  1  0.83326959  0.66607207  0.59406901  1
  Ti4+  Ti8  1  0.16880379  0.33281232  0.92421168  1
  Ti4+  Ti9  1  0.16684107  0.83395958  0.92627619  1
  Ti4+  Ti10  1  0.66811027  0.33312208  0.92346779  1
  Ti4+  Ti11  1  0.67144748  0.83643529  0.92206865  1
  Ti4+  Ti12  1  -0.00111471  0.00081042  0.75504088  1
  Ti4+  Ti13  1  -0.00033250  0.50190477  0.75714799  1
  Ti4+  Ti14  1  0.50216437  0.00267404  0.75442162  1
  Ti4+  Ti15  1  0.49899342  0.50003134  0.75372804  1
  Ti4+  Ti16  1  0.33484001  0.16869289  0.09026017  1
  Ti4+  Ti17  1  0.33391586  0.66613465  0.08535700  1
  Ti4+  Ti18  1  0.83240781  0.16568635  0.08948989  1
  Ti4+  Ti19  1  0.83497358  0.66741002  0.09015475  1
  Ti4+  Ti20  1  0.16502597  0.33223889  0.42113912  1
  Ti4+  Ti21  1  0.16528264  0.83298992  0.42207023  1
  Ti4+  Ti22  1  0.66696327  0.33360494  0.42401837  1
  Ti4+  Ti23  1  0.66448792  0.83166557  0.42235590  1
  Cu+  Cu24  1  0.73958495  0.97442172  0.14034729  1
  Cu+  Cu25  1  0.73892108  0.47680999  0.14031636  1
  Cu+  Cu26  1  0.17956133  0.08748420  0.81352268  1
  Cu+  Cu27  1  0.69348752  0.09706270  0.80520794  1
  Cu+  Cu28  1  0.07108553  0.15116381  0.47932884  1
  Cu+  Cu29  1  0.68276953  0.58855224  0.80899737  1
  Cu+  Cu30  1  0.23934951  0.47689461  0.13963781  1
  Cu+  Cu31  1  0.07011284  0.92056605  0.48009580  1
  Cu+  Cu32  1  0.41126336  0.31648578  0.80875497  1
  Cu+  Cu33  1  0.02245608  0.76159668  0.14388040  1
  Cu+  Cu34  1  0.85948260  0.43174326  0.47274304  1
  Cu+  Cu35  1  0.91458190  0.82129289  0.81341253  1
  Cu+  Cu36  1  0.16578412  0.08176015  0.17548270  1
  Cu+  Cu37  1  0.16455193  0.57829204  0.16728656  1
  Cu+  Cu38  1  0.66391173  0.07566915  0.16966982  1
  Cu+  Cu39  1  0.66417789  0.57649690  0.17073203  1
  Cu+  Cu40  1  0.42024581  0.33770791  0.16970473  1
  Cu+  Cu41  1  0.42040077  0.83745486  0.16747718  1
  Cu+  Cu42  1  0.91604267  0.33668230  0.16984551  1
  Cu+  Cu43  1  0.92380582  0.83713127  0.17332387  1
  Cu+  Cu44  1  0.42019463  0.08307111  0.17214949  1
  Cu+  Cu45  1  0.41414566  0.57768861  0.16787558  1
  Cu+  Cu46  1  0.91234146  0.07763874  0.17472491  1
  Cu+  Cu47  1  0.91739431  0.58187098  0.17034289  1
  Cu+  Cu48  1  0.49487707  0.24943656  0.50718619  1
  Cu+  Cu49  1  0.49415323  0.74797235  0.50330593  1
  Cu+  Cu50  1  0.99390028  0.24773105  0.50295608  1
  Cu+  Cu51  1  0.99370017  0.74882324  0.50584713  1
  Cu+  Cu52  1  0.24410598  0.00243321  0.50403838  1
  Cu+  Cu53  1  0.24979763  0.50534674  0.50317279  1
  Cu+  Cu54  1  0.74687471  0.00229343  0.50428887  1
  Cu+  Cu55  1  0.75495422  0.50103941  0.50703833  1
  Cu+  Cu56  1  0.24531807  0.24455237  0.50498175  1
  Cu+  Cu57  1  0.25127145  0.74821659  0.50356737  1
  Cu+  Cu58  1  0.75604756  0.25644665  0.50507011  1
  Cu+  Cu59  1  0.74792555  0.74707660  0.50704912  1
  Cu+  Cu60  1  0.33006966  0.41110798  0.83573410  1
  Cu+  Cu61  1  0.33325282  0.91806866  0.83806551  1
  Cu+  Cu62  1  0.83082119  0.41642104  0.83768631  1
  Cu+  Cu63  1  0.82914799  0.91339397  0.83507917  1
  Cu+  Cu64  1  0.08958066  0.17237983  0.83642884  1
  Cu+  Cu65  1  0.08327592  0.66999095  0.83981083  1
  Cu+  Cu66  1  0.58994794  0.16975064  0.83490075  1
  Cu+  Cu67  1  0.58991526  0.67067825  0.83398466  1
  Cu+  Cu68  1  0.08558522  0.41728600  0.83997883  1
  Cu+  Cu69  1  0.08676096  0.91325224  0.83880213  1
  Cu+  Cu70  1  0.58564009  0.41503464  0.83639256  1
  Cu+  Cu71  1  0.59347048  0.92447471  0.83526065  1
  Cu+  Cu72  1  0.16521714  0.08402214  0.68285465  1
  Cu+  Cu73  1  0.17051059  0.58821077  0.67373569  1
  Cu+  Cu74  1  0.67123692  0.08930055  0.67638308  1
  Cu+  Cu75  1  0.66837144  0.58438293  0.67927307  1
  Cu+  Cu76  1  0.41030157  0.33002279  0.67946823  1
  Cu+  Cu77  1  0.41562407  0.83246627  0.67160304  1
  Cu+  Cu78  1  0.91708962  0.33634657  0.67481233  1
  Cu+  Cu79  1  0.91283673  0.83149435  0.68303811  1
  Cu+  Cu80  1  0.41277061  0.08401370  0.67495635  1
  Cu+  Cu81  1  0.41268569  0.58676564  0.67163612  1
  Cu+  Cu82  1  0.91451463  0.08645257  0.67502006  1
  Cu+  Cu83  1  0.91665900  0.58569617  0.67748552  1
  Cu+  Cu84  1  0.00360255  0.25205486  0.00848217  1
  Cu+  Cu85  1  0.00429849  0.75450286  0.01503401  1
  Cu+  Cu86  1  0.50193214  0.25245722  0.00747048  1
  Cu+  Cu87  1  0.50419363  0.75374280  0.00315592  1
  Cu+  Cu88  1  0.25010977  0.49654394  0.01011890  1
  Cu+  Cu89  1  0.24786527  0.99893560  0.01079087  1
  Cu+  Cu90  1  0.74849089  0.49750372  0.01206438  1
  Cu+  Cu91  1  0.75088023  0.99869683  0.01149505  1
  Cu+  Cu92  1  0.25150574  0.25116839  0.01070898  1
  Cu+  Cu93  1  0.24930903  0.75155434  0.00805237  1
  Cu+  Cu94  1  0.74995197  0.25038504  0.00852020  1
  Cu+  Cu95  1  0.75308732  0.75326735  0.00923587  1
  Cu+  Cu96  1  0.33404612  0.41640019  0.34061071  1
  Cu+  Cu97  1  0.33766894  0.91877137  0.33995066  1
  Cu+  Cu98  1  0.83605958  0.41941351  0.34525845  1
  Cu+  Cu99  1  0.83234006  0.91408383  0.34431464  1
  Cu+  Cu100  1  0.08016304  0.16115438  0.34906971  1
  Cu+  Cu101  1  0.08226706  0.66557946  0.34034921  1
  Cu+  Cu102  1  0.58132478  0.16182775  0.34008609  1
  Cu+  Cu103  1  0.57933772  0.66014143  0.33902848  1
  Cu+  Cu104  1  0.08267324  0.41630029  0.34042176  1
  Cu+  Cu105  1  0.08122764  0.91638127  0.34999250  1
  Cu+  Cu106  1  0.58170936  0.41577599  0.34201466  1
  Cu+  Cu107  1  0.58183942  0.91535523  0.34012720  1
  Cu+  Cu108  1  0.00378712  0.00639149  0.12033070  1
  Cu+  Cu109  1  0.00064638  0.49934755  0.11186684  1
  Cu+  Cu110  1  0.49915942  0.00166048  0.11283242  1
  Cu+  Cu111  1  0.50356123  0.50589493  0.11213802  1
  Cu+  Cu112  1  0.33613401  0.16751939  0.44951513  1
  Cu+  Cu113  1  0.33178291  0.66664373  0.44484060  1
  Cu+  Cu114  1  0.82777546  0.16429278  0.44735820  1
  Cu+  Cu115  1  0.82771489  0.66432808  0.45142585  1
  Cu+  Cu116  1  0.16416916  0.33760103  0.78081220  1
  Cu+  Cu117  1  0.17276640  0.83151024  0.78297452  1
  Cu+  Cu118  1  0.66615795  0.33314099  0.77900387  1
  Cu+  Cu119  1  0.65955702  0.83143130  0.77709705  1
  Te2-  Te120  1  -0.00521150  -0.00416718  0.39399149  1
  Te2-  Te121  1  0.00372082  0.50181097  0.38625502  1
  Te2-  Te122  1  0.50105872  -0.00157236  0.38508098  1
  Te2-  Te123  1  0.49806073  0.49701666  0.38470589  1
  Te2-  Te124  1  0.33149916  0.16464492  0.72495193  1
  Te2-  Te125  1  0.33402003  0.67019320  0.71870361  1
  Te2-  Te126  1  0.83719953  0.17258228  0.72069155  1
  Te2-  Te127  1  0.83358076  0.66536917  0.72587087  1
  Te2-  Te128  1  0.16686442  0.33102742  0.05452175  1
  Te2-  Te129  1  0.17065691  0.83546970  0.05687000  1
  Te2-  Te130  1  0.66571397  0.33053264  0.05369181  1
  Te2-  Te131  1  0.66636271  0.83136712  0.05213863  1
  Te2-  Te132  1  0.49620441  0.24444522  0.88141965  1
  Te2-  Te133  1  0.50288245  0.75328292  0.87667029  1
  Te2-  Te134  1  0.99827839  0.24780234  0.88234603  1
  Te2-  Te135  1  0.99292185  0.74515108  0.88767470  1
  Te2-  Te136  1  0.25541670  0.00692958  0.88497278  1
  Te2-  Te137  1  0.25479840  0.50288785  0.88264755  1
  Te2-  Te138  1  0.76100810  0.00982056  0.88412750  1
  Te2-  Te139  1  0.75497971  0.50655575  0.88464619  1
  Te2-  Te140  1  0.25764087  0.24417798  0.88501628  1
  Te2-  Te141  1  0.25247276  0.74952203  0.88185325  1
  Te2-  Te142  1  0.75787251  0.24944793  0.88244320  1
  Te2-  Te143  1  0.75775976  0.74563126  0.88345107  1
  Te2-  Te144  1  0.32455699  0.40858157  0.21486719  1
  Te2-  Te145  1  0.33014933  0.91388073  0.21410238  1
  Te2-  Te146  1  0.82659045  0.41255342  0.21782123  1
  Te2-  Te147  1  0.82598700  0.90718422  0.21832905  1
  Te2-  Te148  1  0.08157940  0.16598404  0.22049896  1
  Te2-  Te149  1  0.08922768  0.67157228  0.21441726  1
  Te2-  Te150  1  0.58877442  0.16946643  0.21429824  1
  Te2-  Te151  1  0.58358453  0.66645477  0.21253878  1
  Te2-  Te152  1  0.08343954  0.40967042  0.21454014  1
  Te2-  Te153  1  0.09047802  0.91481602  0.22220213  1
  Te2-  Te154  1  0.58564984  0.40793805  0.21642165  1
  Te2-  Te155  1  0.58580423  0.90694506  0.21470403  1
  Te2-  Te156  1  0.15090375  0.07662832  0.55461584  1
  Te2-  Te157  1  0.15922105  0.58161517  0.54847876  1
  Te2-  Te158  1  0.66417880  0.08722748  0.54896066  1
  Te2-  Te159  1  0.66360824  0.57919583  0.55156392  1
  Te2-  Te160  1  0.41214003  0.33506356  0.55175287  1
  Te2-  Te161  1  0.41894204  0.84071956  0.54649744  1
  Te2-  Te162  1  0.92508907  0.34482401  0.54943899  1
  Te2-  Te163  1  0.91478281  0.83884080  0.55447605  1
  Te2-  Te164  1  0.41177268  0.08007589  0.54903817  1
  Te2-  Te165  1  0.41715434  0.58035176  0.54669980  1
  Te2-  Te166  1  0.91451390  0.07777978  0.54953711  1
  Te2-  Te167  1  0.92375427  0.58329395  0.55176440  1
  Te2-  Te168  1  0.00022193  0.00108755  0.88250616  1
  Te2-  Te169  1  0.00036125  0.50076503  0.88311948  1
  Te2-  Te170  1  0.50222718  0.00152662  0.88138073  1
  Te2-  Te171  1  0.50076194  0.50154855  0.88139510  1
  Te2-  Te172  1  0.33611786  0.16821448  0.21613321  1
  Te2-  Te173  1  0.33408906  0.66721947  0.21206364  1
  Te2-  Te174  1  0.83217895  0.16787896  0.21620215  1
  Te2-  Te175  1  0.83269455  0.66657787  0.21732505  1
  Te2-  Te176  1  0.16433008  0.33534632  0.54780310  1
  Te2-  Te177  1  0.16517798  0.83214275  0.54880641  1
  Te2-  Te178  1  0.66328553  0.33224327  0.55075826  1
  Te2-  Te179  1  0.66290538  0.83289241  0.54820740  1
  Te2-  Te180  1  0.32547743  0.41746087  0.70966077  1
  Te2-  Te181  1  0.32954112  0.91507860  0.71140035  1
  Te2-  Te182  1  0.82782953  0.41596884  0.71193111  1
  Te2-  Te183  1  0.82468857  0.91666302  0.70981590  1
  Te2-  Te184  1  0.08393056  0.17524501  0.71042748  1
  Te2-  Te185  1  0.08649988  0.67331409  0.71318860  1
  Te2-  Te186  1  0.58385311  0.17445010  0.70815814  1
  Te2-  Te187  1  0.58299729  0.67221271  0.70736711  1
  Te2-  Te188  1  0.08671581  0.41856183  0.71233120  1
  Te2-  Te189  1  0.08575626  0.91172426  0.71127152  1
  Te2-  Te190  1  0.58394777  0.41127737  0.70790539  1
  Te2-  Te191  1  0.58630446  0.91621741  0.70726450  1
  Te2-  Te192  1  0.16173241  0.08173431  0.04845584  1
  Te2-  Te193  1  0.16087064  0.58046348  0.04062931  1
  Te2-  Te194  1  0.66043890  0.08042644  0.04276551  1
  Te2-  Te195  1  0.66266009  0.58325606  0.04342697  1
  Te2-  Te196  1  0.42152067  0.34077928  0.04444940  1
  Te2-  Te197  1  0.42025551  0.83879095  0.04160742  1
  Te2-  Te198  1  0.91939588  0.33777417  0.04419515  1
  Te2-  Te199  1  0.92098610  0.84262937  0.04723840  1
  Te2-  Te200  1  0.41932069  0.08228501  0.04497338  1
  Te2-  Te201  1  0.42328620  0.58342870  0.03984895  1
  Te2-  Te202  1  0.92216377  0.08223060  0.04672675  1
  Te2-  Te203  1  0.92091577  0.58069506  0.04301813  1
  Te2-  Te204  1  0.49599426  0.24615760  0.37971700  1
  Te2-  Te205  1  0.49423410  0.74529653  0.37662401  1
  Te2-  Te206  1  0.99147553  0.24655825  0.37640640  1
  Te2-  Te207  1  0.99107951  0.74327628  0.37884111  1
  Te2-  Te208  1  0.25487830  0.00603064  0.37755635  1
  Te2-  Te209  1  0.25194760  0.50423466  0.37674897  1
  Te2-  Te210  1  0.75088457  0.00346975  0.37791527  1
  Te2-  Te211  1  0.75121269  0.50586946  0.37942318  1
  Te2-  Te212  1  0.25342217  0.24652887  0.37821729  1
  Te2-  Te213  1  0.25230352  0.74858964  0.37700376  1
  Te2-  Te214  1  0.75126014  0.24671100  0.37761665  1
  Te2-  Te215  1  0.74879316  0.74361617  0.37980857  1
