# generated using pymatgen
data_Ti(CuTe)4
_symmetry_space_group_name_H-M   'P 1'
_cell_length_a   16.86094799
_cell_length_b   16.86172972
_cell_length_c   20.67140782
_cell_angle_alpha   90.04783284
_cell_angle_beta   89.97192029
_cell_angle_gamma   119.98907719
_symmetry_Int_Tables_number   1
_chemical_formula_structural   Ti(CuTe)4
_chemical_formula_sum   'Ti24 Cu96 Te96'
_cell_volume   5090.17175660
_cell_formula_units_Z   24
loop_
 _symmetry_equiv_pos_site_id
 _symmetry_equiv_pos_as_xyz
  1  'x, y, z'
loop_
 _atom_type_symbol
 _atom_type_oxidation_number
  Ti4+  4.0
  Cu+  1.0
  Te2-  -2.0
loop_
 _atom_site_type_symbol
 _atom_site_label
 _atom_site_symmetry_multiplicity
 _atom_site_fract_x
 _atom_site_fract_y
 _atom_site_fract_z
 _atom_site_occupancy
  Ti4+  Ti0  1  -0.00227166  -0.00333199  0.25779925  1
  Ti4+  Ti1  1  -0.00190217  0.49759006  0.25846428  1
  Ti4+  Ti2  1  0.49856833  -0.00252128  0.25589851  1
  Ti4+  Ti3  1  0.50096833  0.49937750  0.26284544  1
  Ti4+  Ti4  1  0.33099713  0.16533351  0.58878056  1
  Ti4+  Ti5  1  0.33196602  0.66894601  0.58742809  1
  Ti4+  Ti6  1  0.83641890  0.16852450  0.59186359  1
  Ti4+  Ti7  1  0.83158181  0.66788808  0.59215183  1
  Ti4+  Ti8  1  0.17006040  0.33386107  0.92452466  1
  Ti4+  Ti9  1  0.16788847  0.83380713  0.92597007  1
  Ti4+  Ti10  1  0.66811795  0.33374194  0.92185598  1
  Ti4+  Ti11  1  0.66830700  0.83313342  0.92568202  1
  Ti4+  Ti12  1  0.00018523  0.00190207  0.75531429  1
  Ti4+  Ti13  1  -0.00036119  0.50054306  0.75356322  1
  Ti4+  Ti14  1  0.50084205  0.00207882  0.75608825  1
  Ti4+  Ti15  1  0.49996404  0.50015969  0.75587513  1
  Ti4+  Ti16  1  0.33361792  0.16611520  0.09171934  1
  Ti4+  Ti17  1  0.33429816  0.66710064  0.08931794  1
  Ti4+  Ti18  1  0.83372455  0.16644865  0.09027040  1
  Ti4+  Ti19  1  0.83348018  0.66710966  0.08976469  1
  Ti4+  Ti20  1  0.16316352  0.33204470  0.41985516  1
  Ti4+  Ti21  1  0.16918218  0.83477694  0.42203518  1
  Ti4+  Ti22  1  0.66543273  0.33399101  0.42211192  1
  Ti4+  Ti23  1  0.66574968  0.83199946  0.42212930  1
  Cu+  Cu24  1  0.57596940  0.42369945  0.48170476  1
  Cu+  Cu25  1  0.40688221  0.30957124  0.80642891  1
  Cu+  Cu26  1  0.57654181  0.65448435  0.48076594  1
  Cu+  Cu27  1  0.73791763  0.97411014  0.14119591  1
  Cu+  Cu28  1  0.06902494  0.42707076  0.47300379  1
  Cu+  Cu29  1  0.68674372  0.08836384  0.81039604  1
  Cu+  Cu30  1  0.91416643  0.31728715  0.80982877  1
  Cu+  Cu31  1  0.36211519  0.93238303  0.47085593  1
  Cu+  Cu32  1  0.07036439  0.14382224  0.47065588  1
  Cu+  Cu33  1  0.23490940  0.97260947  0.14081156  1
  Cu+  Cu34  1  0.69042921  0.59489807  0.80887851  1
  Cu+  Cu35  1  0.33623465  0.41870871  0.48213951  1
  Cu+  Cu36  1  0.16476254  0.07736422  0.17372969  1
  Cu+  Cu37  1  0.16376684  0.57912888  0.17249254  1
  Cu+  Cu38  1  0.66451923  0.07694002  0.17079706  1
  Cu+  Cu39  1  0.66448993  0.58071810  0.17549748  1
  Cu+  Cu40  1  0.42112556  0.33817274  0.17645669  1
  Cu+  Cu41  1  0.41664705  0.83664846  0.16937587  1
  Cu+  Cu42  1  0.91934149  0.33790747  0.17302311  1
  Cu+  Cu43  1  0.91707927  0.83612230  0.17064534  1
  Cu+  Cu44  1  0.41175583  0.07647695  0.17162178  1
  Cu+  Cu45  1  0.41834364  0.58275716  0.17582263  1
  Cu+  Cu46  1  0.91279314  0.07727764  0.17308228  1
  Cu+  Cu47  1  0.91540056  0.57976468  0.17228581  1
  Cu+  Cu48  1  0.49623798  0.24917161  0.50120664  1
  Cu+  Cu49  1  0.49618860  0.74935208  0.50089386  1
  Cu+  Cu50  1  0.99563499  0.24836845  0.50065931  1
  Cu+  Cu51  1  0.99783606  0.75113078  0.50573323  1
  Cu+  Cu52  1  0.25569553  0.00224430  0.50167524  1
  Cu+  Cu53  1  0.24572875  0.50542918  0.49835605  1
  Cu+  Cu54  1  0.75057005  0.00331347  0.50510137  1
  Cu+  Cu55  1  0.74986939  0.50433792  0.50436713  1
  Cu+  Cu56  1  0.24650576  0.24195064  0.49912690  1
  Cu+  Cu57  1  0.25736321  0.75631642  0.50116731  1
  Cu+  Cu58  1  0.75173522  0.24963675  0.50520030  1
  Cu+  Cu59  1  0.75093333  0.74837275  0.50462650  1
  Cu+  Cu60  1  0.33076720  0.41051875  0.83663999  1
  Cu+  Cu61  1  0.32845515  0.91525208  0.83980892  1
  Cu+  Cu62  1  0.83063481  0.41217336  0.83294951  1
  Cu+  Cu63  1  0.83103008  0.91561647  0.83784914  1
  Cu+  Cu64  1  0.08953761  0.17256098  0.83631772  1
  Cu+  Cu65  1  0.08690221  0.67163902  0.83787595  1
  Cu+  Cu66  1  0.58992809  0.17030575  0.83472624  1
  Cu+  Cu67  1  0.59060488  0.67075161  0.83812721  1
  Cu+  Cu68  1  0.08722618  0.41642312  0.83692155  1
  Cu+  Cu69  1  0.08573136  0.91779985  0.83975768  1
  Cu+  Cu70  1  0.58556677  0.41564747  0.83574178  1
  Cu+  Cu71  1  0.58593211  0.91622234  0.84023266  1
  Cu+  Cu72  1  0.16586861  0.08339962  0.67247622  1
  Cu+  Cu73  1  0.16740545  0.58738201  0.67092659  1
  Cu+  Cu74  1  0.67082854  0.08700220  0.68062556  1
  Cu+  Cu75  1  0.66775263  0.58667275  0.68194356  1
  Cu+  Cu76  1  0.41199578  0.33070943  0.67900038  1
  Cu+  Cu77  1  0.41501155  0.83444686  0.67440507  1
  Cu+  Cu78  1  0.91714629  0.33303049  0.67960955  1
  Cu+  Cu79  1  0.91394112  0.83317261  0.67571976  1
  Cu+  Cu80  1  0.41429759  0.08323786  0.67465694  1
  Cu+  Cu81  1  0.41411399  0.58542137  0.67451060  1
  Cu+  Cu82  1  0.91880688  0.08528508  0.67471906  1
  Cu+  Cu83  1  0.91536016  0.58671245  0.67440230  1
  Cu+  Cu84  1  0.00454541  0.25424619  0.00945804  1
  Cu+  Cu85  1  0.00216270  0.75198998  0.00848666  1
  Cu+  Cu86  1  0.50202970  0.25315141  0.00736037  1
  Cu+  Cu87  1  0.50232928  0.75087561  0.00896752  1
  Cu+  Cu88  1  0.25194194  0.49794388  0.00700217  1
  Cu+  Cu89  1  0.24754924  0.99547365  0.01276232  1
  Cu+  Cu90  1  0.74851436  0.49950887  0.00682044  1
  Cu+  Cu91  1  0.74943174  0.99751649  0.01385223  1
  Cu+  Cu92  1  0.25365890  0.25400152  0.01057865  1
  Cu+  Cu93  1  0.24986809  0.75045068  0.00830079  1
  Cu+  Cu94  1  0.75269980  0.25365109  0.00959662  1
  Cu+  Cu95  1  0.74954867  0.74923619  0.01065013  1
  Cu+  Cu96  1  0.33393338  0.41664555  0.34880947  1
  Cu+  Cu97  1  0.33750837  0.91927572  0.34427887  1
  Cu+  Cu98  1  0.83367180  0.41595091  0.34107777  1
  Cu+  Cu99  1  0.83302109  0.91691255  0.34297029  1
  Cu+  Cu100  1  0.07734354  0.15950556  0.34234336  1
  Cu+  Cu101  1  0.08116113  0.66275815  0.34024772  1
  Cu+  Cu102  1  0.58268497  0.16449783  0.33762666  1
  Cu+  Cu103  1  0.58236667  0.66321903  0.34892659  1
  Cu+  Cu104  1  0.07749418  0.41713303  0.34468118  1
  Cu+  Cu105  1  0.08246698  0.91681887  0.34197045  1
  Cu+  Cu106  1  0.58192286  0.41777607  0.34944316  1
  Cu+  Cu107  1  0.58379548  0.91726466  0.34006446  1
  Cu+  Cu108  1  0.00250309  0.00418837  0.11522996  1
  Cu+  Cu109  1  0.00262930  0.50582841  0.11595426  1
  Cu+  Cu110  1  0.50271900  0.00526419  0.11264356  1
  Cu+  Cu111  1  0.50121192  0.50318597  0.12119465  1
  Cu+  Cu112  1  0.33309894  0.16438463  0.44250502  1
  Cu+  Cu113  1  0.33248276  0.66838121  0.44144654  1
  Cu+  Cu114  1  0.82883687  0.16459532  0.44782090  1
  Cu+  Cu115  1  0.83885165  0.66863656  0.44781449  1
  Cu+  Cu116  1  0.16693304  0.33579744  0.77836791  1
  Cu+  Cu117  1  0.16372912  0.83422367  0.78282536  1
  Cu+  Cu118  1  0.66592508  0.33440865  0.77537684  1
  Cu+  Cu119  1  0.66442981  0.83326219  0.78150409  1
  Te2-  Te120  1  -0.00320206  -0.00555320  0.38861028  1
  Te2-  Te121  1  -0.00408174  0.50107748  0.38952210  1
  Te2-  Te122  1  0.50490938  0.00211801  0.38639356  1
  Te2-  Te123  1  0.49798757  0.49863016  0.39720769  1
  Te2-  Te124  1  0.32972164  0.16319958  0.71893342  1
  Te2-  Te125  1  0.33170092  0.66856713  0.71610520  1
  Te2-  Te126  1  0.83735306  0.16694002  0.72418142  1
  Te2-  Te127  1  0.83543170  0.66959921  0.72245253  1
  Te2-  Te128  1  0.16907069  0.33447007  0.05388715  1
  Te2-  Te129  1  0.16495335  0.82857383  0.05655554  1
  Te2-  Te130  1  0.66741441  0.33443016  0.05030111  1
  Te2-  Te131  1  0.66588986  0.82992813  0.05609652  1
  Te2-  Te132  1  0.49542232  0.24461028  0.88080489  1
  Te2-  Te133  1  0.49865311  0.74732544  0.88251789  1
  Te2-  Te134  1  0.99661632  0.24597942  0.88325976  1
  Te2-  Te135  1  0.99677834  0.74887594  0.88246688  1
  Te2-  Te136  1  0.25295049  0.00617370  0.88570995  1
  Te2-  Te137  1  0.25547361  0.50396272  0.88058609  1
  Te2-  Te138  1  0.75699048  0.00703595  0.88634175  1
  Te2-  Te139  1  0.75707427  0.50631645  0.88038937  1
  Te2-  Te140  1  0.25497237  0.24366031  0.88432535  1
  Te2-  Te141  1  0.25352244  0.74754860  0.88265028  1
  Te2-  Te142  1  0.75754322  0.24582866  0.88329165  1
  Te2-  Te143  1  0.75872951  0.74916102  0.88461621  1
  Te2-  Te144  1  0.33045374  0.41483436  0.22105726  1
  Te2-  Te145  1  0.32333950  0.90807039  0.21758912  1
  Te2-  Te146  1  0.82617604  0.41212991  0.21571788  1
  Te2-  Te147  1  0.82323836  0.90753628  0.21743450  1
  Te2-  Te148  1  0.08281465  0.16631674  0.21539361  1
  Te2-  Te149  1  0.08397671  0.66840547  0.21448277  1
  Te2-  Te150  1  0.58328493  0.16636137  0.21159909  1
  Te2-  Te151  1  0.58596548  0.66946648  0.22123311  1
  Te2-  Te152  1  0.08529840  0.41188439  0.21814237  1
  Te2-  Te153  1  0.08258180  0.90712971  0.21674850  1
  Te2-  Te154  1  0.58719502  0.41448782  0.22221526  1
  Te2-  Te155  1  0.58300471  0.90762451  0.21489065  1
  Te2-  Te156  1  0.15844839  0.07443449  0.54648943  1
  Te2-  Te157  1  0.15909549  0.58675982  0.54522026  1
  Te2-  Te158  1  0.66529546  0.08360583  0.55307020  1
  Te2-  Te159  1  0.65533909  0.57923815  0.55432787  1
  Te2-  Te160  1  0.41634141  0.34004632  0.55084667  1
  Te2-  Te161  1  0.42493126  0.84339294  0.54843411  1
  Te2-  Te162  1  0.91992824  0.34116021  0.55106582  1
  Te2-  Te163  1  0.91739273  0.83896588  0.54969468  1
  Te2-  Te164  1  0.42346331  0.08388737  0.54871505  1
  Te2-  Te165  1  0.41684955  0.57834650  0.54863847  1
  Te2-  Te166  1  0.91953718  0.07939092  0.54861944  1
  Te2-  Te167  1  0.91700544  0.58242811  0.54854475  1
  Te2-  Te168  1  0.00142462  0.00298324  0.88201017  1
  Te2-  Te169  1  0.00091761  0.50109898  0.88070210  1
  Te2-  Te170  1  0.49940964  0.00089010  0.88317430  1
  Te2-  Te171  1  0.50117026  0.50053540  0.88326266  1
  Te2-  Te172  1  0.33434166  0.16743197  0.21880022  1
  Te2-  Te173  1  0.33269037  0.66750091  0.21625697  1
  Te2-  Te174  1  0.83281829  0.16742038  0.21727004  1
  Te2-  Te175  1  0.83437778  0.66693565  0.21675714  1
  Te2-  Te176  1  0.16649920  0.33429582  0.54840609  1
  Te2-  Te177  1  0.16694971  0.83435913  0.54925957  1
  Te2-  Te178  1  0.66565636  0.33382079  0.54971535  1
  Te2-  Te179  1  0.66540714  0.83386555  0.54971001  1
  Te2-  Te180  1  0.32646426  0.41651883  0.70966212  1
  Te2-  Te181  1  0.32758431  0.91525137  0.71293397  1
  Te2-  Te182  1  0.82654207  0.41600614  0.70663097  1
  Te2-  Te183  1  0.82686561  0.91567157  0.71155606  1
  Te2-  Te184  1  0.08830655  0.17449210  0.70982250  1
  Te2-  Te185  1  0.08508074  0.67332578  0.71064759  1
  Te2-  Te186  1  0.58471969  0.17415108  0.70815522  1
  Te2-  Te187  1  0.58278133  0.67409350  0.71092973  1
  Te2-  Te188  1  0.09016132  0.41818651  0.70843798  1
  Te2-  Te189  1  0.08468645  0.91449553  0.71163778  1
  Te2-  Te190  1  0.58498968  0.41244702  0.70739247  1
  Te2-  Te191  1  0.58518716  0.91382371  0.71158871  1
  Te2-  Te192  1  0.16212580  0.08283732  0.04568304  1
  Te2-  Te193  1  0.16304839  0.57971977  0.04469124  1
  Te2-  Te194  1  0.66185793  0.08303845  0.04321417  1
  Te2-  Te195  1  0.66057631  0.57971371  0.04761804  1
  Te2-  Te196  1  0.42164699  0.33964222  0.04945254  1
  Te2-  Te197  1  0.42016896  0.83942243  0.04368801  1
  Te2-  Te198  1  0.92134494  0.33992505  0.04676342  1
  Te2-  Te199  1  0.92014631  0.83990182  0.04502008  1
  Te2-  Te200  1  0.42085612  0.08273910  0.04372639  1
  Te2-  Te201  1  0.42087213  0.58108867  0.04756799  1
  Te2-  Te202  1  0.92271958  0.08339189  0.04498789  1
  Te2-  Te203  1  0.91859813  0.58112323  0.04454123  1
  Te2-  Te204  1  0.49285678  0.24381937  0.37453480  1
  Te2-  Te205  1  0.49294036  0.74770137  0.37455568  1
  Te2-  Te206  1  0.98917667  0.24396206  0.37375159  1
  Te2-  Te207  1  0.99659299  0.74748736  0.37830279  1
  Te2-  Te208  1  0.25251592  0.00682617  0.37457769  1
  Te2-  Te209  1  0.25090682  0.50697269  0.37201265  1
  Te2-  Te210  1  0.75179724  0.00486859  0.37838657  1
  Te2-  Te211  1  0.75514037  0.50742634  0.37735578  1
  Te2-  Te212  1  0.24997369  0.24342886  0.37261334  1
  Te2-  Te213  1  0.25169233  0.74598909  0.37414234  1
  Te2-  Te214  1  0.75069842  0.24692512  0.37830483  1
  Te2-  Te215  1  0.75510114  0.74694370  0.37793522  1
