# generated using pymatgen
data_Ti(CuTe)4
_symmetry_space_group_name_H-M   'P 1'
_cell_length_a   16.85742409
_cell_length_b   16.85854176
_cell_length_c   20.65847462
_cell_angle_alpha   90.00127517
_cell_angle_beta   89.99950354
_cell_angle_gamma   119.99971248
_symmetry_Int_Tables_number   1
_chemical_formula_structural   Ti(CuTe)4
_chemical_formula_sum   'Ti24 Cu96 Te96'
_cell_volume   5084.41931264
_cell_formula_units_Z   24
loop_
 _symmetry_equiv_pos_site_id
 _symmetry_equiv_pos_as_xyz
  1  'x, y, z'
loop_
 _atom_type_symbol
 _atom_type_oxidation_number
  Ti4+  4.0
  Cu+  1.0
  Te2-  -2.0
loop_
 _atom_site_type_symbol
 _atom_site_label
 _atom_site_symmetry_multiplicity
 _atom_site_fract_x
 _atom_site_fract_y
 _atom_site_fract_z
 _atom_site_occupancy
  Ti4+  Ti0  1  -0.00057640  0.00093502  0.25563924  1
  Ti4+  Ti1  1  -0.00435633  0.49924018  0.26125012  1
  Ti4+  Ti2  1  0.49996472  -0.00085699  0.25619954  1
  Ti4+  Ti3  1  0.49798375  0.49912289  0.25980294  1
  Ti4+  Ti4  1  0.33587054  0.16949726  0.59044564  1
  Ti4+  Ti5  1  0.33156075  0.66576403  0.58815401  1
  Ti4+  Ti6  1  0.83006742  0.16618985  0.58889208  1
  Ti4+  Ti7  1  0.83191651  0.66584154  0.59325278  1
  Ti4+  Ti8  1  0.16979618  0.33206840  0.92576892  1
  Ti4+  Ti9  1  0.16981841  0.83560351  0.92299479  1
  Ti4+  Ti10  1  0.66961499  0.33447145  0.92981343  1
  Ti4+  Ti11  1  0.66818426  0.83171281  0.92153823  1
  Ti4+  Ti12  1  0.00221510  0.00133264  0.75249987  1
  Ti4+  Ti13  1  -0.00194685  0.49913231  0.75793275  1
  Ti4+  Ti14  1  0.49979359  0.00005384  0.75563414  1
  Ti4+  Ti15  1  0.50107974  0.50085863  0.75655953  1
  Ti4+  Ti16  1  0.33356508  0.16851878  0.08931367  1
  Ti4+  Ti17  1  0.33373354  0.66631815  0.09016579  1
  Ti4+  Ti18  1  0.83331716  0.16689193  0.08774851  1
  Ti4+  Ti19  1  0.83428603  0.66514108  0.09123718  1
  Ti4+  Ti20  1  0.16716794  0.33495284  0.41961887  1
  Ti4+  Ti21  1  0.16566563  0.83306076  0.42106630  1
  Ti4+  Ti22  1  0.66375233  0.33050736  0.42009669  1
  Ti4+  Ti23  1  0.66651111  0.83283715  0.42154449  1
  Cu+  Cu24  1  0.73610635  0.48034134  0.14766412  1
  Cu+  Cu25  1  0.83483154  0.41763752  0.48502528  1
  Cu+  Cu26  1  0.23836007  0.26501142  0.14271170  1
  Cu+  Cu27  1  0.07704542  0.42308248  0.47794053  1
  Cu+  Cu28  1  0.73840892  0.25588994  0.14598845  1
  Cu+  Cu29  1  0.68641468  0.58738874  0.81183499  1
  Cu+  Cu30  1  0.34863587  0.42728263  0.47742032  1
  Cu+  Cu31  1  0.19428125  0.09631110  0.80669299  1
  Cu+  Cu32  1  0.91686383  0.82081132  0.81028225  1
  Cu+  Cu33  1  0.58046225  0.42693769  0.47741777  1
  Cu+  Cu34  1  0.56995025  0.14322525  0.47209064  1
  Cu+  Cu35  1  0.07381318  0.65361976  0.47784790  1
  Cu+  Cu36  1  0.16430412  0.08792415  0.16928973  1
  Cu+  Cu37  1  0.16386352  0.58421629  0.17552530  1
  Cu+  Cu38  1  0.66256396  0.08204513  0.16937080  1
  Cu+  Cu39  1  0.66436973  0.58030212  0.17447125  1
  Cu+  Cu40  1  0.41299512  0.33634417  0.17261975  1
  Cu+  Cu41  1  0.41737249  0.83497846  0.17058775  1
  Cu+  Cu42  1  0.91316750  0.33528852  0.17228089  1
  Cu+  Cu43  1  0.91846480  0.83677517  0.17097437  1
  Cu+  Cu44  1  0.41821501  0.08146596  0.17049168  1
  Cu+  Cu45  1  0.41563676  0.58100423  0.17298425  1
  Cu+  Cu46  1  0.91641083  0.07844957  0.16811819  1
  Cu+  Cu47  1  0.91350020  0.57785534  0.17382634  1
  Cu+  Cu48  1  0.49494356  0.24712353  0.49912565  1
  Cu+  Cu49  1  0.49726485  0.74900960  0.50177159  1
  Cu+  Cu50  1  0.99589807  0.24942854  0.50060094  1
  Cu+  Cu51  1  0.99821459  0.75051177  0.50500547  1
  Cu+  Cu52  1  0.25068202  0.00385111  0.50350901  1
  Cu+  Cu53  1  0.25358273  0.50759285  0.49886238  1
  Cu+  Cu54  1  0.74922025  0.00147511  0.50254058  1
  Cu+  Cu55  1  0.75281491  0.51068147  0.50172851  1
  Cu+  Cu56  1  0.25526128  0.25192001  0.50202497  1
  Cu+  Cu57  1  0.24903786  0.74784533  0.50045293  1
  Cu+  Cu58  1  0.74810458  0.24094243  0.49852240  1
  Cu+  Cu59  1  0.74972074  0.74863996  0.50628045  1
  Cu+  Cu60  1  0.33042626  0.41342443  0.83865120  1
  Cu+  Cu61  1  0.33147141  0.91420632  0.83633069  1
  Cu+  Cu62  1  0.83112177  0.41462287  0.84318366  1
  Cu+  Cu63  1  0.82890193  0.91077188  0.83235169  1
  Cu+  Cu64  1  0.09330172  0.17104750  0.83590027  1
  Cu+  Cu65  1  0.08675380  0.66888953  0.83796717  1
  Cu+  Cu66  1  0.58786234  0.16769653  0.84291202  1
  Cu+  Cu67  1  0.59001409  0.66975623  0.83492822  1
  Cu+  Cu68  1  0.08473188  0.41618531  0.84058955  1
  Cu+  Cu69  1  0.09173650  0.91875457  0.83415967  1
  Cu+  Cu70  1  0.58833134  0.41738168  0.84279958  1
  Cu+  Cu71  1  0.58419463  0.91376128  0.83640836  1
  Cu+  Cu72  1  0.17279443  0.08960585  0.67731104  1
  Cu+  Cu73  1  0.16524952  0.58219294  0.67527179  1
  Cu+  Cu74  1  0.66676611  0.08526381  0.67375425  1
  Cu+  Cu75  1  0.66825505  0.58414983  0.68209231  1
  Cu+  Cu76  1  0.41794341  0.33481821  0.67725267  1
  Cu+  Cu77  1  0.41317928  0.83006223  0.67108069  1
  Cu+  Cu78  1  0.91237407  0.33200629  0.67633465  1
  Cu+  Cu79  1  0.91423934  0.83052193  0.68016215  1
  Cu+  Cu80  1  0.41846556  0.08587374  0.67522593  1
  Cu+  Cu81  1  0.41150121  0.58120961  0.67419334  1
  Cu+  Cu82  1  0.91634854  0.08775188  0.67208972  1
  Cu+  Cu83  1  0.91345261  0.58010268  0.67917349  1
  Cu+  Cu84  1  0.00414749  0.24999627  0.00819345  1
  Cu+  Cu85  1  0.00472635  0.75238263  0.00829530  1
  Cu+  Cu86  1  0.50275285  0.25225135  0.01176688  1
  Cu+  Cu87  1  0.50340131  0.74919755  0.00504646  1
  Cu+  Cu88  1  0.25014380  0.49915767  0.00907611  1
  Cu+  Cu89  1  0.25148092  0.99897291  0.00753911  1
  Cu+  Cu90  1  0.75239929  0.49825480  0.01844541  1
  Cu+  Cu91  1  0.74920601  0.99610458  0.00368420  1
  Cu+  Cu92  1  0.25041787  0.25300170  0.01368130  1
  Cu+  Cu93  1  0.24929046  0.75056614  0.00687500  1
  Cu+  Cu94  1  0.75137077  0.25348251  0.01662779  1
  Cu+  Cu95  1  0.74981097  0.74967668  0.00892810  1
  Cu+  Cu96  1  0.33553164  0.41619694  0.34830135  1
  Cu+  Cu97  1  0.33479486  0.91896213  0.33857620  1
  Cu+  Cu98  1  0.83094471  0.41647150  0.35215418  1
  Cu+  Cu99  1  0.83624042  0.91644709  0.33901712  1
  Cu+  Cu100  1  0.08163617  0.16310647  0.33940869  1
  Cu+  Cu101  1  0.07851045  0.66375692  0.34770330  1
  Cu+  Cu102  1  0.58092379  0.16102138  0.34432448  1
  Cu+  Cu103  1  0.58402627  0.66457163  0.34133893  1
  Cu+  Cu104  1  0.07966310  0.41770400  0.34675252  1
  Cu+  Cu105  1  0.08288998  0.92038904  0.33760504  1
  Cu+  Cu106  1  0.57873807  0.41525963  0.34788051  1
  Cu+  Cu107  1  0.58297035  0.91799151  0.33829338  1
  Cu+  Cu108  1  0.00121794  -0.00200278  0.11161698  1
  Cu+  Cu109  1  0.00503887  0.50088069  0.11875982  1
  Cu+  Cu110  1  0.49883154  -0.00492731  0.11242848  1
  Cu+  Cu111  1  0.50209330  0.50448420  0.11712407  1
  Cu+  Cu112  1  0.32843336  0.16260884  0.44586342  1
  Cu+  Cu113  1  0.33832717  0.67574050  0.44182975  1
  Cu+  Cu114  1  0.83467136  0.16004017  0.44355094  1
  Cu+  Cu115  1  0.83841591  0.67819110  0.44907035  1
  Cu+  Cu116  1  0.16337518  0.33623384  0.78306295  1
  Cu+  Cu117  1  0.16926425  0.83019368  0.77791636  1
  Cu+  Cu118  1  0.66411658  0.32875105  0.78814984  1
  Cu+  Cu119  1  0.66269346  0.83445585  0.77668822  1
  Te2-  Te120  1  -0.00033101  -0.00022487  0.38525560  1
  Te2-  Te121  1  -0.00316723  0.49921274  0.39486797  1
  Te2-  Te122  1  0.49702284  -0.00550677  0.38714720  1
  Te2-  Te123  1  0.50132250  0.50320502  0.39253902  1
  Te2-  Te124  1  0.33898609  0.17017820  0.72084759  1
  Te2-  Te125  1  0.33106659  0.66608487  0.71701590  1
  Te2-  Te126  1  0.83135545  0.16629677  0.71786061  1
  Te2-  Te127  1  0.83478577  0.66518147  0.72524625  1
  Te2-  Te128  1  0.16660686  0.33617363  0.05655874  1
  Te2-  Te129  1  0.16935775  0.83461422  0.05214986  1
  Te2-  Te130  1  0.66449705  0.33206735  0.06252578  1
  Te2-  Te131  1  0.66735468  0.83275004  0.05053505  1
  Te2-  Te132  1  0.49958113  0.24956938  0.88554393  1
  Te2-  Te133  1  0.49719102  0.74472344  0.87906855  1
  Te2-  Te134  1  0.99960044  0.24564974  0.88162964  1
  Te2-  Te135  1  0.99680210  0.74705798  0.88203649  1
  Te2-  Te136  1  0.25965876  0.00955131  0.88147756  1
  Te2-  Te137  1  0.25345657  0.50355216  0.88325030  1
  Te2-  Te138  1  0.75389585  0.00250231  0.87785690  1
  Te2-  Te139  1  0.75827931  0.50793539  0.89059000  1
  Te2-  Te140  1  0.26022909  0.24784199  0.88588052  1
  Te2-  Te141  1  0.25387834  0.74764144  0.88132159  1
  Te2-  Te142  1  0.75487810  0.24814165  0.88954607  1
  Te2-  Te143  1  0.75852896  0.74410522  0.88263675  1
  Te2-  Te144  1  0.32401411  0.41530778  0.22103595  1
  Te2-  Te145  1  0.32838200  0.91425624  0.21329879  1
  Te2-  Te146  1  0.82005113  0.41026429  0.22304253  1
  Te2-  Te147  1  0.82680963  0.91255421  0.21366042  1
  Te2-  Te148  1  0.08255832  0.17561792  0.21410832  1
  Te2-  Te149  1  0.08062733  0.66987135  0.22030755  1
  Te2-  Te150  1  0.58380726  0.17356518  0.21770568  1
  Te2-  Te151  1  0.58463952  0.66876388  0.21570878  1
  Te2-  Te152  1  0.08058349  0.41427005  0.21897262  1
  Te2-  Te153  1  0.08789690  0.91843265  0.21180947  1
  Te2-  Te154  1  0.58031426  0.40860518  0.22030137  1
  Te2-  Te155  1  0.58634657  0.91467176  0.21250853  1
  Te2-  Te156  1  0.16495542  0.08584173  0.54991973  1
  Te2-  Te157  1  0.15544694  0.57787955  0.54893810  1
  Te2-  Te158  1  0.65608428  0.07602361  0.54803052  1
  Te2-  Te159  1  0.65836916  0.58104564  0.55408563  1
  Te2-  Te160  1  0.42472511  0.34536502  0.55020559  1
  Te2-  Te161  1  0.41594465  0.83629228  0.54502515  1
  Te2-  Te162  1  0.91833175  0.34212175  0.54959741  1
  Te2-  Te163  1  0.91795027  0.83608843  0.55231405  1
  Te2-  Te164  1  0.41905880  0.07973257  0.54886058  1
  Te2-  Te165  1  0.42120097  0.58175426  0.54841513  1
  Te2-  Te166  1  0.91830527  0.08340052  0.54610931  1
  Te2-  Te167  1  0.91894097  0.57786969  0.55235127  1
  Te2-  Te168  1  -0.00011638  -0.00090669  0.87992030  1
  Te2-  Te169  1  0.00202981  0.50114361  0.88494032  1
  Te2-  Te170  1  0.50009927  -0.00287923  0.88243278  1
  Te2-  Te171  1  0.50047555  0.50134244  0.88373211  1
  Te2-  Te172  1  0.33248309  0.16529465  0.21631108  1
  Te2-  Te173  1  0.33328824  0.66780158  0.21710808  1
  Te2-  Te174  1  0.83235714  0.16386024  0.21493369  1
  Te2-  Te175  1  0.83420335  0.66891298  0.21850662  1
  Te2-  Te176  1  0.16660585  0.33473862  0.54758021  1
  Te2-  Te177  1  0.16792044  0.83511931  0.54884761  1
  Te2-  Te178  1  0.66598334  0.33300692  0.54870294  1
  Te2-  Te179  1  0.66505146  0.83363234  0.54840254  1
  Te2-  Te180  1  0.32740936  0.41342773  0.71259770  1
  Te2-  Te181  1  0.32861301  0.91468920  0.70922551  1
  Te2-  Te182  1  0.82402361  0.41156819  0.71597361  1
  Te2-  Te183  1  0.82805341  0.91750979  0.70644203  1
  Te2-  Te184  1  0.08588807  0.17523841  0.70894742  1
  Te2-  Te185  1  0.08439585  0.67076633  0.71099745  1
  Te2-  Te186  1  0.58719084  0.17327881  0.71449001  1
  Te2-  Te187  1  0.58271296  0.67257283  0.70815513  1
  Te2-  Te188  1  0.08285770  0.41304726  0.71235734  1
  Te2-  Te189  1  0.08931038  0.91469308  0.70639263  1
  Te2-  Te190  1  0.58723887  0.41210430  0.71440992  1
  Te2-  Te191  1  0.58337171  0.91396717  0.70840554  1
  Te2-  Te192  1  0.16159727  0.07934800  0.04208246  1
  Te2-  Te193  1  0.16220992  0.58146496  0.04692189  1
  Te2-  Te194  1  0.66090493  0.07790847  0.04182267  1
  Te2-  Te195  1  0.66096686  0.58072645  0.04639150  1
  Te2-  Te196  1  0.42319958  0.34291931  0.04565447  1
  Te2-  Te197  1  0.41980643  0.83612140  0.04294152  1
  Te2-  Te198  1  0.92493467  0.34132993  0.04505063  1
  Te2-  Te199  1  0.91945623  0.83637158  0.04445177  1
  Te2-  Te200  1  0.42050007  0.08196029  0.04475399  1
  Te2-  Te201  1  0.41985341  0.58066270  0.04580206  1
  Te2-  Te202  1  0.91830725  0.07965880  0.04226451  1
  Te2-  Te203  1  0.92575733  0.58304880  0.04686461  1
  Te2-  Te204  1  0.48875565  0.24202758  0.37295787  1
  Te2-  Te205  1  0.49589719  0.74759992  0.37442823  1
  Te2-  Te206  1  0.99326247  0.24471860  0.37391072  1
  Te2-  Te207  1  0.99268128  0.75096094  0.37657183  1
  Te2-  Te208  1  0.25156130  0.00452311  0.37642000  1
  Te2-  Te209  1  0.25361654  0.50965695  0.37233326  1
  Te2-  Te210  1  0.75249845  0.00326467  0.37515856  1
  Te2-  Te211  1  0.75118357  0.50948919  0.37580935  1
  Te2-  Te212  1  0.25042290  0.24352401  0.37556149  1
  Te2-  Te213  1  0.25294592  0.74847181  0.37307371  1
  Te2-  Te214  1  0.75303627  0.24295598  0.37288893  1
  Te2-  Te215  1  0.75333460  0.74742105  0.37829935  1
