# generated using pymatgen
data_Ti(CuTe)4
_symmetry_space_group_name_H-M   'P 1'
_cell_length_a   16.85186572
_cell_length_b   16.85142577
_cell_length_c   20.65207387
_cell_angle_alpha   89.97884128
_cell_angle_beta   90.01030207
_cell_angle_gamma   120.00709383
_symmetry_Int_Tables_number   1
_chemical_formula_structural   Ti(CuTe)4
_chemical_formula_sum   'Ti24 Cu96 Te96'
_cell_volume   5078.64509621
_cell_formula_units_Z   24
loop_
 _symmetry_equiv_pos_site_id
 _symmetry_equiv_pos_as_xyz
  1  'x, y, z'
loop_
 _atom_type_symbol
 _atom_type_oxidation_number
  Ti4+  4.0
  Cu+  1.0
  Te2-  -2.0
loop_
 _atom_site_type_symbol
 _atom_site_label
 _atom_site_symmetry_multiplicity
 _atom_site_fract_x
 _atom_site_fract_y
 _atom_site_fract_z
 _atom_site_occupancy
  Ti4+  Ti0  1  0.00338888  0.00122271  0.25596949  1
  Ti4+  Ti1  1  0.00144818  0.50234030  0.26047489  1
  Ti4+  Ti2  1  0.50198346  -0.00113250  0.25618066  1
  Ti4+  Ti3  1  0.50002073  0.50103690  0.25572117  1
  Ti4+  Ti4  1  0.33508768  0.16705122  0.59081734  1
  Ti4+  Ti5  1  0.33221196  0.66547822  0.59257130  1
  Ti4+  Ti6  1  0.83397615  0.16908212  0.59202215  1
  Ti4+  Ti7  1  0.83344244  0.66750144  0.59472712  1
  Ti4+  Ti8  1  0.16549060  0.33500205  0.92209370  1
  Ti4+  Ti9  1  0.16155258  0.83029708  0.92278435  1
  Ti4+  Ti10  1  0.66823710  0.33117191  0.92828550  1
  Ti4+  Ti11  1  0.66449628  0.83220414  0.92274468  1
  Ti4+  Ti12  1  -0.00034806  -0.00164569  0.75450421  1
  Ti4+  Ti13  1  -0.00083850  0.49848410  0.75409506  1
  Ti4+  Ti14  1  0.50030671  -0.00001940  0.75635180  1
  Ti4+  Ti15  1  0.49983983  0.50144801  0.75640069  1
  Ti4+  Ti16  1  0.33076075  0.16660171  0.08527940  1
  Ti4+  Ti17  1  0.33478005  0.66643605  0.09002809  1
  Ti4+  Ti18  1  0.83139494  0.16547164  0.08722832  1
  Ti4+  Ti19  1  0.83519730  0.66636488  0.08753939  1
  Ti4+  Ti20  1  0.16605992  0.33514462  0.42307585  1
  Ti4+  Ti21  1  0.16749604  0.83369874  0.42331908  1
  Ti4+  Ti22  1  0.66728809  0.33327642  0.42397372  1
  Ti4+  Ti23  1  0.66818057  0.83254590  0.42403108  1
  Cu+  Cu24  1  0.23648700  0.26418195  0.13806281  1
  Cu+  Cu25  1  0.90105570  0.81189717  0.80839453  1
  Cu+  Cu26  1  0.02697184  0.76223818  0.14091476  1
  Cu+  Cu27  1  0.07070611  0.43200140  0.47723670  1
  Cu+  Cu28  1  0.74812863  0.49198286  0.14961859  1
  Cu+  Cu29  1  0.50716897  0.25451148  0.14776742  1
  Cu+  Cu30  1  0.90247029  0.58213043  0.81149231  1
  Cu+  Cu31  1  0.40810421  0.59600899  0.80789911  1
  Cu+  Cu32  1  0.90406104  0.31136354  0.80817402  1
  Cu+  Cu33  1  0.52876106  0.76385321  0.13888590  1
  Cu+  Cu34  1  0.74632110  0.25652483  0.14904356  1
  Cu+  Cu35  1  0.17596020  0.59294504  0.81068308  1
  Cu+  Cu36  1  0.16137076  0.08579397  0.16528241  1
  Cu+  Cu37  1  0.16441984  0.58174186  0.17390692  1
  Cu+  Cu38  1  0.66078669  0.08026655  0.16682175  1
  Cu+  Cu39  1  0.66207051  0.58136465  0.16696448  1
  Cu+  Cu40  1  0.41330736  0.33637341  0.16655683  1
  Cu+  Cu41  1  0.42404490  0.83459646  0.17024903  1
  Cu+  Cu42  1  0.92032184  0.33591120  0.17223904  1
  Cu+  Cu43  1  0.92541218  0.83733167  0.16786699  1
  Cu+  Cu44  1  0.41790886  0.07907168  0.16639454  1
  Cu+  Cu45  1  0.42421251  0.58769301  0.16912982  1
  Cu+  Cu46  1  0.91909174  0.08167350  0.16815990  1
  Cu+  Cu47  1  0.92408828  0.58584094  0.16994315  1
  Cu+  Cu48  1  0.49736334  0.24808075  0.50501872  1
  Cu+  Cu49  1  0.49824141  0.74627082  0.50723857  1
  Cu+  Cu50  1  0.99779955  0.25549375  0.50562187  1
  Cu+  Cu51  1  0.99752328  0.74981790  0.50888281  1
  Cu+  Cu52  1  0.25343265  0.00317847  0.50455946  1
  Cu+  Cu53  1  0.24751523  0.50305138  0.50652291  1
  Cu+  Cu54  1  0.75111287  0.00185768  0.50643709  1
  Cu+  Cu55  1  0.75159295  0.50254156  0.50922393  1
  Cu+  Cu56  1  0.25416459  0.24917843  0.50431606  1
  Cu+  Cu57  1  0.25107923  0.74855587  0.50580054  1
  Cu+  Cu58  1  0.75184556  0.24873513  0.50610352  1
  Cu+  Cu59  1  0.75316671  0.75008470  0.50822923  1
  Cu+  Cu60  1  0.33236182  0.41994647  0.83664620  1
  Cu+  Cu61  1  0.33127764  0.91564541  0.83697339  1
  Cu+  Cu62  1  0.82637033  0.40876654  0.83821191  1
  Cu+  Cu63  1  0.83090512  0.91402758  0.83655554  1
  Cu+  Cu64  1  0.08614427  0.16944442  0.83588727  1
  Cu+  Cu65  1  0.08184908  0.67299651  0.83364826  1
  Cu+  Cu66  1  0.58502162  0.16706476  0.84086246  1
  Cu+  Cu67  1  0.58084625  0.67060464  0.83597176  1
  Cu+  Cu68  1  0.08391000  0.41214669  0.83179388  1
  Cu+  Cu69  1  0.07681043  0.90944335  0.83556597  1
  Cu+  Cu70  1  0.58350411  0.41456220  0.84077450  1
  Cu+  Cu71  1  0.58186057  0.91363511  0.83703966  1
  Cu+  Cu72  1  0.17184550  0.08527812  0.67267274  1
  Cu+  Cu73  1  0.16841301  0.58282487  0.68077075  1
  Cu+  Cu74  1  0.66898389  0.08559822  0.67516447  1
  Cu+  Cu75  1  0.66680226  0.58347832  0.67686057  1
  Cu+  Cu76  1  0.41801050  0.32995028  0.67406316  1
  Cu+  Cu77  1  0.41659072  0.83223360  0.67381371  1
  Cu+  Cu78  1  0.91424957  0.33004970  0.67988679  1
  Cu+  Cu79  1  0.91470566  0.82854051  0.68060786  1
  Cu+  Cu80  1  0.41741961  0.08632880  0.67410895  1
  Cu+  Cu81  1  0.41296555  0.58383015  0.67914208  1
  Cu+  Cu82  1  0.91782364  0.08763646  0.67392273  1
  Cu+  Cu83  1  0.91518266  0.58447101  0.68149390  1
  Cu+  Cu84  1  -0.00031411  0.25001762  0.00553091  1
  Cu+  Cu85  1  0.00146965  0.74987863  0.01277048  1
  Cu+  Cu86  1  0.50181072  0.24909228  0.01475048  1
  Cu+  Cu87  1  0.50293592  0.75007901  0.01142481  1
  Cu+  Cu88  1  0.24810284  0.50003341  0.00812239  1
  Cu+  Cu89  1  0.24412954  0.99596299  0.00422653  1
  Cu+  Cu90  1  0.75035376  0.49733327  0.01648504  1
  Cu+  Cu91  1  0.74805944  0.99734323  0.00490857  1
  Cu+  Cu92  1  0.24505172  0.25210866  0.00886769  1
  Cu+  Cu93  1  0.24521603  0.74706714  0.00831760  1
  Cu+  Cu94  1  0.74958439  0.25028006  0.01634521  1
  Cu+  Cu95  1  0.74854014  0.74920375  0.00695750  1
  Cu+  Cu96  1  0.33481709  0.41852761  0.34030005  1
  Cu+  Cu97  1  0.33739795  0.91639372  0.33959224  1
  Cu+  Cu98  1  0.83360769  0.41749560  0.34623110  1
  Cu+  Cu99  1  0.83785345  0.91660871  0.33958527  1
  Cu+  Cu100  1  0.08370982  0.16592396  0.34125111  1
  Cu+  Cu101  1  0.08258625  0.66761464  0.34520756  1
  Cu+  Cu102  1  0.58481952  0.16541219  0.34255765  1
  Cu+  Cu103  1  0.58513269  0.66561638  0.34245061  1
  Cu+  Cu104  1  0.08120068  0.42023850  0.34845955  1
  Cu+  Cu105  1  0.08381035  0.91748069  0.34054913  1
  Cu+  Cu106  1  0.58343302  0.41743708  0.34287814  1
  Cu+  Cu107  1  0.58388967  0.91566825  0.34211017  1
  Cu+  Cu108  1  -0.00414131  -0.00158120  0.10976743  1
  Cu+  Cu109  1  0.00310799  0.49798843  0.11551776  1
  Cu+  Cu110  1  0.49434410  -0.00500748  0.10903972  1
  Cu+  Cu111  1  0.49712798  0.49881785  0.10877770  1
  Cu+  Cu112  1  0.33357691  0.16521497  0.44705964  1
  Cu+  Cu113  1  0.33717948  0.66978552  0.45008763  1
  Cu+  Cu114  1  0.83223821  0.16194115  0.44947360  1
  Cu+  Cu115  1  0.83292187  0.66613374  0.45349848  1
  Cu+  Cu116  1  0.17006634  0.32982667  0.77844632  1
  Cu+  Cu117  1  0.17295413  0.84327678  0.77972410  1
  Cu+  Cu118  1  0.65938627  0.32918483  0.78523099  1
  Cu+  Cu119  1  0.66973074  0.83880978  0.77855279  1
  Te2-  Te120  1  0.00221318  0.00084855  0.38481734  1
  Te2-  Te121  1  -0.00211701  0.50386045  0.39089234  1
  Te2-  Te122  1  0.50203361  -0.00049853  0.38464839  1
  Te2-  Te123  1  0.49980485  0.49983051  0.38406750  1
  Te2-  Te124  1  0.33444661  0.16666804  0.72076391  1
  Te2-  Te125  1  0.33412294  0.67087973  0.72510564  1
  Te2-  Te126  1  0.83155737  0.16343743  0.72316478  1
  Te2-  Te127  1  0.82829353  0.66274547  0.72770744  1
  Te2-  Te128  1  0.16265239  0.33576616  0.05261159  1
  Te2-  Te129  1  0.16903733  0.83450241  0.05332264  1
  Te2-  Te130  1  0.66629469  0.33216901  0.06183592  1
  Te2-  Te131  1  0.67072432  0.83478229  0.05333116  1
  Te2-  Te132  1  0.49806114  0.24752012  0.88713579  1
  Te2-  Te133  1  0.48981010  0.74769964  0.88483120  1
  Te2-  Te134  1  0.99261415  0.24431940  0.88020235  1
  Te2-  Te135  1  0.98472038  0.74055933  0.88492906  1
  Te2-  Te136  1  0.24571815  -0.00012634  0.87868003  1
  Te2-  Te137  1  0.25194193  0.51082875  0.88189239  1
  Te2-  Te138  1  0.75126513  0.00238323  0.87925176  1
  Te2-  Te139  1  0.75151520  0.50349288  0.88790990  1
  Te2-  Te140  1  0.25324308  0.25182153  0.88202148  1
  Te2-  Te141  1  0.25154311  0.74735406  0.88262694  1
  Te2-  Te142  1  0.75292995  0.24281173  0.88782722  1
  Te2-  Te143  1  0.74729971  0.74194055  0.88141890  1
  Te2-  Te144  1  0.32740383  0.41831679  0.21385050  1
  Te2-  Te145  1  0.33214512  0.91278342  0.21289584  1
  Te2-  Te146  1  0.82650745  0.41447038  0.21927477  1
  Te2-  Te147  1  0.83291661  0.91321126  0.21301617  1
  Te2-  Te148  1  0.08548844  0.17618348  0.21505986  1
  Te2-  Te149  1  0.09048954  0.67568932  0.21906937  1
  Te2-  Te150  1  0.58757711  0.17586037  0.21632961  1
  Te2-  Te151  1  0.59276032  0.67531466  0.21614805  1
  Te2-  Te152  1  0.08517976  0.41481977  0.22103851  1
  Te2-  Te153  1  0.09452346  0.91870942  0.21383121  1
  Te2-  Te154  1  0.58656937  0.41189905  0.21604660  1
  Te2-  Te155  1  0.59323854  0.91619514  0.21572372  1
  Te2-  Te156  1  0.16308991  0.08123108  0.54696354  1
  Te2-  Te157  1  0.15779976  0.58260986  0.55350928  1
  Te2-  Te158  1  0.66260116  0.08138734  0.54965833  1
  Te2-  Te159  1  0.66252587  0.58196666  0.55138753  1
  Te2-  Te160  1  0.42140522  0.33973115  0.54845132  1
  Te2-  Te161  1  0.41889069  0.83578361  0.54854103  1
  Te2-  Te162  1  0.91788419  0.34434833  0.55313016  1
  Te2-  Te163  1  0.91979324  0.83939170  0.55408623  1
  Te2-  Te164  1  0.42110910  0.08062661  0.54838482  1
  Te2-  Te165  1  0.41558164  0.57795456  0.55200452  1
  Te2-  Te166  1  0.92101681  0.08611778  0.54787649  1
  Te2-  Te167  1  0.91928295  0.58164196  0.55450567  1
  Te2-  Te168  1  -0.00008938  0.00096373  0.88192137  1
  Te2-  Te169  1  0.00078618  0.49947371  0.88270840  1
  Te2-  Te170  1  0.49808972  -0.00220595  0.88318761  1
  Te2-  Te171  1  0.50042439  0.50080748  0.88383707  1
  Te2-  Te172  1  0.33245965  0.16496903  0.21322830  1
  Te2-  Te173  1  0.33446895  0.66620183  0.21705865  1
  Te2-  Te174  1  0.83214317  0.16405576  0.21464104  1
  Te2-  Te175  1  0.83352886  0.66747550  0.21543814  1
  Te2-  Te176  1  0.16794979  0.33233916  0.54986765  1
  Te2-  Te177  1  0.16836480  0.83484850  0.54977436  1
  Te2-  Te178  1  0.66591022  0.33237165  0.55035900  1
  Te2-  Te179  1  0.66709576  0.83350214  0.55063104  1
  Te2-  Te180  1  0.32844638  0.41105516  0.70933943  1
  Te2-  Te181  1  0.32989425  0.91542936  0.70958461  1
  Te2-  Te182  1  0.82300889  0.41143283  0.71115243  1
  Te2-  Te183  1  0.82776839  0.91616493  0.70840512  1
  Te2-  Te184  1  0.08721374  0.17016594  0.70936719  1
  Te2-  Te185  1  0.08794665  0.67515266  0.70795477  1
  Te2-  Te186  1  0.58652994  0.17223025  0.71346772  1
  Te2-  Te187  1  0.58656961  0.67420339  0.70937109  1
  Te2-  Te188  1  0.08717577  0.41066630  0.70623103  1
  Te2-  Te189  1  0.08843031  0.91493573  0.70832320  1
  Te2-  Te190  1  0.58583589  0.41421535  0.71388087  1
  Te2-  Te191  1  0.58598176  0.91460305  0.71003999  1
  Te2-  Te192  1  0.15790751  0.07906498  0.03894201  1
  Te2-  Te193  1  0.16115841  0.58030123  0.04680794  1
  Te2-  Te194  1  0.65769148  0.07609471  0.04048353  1
  Te2-  Te195  1  0.66013681  0.58041944  0.04099333  1
  Te2-  Te196  1  0.41853838  0.34026715  0.03880620  1
  Te2-  Te197  1  0.41640204  0.83678215  0.04187961  1
  Te2-  Te198  1  0.92237231  0.34036709  0.04435903  1
  Te2-  Te199  1  0.91777667  0.83910067  0.04070952  1
  Te2-  Te200  1  0.41395656  0.07579341  0.03956612  1
  Te2-  Te201  1  0.41772470  0.57798350  0.04166771  1
  Te2-  Te202  1  0.91775547  0.08064555  0.04123960  1
  Te2-  Te203  1  0.92275388  0.57770388  0.04280789  1
  Te2-  Te204  1  0.49579250  0.24697207  0.37782300  1
  Te2-  Te205  1  0.49634608  0.74627148  0.37954536  1
  Te2-  Te206  1  0.99345685  0.24630181  0.37796784  1
  Te2-  Te207  1  0.99414905  0.74880996  0.38129329  1
  Te2-  Te208  1  0.25469042  0.00424941  0.37689617  1
  Te2-  Te209  1  0.25500017  0.50818294  0.37874498  1
  Te2-  Te210  1  0.75434576  0.00323267  0.37836813  1
  Te2-  Te211  1  0.75263964  0.50661613  0.38126551  1
  Te2-  Te212  1  0.25292472  0.24969821  0.37781960  1
  Te2-  Te213  1  0.25349061  0.74730708  0.37881790  1
  Te2-  Te214  1  0.75414266  0.24702648  0.37939371  1
  Te2-  Te215  1  0.75500701  0.74762466  0.38024393  1
