# generated using pymatgen
data_Ti(CuTe)4
_symmetry_space_group_name_H-M   'P 1'
_cell_length_a   16.88883137
_cell_length_b   16.89018869
_cell_length_c   20.70946974
_cell_angle_alpha   90.05992041
_cell_angle_beta   89.97060985
_cell_angle_gamma   119.99400999
_symmetry_Int_Tables_number   1
_chemical_formula_structural   Ti(CuTe)4
_chemical_formula_sum   'Ti24 Cu96 Te96'
_cell_volume   5116.34338324
_cell_formula_units_Z   24
loop_
 _symmetry_equiv_pos_site_id
 _symmetry_equiv_pos_as_xyz
  1  'x, y, z'
loop_
 _atom_type_symbol
 _atom_type_oxidation_number
  Ti4+  4.0
  Cu+  1.0
  Te2-  -2.0
loop_
 _atom_site_type_symbol
 _atom_site_label
 _atom_site_symmetry_multiplicity
 _atom_site_fract_x
 _atom_site_fract_y
 _atom_site_fract_z
 _atom_site_occupancy
  Ti4+  Ti0  1  -0.00221487  -0.00359721  0.26196126  1
  Ti4+  Ti1  1  0.00181458  0.50090914  0.25424203  1
  Ti4+  Ti2  1  0.50047682  0.00011330  0.25552232  1
  Ti4+  Ti3  1  0.49656525  0.49638571  0.26056134  1
  Ti4+  Ti4  1  0.33321602  0.16772768  0.59312489  1
  Ti4+  Ti5  1  0.33707810  0.66766260  0.58818674  1
  Ti4+  Ti6  1  0.83434518  0.16914974  0.59034721  1
  Ti4+  Ti7  1  0.83565588  0.67148568  0.59300461  1
  Ti4+  Ti8  1  0.16552405  0.32975810  0.92408488  1
  Ti4+  Ti9  1  0.16342802  0.83256646  0.92345845  1
  Ti4+  Ti10  1  0.66697385  0.33350524  0.92157267  1
  Ti4+  Ti11  1  0.66525300  0.83245164  0.92641748  1
  Ti4+  Ti12  1  0.00070045  0.00155021  0.75545388  1
  Ti4+  Ti13  1  -0.00010620  0.50047704  0.75406224  1
  Ti4+  Ti14  1  0.50066908  0.00151190  0.75369610  1
  Ti4+  Ti15  1  0.50083429  0.50134988  0.75584791  1
  Ti4+  Ti16  1  0.33369310  0.16745761  0.09045667  1
  Ti4+  Ti17  1  0.33001072  0.66356012  0.08674862  1
  Ti4+  Ti18  1  0.83038460  0.16400360  0.08836147  1
  Ti4+  Ti19  1  0.83505921  0.66803837  0.09131386  1
  Ti4+  Ti20  1  0.16690535  0.33345062  0.42196578  1
  Ti4+  Ti21  1  0.16659187  0.83375804  0.42334531  1
  Ti4+  Ti22  1  0.66773449  0.33415873  0.42208605  1
  Ti4+  Ti23  1  0.66586720  0.83306050  0.41999658  1
  Cu+  Cu24  1  0.84713695  0.92835559  0.47818292  1
  Cu+  Cu25  1  0.18114874  0.08723629  0.81185335  1
  Cu+  Cu26  1  0.07814201  0.93031521  0.47940207  1
  Cu+  Cu27  1  0.02605365  0.76401370  0.14274499  1
  Cu+  Cu28  1  0.90775368  0.31170637  0.80700531  1
  Cu+  Cu29  1  0.34997429  0.42165096  0.47871684  1
  Cu+  Cu30  1  0.58120590  0.65222736  0.47523354  1
  Cu+  Cu31  1  0.73822611  0.97451637  0.14263554  1
  Cu+  Cu32  1  0.90281206  0.58765215  0.80711069  1
  Cu+  Cu33  1  0.90607430  0.82110896  0.81453262  1
  Cu+  Cu34  1  0.23818695  0.47355550  0.14015621  1
  Cu+  Cu35  1  0.40981785  0.31616300  0.81036424  1
  Cu+  Cu36  1  0.16515893  0.08026541  0.17547206  1
  Cu+  Cu37  1  0.16177860  0.57562336  0.16660245  1
  Cu+  Cu38  1  0.66263441  0.07673404  0.16906051  1
  Cu+  Cu39  1  0.66414816  0.58152011  0.17546241  1
  Cu+  Cu40  1  0.41712715  0.33590818  0.17334333  1
  Cu+  Cu41  1  0.41651901  0.83667033  0.16819541  1
  Cu+  Cu42  1  0.91673961  0.33673442  0.16832955  1
  Cu+  Cu43  1  0.92291042  0.83597827  0.17422567  1
  Cu+  Cu44  1  0.42007998  0.08351276  0.17085724  1
  Cu+  Cu45  1  0.41096152  0.57537189  0.17227681  1
  Cu+  Cu46  1  0.91012289  0.07604498  0.17409427  1
  Cu+  Cu47  1  0.92429009  0.58802910  0.17020407  1
  Cu+  Cu48  1  0.49959324  0.25025977  0.50531502  1
  Cu+  Cu49  1  0.49669012  0.74433582  0.50009366  1
  Cu+  Cu50  1  0.99692096  0.25117493  0.50419499  1
  Cu+  Cu51  1  0.99970997  0.75564003  0.50626320  1
  Cu+  Cu52  1  0.24869010  0.00364597  0.50665646  1
  Cu+  Cu53  1  0.25760597  0.50432433  0.50176623  1
  Cu+  Cu54  1  0.75466274  0.00780062  0.50255541  1
  Cu+  Cu55  1  0.75449708  0.50353976  0.50519004  1
  Cu+  Cu56  1  0.25405495  0.24934604  0.50563449  1
  Cu+  Cu57  1  0.25478042  0.75033820  0.50386391  1
  Cu+  Cu58  1  0.75380340  0.25157533  0.50427983  1
  Cu+  Cu59  1  0.75607389  0.75215124  0.50310155  1
  Cu+  Cu60  1  0.33160146  0.41249859  0.83767649  1
  Cu+  Cu61  1  0.33105997  0.91550944  0.83571424  1
  Cu+  Cu62  1  0.82999583  0.41403620  0.83449451  1
  Cu+  Cu63  1  0.82644807  0.91365117  0.83965656  1
  Cu+  Cu64  1  0.08994225  0.17174288  0.83575144  1
  Cu+  Cu65  1  0.07749165  0.66868760  0.83504980  1
  Cu+  Cu66  1  0.58486528  0.17075512  0.83356594  1
  Cu+  Cu67  1  0.58544531  0.67093371  0.83916947  1
  Cu+  Cu68  1  0.08147912  0.41134089  0.83747815  1
  Cu+  Cu69  1  0.08328676  0.91144085  0.83573675  1
  Cu+  Cu70  1  0.58381004  0.41360021  0.83548117  1
  Cu+  Cu71  1  0.58475182  0.91736543  0.83904677  1
  Cu+  Cu72  1  0.16952867  0.08784190  0.68187235  1
  Cu+  Cu73  1  0.17336880  0.58616190  0.67089242  1
  Cu+  Cu74  1  0.66913685  0.08550871  0.67269161  1
  Cu+  Cu75  1  0.66945016  0.58878146  0.67638599  1
  Cu+  Cu76  1  0.41536266  0.33242920  0.68119858  1
  Cu+  Cu77  1  0.41824231  0.83173629  0.67173908  1
  Cu+  Cu78  1  0.91631949  0.33189739  0.67777837  1
  Cu+  Cu79  1  0.91625314  0.83495934  0.68309967  1
  Cu+  Cu80  1  0.41551462  0.08441354  0.67448956  1
  Cu+  Cu81  1  0.41894365  0.58695615  0.67489588  1
  Cu+  Cu82  1  0.91530247  0.08643291  0.67552469  1
  Cu+  Cu83  1  0.91825236  0.58983861  0.67862272  1
  Cu+  Cu84  1  -0.00067255  0.24777272  0.00824203  1
  Cu+  Cu85  1  0.00137797  0.75330837  0.01352918  1
  Cu+  Cu86  1  0.50183616  0.25326590  0.00825344  1
  Cu+  Cu87  1  0.49937928  0.74923036  0.00852941  1
  Cu+  Cu88  1  0.24635985  0.49307405  0.01071806  1
  Cu+  Cu89  1  0.24796627  0.99935562  0.00895706  1
  Cu+  Cu90  1  0.74800394  0.49752311  0.00749785  1
  Cu+  Cu91  1  0.74550857  0.99347405  0.01348903  1
  Cu+  Cu92  1  0.25051428  0.24971857  0.01156246  1
  Cu+  Cu93  1  0.24552712  0.74880089  0.00568981  1
  Cu+  Cu94  1  0.74812229  0.25006998  0.00526612  1
  Cu+  Cu95  1  0.74954915  0.75160295  0.01218396  1
  Cu+  Cu96  1  0.33382939  0.41566839  0.34808526  1
  Cu+  Cu97  1  0.33738928  0.91982874  0.33959165  1
  Cu+  Cu98  1  0.83704167  0.41971914  0.33817294  1
  Cu+  Cu99  1  0.83317776  0.91484113  0.34768523  1
  Cu+  Cu100  1  0.07939664  0.16273129  0.34399465  1
  Cu+  Cu101  1  0.08331897  0.66469894  0.33920889  1
  Cu+  Cu102  1  0.58394051  0.16488588  0.33911339  1
  Cu+  Cu103  1  0.57705799  0.66117430  0.34601097  1
  Cu+  Cu104  1  0.08173091  0.41727653  0.33933398  1
  Cu+  Cu105  1  0.07988485  0.91573546  0.35047031  1
  Cu+  Cu106  1  0.58252899  0.41697283  0.34414383  1
  Cu+  Cu107  1  0.58217191  0.91953560  0.33939428  1
  Cu+  Cu108  1  0.00340156  0.00670825  0.12031883  1
  Cu+  Cu109  1  -0.00394297  0.49745098  0.10985499  1
  Cu+  Cu110  1  0.49723127  0.00027297  0.11164583  1
  Cu+  Cu111  1  0.50399760  0.50284672  0.11853062  1
  Cu+  Cu112  1  0.33766197  0.16552686  0.44991244  1
  Cu+  Cu113  1  0.32969047  0.66748812  0.44369103  1
  Cu+  Cu114  1  0.83298128  0.17084023  0.44603831  1
  Cu+  Cu115  1  0.83590472  0.66385754  0.44943796  1
  Cu+  Cu116  1  0.16945500  0.33978948  0.78006844  1
  Cu+  Cu117  1  0.17109671  0.83067401  0.77886198  1
  Cu+  Cu118  1  0.66704088  0.33395266  0.77613049  1
  Cu+  Cu119  1  0.66191540  0.83439395  0.78315977  1
  Te2-  Te120  1  -0.00145833  0.00072718  0.39401401  1
  Te2-  Te121  1  0.00079606  0.50057613  0.38315453  1
  Te2-  Te122  1  0.50104307  0.00166632  0.38478524  1
  Te2-  Te123  1  0.49964477  0.49657861  0.39286735  1
  Te2-  Te124  1  0.33538003  0.16605728  0.72498876  1
  Te2-  Te125  1  0.33583777  0.66841103  0.71712566  1
  Te2-  Te126  1  0.83132206  0.16577820  0.72112748  1
  Te2-  Te127  1  0.83194866  0.66878493  0.72492687  1
  Te2-  Te128  1  0.16310506  0.32723664  0.05420156  1
  Te2-  Te129  1  0.16890894  0.83496279  0.05356500  1
  Te2-  Te130  1  0.66705654  0.33285419  0.05030788  1
  Te2-  Te131  1  0.66191626  0.82773277  0.05706649  1
  Te2-  Te132  1  0.49304706  0.24426306  0.88225445  1
  Te2-  Te133  1  0.49480330  0.74816942  0.88257594  1
  Te2-  Te134  1  0.99273984  0.24091842  0.88223661  1
  Te2-  Te135  1  0.98661683  0.74442119  0.88585406  1
  Te2-  Te136  1  0.25323164  0.00491445  0.88280859  1
  Te2-  Te137  1  0.25026185  0.49961133  0.88277232  1
  Te2-  Te138  1  0.75167833  0.00416905  0.88623343  1
  Te2-  Te139  1  0.75059967  0.50654202  0.88144074  1
  Te2-  Te140  1  0.25608836  0.24324146  0.88539304  1
  Te2-  Te141  1  0.24645469  0.74629544  0.87922709  1
  Te2-  Te142  1  0.75162018  0.24504580  0.87949596  1
  Te2-  Te143  1  0.75121133  0.74377858  0.88644750  1
  Te2-  Te144  1  0.32285717  0.40755086  0.22050117  1
  Te2-  Te145  1  0.32852365  0.91529736  0.21400557  1
  Te2-  Te146  1  0.83069509  0.41847103  0.21228353  1
  Te2-  Te147  1  0.82533624  0.90649311  0.22021739  1
  Te2-  Te148  1  0.08021674  0.16552278  0.21749778  1
  Te2-  Te149  1  0.09394714  0.67516463  0.21374436  1
  Te2-  Te150  1  0.58868066  0.17119598  0.21329864  1
  Te2-  Te151  1  0.57966471  0.66655973  0.21836667  1
  Te2-  Te152  1  0.08362456  0.40797209  0.21386669  1
  Te2-  Te153  1  0.08943035  0.91384379  0.22283090  1
  Te2-  Te154  1  0.58434611  0.41315672  0.21834333  1
  Te2-  Te155  1  0.58335935  0.90777521  0.21431482  1
  Te2-  Te156  1  0.15959245  0.08435082  0.55426774  1
  Te2-  Te157  1  0.16621378  0.58102211  0.54526552  1
  Te2-  Te158  1  0.66352370  0.08259400  0.54682230  1
  Te2-  Te159  1  0.66447168  0.58235208  0.55015858  1
  Te2-  Te160  1  0.42300122  0.34046503  0.55332899  1
  Te2-  Te161  1  0.42389846  0.83845205  0.54590705  1
  Te2-  Te162  1  0.92092489  0.34121567  0.55070496  1
  Te2-  Te163  1  0.92273919  0.84767007  0.55445593  1
  Te2-  Te164  1  0.41681510  0.08172546  0.54859446  1
  Te2-  Te165  1  0.42630065  0.57816887  0.54969869  1
  Te2-  Te166  1  0.92421758  0.08459501  0.55019191  1
  Te2-  Te167  1  0.92186015  0.58785387  0.55132748  1
  Te2-  Te168  1  -0.00047607  0.00019924  0.88279786  1
  Te2-  Te169  1  -0.00026726  0.49942876  0.88156361  1
  Te2-  Te170  1  0.49951146  0.00175069  0.88002384  1
  Te2-  Te171  1  0.50132373  0.50056475  0.88273173  1
  Te2-  Te172  1  0.33495759  0.16629046  0.21702750  1
  Te2-  Te173  1  0.33080663  0.66665886  0.21339001  1
  Te2-  Te174  1  0.83150867  0.16819141  0.21513378  1
  Te2-  Te175  1  0.83365481  0.66561751  0.21804153  1
  Te2-  Te176  1  0.16756448  0.33486426  0.54877390  1
  Te2-  Te177  1  0.16979589  0.83343199  0.55018672  1
  Te2-  Te178  1  0.66892419  0.33507063  0.54851896  1
  Te2-  Te179  1  0.66744857  0.83612478  0.54741752  1
  Te2-  Te180  1  0.32796719  0.41741488  0.71063185  1
  Te2-  Te181  1  0.32970100  0.91383141  0.70883441  1
  Te2-  Te182  1  0.82716849  0.41636160  0.70665312  1
  Te2-  Te183  1  0.82586195  0.91721626  0.71260219  1
  Te2-  Te184  1  0.08504453  0.17597537  0.71027735  1
  Te2-  Te185  1  0.09038077  0.67320661  0.70820282  1
  Te2-  Te186  1  0.58613883  0.17288959  0.70774656  1
  Te2-  Te187  1  0.58723975  0.67492166  0.71298345  1
  Te2-  Te188  1  0.08892769  0.41695328  0.70957708  1
  Te2-  Te189  1  0.08918408  0.91459869  0.70936384  1
  Te2-  Te190  1  0.58936562  0.41748465  0.70873855  1
  Te2-  Te191  1  0.58715185  0.91627601  0.71128961  1
  Te2-  Te192  1  0.16082572  0.08019507  0.04829478  1
  Te2-  Te193  1  0.15781840  0.57831628  0.03995674  1
  Te2-  Te194  1  0.65866890  0.08020914  0.04211442  1
  Te2-  Te195  1  0.66294262  0.58112489  0.04810308  1
  Te2-  Te196  1  0.42002643  0.34002185  0.04728666  1
  Te2-  Te197  1  0.41557963  0.83612523  0.04235489  1
  Te2-  Te198  1  0.91713432  0.33563717  0.04223363  1
  Te2-  Te199  1  0.91909990  0.84197847  0.04797102  1
  Te2-  Te200  1  0.41877420  0.08248643  0.04393755  1
  Te2-  Te201  1  0.41881536  0.57849461  0.04448614  1
  Te2-  Te202  1  0.91817840  0.07809299  0.04600386  1
  Te2-  Te203  1  0.91785926  0.58011611  0.04297494  1
  Te2-  Te204  1  0.49604641  0.24662168  0.37857368  1
  Te2-  Te205  1  0.49241463  0.74930921  0.37429890  1
  Te2-  Te206  1  0.99430284  0.24819606  0.37809770  1
  Te2-  Te207  1  0.99357384  0.74347379  0.37904103  1
  Te2-  Te208  1  0.25385937  0.00596306  0.37885760  1
  Te2-  Te209  1  0.25102518  0.50582350  0.37533789  1
  Te2-  Te210  1  0.75177629  0.00695077  0.37561912  1
  Te2-  Te211  1  0.75360625  0.50536970  0.37819207  1
  Te2-  Te212  1  0.25045826  0.24255948  0.37888746  1
  Te2-  Te213  1  0.25287251  0.75005155  0.37672748  1
  Te2-  Te214  1  0.75371681  0.25006467  0.37677849  1
  Te2-  Te215  1  0.75053814  0.74191662  0.37626277  1
