# generated using pymatgen
data_Ti(CuTe)4
_symmetry_space_group_name_H-M   'P 1'
_cell_length_a   16.90952764
_cell_length_b   16.90435423
_cell_length_c   20.73276342
_cell_angle_alpha   89.96857383
_cell_angle_beta   89.96344430
_cell_angle_gamma   119.99545138
_symmetry_Int_Tables_number   1
_chemical_formula_structural   Ti(CuTe)4
_chemical_formula_sum   'Ti24 Cu96 Te96'
_cell_volume   5132.60073819
_cell_formula_units_Z   24
loop_
 _symmetry_equiv_pos_site_id
 _symmetry_equiv_pos_as_xyz
  1  'x, y, z'
loop_
 _atom_type_symbol
 _atom_type_oxidation_number
  Ti4+  4.0
  Cu+  1.0
  Te2-  -2.0
loop_
 _atom_site_type_symbol
 _atom_site_label
 _atom_site_symmetry_multiplicity
 _atom_site_fract_x
 _atom_site_fract_y
 _atom_site_fract_z
 _atom_site_occupancy
  Ti4+  Ti0  1  -0.00261291  -0.00131344  0.25969536  1
  Ti4+  Ti1  1  -0.00345402  0.49824763  0.25889912  1
  Ti4+  Ti2  1  0.49917878  0.00159188  0.25625138  1
  Ti4+  Ti3  1  0.49740695  0.50047230  0.26094808  1
  Ti4+  Ti4  1  0.33233037  0.16494670  0.58853238  1
  Ti4+  Ti5  1  0.33525346  0.66353181  0.59414795  1
  Ti4+  Ti6  1  0.83441476  0.16834063  0.59193688  1
  Ti4+  Ti7  1  0.83587969  0.66831496  0.58855699  1
  Ti4+  Ti8  1  0.16641741  0.33304461  0.92455520  1
  Ti4+  Ti9  1  0.16849264  0.83238060  0.92255691  1
  Ti4+  Ti10  1  0.66869707  0.33705609  0.92329041  1
  Ti4+  Ti11  1  0.66907949  0.83533769  0.92127983  1
  Ti4+  Ti12  1  -0.00044420  -0.00018712  0.75468164  1
  Ti4+  Ti13  1  0.00096909  0.49964660  0.75429779  1
  Ti4+  Ti14  1  0.50048250  -0.00007068  0.75221140  1
  Ti4+  Ti15  1  0.50329531  0.49995718  0.75489529  1
  Ti4+  Ti16  1  0.33262432  0.16601293  0.08829644  1
  Ti4+  Ti17  1  0.33396837  0.66612361  0.09004674  1
  Ti4+  Ti18  1  0.83123262  0.16738972  0.08995354  1
  Ti4+  Ti19  1  0.83366056  0.66774267  0.09067974  1
  Ti4+  Ti20  1  0.16563605  0.33185353  0.42197558  1
  Ti4+  Ti21  1  0.16517930  0.83230138  0.42130891  1
  Ti4+  Ti22  1  0.66680283  0.33369577  0.42169773  1
  Ti4+  Ti23  1  0.66429931  0.83242171  0.42273741  1
  Cu+  Cu24  1  0.57671622  0.64971995  0.47773012  1
  Cu+  Cu25  1  0.85612146  0.42705049  0.47507315  1
  Cu+  Cu26  1  0.41580679  0.58588784  0.81860615  1
  Cu+  Cu27  1  0.73636377  0.26283870  0.14102690  1
  Cu+  Cu28  1  0.84757897  0.92821173  0.47659589  1
  Cu+  Cu29  1  0.91211243  0.09587894  0.81000548  1
  Cu+  Cu30  1  0.34877702  0.42164573  0.47744652  1
  Cu+  Cu31  1  0.68310163  0.09750884  0.80788277  1
  Cu+  Cu32  1  0.41354663  0.82465685  0.81383364  1
  Cu+  Cu33  1  0.69535729  0.59704607  0.80428397  1
  Cu+  Cu34  1  0.17779476  0.58736466  0.81411539  1
  Cu+  Cu35  1  0.07753443  0.92933368  0.47253704  1
  Cu+  Cu36  1  0.16245053  0.08004188  0.17186479  1
  Cu+  Cu37  1  0.16369850  0.58044930  0.17331718  1
  Cu+  Cu38  1  0.66197015  0.08637866  0.17050568  1
  Cu+  Cu39  1  0.66301116  0.58559632  0.17463470  1
  Cu+  Cu40  1  0.41361195  0.33482294  0.17343902  1
  Cu+  Cu41  1  0.41835289  0.83560319  0.17154966  1
  Cu+  Cu42  1  0.91100097  0.33546210  0.17253619  1
  Cu+  Cu43  1  0.91602808  0.83656798  0.17387145  1
  Cu+  Cu44  1  0.41692754  0.08116112  0.16909963  1
  Cu+  Cu45  1  0.41740856  0.58119392  0.17413728  1
  Cu+  Cu46  1  0.91449178  0.07915297  0.17363909  1
  Cu+  Cu47  1  0.91607635  0.58125576  0.17310367  1
  Cu+  Cu48  1  0.49650985  0.24647890  0.50230107  1
  Cu+  Cu49  1  0.49420434  0.74192878  0.50550137  1
  Cu+  Cu50  1  0.99528572  0.24647094  0.50365641  1
  Cu+  Cu51  1  0.99775828  0.75270549  0.50098709  1
  Cu+  Cu52  1  0.24845000  0.00220014  0.50289889  1
  Cu+  Cu53  1  0.25460864  0.50147705  0.50592307  1
  Cu+  Cu54  1  0.75295002  0.00514797  0.50601398  1
  Cu+  Cu55  1  0.75588857  0.50278788  0.50229890  1
  Cu+  Cu56  1  0.25440753  0.24810268  0.50194548  1
  Cu+  Cu57  1  0.25114590  0.74687692  0.50658232  1
  Cu+  Cu58  1  0.75458283  0.25263386  0.50512781  1
  Cu+  Cu59  1  0.75240882  0.74907321  0.50269293  1
  Cu+  Cu60  1  0.32897659  0.41268834  0.83754400  1
  Cu+  Cu61  1  0.32700245  0.91189140  0.83369474  1
  Cu+  Cu62  1  0.82907624  0.41603879  0.83578568  1
  Cu+  Cu63  1  0.83091140  0.91897084  0.83436807  1
  Cu+  Cu64  1  0.08281358  0.16957098  0.83835269  1
  Cu+  Cu65  1  0.08732215  0.67060895  0.83574296  1
  Cu+  Cu66  1  0.58794245  0.17329379  0.83614553  1
  Cu+  Cu67  1  0.59135219  0.66981884  0.83420751  1
  Cu+  Cu68  1  0.08714161  0.41470890  0.83640888  1
  Cu+  Cu69  1  0.08478848  0.91394197  0.83722801  1
  Cu+  Cu70  1  0.59262664  0.42176516  0.83546008  1
  Cu+  Cu71  1  0.58888043  0.91848279  0.83216398  1
  Cu+  Cu72  1  0.16957261  0.08352062  0.67332625  1
  Cu+  Cu73  1  0.17078785  0.58294161  0.68152668  1
  Cu+  Cu74  1  0.67054508  0.08705124  0.67808309  1
  Cu+  Cu75  1  0.67286213  0.58373136  0.67656177  1
  Cu+  Cu76  1  0.41616830  0.32873576  0.67395358  1
  Cu+  Cu77  1  0.41476881  0.82884894  0.68048937  1
  Cu+  Cu78  1  0.91538950  0.33267519  0.67563942  1
  Cu+  Cu79  1  0.91772171  0.83246293  0.67418866  1
  Cu+  Cu80  1  0.41426584  0.08318199  0.67072648  1
  Cu+  Cu81  1  0.41625475  0.58139947  0.68377732  1
  Cu+  Cu82  1  0.91466700  0.08419464  0.68073954  1
  Cu+  Cu83  1  0.91657978  0.58234479  0.67305723  1
  Cu+  Cu84  1  0.00200913  0.25077552  0.01010988  1
  Cu+  Cu85  1  0.00444984  0.75182817  0.00815466  1
  Cu+  Cu86  1  0.50194933  0.25251374  0.00643757  1
  Cu+  Cu87  1  0.50318277  0.74994257  0.00816523  1
  Cu+  Cu88  1  0.25058264  0.49802981  0.01112840  1
  Cu+  Cu89  1  0.24943761  0.99721262  0.00595292  1
  Cu+  Cu90  1  0.75028596  0.50205251  0.00952796  1
  Cu+  Cu91  1  0.74995546  1.00005067  0.00803022  1
  Cu+  Cu92  1  0.24738056  0.24974058  0.00827913  1
  Cu+  Cu93  1  0.25009705  0.74924445  0.00884804  1
  Cu+  Cu94  1  0.74774314  0.25245346  0.01245654  1
  Cu+  Cu95  1  0.75159724  0.75219414  0.00759976  1
  Cu+  Cu96  1  0.33385797  0.41846663  0.34757495  1
  Cu+  Cu97  1  0.33472251  0.91562765  0.33945687  1
  Cu+  Cu98  1  0.83483553  0.41667007  0.34651165  1
  Cu+  Cu99  1  0.83354804  0.91770942  0.34733122  1
  Cu+  Cu100  1  0.07996158  0.16358343  0.34142893  1
  Cu+  Cu101  1  0.08202830  0.66297137  0.34203753  1
  Cu+  Cu102  1  0.58116647  0.16441964  0.34052248  1
  Cu+  Cu103  1  0.57587120  0.66318623  0.34822374  1
  Cu+  Cu104  1  0.07816426  0.41449514  0.34214105  1
  Cu+  Cu105  1  0.07917343  0.91669112  0.34511035  1
  Cu+  Cu106  1  0.57939959  0.41734330  0.34183719  1
  Cu+  Cu107  1  0.57939003  0.91878889  0.34035407  1
  Cu+  Cu108  1  -0.00055830  0.00072899  0.11696924  1
  Cu+  Cu109  1  0.00177235  0.50206103  0.11723316  1
  Cu+  Cu110  1  0.49694029  -0.00274041  0.11332402  1
  Cu+  Cu111  1  0.50055448  0.49771479  0.11877153  1
  Cu+  Cu112  1  0.33438578  0.16397334  0.44421928  1
  Cu+  Cu113  1  0.32875255  0.66569990  0.45002475  1
  Cu+  Cu114  1  0.83089957  0.16626372  0.44781781  1
  Cu+  Cu115  1  0.83268344  0.66546846  0.44450940  1
  Cu+  Cu116  1  0.16764441  0.33037671  0.78052431  1
  Cu+  Cu117  1  0.16360272  0.83328299  0.77812847  1
  Cu+  Cu118  1  0.66580447  0.33272583  0.77843334  1
  Cu+  Cu119  1  0.66687944  0.83316504  0.77704384  1
  Te2-  Te120  1  -0.00082296  0.00215025  0.39208565  1
  Te2-  Te121  1  0.00107387  0.50013867  0.38944754  1
  Te2-  Te122  1  0.49786441  0.00074868  0.38535815  1
  Te2-  Te123  1  0.49913410  0.49799714  0.39353868  1
  Te2-  Te124  1  0.33335365  0.16480152  0.71739930  1
  Te2-  Te125  1  0.33506329  0.66506215  0.72779864  1
  Te2-  Te126  1  0.83511986  0.17053971  0.72436154  1
  Te2-  Te127  1  0.83942263  0.66863768  0.71855626  1
  Te2-  Te128  1  0.16659242  0.33289854  0.05281997  1
  Te2-  Te129  1  0.16914938  0.83333168  0.05104821  1
  Te2-  Te130  1  0.66525345  0.33713139  0.05328015  1
  Te2-  Te131  1  0.66860254  0.83465102  0.04915663  1
  Te2-  Te132  1  0.49913745  0.25254984  0.87984121  1
  Te2-  Te133  1  0.49486772  0.74679166  0.88171485  1
  Te2-  Te134  1  0.99262819  0.25000884  0.88413225  1
  Te2-  Te135  1  0.99704957  0.74622357  0.88190680  1
  Te2-  Te136  1  0.25347048  0.00349038  0.88006094  1
  Te2-  Te137  1  0.25648277  0.50970404  0.88521410  1
  Te2-  Te138  1  0.75490463  0.01177340  0.88215014  1
  Te2-  Te139  1  0.75926422  0.51170872  0.88349733  1
  Te2-  Te140  1  0.25030013  0.24637381  0.88207981  1
  Te2-  Te141  1  0.25710041  0.74386402  0.88331420  1
  Te2-  Te142  1  0.75635034  0.25061931  0.88494593  1
  Te2-  Te143  1  0.75833992  0.75139689  0.88122773  1
  Te2-  Te144  1  0.32640732  0.41445225  0.22056560  1
  Te2-  Te145  1  0.32813112  0.91382474  0.21388040  1
  Te2-  Te146  1  0.82214694  0.41447027  0.21946646  1
  Te2-  Te147  1  0.82560442  0.91303789  0.22045345  1
  Te2-  Te148  1  0.08300111  0.16888284  0.21584352  1
  Te2-  Te149  1  0.08404587  0.66895702  0.21648574  1
  Te2-  Te150  1  0.58307094  0.17626168  0.21521769  1
  Te2-  Te151  1  0.58305755  0.67224742  0.22155620  1
  Te2-  Te152  1  0.07967430  0.41130421  0.21618695  1
  Te2-  Te153  1  0.08335138  0.91358238  0.21871934  1
  Te2-  Te154  1  0.58248375  0.41609382  0.21603312  1
  Te2-  Te155  1  0.58683181  0.91799070  0.21464583  1
  Te2-  Te156  1  0.15845339  0.08251718  0.54806323  1
  Te2-  Te157  1  0.16576839  0.57916447  0.55350451  1
  Te2-  Te158  1  0.66431671  0.08408949  0.55065519  1
  Te2-  Te159  1  0.66361186  0.57855437  0.54945841  1
  Te2-  Te160  1  0.42333515  0.33932918  0.54883759  1
  Te2-  Te161  1  0.41893278  0.83300265  0.55276159  1
  Te2-  Te162  1  0.92384439  0.34109620  0.55031898  1
  Te2-  Te163  1  0.92137539  0.84396687  0.54879752  1
  Te2-  Te164  1  0.41632623  0.07842519  0.54541213  1
  Te2-  Te165  1  0.42268692  0.57527916  0.55507527  1
  Te2-  Te166  1  0.92166858  0.08216193  0.55343859  1
  Te2-  Te167  1  0.92511747  0.58501244  0.54756279  1
  Te2-  Te168  1  -0.00015989  -0.00132812  0.88135375  1
  Te2-  Te169  1  -0.00007764  0.49959914  0.88112924  1
  Te2-  Te170  1  0.49958714  0.00035989  0.87986553  1
  Te2-  Te171  1  0.50067345  0.49925854  0.88267569  1
  Te2-  Te172  1  0.33161292  0.16470999  0.21474107  1
  Te2-  Te173  1  0.33280691  0.66675527  0.21592136  1
  Te2-  Te174  1  0.83082771  0.16529955  0.21639644  1
  Te2-  Te175  1  0.83233678  0.66710386  0.21683963  1
  Te2-  Te176  1  0.16583352  0.32999331  0.54864990  1
  Te2-  Te177  1  0.16641963  0.83225493  0.54817199  1
  Te2-  Te178  1  0.66545079  0.33346767  0.54832209  1
  Te2-  Te179  1  0.66609063  0.83307090  0.55008806  1
  Te2-  Te180  1  0.32868945  0.40954432  0.71111155  1
  Te2-  Te181  1  0.32708817  0.91400310  0.70748774  1
  Te2-  Te182  1  0.82787341  0.41418724  0.71012814  1
  Te2-  Te183  1  0.82681508  0.91119719  0.70821563  1
  Te2-  Te184  1  0.08821650  0.17224566  0.71029588  1
  Te2-  Te185  1  0.08646475  0.67227033  0.70863629  1
  Te2-  Te186  1  0.58384289  0.17285611  0.70855824  1
  Te2-  Te187  1  0.58993167  0.67337125  0.70730339  1
  Te2-  Te188  1  0.08547882  0.41017695  0.71003708  1
  Te2-  Te189  1  0.08645620  0.91452459  0.71026968  1
  Te2-  Te190  1  0.58633598  0.41161271  0.70858741  1
  Te2-  Te191  1  0.58821378  0.91355585  0.70569149  1
  Te2-  Te192  1  0.16133994  0.07917815  0.04482105  1
  Te2-  Te193  1  0.16193560  0.57978710  0.04631806  1
  Te2-  Te194  1  0.65953299  0.07954562  0.04341393  1
  Te2-  Te195  1  0.66192212  0.58334955  0.04727797  1
  Te2-  Te196  1  0.41757479  0.33802118  0.04590078  1
  Te2-  Te197  1  0.42030894  0.83725888  0.04438664  1
  Te2-  Te198  1  0.92031950  0.33990376  0.04548566  1
  Te2-  Te199  1  0.92091700  0.83890460  0.04657939  1
  Te2-  Te200  1  0.41948704  0.08187856  0.04259877  1
  Te2-  Te201  1  0.42086244  0.58047641  0.04713415  1
  Te2-  Te202  1  0.91810911  0.08125728  0.04687125  1
  Te2-  Te203  1  0.91991674  0.58216347  0.04656904  1
  Te2-  Te204  1  0.49470378  0.24760104  0.37641496  1
  Te2-  Te205  1  0.49090432  0.74990399  0.37921361  1
  Te2-  Te206  1  0.99256785  0.24523369  0.37808031  1
  Te2-  Te207  1  0.99266467  0.74405667  0.37510560  1
  Te2-  Te208  1  0.25248562  0.00393926  0.37539735  1
  Te2-  Te209  1  0.24824998  0.50531209  0.37890666  1
  Te2-  Te210  1  0.74862254  0.00542735  0.37877770  1
  Te2-  Te211  1  0.74991983  0.50576756  0.37559048  1
  Te2-  Te212  1  0.25034533  0.24423383  0.37550914  1
  Te2-  Te213  1  0.25164335  0.74646365  0.37914305  1
  Te2-  Te214  1  0.75001203  0.24418983  0.37791025  1
  Te2-  Te215  1  0.74976771  0.74455934  0.37599917  1
