# generated using pymatgen
data_Ti(CuTe)4
_symmetry_space_group_name_H-M   'P 1'
_cell_length_a   16.89583336
_cell_length_b   16.89125097
_cell_length_c   20.71490231
_cell_angle_alpha   89.96443855
_cell_angle_beta   90.01393191
_cell_angle_gamma   120.01755968
_symmetry_Int_Tables_number   1
_chemical_formula_structural   Ti(CuTe)4
_chemical_formula_sum   'Ti24 Cu96 Te96'
_cell_volume   5118.91592020
_cell_formula_units_Z   24
loop_
 _symmetry_equiv_pos_site_id
 _symmetry_equiv_pos_as_xyz
  1  'x, y, z'
loop_
 _atom_type_symbol
 _atom_type_oxidation_number
  Ti4+  4.0
  Cu+  1.0
  Te2-  -2.0
loop_
 _atom_site_type_symbol
 _atom_site_label
 _atom_site_symmetry_multiplicity
 _atom_site_fract_x
 _atom_site_fract_y
 _atom_site_fract_z
 _atom_site_occupancy
  Ti4+  Ti0  1  -0.00001865  -0.00046093  0.25738743  1
  Ti4+  Ti1  1  -0.00015939  0.49728430  0.25750707  1
  Ti4+  Ti2  1  0.50160841  -0.00237866  0.26218828  1
  Ti4+  Ti3  1  0.50183597  0.50163531  0.25950397  1
  Ti4+  Ti4  1  0.33435962  0.17095718  0.58777927  1
  Ti4+  Ti5  1  0.33384790  0.66929992  0.59240200  1
  Ti4+  Ti6  1  0.83316782  0.16662625  0.59378919  1
  Ti4+  Ti7  1  0.83706829  0.66802205  0.58710579  1
  Ti4+  Ti8  1  0.16649480  0.33182412  0.92315609  1
  Ti4+  Ti9  1  0.16604711  0.83279178  0.92399695  1
  Ti4+  Ti10  1  0.66271989  0.33073311  0.92352388  1
  Ti4+  Ti11  1  0.66388701  0.83393085  0.92438203  1
  Ti4+  Ti12  1  0.00016180  0.00117604  0.75386531  1
  Ti4+  Ti13  1  0.00066667  0.50129735  0.75398700  1
  Ti4+  Ti14  1  0.49922824  0.00019221  0.75358922  1
  Ti4+  Ti15  1  0.49922976  0.49912211  0.75545519  1
  Ti4+  Ti16  1  0.33169805  0.16515293  0.09127063  1
  Ti4+  Ti17  1  0.33419631  0.66650374  0.09145859  1
  Ti4+  Ti18  1  0.83243118  0.16566198  0.08970668  1
  Ti4+  Ti19  1  0.83200631  0.66528704  0.08771539  1
  Ti4+  Ti20  1  0.16881508  0.33356660  0.42251355  1
  Ti4+  Ti21  1  0.16562202  0.83206526  0.41913403  1
  Ti4+  Ti22  1  0.66664916  0.33275712  0.42048928  1
  Ti4+  Ti23  1  0.66700447  0.83391672  0.42373150  1
  Cu+  Cu24  1  0.40334224  0.30752554  0.80662418  1
  Cu+  Cu25  1  0.34550902  0.92663252  0.47701500  1
  Cu+  Cu26  1  0.07399852  0.92757028  0.47072471  1
  Cu+  Cu27  1  0.07436176  0.64458238  0.46993692  1
  Cu+  Cu28  1  0.40501201  0.58658847  0.81160984  1
  Cu+  Cu29  1  0.58010607  0.43041332  0.47407306  1
  Cu+  Cu30  1  0.40667080  0.82098103  0.81403486  1
  Cu+  Cu31  1  0.67597643  0.09070162  0.81446028  1
  Cu+  Cu32  1  0.90971080  0.09406789  0.80992048  1
  Cu+  Cu33  1  0.35486647  0.43427029  0.47471890  1
  Cu+  Cu34  1  0.52500019  0.76205381  0.14468461  1
  Cu+  Cu35  1  0.57882372  0.92894333  0.48151325  1
  Cu+  Cu36  1  0.16257937  0.08065329  0.17275207  1
  Cu+  Cu37  1  0.16273392  0.57899035  0.17330439  1
  Cu+  Cu38  1  0.66507831  0.07864177  0.17406677  1
  Cu+  Cu39  1  0.66394402  0.57998459  0.17081585  1
  Cu+  Cu40  1  0.41643615  0.33511844  0.17478962  1
  Cu+  Cu41  1  0.42431872  0.83509362  0.17525732  1
  Cu+  Cu42  1  0.91921859  0.33481589  0.17159148  1
  Cu+  Cu43  1  0.91718013  0.83504811  0.17113913  1
  Cu+  Cu44  1  0.41568133  0.07979467  0.17596831  1
  Cu+  Cu45  1  0.42267689  0.58553459  0.17316202  1
  Cu+  Cu46  1  0.91866819  0.08164165  0.17156097  1
  Cu+  Cu47  1  0.91795645  0.58044351  0.17074602  1
  Cu+  Cu48  1  0.49785775  0.25492949  0.50033912  1
  Cu+  Cu49  1  0.49740795  0.75316452  0.50552687  1
  Cu+  Cu50  1  0.99836696  0.24675597  0.50696873  1
  Cu+  Cu51  1  0.99774807  0.74777233  0.49858292  1
  Cu+  Cu52  1  0.24995059  0.00572418  0.50004671  1
  Cu+  Cu53  1  0.25463399  0.50430618  0.50551149  1
  Cu+  Cu54  1  0.75075618  0.00439856  0.50794542  1
  Cu+  Cu55  1  0.75298732  0.50480367  0.50094344  1
  Cu+  Cu56  1  0.25873499  0.25631011  0.50095670  1
  Cu+  Cu57  1  0.25139224  0.74896941  0.50167174  1
  Cu+  Cu58  1  0.75087658  0.24695139  0.50492204  1
  Cu+  Cu59  1  0.75530495  0.75050103  0.50231099  1
  Cu+  Cu60  1  0.32938781  0.41145331  0.83619657  1
  Cu+  Cu61  1  0.32523864  0.91203370  0.83640877  1
  Cu+  Cu62  1  0.83080506  0.41582060  0.83617320  1
  Cu+  Cu63  1  0.83079374  0.91876947  0.83601243  1
  Cu+  Cu64  1  0.08366792  0.17044396  0.83565304  1
  Cu+  Cu65  1  0.08512953  0.67003556  0.83670805  1
  Cu+  Cu66  1  0.58535647  0.17367344  0.83552615  1
  Cu+  Cu67  1  0.57947878  0.66880697  0.83720257  1
  Cu+  Cu68  1  0.08497994  0.41600894  0.83501292  1
  Cu+  Cu69  1  0.08590639  0.91625431  0.83724065  1
  Cu+  Cu70  1  0.57746652  0.40826323  0.83693212  1
  Cu+  Cu71  1  0.58372435  0.91229933  0.83445424  1
  Cu+  Cu72  1  0.16815388  0.08552098  0.67135371  1
  Cu+  Cu73  1  0.16854662  0.58603120  0.67538476  1
  Cu+  Cu74  1  0.66890122  0.08449704  0.68314575  1
  Cu+  Cu75  1  0.67269177  0.58523819  0.67352849  1
  Cu+  Cu76  1  0.41704400  0.33323767  0.67847006  1
  Cu+  Cu77  1  0.41434343  0.83318229  0.68221714  1
  Cu+  Cu78  1  0.91592223  0.33198892  0.67502178  1
  Cu+  Cu79  1  0.91913317  0.83230837  0.67227147  1
  Cu+  Cu80  1  0.41577870  0.08619468  0.67229793  1
  Cu+  Cu81  1  0.41748247  0.58739572  0.68170634  1
  Cu+  Cu82  1  0.91347678  0.08430732  0.68032758  1
  Cu+  Cu83  1  0.91845186  0.58576815  0.67117878  1
  Cu+  Cu84  1  0.00095436  0.24975627  0.00843912  1
  Cu+  Cu85  1  0.00099353  0.75012742  0.00668610  1
  Cu+  Cu86  1  0.49968408  0.24892639  0.00964462  1
  Cu+  Cu87  1  0.50017012  0.75099488  0.01509233  1
  Cu+  Cu88  1  0.24844645  0.49677138  0.00907885  1
  Cu+  Cu89  1  0.24759359  0.99537407  0.00862281  1
  Cu+  Cu90  1  0.74656693  0.49587463  0.00629149  1
  Cu+  Cu91  1  0.74751546  0.99968035  0.01026566  1
  Cu+  Cu92  1  0.24830471  0.24959945  0.00838068  1
  Cu+  Cu93  1  0.24808626  0.75067522  0.01000737  1
  Cu+  Cu94  1  0.74660119  0.24961202  0.00926398  1
  Cu+  Cu95  1  0.74653722  0.74982884  0.00802814  1
  Cu+  Cu96  1  0.33832304  0.41935374  0.34610734  1
  Cu+  Cu97  1  0.33735699  0.91520935  0.34716183  1
  Cu+  Cu98  1  0.83572220  0.41476829  0.34018114  1
  Cu+  Cu99  1  0.83660671  0.91888249  0.34106786  1
  Cu+  Cu100  1  0.08310441  0.16406729  0.34120405  1
  Cu+  Cu101  1  0.07944588  0.65921896  0.34257375  1
  Cu+  Cu102  1  0.58342933  0.16252884  0.34345992  1
  Cu+  Cu103  1  0.58436401  0.66671620  0.34271960  1
  Cu+  Cu104  1  0.08201626  0.41555492  0.34197624  1
  Cu+  Cu105  1  0.08075841  0.91773374  0.34242038  1
  Cu+  Cu106  1  0.58159604  0.41726351  0.34534042  1
  Cu+  Cu107  1  0.58269052  0.91704552  0.35101026  1
  Cu+  Cu108  1  -0.00167560  -0.00178534  0.11460391  1
  Cu+  Cu109  1  -0.00133558  0.49852772  0.11472048  1
  Cu+  Cu110  1  0.49978304  0.00278249  0.12044165  1
  Cu+  Cu111  1  0.49914119  0.49657027  0.11631483  1
  Cu+  Cu112  1  0.33379284  0.16700394  0.44249263  1
  Cu+  Cu113  1  0.33300141  0.66494586  0.44781951  1
  Cu+  Cu114  1  0.83808614  0.17001219  0.45078317  1
  Cu+  Cu115  1  0.83258783  0.66606286  0.44150678  1
  Cu+  Cu116  1  0.16527168  0.33364804  0.77860356  1
  Cu+  Cu117  1  0.16197621  0.83332026  0.77980229  1
  Cu+  Cu118  1  0.67062566  0.33965824  0.77971921  1
  Cu+  Cu119  1  0.66983237  0.82944929  0.78020817  1
  Te2-  Te120  1  -0.00057225  0.00143220  0.38860427  1
  Te2-  Te121  1  -0.00209336  0.49432875  0.38886348  1
  Te2-  Te122  1  0.50134198  0.00141359  0.39478424  1
  Te2-  Te123  1  0.50361757  0.50452736  0.39191966  1
  Te2-  Te124  1  0.33138880  0.16533859  0.71790452  1
  Te2-  Te125  1  0.33090024  0.66698977  0.72405202  1
  Te2-  Te126  1  0.83447230  0.17025219  0.72582090  1
  Te2-  Te127  1  0.83711760  0.66803991  0.71586425  1
  Te2-  Te128  1  0.16579321  0.33168796  0.05160413  1
  Te2-  Te129  1  0.16417047  0.83131123  0.05295715  1
  Te2-  Te130  1  0.66460695  0.33238940  0.05211327  1
  Te2-  Te131  1  0.66794239  0.83485396  0.05422281  1
  Te2-  Te132  1  0.48763227  0.23978126  0.88366593  1
  Te2-  Te133  1  0.48768448  0.74519746  0.88656561  1
  Te2-  Te134  1  0.99316740  0.24946146  0.88239405  1
  Te2-  Te135  1  0.99519519  0.74786752  0.88070775  1
  Te2-  Te136  1  0.25303368  0.00497767  0.88271424  1
  Te2-  Te137  1  0.25109732  0.50511198  0.88277357  1
  Te2-  Te138  1  0.75222116  0.00944301  0.88390918  1
  Te2-  Te139  1  0.74691743  0.50069821  0.87987585  1
  Te2-  Te140  1  0.25028315  0.24242926  0.88207313  1
  Te2-  Te141  1  0.25109314  0.74252267  0.88416217  1
  Te2-  Te142  1  0.75441348  0.24841954  0.88317299  1
  Te2-  Te143  1  0.74840006  0.74979445  0.88111445  1
  Te2-  Te144  1  0.33109582  0.41774378  0.21907768  1
  Te2-  Te145  1  0.33153254  0.91085334  0.21980737  1
  Te2-  Te146  1  0.82872885  0.41231921  0.21474628  1
  Te2-  Te147  1  0.82838590  0.91402854  0.21563722  1
  Te2-  Te148  1  0.08592302  0.17152255  0.21593280  1
  Te2-  Te149  1  0.08526422  0.66933869  0.21645444  1
  Te2-  Te150  1  0.58550324  0.16731031  0.21769103  1
  Te2-  Te151  1  0.59233613  0.67514408  0.21714423  1
  Te2-  Te152  1  0.08637174  0.41156250  0.21667568  1
  Te2-  Te153  1  0.08477508  0.91260876  0.21611092  1
  Te2-  Te154  1  0.58478314  0.41390970  0.21832828  1
  Te2-  Te155  1  0.59190992  0.91348151  0.22314890  1
  Te2-  Te156  1  0.16253620  0.08705887  0.54544501  1
  Te2-  Te157  1  0.16250386  0.58053265  0.54920321  1
  Te2-  Te158  1  0.65880394  0.08235057  0.55517354  1
  Te2-  Te159  1  0.66262354  0.58419422  0.54809141  1
  Te2-  Te160  1  0.42467992  0.34812050  0.55096484  1
  Te2-  Te161  1  0.41977734  0.84480338  0.55335192  1
  Te2-  Te162  1  0.91871390  0.33641665  0.54919590  1
  Te2-  Te163  1  0.92239334  0.84179215  0.54668622  1
  Te2-  Te164  1  0.42182760  0.08654726  0.54642616  1
  Te2-  Te165  1  0.42392582  0.58671764  0.55349103  1
  Te2-  Te166  1  0.91746373  0.07981085  0.55324002  1
  Te2-  Te167  1  0.92060117  0.57852191  0.54556979  1
  Te2-  Te168  1  0.00029591  0.00019430  0.88082036  1
  Te2-  Te169  1  -0.00027909  0.49998764  0.88006499  1
  Te2-  Te170  1  0.49833003  0.00025338  0.88097746  1
  Te2-  Te171  1  0.49936741  0.49953233  0.88294150  1
  Te2-  Te172  1  0.33164919  0.16536032  0.21748875  1
  Te2-  Te173  1  0.33230018  0.66437926  0.21804790  1
  Te2-  Te174  1  0.83481330  0.16609885  0.21590677  1
  Te2-  Te175  1  0.83348064  0.66525030  0.21388399  1
  Te2-  Te176  1  0.16816422  0.33401360  0.54948071  1
  Te2-  Te177  1  0.16730460  0.83577542  0.54755560  1
  Te2-  Te178  1  0.66760336  0.33489025  0.54733436  1
  Te2-  Te179  1  0.66829247  0.83272685  0.55046977  1
  Te2-  Te180  1  0.32567079  0.41406407  0.70858846  1
  Te2-  Te181  1  0.32513934  0.91694990  0.70935410  1
  Te2-  Te182  1  0.82929032  0.41588789  0.70928396  1
  Te2-  Te183  1  0.82774158  0.91108262  0.70889555  1
  Te2-  Te184  1  0.08737994  0.17388972  0.70853051  1
  Te2-  Te185  1  0.08684182  0.67380705  0.71017316  1
  Te2-  Te186  1  0.58485210  0.17461122  0.70936995  1
  Te2-  Te187  1  0.58991780  0.67227731  0.71017653  1
  Te2-  Te188  1  0.08662029  0.41502985  0.70901897  1
  Te2-  Te189  1  0.08763937  0.91683314  0.70985660  1
  Te2-  Te190  1  0.58870019  0.41599337  0.70985299  1
  Te2-  Te191  1  0.58697648  0.91142818  0.70865023  1
  Te2-  Te192  1  0.16110930  0.07931599  0.04593271  1
  Te2-  Te193  1  0.16241083  0.58036647  0.04687056  1
  Te2-  Te194  1  0.65909411  0.08007039  0.04751493  1
  Te2-  Te195  1  0.65976954  0.57918099  0.04417036  1
  Te2-  Te196  1  0.41753045  0.33657381  0.04732424  1
  Te2-  Te197  1  0.41757517  0.84000345  0.04803948  1
  Te2-  Te198  1  0.91785541  0.33702902  0.04490708  1
  Te2-  Te199  1  0.91749223  0.83708410  0.04389513  1
  Te2-  Te200  1  0.41700543  0.07905112  0.04835617  1
  Te2-  Te201  1  0.41813535  0.57807751  0.04588068  1
  Te2-  Te202  1  0.91827395  0.07979465  0.04481959  1
  Te2-  Te203  1  0.91727331  0.57939097  0.04360674  1
  Te2-  Te204  1  0.49371526  0.24429030  0.37423919  1
  Te2-  Te205  1  0.49309802  0.74422667  0.37909255  1
  Te2-  Te206  1  0.99645527  0.24630261  0.38001871  1
  Te2-  Te207  1  0.99242528  0.74498721  0.37193308  1
  Te2-  Te208  1  0.25372918  0.00586025  0.37266806  1
  Te2-  Te209  1  0.25242233  0.50603086  0.37793618  1
  Te2-  Te210  1  0.75603460  0.00722207  0.38053058  1
  Te2-  Te211  1  0.75504971  0.50482991  0.37411017  1
  Te2-  Te212  1  0.25326620  0.24636075  0.37484560  1
  Te2-  Te213  1  0.25167641  0.74253977  0.37510824  1
  Te2-  Te214  1  0.75324419  0.24565787  0.37892070  1
  Te2-  Te215  1  0.75406329  0.74950892  0.37683684  1
