# generated using pymatgen
data_Ti(CuTe)4
_symmetry_space_group_name_H-M   'P 1'
_cell_length_a   16.88813653
_cell_length_b   16.89250655
_cell_length_c   20.70998241
_cell_angle_alpha   90.01957235
_cell_angle_beta   90.01286808
_cell_angle_gamma   119.99443867
_symmetry_Int_Tables_number   1
_chemical_formula_structural   Ti(CuTe)4
_chemical_formula_sum   'Ti24 Cu96 Te96'
_cell_volume   5116.94151898
_cell_formula_units_Z   24
loop_
 _symmetry_equiv_pos_site_id
 _symmetry_equiv_pos_as_xyz
  1  'x, y, z'
loop_
 _atom_type_symbol
 _atom_type_oxidation_number
  Ti4+  4.0
  Cu+  1.0
  Te2-  -2.0
loop_
 _atom_site_type_symbol
 _atom_site_label
 _atom_site_symmetry_multiplicity
 _atom_site_fract_x
 _atom_site_fract_y
 _atom_site_fract_z
 _atom_site_occupancy
  Ti4+  Ti0  1  0.00149302  0.00252104  0.25968382  1
  Ti4+  Ti1  1  -0.00102250  0.50095241  0.25641748  1
  Ti4+  Ti2  1  0.49959489  0.00284001  0.25541032  1
  Ti4+  Ti3  1  0.50044323  0.50180890  0.26338870  1
  Ti4+  Ti4  1  0.33572238  0.16814630  0.59451934  1
  Ti4+  Ti5  1  0.33404209  0.66480824  0.59123510  1
  Ti4+  Ti6  1  0.83889754  0.16899254  0.58697633  1
  Ti4+  Ti7  1  0.83658343  0.66785440  0.59031849  1
  Ti4+  Ti8  1  0.16579202  0.33258239  0.92792774  1
  Ti4+  Ti9  1  0.16325845  0.83091455  0.92216123  1
  Ti4+  Ti10  1  0.66224949  0.33073344  0.92374386  1
  Ti4+  Ti11  1  0.66299347  0.82899730  0.92156450  1
  Ti4+  Ti12  1  -0.00025595  -0.00168102  0.75602202  1
  Ti4+  Ti13  1  0.00088848  0.49959460  0.75576525  1
  Ti4+  Ti14  1  0.50090278  0.00019745  0.75261408  1
  Ti4+  Ti15  1  0.50064520  0.50039233  0.75455725  1
  Ti4+  Ti16  1  0.33175583  0.16496664  0.09049222  1
  Ti4+  Ti17  1  0.33274971  0.66626210  0.09019794  1
  Ti4+  Ti18  1  0.83242855  0.16695679  0.08721730  1
  Ti4+  Ti19  1  0.83134896  0.66600069  0.09008764  1
  Ti4+  Ti20  1  0.16651670  0.33562117  0.42012192  1
  Ti4+  Ti21  1  0.16811663  0.83455478  0.42296491  1
  Ti4+  Ti22  1  0.66751681  0.33415005  0.42240275  1
  Ti4+  Ti23  1  0.66856561  0.83442522  0.42059466  1
  Cu+  Cu24  1  0.08423507  0.15783496  0.47895291  1
  Cu+  Cu25  1  0.90191625  0.80680429  0.80689383  1
  Cu+  Cu26  1  0.40582559  0.08653827  0.81145311  1
  Cu+  Cu27  1  0.40380024  0.81610062  0.80716014  1
  Cu+  Cu28  1  0.58116629  0.65412539  0.47974831  1
  Cu+  Cu29  1  0.73974011  0.26237449  0.13914206  1
  Cu+  Cu30  1  0.85290372  0.92191449  0.47326061  1
  Cu+  Cu31  1  0.40434845  0.31849335  0.81227868  1
  Cu+  Cu32  1  0.07464701  0.43041373  0.47110933  1
  Cu+  Cu33  1  0.01806099  0.25927021  0.14515515  1
  Cu+  Cu34  1  0.34616632  0.41988829  0.47975489  1
  Cu+  Cu35  1  0.40399268  0.58493550  0.81188407  1
  Cu+  Cu36  1  0.16387933  0.08277162  0.17282078  1
  Cu+  Cu37  1  0.16416645  0.58375686  0.17142872  1
  Cu+  Cu38  1  0.66160930  0.08731219  0.16794674  1
  Cu+  Cu39  1  0.66395719  0.58411564  0.17556580  1
  Cu+  Cu40  1  0.41606611  0.33522216  0.17636936  1
  Cu+  Cu41  1  0.41700833  0.83735531  0.17121800  1
  Cu+  Cu42  1  0.91787666  0.33736963  0.16864365  1
  Cu+  Cu43  1  0.91643808  0.83595365  0.17328874  1
  Cu+  Cu44  1  0.41766064  0.08141059  0.16976327  1
  Cu+  Cu45  1  0.41886267  0.58321512  0.17678271  1
  Cu+  Cu46  1  0.92268526  0.08542569  0.17190017  1
  Cu+  Cu47  1  0.91733222  0.58309082  0.17016177  1
  Cu+  Cu48  1  0.50106019  0.25064574  0.50716110  1
  Cu+  Cu49  1  0.49777151  0.74544473  0.50320164  1
  Cu+  Cu50  1  0.99668944  0.25027543  0.49845800  1
  Cu+  Cu51  1  1.00046674  0.75040495  0.50409737  1
  Cu+  Cu52  1  0.25362599  0.00186402  0.50688577  1
  Cu+  Cu53  1  0.25325527  0.50511830  0.50114416  1
  Cu+  Cu54  1  0.75955765  0.00398891  0.49990320  1
  Cu+  Cu55  1  0.75418676  0.50250140  0.50371969  1
  Cu+  Cu56  1  0.25743101  0.24745553  0.50517033  1
  Cu+  Cu57  1  0.25222388  0.74857690  0.50448757  1
  Cu+  Cu58  1  0.75520666  0.25100740  0.50181829  1
  Cu+  Cu59  1  0.75660066  0.74918930  0.50318186  1
  Cu+  Cu60  1  0.32547703  0.41235029  0.83910229  1
  Cu+  Cu61  1  0.32701650  0.91300400  0.83480259  1
  Cu+  Cu62  1  0.82971766  0.41468704  0.83834594  1
  Cu+  Cu63  1  0.82947059  0.90839633  0.83622113  1
  Cu+  Cu64  1  0.08239862  0.16773768  0.84104581  1
  Cu+  Cu65  1  0.08282086  0.66840912  0.83550526  1
  Cu+  Cu66  1  0.58143329  0.17076684  0.83475168  1
  Cu+  Cu67  1  0.58145232  0.67165406  0.83322439  1
  Cu+  Cu68  1  0.08253267  0.41392573  0.84087571  1
  Cu+  Cu69  1  0.07814175  0.90886617  0.83563144  1
  Cu+  Cu70  1  0.58000415  0.41001535  0.83563172  1
  Cu+  Cu71  1  0.57963325  0.90973019  0.83333390  1
  Cu+  Cu72  1  0.17046064  0.08675002  0.67783804  1
  Cu+  Cu73  1  0.16847625  0.58114988  0.67608148  1
  Cu+  Cu74  1  0.67478388  0.08752251  0.66961841  1
  Cu+  Cu75  1  0.67134810  0.58639398  0.67461663  1
  Cu+  Cu76  1  0.41698767  0.33189768  0.68237546  1
  Cu+  Cu77  1  0.41807756  0.83010833  0.67771128  1
  Cu+  Cu78  1  0.91955403  0.33286825  0.67280394  1
  Cu+  Cu79  1  0.91591348  0.83062683  0.67811416  1
  Cu+  Cu80  1  0.41884614  0.08708284  0.68091107  1
  Cu+  Cu81  1  0.41751996  0.58380333  0.68116759  1
  Cu+  Cu82  1  0.92036103  0.08637036  0.67311039  1
  Cu+  Cu83  1  0.91825790  0.58396376  0.67370569  1
  Cu+  Cu84  1  0.00230983  0.25017876  0.01497594  1
  Cu+  Cu85  1  -0.00138548  0.75015495  0.00819329  1
  Cu+  Cu86  1  0.49731361  0.24831711  0.01046141  1
  Cu+  Cu87  1  0.49877643  0.74747444  0.00885241  1
  Cu+  Cu88  1  0.24985000  0.49738060  0.01225134  1
  Cu+  Cu89  1  0.24611778  0.99572265  0.00741704  1
  Cu+  Cu90  1  0.74521940  0.49649478  0.00830351  1
  Cu+  Cu91  1  0.74705691  0.99367036  0.00420743  1
  Cu+  Cu92  1  0.24842254  0.25001487  0.01239294  1
  Cu+  Cu93  1  0.24787753  0.75027437  0.00712958  1
  Cu+  Cu94  1  0.74531377  0.24961797  0.00965241  1
  Cu+  Cu95  1  0.74668877  0.74816587  0.00751836  1
  Cu+  Cu96  1  0.33716660  0.42132032  0.34934663  1
  Cu+  Cu97  1  0.33608408  0.91947976  0.34013974  1
  Cu+  Cu98  1  0.83402799  0.41724981  0.34009482  1
  Cu+  Cu99  1  0.83835676  0.92127724  0.34463873  1
  Cu+  Cu100  1  0.08313308  0.16697772  0.34773859  1
  Cu+  Cu101  1  0.08349388  0.66634443  0.34086433  1
  Cu+  Cu102  1  0.58122669  0.16631060  0.33968132  1
  Cu+  Cu103  1  0.58224297  0.66547473  0.34940462  1
  Cu+  Cu104  1  0.08055579  0.41982462  0.34338120  1
  Cu+  Cu105  1  0.08466873  0.91996485  0.34308809  1
  Cu+  Cu106  1  0.58135900  0.41870525  0.34536999  1
  Cu+  Cu107  1  0.58036228  0.92117685  0.33718602  1
  Cu+  Cu108  1  -0.00138238  -0.00351392  0.11643810  1
  Cu+  Cu109  1  0.00062348  0.50411006  0.11286249  1
  Cu+  Cu110  1  0.49825335  -0.00290936  0.11157255  1
  Cu+  Cu111  1  0.49973650  0.49809635  0.12201972  1
  Cu+  Cu112  1  0.33906401  0.16259086  0.45146466  1
  Cu+  Cu113  1  0.33610633  0.67368174  0.44612213  1
  Cu+  Cu114  1  0.82737714  0.16484671  0.44206201  1
  Cu+  Cu115  1  0.83879775  0.66493761  0.44701094  1
  Cu+  Cu116  1  0.15896200  0.32879962  0.78508374  1
  Cu+  Cu117  1  0.16542259  0.83166782  0.77719249  1
  Cu+  Cu118  1  0.67146788  0.33603860  0.77953254  1
  Cu+  Cu119  1  0.67038342  0.83965681  0.77687719  1
  Te2-  Te120  1  0.00359701  0.00130995  0.39173626  1
  Te2-  Te121  1  -0.00242457  0.50291694  0.38693254  1
  Te2-  Te122  1  0.49993596  0.00264637  0.38475041  1
  Te2-  Te123  1  0.50160744  0.50073338  0.39633085  1
  Te2-  Te124  1  0.33255556  0.16603655  0.72649298  1
  Te2-  Te125  1  0.33168757  0.66448839  0.72302592  1
  Te2-  Te126  1  0.83739978  0.16819871  0.71572070  1
  Te2-  Te127  1  0.83439834  0.66361495  0.72060887  1
  Te2-  Te128  1  0.16818062  0.33363961  0.05828438  1
  Te2-  Te129  1  0.16386766  0.83104835  0.05070981  1
  Te2-  Te130  1  0.66248927  0.33268361  0.05371584  1
  Te2-  Te131  1  0.66437366  0.83079789  0.05013905  1
  Te2-  Te132  1  0.48521525  0.24234621  0.88441074  1
  Te2-  Te133  1  0.48553286  0.74227008  0.88279301  1
  Te2-  Te134  1  0.99463786  0.24677294  0.88728243  1
  Te2-  Te135  1  0.98909719  0.74097645  0.88227935  1
  Te2-  Te136  1  0.24682482  0.00348873  0.88113518  1
  Te2-  Te137  1  0.25027250  0.50556339  0.88605488  1
  Te2-  Te138  1  0.74874759  -0.00143176  0.87775604  1
  Te2-  Te139  1  0.74664052  0.50111765  0.88181332  1
  Te2-  Te140  1  0.25004252  0.24372161  0.88632377  1
  Te2-  Te141  1  0.24969316  0.74392967  0.88124300  1
  Te2-  Te142  1  0.74772573  0.24570635  0.88226150  1
  Te2-  Te143  1  0.74674822  0.73888584  0.88153371  1
  Te2-  Te144  1  0.32902779  0.41581234  0.22233601  1
  Te2-  Te145  1  0.32708833  0.91508178  0.21484011  1
  Te2-  Te146  1  0.82620847  0.41536431  0.21443845  1
  Te2-  Te147  1  0.83070299  0.91835677  0.21785571  1
  Te2-  Te148  1  0.09089849  0.17648047  0.21999523  1
  Te2-  Te149  1  0.08477959  0.67194984  0.21506712  1
  Te2-  Te150  1  0.58457014  0.17807367  0.21436175  1
  Te2-  Te151  1  0.58611768  0.67308136  0.22235595  1
  Te2-  Te152  1  0.08749403  0.41600727  0.21668400  1
  Te2-  Te153  1  0.08504532  0.91557785  0.21716871  1
  Te2-  Te154  1  0.58469667  0.41586190  0.21949892  1
  Te2-  Te155  1  0.58683965  0.91890403  0.21176093  1
  Te2-  Te156  1  0.16308802  0.07958776  0.55173270  1
  Te2-  Te157  1  0.16176324  0.58057593  0.54971776  1
  Te2-  Te158  1  0.66855619  0.08151615  0.54376115  1
  Te2-  Te159  1  0.66336790  0.57937427  0.54916564  1
  Te2-  Te160  1  0.42433189  0.34137032  0.55459303  1
  Te2-  Te161  1  0.42035244  0.83460195  0.55005587  1
  Te2-  Te162  1  0.92264530  0.34294286  0.54717498  1
  Te2-  Te163  1  0.92455967  0.84145078  0.55098660  1
  Te2-  Te164  1  0.42109406  0.08333493  0.55315494  1
  Te2-  Te165  1  0.42177654  0.57674403  0.55274111  1
  Te2-  Te166  1  0.92729439  0.08052525  0.54772230  1
  Te2-  Te167  1  0.92171094  0.58231860  0.54797919  1
  Te2-  Te168  1  -0.00227287  -0.00259727  0.88280164  1
  Te2-  Te169  1  -0.00185043  0.49979061  0.88199804  1
  Te2-  Te170  1  0.49914299  -0.00064987  0.88017527  1
  Te2-  Te171  1  0.49970113  0.50080233  0.88189432  1
  Te2-  Te172  1  0.33301839  0.16512944  0.21687013  1
  Te2-  Te173  1  0.33321001  0.66911726  0.21649734  1
  Te2-  Te174  1  0.83201002  0.16672853  0.21438356  1
  Te2-  Te175  1  0.83391372  0.66750705  0.21651761  1
  Te2-  Te176  1  0.16794947  0.33294673  0.54843214  1
  Te2-  Te177  1  0.16877149  0.83297363  0.54931544  1
  Te2-  Te178  1  0.67097679  0.33401534  0.54865468  1
  Te2-  Te179  1  0.66907718  0.83437184  0.54810030  1
  Te2-  Te180  1  0.32432296  0.41170478  0.71147215  1
  Te2-  Te181  1  0.32705359  0.91265494  0.70666782  1
  Te2-  Te182  1  0.83059499  0.41404830  0.71067784  1
  Te2-  Te183  1  0.82902956  0.91610669  0.70854870  1
  Te2-  Te184  1  0.08717898  0.17207520  0.71421432  1
  Te2-  Te185  1  0.08758135  0.67095867  0.70960991  1
  Te2-  Te186  1  0.59206162  0.17395114  0.70848504  1
  Te2-  Te187  1  0.59038948  0.67482334  0.70796624  1
  Te2-  Te188  1  0.08687119  0.41277208  0.71364146  1
  Te2-  Te189  1  0.08880349  0.91533049  0.70924073  1
  Te2-  Te190  1  0.59046823  0.41624060  0.70958271  1
  Te2-  Te191  1  0.59080361  0.91760808  0.70646166  1
  Te2-  Te192  1  0.15971343  0.07896956  0.04648340  1
  Te2-  Te193  1  0.16135435  0.58063039  0.04504840  1
  Te2-  Te194  1  0.66019070  0.07719371  0.04103591  1
  Te2-  Te195  1  0.65908724  0.57947184  0.04818432  1
  Te2-  Te196  1  0.41816984  0.33823331  0.04916523  1
  Te2-  Te197  1  0.41743209  0.83660631  0.04405835  1
  Te2-  Te198  1  0.91807648  0.34034502  0.04130932  1
  Te2-  Te199  1  0.91620415  0.83717490  0.04590502  1
  Te2-  Te200  1  0.41611157  0.07797181  0.04385826  1
  Te2-  Te201  1  0.41934200  0.57945114  0.04970481  1
  Te2-  Te202  1  0.91612088  0.07671793  0.04454824  1
  Te2-  Te203  1  0.91589992  0.57980448  0.04379936  1
  Te2-  Te204  1  0.49490239  0.24856068  0.38026169  1
  Te2-  Te205  1  0.49497091  0.75197775  0.37647401  1
  Te2-  Te206  1  0.99132013  0.24783601  0.37280125  1
  Te2-  Te207  1  0.99685784  0.74962465  0.37760973  1
  Te2-  Te208  1  0.25422416  0.00636796  0.37985387  1
  Te2-  Te209  1  0.25309124  0.51069652  0.37506959  1
  Te2-  Te210  1  0.75042544  0.00619108  0.37346346  1
  Te2-  Te211  1  0.75276574  0.50567212  0.37753225  1
  Te2-  Te212  1  0.25576122  0.24809318  0.37808921  1
  Te2-  Te213  1  0.25346185  0.74956737  0.37747377  1
  Te2-  Te214  1  0.75132029  0.24800046  0.37521802  1
  Te2-  Te215  1  0.75684912  0.74836142  0.37568990  1
