# generated using pymatgen
data_Ti(CuTe)4
_symmetry_space_group_name_H-M   'P 1'
_cell_length_a   16.87147622
_cell_length_b   16.86985650
_cell_length_c   20.68595214
_cell_angle_alpha   90.02000294
_cell_angle_beta   89.93197000
_cell_angle_gamma   119.98752234
_symmetry_Int_Tables_number   1
_chemical_formula_structural   Ti(CuTe)4
_chemical_formula_sum   'Ti24 Cu96 Te96'
_cell_volume   5099.46819820
_cell_formula_units_Z   24
loop_
 _symmetry_equiv_pos_site_id
 _symmetry_equiv_pos_as_xyz
  1  'x, y, z'
loop_
 _atom_type_symbol
 _atom_type_oxidation_number
  Ti4+  4.0
  Cu+  1.0
  Te2-  -2.0
loop_
 _atom_site_type_symbol
 _atom_site_label
 _atom_site_symmetry_multiplicity
 _atom_site_fract_x
 _atom_site_fract_y
 _atom_site_fract_z
 _atom_site_occupancy
  Ti4+  Ti0  1  0.00356759  -0.00014450  0.25463613  1
  Ti4+  Ti1  1  0.00112295  0.49825688  0.25876729  1
  Ti4+  Ti2  1  0.50319864  -0.00055478  0.25588439  1
  Ti4+  Ti3  1  0.50021055  0.49771135  0.25754573  1
  Ti4+  Ti4  1  0.33572455  0.16854335  0.59165070  1
  Ti4+  Ti5  1  0.33662637  0.66676798  0.59272393  1
  Ti4+  Ti6  1  0.83514281  0.16843988  0.59413063  1
  Ti4+  Ti7  1  0.83589425  0.66695076  0.59105393  1
  Ti4+  Ti8  1  0.16118647  0.33509476  0.92355491  1
  Ti4+  Ti9  1  0.16675708  0.83397606  0.92456709  1
  Ti4+  Ti10  1  0.66188124  0.33307664  0.92408220  1
  Ti4+  Ti11  1  0.66458598  0.83304190  0.92618585  1
  Ti4+  Ti12  1  -0.00229721  0.00014563  0.75650996  1
  Ti4+  Ti13  1  0.00190142  0.49966278  0.75567204  1
  Ti4+  Ti14  1  0.49841636  0.00211873  0.75670180  1
  Ti4+  Ti15  1  0.50000117  0.49987952  0.75620644  1
  Ti4+  Ti16  1  0.33169744  0.16710711  0.08741177  1
  Ti4+  Ti17  1  0.33160228  0.66723643  0.08823412  1
  Ti4+  Ti18  1  0.83204035  0.16707731  0.08835352  1
  Ti4+  Ti19  1  0.83198427  0.66686137  0.08680211  1
  Ti4+  Ti20  1  0.16856928  0.33293332  0.42396422  1
  Ti4+  Ti21  1  0.16589072  0.83264905  0.42297260  1
  Ti4+  Ti22  1  0.66917784  0.33318882  0.42266524  1
  Ti4+  Ti23  1  0.66619264  0.83290583  0.42306046  1
  Cu+  Cu24  1  0.90290540  0.31811415  0.81088740  1
  Cu+  Cu25  1  0.36137021  0.43105820  0.47326300  1
  Cu+  Cu26  1  0.02281054  0.26097038  0.14129260  1
  Cu+  Cu27  1  0.86153540  0.42993427  0.47488584  1
  Cu+  Cu28  1  0.19111112  0.59685413  0.80514276  1
  Cu+  Cu29  1  0.74809103  0.98472039  0.14309585  1
  Cu+  Cu30  1  0.51710235  0.75217904  0.14187457  1
  Cu+  Cu31  1  0.39971816  0.09714196  0.80808740  1
  Cu+  Cu32  1  0.52238923  0.26014507  0.14098215  1
  Cu+  Cu33  1  0.24899115  0.98530817  0.14263099  1
  Cu+  Cu34  1  0.01782611  0.75171324  0.14024656  1
  Cu+  Cu35  1  0.89847453  0.08822783  0.81008205  1
  Cu+  Cu36  1  0.16136530  0.07671076  0.16603116  1
  Cu+  Cu37  1  0.16042874  0.57836007  0.17043598  1
  Cu+  Cu38  1  0.66206151  0.07629230  0.16763696  1
  Cu+  Cu39  1  0.66036791  0.57802165  0.16876349  1
  Cu+  Cu40  1  0.42132099  0.33618396  0.16998421  1
  Cu+  Cu41  1  0.42342745  0.83507392  0.16734876  1
  Cu+  Cu42  1  0.92230930  0.33634554  0.17139044  1
  Cu+  Cu43  1  0.92376017  0.83529649  0.16504020  1
  Cu+  Cu44  1  0.42221152  0.08421307  0.16930372  1
  Cu+  Cu45  1  0.41639640  0.58034648  0.17184278  1
  Cu+  Cu46  1  0.92235948  0.08427842  0.16865296  1
  Cu+  Cu47  1  0.91661472  0.58075889  0.17199523  1
  Cu+  Cu48  1  0.49603023  0.24555238  0.50494861  1
  Cu+  Cu49  1  0.49666890  0.74858262  0.50562773  1
  Cu+  Cu50  1  0.99626575  0.24689193  0.50762323  1
  Cu+  Cu51  1  0.99513632  0.74877059  0.50470677  1
  Cu+  Cu52  1  0.25411234  0.00238271  0.50642893  1
  Cu+  Cu53  1  0.25723833  0.50225901  0.50657187  1
  Cu+  Cu54  1  0.75353129  0.00184447  0.50782320  1
  Cu+  Cu55  1  0.75766806  0.50279676  0.50407159  1
  Cu+  Cu56  1  0.25749061  0.25429220  0.50508063  1
  Cu+  Cu57  1  0.25109210  0.74858899  0.50788801  1
  Cu+  Cu58  1  0.75738223  0.25458186  0.50650394  1
  Cu+  Cu59  1  0.75182043  0.74890324  0.50564140  1
  Cu+  Cu60  1  0.32866914  0.41731205  0.83753510  1
  Cu+  Cu61  1  0.33018925  0.92191818  0.83726892  1
  Cu+  Cu62  1  0.82744833  0.41397559  0.83771977  1
  Cu+  Cu63  1  0.82833032  0.91726086  0.83947633  1
  Cu+  Cu64  1  0.07499247  0.16712946  0.83708498  1
  Cu+  Cu65  1  0.08822865  0.66898733  0.83767815  1
  Cu+  Cu66  1  0.57535183  0.16964779  0.83711882  1
  Cu+  Cu67  1  0.58131509  0.66818880  0.83984436  1
  Cu+  Cu68  1  0.08347375  0.41603253  0.83549746  1
  Cu+  Cu69  1  0.08246597  0.91298688  0.83863284  1
  Cu+  Cu70  1  0.58216226  0.41490854  0.83805231  1
  Cu+  Cu71  1  0.58205567  0.91377965  0.83969103  1
  Cu+  Cu72  1  0.16821218  0.08369169  0.67354937  1
  Cu+  Cu73  1  0.17434496  0.58597858  0.67816451  1
  Cu+  Cu74  1  0.66705843  0.08484874  0.67558203  1
  Cu+  Cu75  1  0.67235760  0.58505355  0.67362209  1
  Cu+  Cu76  1  0.41758441  0.33342235  0.67480933  1
  Cu+  Cu77  1  0.41680087  0.83263550  0.67623963  1
  Cu+  Cu78  1  0.91723475  0.33227223  0.68152418  1
  Cu+  Cu79  1  0.91501110  0.83035639  0.67488304  1
  Cu+  Cu80  1  0.41353146  0.08615702  0.67968600  1
  Cu+  Cu81  1  0.41794686  0.58410376  0.67622258  1
  Cu+  Cu82  1  0.91349623  0.08479298  0.68154098  1
  Cu+  Cu83  1  0.91715167  0.58522898  0.67482994  1
  Cu+  Cu84  1  -0.00094497  0.25471600  0.01371137  1
  Cu+  Cu85  1  0.00227983  0.75050176  0.01073481  1
  Cu+  Cu86  1  0.49959544  0.25362618  0.01272096  1
  Cu+  Cu87  1  0.50149145  0.75109593  0.01284295  1
  Cu+  Cu88  1  0.24444880  0.50075953  0.00800288  1
  Cu+  Cu89  1  0.24571534  0.99875617  0.01319519  1
  Cu+  Cu90  1  0.74568407  0.49840016  0.00626593  1
  Cu+  Cu91  1  0.74587049  0.99774615  0.01439963  1
  Cu+  Cu92  1  0.24415999  0.25317465  0.00577153  1
  Cu+  Cu93  1  0.24778867  0.74992825  0.00700922  1
  Cu+  Cu94  1  0.74490170  0.25159812  0.00748819  1
  Cu+  Cu95  1  0.74669136  0.74971312  0.00689483  1
  Cu+  Cu96  1  0.33810526  0.41772156  0.34436545  1
  Cu+  Cu97  1  0.33598770  0.91669774  0.34064785  1
  Cu+  Cu98  1  0.83908065  0.41722897  0.34525526  1
  Cu+  Cu99  1  0.83595225  0.91822586  0.33940539  1
  Cu+  Cu100  1  0.08222948  0.16500479  0.34024743  1
  Cu+  Cu101  1  0.08145885  0.66529397  0.34361123  1
  Cu+  Cu102  1  0.58384906  0.16462361  0.34045803  1
  Cu+  Cu103  1  0.58105930  0.66545187  0.34254003  1
  Cu+  Cu104  1  0.08243311  0.41311592  0.34402782  1
  Cu+  Cu105  1  0.08451127  0.91646773  0.34151616  1
  Cu+  Cu106  1  0.58214897  0.41338866  0.34241376  1
  Cu+  Cu107  1  0.58451401  0.91648531  0.34345446  1
  Cu+  Cu108  1  -0.00342466  -0.00187767  0.10750528  1
  Cu+  Cu109  1  -0.00457746  0.49922890  0.11425778  1
  Cu+  Cu110  1  0.49644578  -0.00136254  0.10960874  1
  Cu+  Cu111  1  0.49553788  0.49893126  0.11256847  1
  Cu+  Cu112  1  0.32850554  0.16223661  0.44870583  1
  Cu+  Cu113  1  0.33066056  0.66763009  0.45029010  1
  Cu+  Cu114  1  0.82854936  0.16190695  0.45164577  1
  Cu+  Cu115  1  0.82899470  0.66642882  0.44698734  1
  Cu+  Cu116  1  0.16982159  0.32973014  0.77997586  1
  Cu+  Cu117  1  0.16495003  0.83253770  0.78075793  1
  Cu+  Cu118  1  0.66681745  0.33495006  0.78011067  1
  Cu+  Cu119  1  0.66444500  0.82954603  0.78322788  1
  Te2-  Te120  1  0.00119710  -0.00056395  0.38278987  1
  Te2-  Te121  1  0.00540315  0.50080381  0.38918538  1
  Te2-  Te122  1  0.50125353  -0.00044732  0.38409296  1
  Te2-  Te123  1  0.50504303  0.50095151  0.38778449  1
  Te2-  Te124  1  0.33053105  0.17015760  0.72232381  1
  Te2-  Te125  1  0.34003470  0.66948159  0.72348157  1
  Te2-  Te126  1  0.82892180  0.16643689  0.72636164  1
  Te2-  Te127  1  0.83527675  0.66675686  0.72051853  1
  Te2-  Te128  1  0.16623731  0.33726700  0.05411910  1
  Te2-  Te129  1  0.16786798  0.83247324  0.05665239  1
  Te2-  Te130  1  0.66640155  0.33585533  0.05467325  1
  Te2-  Te131  1  0.66729121  0.83162185  0.05827202  1
  Te2-  Te132  1  0.48739777  0.24947507  0.88519361  1
  Te2-  Te133  1  0.49350897  0.74729230  0.88549477  1
  Te2-  Te134  1  0.98545728  0.24660725  0.88533728  1
  Te2-  Te135  1  0.99641011  0.74506939  0.88314100  1
  Te2-  Te136  1  0.24826625  0.00800535  0.88540762  1
  Te2-  Te137  1  0.25240259  0.50855172  0.88240000  1
  Te2-  Te138  1  0.74792498  0.00719937  0.88670523  1
  Te2-  Te139  1  0.75002395  0.50371590  0.88090249  1
  Te2-  Te140  1  0.24427427  0.24843684  0.87995450  1
  Te2-  Te141  1  0.25805667  0.75280451  0.88138038  1
  Te2-  Te142  1  0.74414336  0.24245924  0.88183197  1
  Te2-  Te143  1  0.75031092  0.74886564  0.88138952  1
  Te2-  Te144  1  0.32964954  0.41247640  0.21659198  1
  Te2-  Te145  1  0.33113504  0.91099082  0.21388674  1
  Te2-  Te146  1  0.83079605  0.41288605  0.21730899  1
  Te2-  Te147  1  0.83155214  0.91118046  0.21277625  1
  Te2-  Te148  1  0.09170219  0.17357478  0.21406849  1
  Te2-  Te149  1  0.08820736  0.67168048  0.21741528  1
  Te2-  Te150  1  0.59178143  0.17286886  0.21437625  1
  Te2-  Te151  1  0.58819803  0.67116173  0.21651828  1
  Te2-  Te152  1  0.09078728  0.41330924  0.21789079  1
  Te2-  Te153  1  0.09059896  0.90992038  0.21504606  1
  Te2-  Te154  1  0.58991137  0.41305267  0.21638786  1
  Te2-  Te155  1  0.59061815  0.90969736  0.21698149  1
  Te2-  Te156  1  0.16593082  0.08440980  0.54727147  1
  Te2-  Te157  1  0.16582156  0.57956819  0.55091374  1
  Te2-  Te158  1  0.66601744  0.08473575  0.54925589  1
  Te2-  Te159  1  0.66545522  0.57968551  0.54721712  1
  Te2-  Te160  1  0.42675959  0.34275533  0.54923523  1
  Te2-  Te161  1  0.41954312  0.83806331  0.55043422  1
  Te2-  Te162  1  0.92591485  0.34264941  0.55374066  1
  Te2-  Te163  1  0.91914470  0.83910370  0.54921449  1
  Te2-  Te164  1  0.42058920  0.08082717  0.55255211  1
  Te2-  Te165  1  0.42682564  0.58256290  0.55063445  1
  Te2-  Te166  1  0.91978569  0.08123456  0.55441139  1
  Te2-  Te167  1  0.92664695  0.58282513  0.54946149  1
  Te2-  Te168  1  -0.00201973  -0.00153933  0.88378368  1
  Te2-  Te169  1  -0.00316090  0.49937759  0.88354696  1
  Te2-  Te170  1  0.49857915  0.00061820  0.88379470  1
  Te2-  Te171  1  0.49677790  0.49914931  0.88312224  1
  Te2-  Te172  1  0.33194734  0.16492143  0.21503590  1
  Te2-  Te173  1  0.33122948  0.66561509  0.21527972  1
  Te2-  Te174  1  0.83282019  0.16497771  0.21594033  1
  Te2-  Te175  1  0.83118909  0.66630485  0.21387614  1
  Te2-  Te176  1  0.16712352  0.33234081  0.55093512  1
  Te2-  Te177  1  0.16544394  0.83317493  0.54980582  1
  Te2-  Te178  1  0.66647110  0.33343433  0.54954718  1
  Te2-  Te179  1  0.66646193  0.83250692  0.55002062  1
  Te2-  Te180  1  0.32835698  0.41423190  0.71062508  1
  Te2-  Te181  1  0.32624554  0.91297311  0.71037892  1
  Te2-  Te182  1  0.82805904  0.41591120  0.71028822  1
  Te2-  Te183  1  0.82520681  0.91129139  0.71153896  1
  Te2-  Te184  1  0.08675141  0.17230413  0.70976650  1
  Te2-  Te185  1  0.08731434  0.67220224  0.71023608  1
  Te2-  Te186  1  0.58657354  0.17458459  0.71018892  1
  Te2-  Te187  1  0.58809355  0.67140364  0.71217305  1
  Te2-  Te188  1  0.09017129  0.41327219  0.70911884  1
  Te2-  Te189  1  0.08477385  0.91475968  0.71203675  1
  Te2-  Te190  1  0.58709181  0.41514878  0.71145884  1
  Te2-  Te191  1  0.58602887  0.91582315  0.71343047  1
  Te2-  Te192  1  0.15792274  0.08371094  0.04044122  1
  Te2-  Te193  1  0.15736279  0.58165534  0.04472366  1
  Te2-  Te194  1  0.65776000  0.08219392  0.04214377  1
  Te2-  Te195  1  0.65835266  0.58020058  0.04305155  1
  Te2-  Te196  1  0.41349472  0.34018104  0.04259156  1
  Te2-  Te197  1  0.41769258  0.84013664  0.04103433  1
  Te2-  Te198  1  0.91378774  0.34097309  0.04401755  1
  Te2-  Te199  1  0.91763202  0.83924327  0.03866010  1
  Te2-  Te200  1  0.41874161  0.08031010  0.04078944  1
  Te2-  Te201  1  0.41508324  0.57810925  0.04327511  1
  Te2-  Te202  1  0.91929517  0.08097199  0.04028206  1
  Te2-  Te203  1  0.91594199  0.57793268  0.04299851  1
  Te2-  Te204  1  0.49536737  0.24465508  0.37900852  1
  Te2-  Te205  1  0.49309688  0.74657682  0.37928947  1
  Te2-  Te206  1  0.99451841  0.24470482  0.38127844  1
  Te2-  Te207  1  0.99320710  0.74693714  0.37843058  1
  Te2-  Te208  1  0.25419269  0.00417195  0.37834133  1
  Te2-  Te209  1  0.25338391  0.50542867  0.37866045  1
  Te2-  Te210  1  0.75446092  0.00496505  0.37955746  1
  Te2-  Te211  1  0.75342670  0.50516531  0.37620563  1
  Te2-  Te212  1  0.25227225  0.24517469  0.37707201  1
  Te2-  Te213  1  0.25229060  0.74724791  0.37950770  1
  Te2-  Te214  1  0.75355348  0.24485452  0.37818925  1
  Te2-  Te215  1  0.75224574  0.74828202  0.37752466  1
