# generated using pymatgen
data_Ti(CuTe)4
_symmetry_space_group_name_H-M   'P 1'
_cell_length_a   16.91176083
_cell_length_b   16.91096378
_cell_length_c   20.73225898
_cell_angle_alpha   90.00477139
_cell_angle_beta   89.99506979
_cell_angle_gamma   119.99519057
_symmetry_Int_Tables_number   1
_chemical_formula_structural   Ti(CuTe)4
_chemical_formula_sum   'Ti24 Cu96 Te96'
_cell_volume   5135.17782623
_cell_formula_units_Z   24
loop_
 _symmetry_equiv_pos_site_id
 _symmetry_equiv_pos_as_xyz
  1  'x, y, z'
loop_
 _atom_type_symbol
 _atom_type_oxidation_number
  Ti4+  4.0
  Cu+  1.0
  Te2-  -2.0
loop_
 _atom_site_type_symbol
 _atom_site_label
 _atom_site_symmetry_multiplicity
 _atom_site_fract_x
 _atom_site_fract_y
 _atom_site_fract_z
 _atom_site_occupancy
  Ti4+  Ti0  1  -0.00070647  0.00088489  0.25926377  1
  Ti4+  Ti1  1  0.00057692  0.50105584  0.25829822  1
  Ti4+  Ti2  1  0.49862329  0.00002792  0.25654912  1
  Ti4+  Ti3  1  0.49885068  0.50040659  0.26150305  1
  Ti4+  Ti4  1  0.33317319  0.16823913  0.58742524  1
  Ti4+  Ti5  1  0.33121833  0.66521111  0.59212097  1
  Ti4+  Ti6  1  0.83253933  0.16599434  0.59514496  1
  Ti4+  Ti7  1  0.83446709  0.66926542  0.58601121  1
  Ti4+  Ti8  1  0.16616973  0.33187335  0.92526759  1
  Ti4+  Ti9  1  0.16869847  0.83078651  0.92323658  1
  Ti4+  Ti10  1  0.66770862  0.33379690  0.92257154  1
  Ti4+  Ti11  1  0.66729280  0.83286384  0.92403542  1
  Ti4+  Ti12  1  0.00022129  -0.00070376  0.75513845  1
  Ti4+  Ti13  1  0.00009368  0.50068919  0.75374838  1
  Ti4+  Ti14  1  0.49861160  -0.00164644  0.75249692  1
  Ti4+  Ti15  1  0.50055332  0.49999742  0.75503455  1
  Ti4+  Ti16  1  0.33438256  0.16653427  0.08898291  1
  Ti4+  Ti17  1  0.33271312  0.66697900  0.09051954  1
  Ti4+  Ti18  1  0.83356988  0.16564014  0.08924630  1
  Ti4+  Ti19  1  0.83358303  0.66618064  0.09034248  1
  Ti4+  Ti20  1  0.16611379  0.33311919  0.42148458  1
  Ti4+  Ti21  1  0.16546046  0.83200725  0.42076983  1
  Ti4+  Ti22  1  0.66649979  0.33362943  0.41985942  1
  Ti4+  Ti23  1  0.66760901  0.83555693  0.42095153  1
  Cu+  Cu24  1  0.07326267  0.64351540  0.47345134  1
  Cu+  Cu25  1  0.34331052  0.42313848  0.48014300  1
  Cu+  Cu26  1  0.18090973  0.58635430  0.81241670  1
  Cu+  Cu27  1  0.91452278  0.32720611  0.81694619  1
  Cu+  Cu28  1  0.57786046  0.66021822  0.48036681  1
  Cu+  Cu29  1  0.85053669  0.93251512  0.47527693  1
  Cu+  Cu30  1  0.57715180  0.42325397  0.47623405  1
  Cu+  Cu31  1  0.23773031  0.76189398  0.14247970  1
  Cu+  Cu32  1  0.67336112  0.08612517  0.81492525  1
  Cu+  Cu33  1  0.41216792  0.81550341  0.80859561  1
  Cu+  Cu34  1  0.91196719  0.08774750  0.81520275  1
  Cu+  Cu35  1  0.07878111  0.92853697  0.47295000  1
  Cu+  Cu36  1  0.16473271  0.08217047  0.17247728  1
  Cu+  Cu37  1  0.16342410  0.58653433  0.17231857  1
  Cu+  Cu38  1  0.66386915  0.08118730  0.17113223  1
  Cu+  Cu39  1  0.66363873  0.58319012  0.17498044  1
  Cu+  Cu40  1  0.41623040  0.33600846  0.17392192  1
  Cu+  Cu41  1  0.41345395  0.83686894  0.17122726  1
  Cu+  Cu42  1  0.91886976  0.33482703  0.17248983  1
  Cu+  Cu43  1  0.91635412  0.83641077  0.17381449  1
  Cu+  Cu44  1  0.41928125  0.08249334  0.16980451  1
  Cu+  Cu45  1  0.41744155  0.58129137  0.17538014  1
  Cu+  Cu46  1  0.91680672  0.08056208  0.17283132  1
  Cu+  Cu47  1  0.91877063  0.58252174  0.17247255  1
  Cu+  Cu48  1  0.49615148  0.25029288  0.50058012  1
  Cu+  Cu49  1  0.49460928  0.74954813  0.50427269  1
  Cu+  Cu50  1  0.99542287  0.24786075  0.50613328  1
  Cu+  Cu51  1  0.99790626  0.74882336  0.49929751  1
  Cu+  Cu52  1  0.24944731  0.00450700  0.50243333  1
  Cu+  Cu53  1  0.25063068  0.50424012  0.50402536  1
  Cu+  Cu54  1  0.75435705  0.00711697  0.50605154  1
  Cu+  Cu55  1  0.75093082  0.50516579  0.49885620  1
  Cu+  Cu56  1  0.25373066  0.24885063  0.50031014  1
  Cu+  Cu57  1  0.24607362  0.74334363  0.50532525  1
  Cu+  Cu58  1  0.75053410  0.24809515  0.50708398  1
  Cu+  Cu59  1  0.75556791  0.75278268  0.49857494  1
  Cu+  Cu60  1  0.33226019  0.41432541  0.83860188  1
  Cu+  Cu61  1  0.32926271  0.90803948  0.83375354  1
  Cu+  Cu62  1  0.82739263  0.41416019  0.83479108  1
  Cu+  Cu63  1  0.83083734  0.91463188  0.83701956  1
  Cu+  Cu64  1  0.08429337  0.16845287  0.83787299  1
  Cu+  Cu65  1  0.09082051  0.67153561  0.83486738  1
  Cu+  Cu66  1  0.58618085  0.17262690  0.83406060  1
  Cu+  Cu67  1  0.58636034  0.66843998  0.83755829  1
  Cu+  Cu68  1  0.08813650  0.41244747  0.83657425  1
  Cu+  Cu69  1  0.08574411  0.91323748  0.83739610  1
  Cu+  Cu70  1  0.58687275  0.41663113  0.83688426  1
  Cu+  Cu71  1  0.58622526  0.91119486  0.83456776  1
  Cu+  Cu72  1  0.16953541  0.08457495  0.67301948  1
  Cu+  Cu73  1  0.16760389  0.58480310  0.68099690  1
  Cu+  Cu74  1  0.66805169  0.08313889  0.68114939  1
  Cu+  Cu75  1  0.66820770  0.58522350  0.67298905  1
  Cu+  Cu76  1  0.41660865  0.33265191  0.67441290  1
  Cu+  Cu77  1  0.41167275  0.82875526  0.67853768  1
  Cu+  Cu78  1  0.91365469  0.33037994  0.68264145  1
  Cu+  Cu79  1  0.91801498  0.83336860  0.67224728  1
  Cu+  Cu80  1  0.41390029  0.08554757  0.67003536  1
  Cu+  Cu81  1  0.41545273  0.58301478  0.67740496  1
  Cu+  Cu82  1  0.91458643  0.08428646  0.68335532  1
  Cu+  Cu83  1  0.91555139  0.58626848  0.67118483  1
  Cu+  Cu84  1  0.00239313  0.24949107  0.01134341  1
  Cu+  Cu85  1  0.00237112  0.74946467  0.00810672  1
  Cu+  Cu86  1  0.50357504  0.25268665  0.00665752  1
  Cu+  Cu87  1  0.50243632  0.74972747  0.00957855  1
  Cu+  Cu88  1  0.24902579  0.49649959  0.01096205  1
  Cu+  Cu89  1  0.25142303  0.99754376  0.00676380  1
  Cu+  Cu90  1  0.74887001  0.49740858  0.00802895  1
  Cu+  Cu91  1  0.74946084  0.99704090  0.00966327  1
  Cu+  Cu92  1  0.24925227  0.25002548  0.00913068  1
  Cu+  Cu93  1  0.24960752  0.74956111  0.01296844  1
  Cu+  Cu94  1  0.75001059  0.25075363  0.00847954  1
  Cu+  Cu95  1  0.74965270  0.75044114  0.00899800  1
  Cu+  Cu96  1  0.33508155  0.41844160  0.34855383  1
  Cu+  Cu97  1  0.33634458  0.91705584  0.34053661  1
  Cu+  Cu98  1  0.83596057  0.41588219  0.34099293  1
  Cu+  Cu99  1  0.83622130  0.92183691  0.34630389  1
  Cu+  Cu100  1  0.08045527  0.16593377  0.34118883  1
  Cu+  Cu101  1  0.08358541  0.66250664  0.34552970  1
  Cu+  Cu102  1  0.58364281  0.16347883  0.33991763  1
  Cu+  Cu103  1  0.58038277  0.66520294  0.34833378  1
  Cu+  Cu104  1  0.08166902  0.41722837  0.34132642  1
  Cu+  Cu105  1  0.08062003  0.91879086  0.34464565  1
  Cu+  Cu106  1  0.58065877  0.41795817  0.34629174  1
  Cu+  Cu107  1  0.58190247  0.92034884  0.33953376  1
  Cu+  Cu108  1  0.00187438  -0.00060415  0.11700326  1
  Cu+  Cu109  1  -0.00305323  0.49678469  0.11617090  1
  Cu+  Cu110  1  0.50264033  0.00188966  0.11338145  1
  Cu+  Cu111  1  0.50070775  0.49978430  0.11932206  1
  Cu+  Cu112  1  0.33395452  0.16452268  0.44268294  1
  Cu+  Cu113  1  0.33350073  0.66913607  0.44754116  1
  Cu+  Cu114  1  0.83407903  0.17170812  0.45050233  1
  Cu+  Cu115  1  0.83310614  0.66635912  0.44045311  1
  Cu+  Cu116  1  0.17109474  0.32995820  0.78213668  1
  Cu+  Cu117  1  0.16590600  0.83557238  0.77825362  1
  Cu+  Cu118  1  0.66414579  0.33467096  0.77717191  1
  Cu+  Cu119  1  0.66940560  0.82954456  0.78017634  1
  Te2-  Te120  1  0.00146523  0.00476847  0.39202616  1
  Te2-  Te121  1  -0.00150595  0.49643687  0.38915051  1
  Te2-  Te122  1  0.49954900  0.00055011  0.38599106  1
  Te2-  Te123  1  0.49958250  0.50102711  0.39539859  1
  Te2-  Te124  1  0.33375904  0.16780448  0.71626191  1
  Te2-  Te125  1  0.33315948  0.66391505  0.72397356  1
  Te2-  Te126  1  0.83172689  0.16608433  0.72851137  1
  Te2-  Te127  1  0.83355134  0.66841230  0.71431548  1
  Te2-  Te128  1  0.16716709  0.33180978  0.05388372  1
  Te2-  Te129  1  0.16656709  0.83385853  0.05304283  1
  Te2-  Te130  1  0.66738804  0.33293743  0.05102810  1
  Te2-  Te131  1  0.66713517  0.83239100  0.05263198  1
  Te2-  Te132  1  0.49689136  0.24824191  0.88045188  1
  Te2-  Te133  1  0.49436129  0.74379337  0.88328028  1
  Te2-  Te134  1  0.98986293  0.24432268  0.88540211  1
  Te2-  Te135  1  0.99796754  0.74512269  0.88171784  1
  Te2-  Te136  1  0.25480066  0.00076517  0.88036302  1
  Te2-  Te137  1  0.25541461  0.50488590  0.88465097  1
  Te2-  Te138  1  0.75443316  0.00891594  0.88381355  1
  Te2-  Te139  1  0.75428306  0.50532596  0.88187995  1
  Te2-  Te140  1  0.25052645  0.24628279  0.88283493  1
  Te2-  Te141  1  0.25760914  0.74223608  0.88529548  1
  Te2-  Te142  1  0.75552279  0.24451279  0.88288549  1
  Te2-  Te143  1  0.75365046  0.74877423  0.88270058  1
  Te2-  Te144  1  0.32794344  0.41458932  0.22122259  1
  Te2-  Te145  1  0.32367323  0.91597524  0.21557760  1
  Te2-  Te146  1  0.82987509  0.41417202  0.21545439  1
  Te2-  Te147  1  0.82761376  0.91485037  0.21978050  1
  Te2-  Te148  1  0.08478797  0.17098181  0.21579102  1
  Te2-  Te149  1  0.08502238  0.67561823  0.21912351  1
  Te2-  Te150  1  0.58637711  0.17146432  0.21450185  1
  Te2-  Te151  1  0.58427636  0.67139369  0.22096208  1
  Te2-  Te152  1  0.08748189  0.41759766  0.21566856  1
  Te2-  Te153  1  0.08425316  0.91490540  0.21808893  1
  Te2-  Te154  1  0.58362069  0.41526558  0.21931357  1
  Te2-  Te155  1  0.58239969  0.91271927  0.21410272  1
  Te2-  Te156  1  0.15935255  0.08411784  0.54779254  1
  Te2-  Te157  1  0.15742551  0.57554101  0.55326274  1
  Te2-  Te158  1  0.66233108  0.08065466  0.55339328  1
  Te2-  Te159  1  0.65923970  0.58239675  0.54733929  1
  Te2-  Te160  1  0.42234543  0.34512147  0.54906732  1
  Te2-  Te161  1  0.41406788  0.83450613  0.55110364  1
  Te2-  Te162  1  0.91764571  0.33641371  0.55423352  1
  Te2-  Te163  1  0.92302047  0.84437612  0.54668086  1
  Te2-  Te164  1  0.41766899  0.08266980  0.54432808  1
  Te2-  Te165  1  0.42053352  0.57941412  0.55140821  1
  Te2-  Te166  1  0.92219195  0.08237773  0.55496545  1
  Te2-  Te167  1  0.91723393  0.57927958  0.54558409  1
  Te2-  Te168  1  0.00122008  -0.00228280  0.88216532  1
  Te2-  Te169  1  0.00017077  0.49968618  0.88128460  1
  Te2-  Te170  1  0.50075268  -0.00025618  0.87998010  1
  Te2-  Te171  1  0.50162627  0.49959677  0.88115899  1
  Te2-  Te172  1  0.33394693  0.16608778  0.21509830  1
  Te2-  Te173  1  0.33311223  0.66754311  0.21707293  1
  Te2-  Te174  1  0.83239343  0.16578042  0.21552487  1
  Te2-  Te175  1  0.83349216  0.66683798  0.21647913  1
  Te2-  Te176  1  0.16689972  0.33270644  0.54842955  1
  Te2-  Te177  1  0.16641224  0.83448026  0.54803822  1
  Te2-  Te178  1  0.66641364  0.33555876  0.54687494  1
  Te2-  Te179  1  0.66670156  0.83404590  0.54860489  1
  Te2-  Te180  1  0.32820344  0.41324070  0.71177477  1
  Te2-  Te181  1  0.32595071  0.91580154  0.70740198  1
  Te2-  Te182  1  0.82675971  0.41693820  0.70838798  1
  Te2-  Te183  1  0.82734006  0.91135180  0.70977631  1
  Te2-  Te184  1  0.08793704  0.17218174  0.71065015  1
  Te2-  Te185  1  0.08422802  0.67403352  0.70868468  1
  Te2-  Te186  1  0.58310814  0.17183512  0.70763488  1
  Te2-  Te187  1  0.58592899  0.67175747  0.71069426  1
  Te2-  Te188  1  0.08681880  0.41180071  0.70982700  1
  Te2-  Te189  1  0.08680864  0.91522602  0.71009851  1
  Te2-  Te190  1  0.58657131  0.41560613  0.70960128  1
  Te2-  Te191  1  0.58499880  0.90977177  0.70770956  1
  Te2-  Te192  1  0.16295459  0.07935063  0.04525899  1
  Te2-  Te193  1  0.15999182  0.57778498  0.04552940  1
  Te2-  Te194  1  0.66240349  0.08054860  0.04430922  1
  Te2-  Te195  1  0.66211124  0.58051506  0.04756833  1
  Te2-  Te196  1  0.41961964  0.33840186  0.04662795  1
  Te2-  Te197  1  0.42172863  0.83911206  0.04434779  1
  Te2-  Te198  1  0.91967187  0.33750940  0.04564790  1
  Te2-  Te199  1  0.91989049  0.83737607  0.04652241  1
  Te2-  Te200  1  0.42117422  0.08226157  0.04343464  1
  Te2-  Te201  1  0.41893428  0.58032586  0.04863016  1
  Te2-  Te202  1  0.91939721  0.07894425  0.04643430  1
  Te2-  Te203  1  0.91880220  0.57999420  0.04592624  1
  Te2-  Te204  1  0.49435106  0.24500962  0.37405294  1
  Te2-  Te205  1  0.49382265  0.75108315  0.37753394  1
  Te2-  Te206  1  0.99332949  0.24772155  0.37950723  1
  Te2-  Te207  1  0.99312779  0.74600758  0.37274031  1
  Te2-  Te208  1  0.25320118  0.00445141  0.37528441  1
  Te2-  Te209  1  0.25095333  0.50699490  0.37780284  1
  Te2-  Te210  1  0.75125832  0.00910879  0.37884500  1
  Te2-  Te211  1  0.75432637  0.50561070  0.37267140  1
  Te2-  Te212  1  0.25084825  0.24491516  0.37456433  1
  Te2-  Te213  1  0.25510010  0.74821746  0.37806285  1
  Te2-  Te214  1  0.75241975  0.24684918  0.37961936  1
  Te2-  Te215  1  0.75385736  0.74820342  0.37256104  1
