# generated using pymatgen
data_Ti(CuTe)4
_symmetry_space_group_name_H-M   'P 1'
_cell_length_a   16.87472076
_cell_length_b   16.87093217
_cell_length_c   20.68466828
_cell_angle_alpha   90.01264702
_cell_angle_beta   89.97012483
_cell_angle_gamma   119.99373500
_symmetry_Int_Tables_number   1
_chemical_formula_structural   Ti(CuTe)4
_chemical_formula_sum   'Ti24 Cu96 Te96'
_cell_volume   5100.14144357
_cell_formula_units_Z   24
loop_
 _symmetry_equiv_pos_site_id
 _symmetry_equiv_pos_as_xyz
  1  'x, y, z'
loop_
 _atom_type_symbol
 _atom_type_oxidation_number
  Ti4+  4.0
  Cu+  1.0
  Te2-  -2.0
loop_
 _atom_site_type_symbol
 _atom_site_label
 _atom_site_symmetry_multiplicity
 _atom_site_fract_x
 _atom_site_fract_y
 _atom_site_fract_z
 _atom_site_occupancy
  Ti4+  Ti0  1  -0.00164799  -0.00035559  0.25905898  1
  Ti4+  Ti1  1  -0.00169636  0.50201135  0.25514474  1
  Ti4+  Ti2  1  0.50005921  -0.00256780  0.25969397  1
  Ti4+  Ti3  1  0.50235317  0.49751974  0.25858754  1
  Ti4+  Ti4  1  0.33160915  0.16940978  0.58778014  1
  Ti4+  Ti5  1  0.33367722  0.67055349  0.58754800  1
  Ti4+  Ti6  1  0.83415349  0.16726671  0.59155191  1
  Ti4+  Ti7  1  0.83269121  0.66715782  0.59503356  1
  Ti4+  Ti8  1  0.16735680  0.33264777  0.92297976  1
  Ti4+  Ti9  1  0.16767447  0.83403106  0.92733793  1
  Ti4+  Ti10  1  0.66692319  0.32980701  0.92433278  1
  Ti4+  Ti11  1  0.66833861  0.83163686  0.92388619  1
  Ti4+  Ti12  1  -0.00182870  -0.00110301  0.75462830  1
  Ti4+  Ti13  1  -0.00061151  0.49939407  0.75471125  1
  Ti4+  Ti14  1  0.50049263  0.00138793  0.75698145  1
  Ti4+  Ti15  1  0.50081411  0.50133764  0.75543929  1
  Ti4+  Ti16  1  0.33326729  0.16661777  0.08985904  1
  Ti4+  Ti17  1  0.33340484  0.66823534  0.08884181  1
  Ti4+  Ti18  1  0.83344633  0.16547695  0.09029201  1
  Ti4+  Ti19  1  0.83258921  0.66318815  0.08848280  1
  Ti4+  Ti20  1  0.16564830  0.33159456  0.42007154  1
  Ti4+  Ti21  1  0.16704640  0.83353950  0.42250697  1
  Ti4+  Ti22  1  0.66571341  0.33418723  0.42371704  1
  Ti4+  Ti23  1  0.66467642  0.83278042  0.42176522  1
  Cu+  Cu24  1  0.68504576  0.58627917  0.81259695  1
  Cu+  Cu25  1  0.57964802  0.93247075  0.47557072  1
  Cu+  Cu26  1  0.57951886  0.43355636  0.47736500  1
  Cu+  Cu27  1  0.34835137  0.42906716  0.47440817  1
  Cu+  Cu28  1  0.06952928  0.14235040  0.47209630  1
  Cu+  Cu29  1  0.91124788  0.31509001  0.80901243  1
  Cu+  Cu30  1  0.68660008  0.08773394  0.80946282  1
  Cu+  Cu31  1  0.73647326  0.47185314  0.13841594  1
  Cu+  Cu32  1  0.01271079  0.76084152  0.14469498  1
  Cu+  Cu33  1  0.35183816  0.93244641  0.47550542  1
  Cu+  Cu34  1  0.24632888  0.76629847  0.14324642  1
  Cu+  Cu35  1  0.91338133  0.81499232  0.81181608  1
  Cu+  Cu36  1  0.16409713  0.08496227  0.17262609  1
  Cu+  Cu37  1  0.16530392  0.58881352  0.16814625  1
  Cu+  Cu38  1  0.66462501  0.07793167  0.17439322  1
  Cu+  Cu39  1  0.66295588  0.57279905  0.17022159  1
  Cu+  Cu40  1  0.41981222  0.33514730  0.17224907  1
  Cu+  Cu41  1  0.41883069  0.83732804  0.17290689  1
  Cu+  Cu42  1  0.91707736  0.33623430  0.17065108  1
  Cu+  Cu43  1  0.91881370  0.83877561  0.17187975  1
  Cu+  Cu44  1  0.41696688  0.08162951  0.17264820  1
  Cu+  Cu45  1  0.41871072  0.58143791  0.17249671  1
  Cu+  Cu46  1  0.91714357  0.08188139  0.17412152  1
  Cu+  Cu47  1  0.91547893  0.57891662  0.16722335  1
  Cu+  Cu48  1  0.49766266  0.25486976  0.50114820  1
  Cu+  Cu49  1  0.49571432  0.75410208  0.49902325  1
  Cu+  Cu50  1  0.99681462  0.24590043  0.50310872  1
  Cu+  Cu51  1  0.99705525  0.75137869  0.50821578  1
  Cu+  Cu52  1  0.25253393  0.00491054  0.50250137  1
  Cu+  Cu53  1  0.25181486  0.50603830  0.50063976  1
  Cu+  Cu54  1  0.75002511  0.00389917  0.50387306  1
  Cu+  Cu55  1  0.74985957  0.50349166  0.50826175  1
  Cu+  Cu56  1  0.24855411  0.24792813  0.49927850  1
  Cu+  Cu57  1  0.25545491  0.75413077  0.50119420  1
  Cu+  Cu58  1  0.75339548  0.25091859  0.50599416  1
  Cu+  Cu59  1  0.75173615  0.74956772  0.50710340  1
  Cu+  Cu60  1  0.32922937  0.41332980  0.83668475  1
  Cu+  Cu61  1  0.33022813  0.91422422  0.84078598  1
  Cu+  Cu62  1  0.82993437  0.40975821  0.83531459  1
  Cu+  Cu63  1  0.83002827  0.90965091  0.83471824  1
  Cu+  Cu64  1  0.08833794  0.17189096  0.83563096  1
  Cu+  Cu65  1  0.08825627  0.67108885  0.83955956  1
  Cu+  Cu66  1  0.58856545  0.16763918  0.83724313  1
  Cu+  Cu67  1  0.58916194  0.66850421  0.83654471  1
  Cu+  Cu68  1  0.08464312  0.41389323  0.83551455  1
  Cu+  Cu69  1  0.08464657  0.91530021  0.83953467  1
  Cu+  Cu70  1  0.58483216  0.41366899  0.83911306  1
  Cu+  Cu71  1  0.58666982  0.91562970  0.83882501  1
  Cu+  Cu72  1  0.16626111  0.08441718  0.67273926  1
  Cu+  Cu73  1  0.16884760  0.58846853  0.67042592  1
  Cu+  Cu74  1  0.66787350  0.08585647  0.68070757  1
  Cu+  Cu75  1  0.66877047  0.58490656  0.68332159  1
  Cu+  Cu76  1  0.41450716  0.33396114  0.67427520  1
  Cu+  Cu77  1  0.41409197  0.83469526  0.67536186  1
  Cu+  Cu78  1  0.91524171  0.33138418  0.67852290  1
  Cu+  Cu79  1  0.91376622  0.82997212  0.68210586  1
  Cu+  Cu80  1  0.41268955  0.08456885  0.67438873  1
  Cu+  Cu81  1  0.41433895  0.58625542  0.67166864  1
  Cu+  Cu82  1  0.91630656  0.08356253  0.67502815  1
  Cu+  Cu83  1  0.91763242  0.58503028  0.67665229  1
  Cu+  Cu84  1  0.00296338  0.25067489  0.00723114  1
  Cu+  Cu85  1  0.00165150  0.75056121  0.01510976  1
  Cu+  Cu86  1  0.50023283  0.24903157  0.00798019  1
  Cu+  Cu87  1  0.50309126  0.75056819  0.00655564  1
  Cu+  Cu88  1  0.24943766  0.49662350  0.00569635  1
  Cu+  Cu89  1  0.24872229  1.00009969  0.00982067  1
  Cu+  Cu90  1  0.74687440  0.49397404  0.01191445  1
  Cu+  Cu91  1  0.75021230  0.99644517  0.00860028  1
  Cu+  Cu92  1  0.25036736  0.25240274  0.00661146  1
  Cu+  Cu93  1  0.25044678  0.75403236  0.01448549  1
  Cu+  Cu94  1  0.74891927  0.24639326  0.01155061  1
  Cu+  Cu95  1  0.74834619  0.74810763  0.01126017  1
  Cu+  Cu96  1  0.33681609  0.41709360  0.34488493  1
  Cu+  Cu97  1  0.33520586  0.91526661  0.34771072  1
  Cu+  Cu98  1  0.83384197  0.41817986  0.34154179  1
  Cu+  Cu99  1  0.83319988  0.91560732  0.34203573  1
  Cu+  Cu100  1  0.07653274  0.16052686  0.34517231  1
  Cu+  Cu101  1  0.07819728  0.66472287  0.34204241  1
  Cu+  Cu102  1  0.58511241  0.16533639  0.34122118  1
  Cu+  Cu103  1  0.58598748  0.66440686  0.33962973  1
  Cu+  Cu104  1  0.08018265  0.41853381  0.33654765  1
  Cu+  Cu105  1  0.08023945  0.91567089  0.34236167  1
  Cu+  Cu106  1  0.58322694  0.41717907  0.34779291  1
  Cu+  Cu107  1  0.57954656  0.91508570  0.34663921  1
  Cu+  Cu108  1  0.00191522  0.00535290  0.11673762  1
  Cu+  Cu109  1  0.00371558  0.49572237  0.11073189  1
  Cu+  Cu110  1  0.50356539  0.00488672  0.11704994  1
  Cu+  Cu111  1  0.49549764  0.49894167  0.11585281  1
  Cu+  Cu112  1  0.33278382  0.16647252  0.44181644  1
  Cu+  Cu113  1  0.33006529  0.66416196  0.44122944  1
  Cu+  Cu114  1  0.83424491  0.16893530  0.44735807  1
  Cu+  Cu115  1  0.83559176  0.66737832  0.45263574  1
  Cu+  Cu116  1  0.16886516  0.33648277  0.77726036  1
  Cu+  Cu117  1  0.16897781  0.83636490  0.78389806  1
  Cu+  Cu118  1  0.66233990  0.33149266  0.77973386  1
  Cu+  Cu119  1  0.66165231  0.83180833  0.77875997  1
  Te2-  Te120  1  -0.00397657  -0.00541532  0.38977849  1
  Te2-  Te121  1  -0.00120941  0.49964318  0.38409720  1
  Te2-  Te122  1  0.50187716  0.00345089  0.39184371  1
  Te2-  Te123  1  0.50214565  0.50287738  0.39095731  1
  Te2-  Te124  1  0.33113917  0.16846907  0.71627424  1
  Te2-  Te125  1  0.33266890  0.66894015  0.71636001  1
  Te2-  Te126  1  0.83483761  0.16533331  0.72360002  1
  Te2-  Te127  1  0.83502048  0.66431786  0.72745916  1
  Te2-  Te128  1  0.16719334  0.33329041  0.05216958  1
  Te2-  Te129  1  0.16783962  0.83758386  0.05957332  1
  Te2-  Te130  1  0.66383916  0.32650996  0.05441591  1
  Te2-  Te131  1  0.66665890  0.83179398  0.05276055  1
  Te2-  Te132  1  0.49736475  0.24515044  0.88174834  1
  Te2-  Te133  1  0.49842213  0.74662216  0.88044573  1
  Te2-  Te134  1  0.99369001  0.24314493  0.88140273  1
  Te2-  Te135  1  0.99496588  0.74430824  0.88720718  1
  Te2-  Te136  1  0.25164142  0.00432154  0.88384860  1
  Te2-  Te137  1  0.25195019  0.50394902  0.87976428  1
  Te2-  Te138  1  0.75844816  0.00446214  0.88254566  1
  Te2-  Te139  1  0.75689280  0.50289587  0.88467718  1
  Te2-  Te140  1  0.25404952  0.24674932  0.88108451  1
  Te2-  Te141  1  0.25383946  0.74838053  0.88740717  1
  Te2-  Te142  1  0.75606149  0.24226141  0.88496897  1
  Te2-  Te143  1  0.75689181  0.74271874  0.88508815  1
  Te2-  Te144  1  0.33131885  0.41414120  0.21767443  1
  Te2-  Te145  1  0.32682473  0.91555112  0.22023771  1
  Te2-  Te146  1  0.82435218  0.41074709  0.21567765  1
  Te2-  Te147  1  0.82695667  0.91285749  0.21645734  1
  Te2-  Te148  1  0.08423133  0.17178288  0.21863071  1
  Te2-  Te149  1  0.08568265  0.67801812  0.21566351  1
  Te2-  Te150  1  0.58518839  0.16748444  0.21577367  1
  Te2-  Te151  1  0.58884657  0.66711610  0.21387594  1
  Te2-  Te152  1  0.08629116  0.41983032  0.21117253  1
  Te2-  Te153  1  0.08867586  0.91681189  0.21697874  1
  Te2-  Te154  1  0.58612096  0.40712702  0.21994270  1
  Te2-  Te155  1  0.58463278  0.91063726  0.21952125  1
  Te2-  Te156  1  0.15865353  0.07834726  0.54687332  1
  Te2-  Te157  1  0.16343129  0.58554471  0.54458406  1
  Te2-  Te158  1  0.66094997  0.08443868  0.55293835  1
  Te2-  Te159  1  0.65959302  0.58365956  0.55527617  1
  Te2-  Te160  1  0.41907682  0.34523155  0.54789930  1
  Te2-  Te161  1  0.42288592  0.84816633  0.54925207  1
  Te2-  Te162  1  0.92118960  0.33752090  0.55084848  1
  Te2-  Te163  1  0.91782153  0.83854157  0.55478128  1
  Te2-  Te164  1  0.42297252  0.08752474  0.54849691  1
  Te2-  Te165  1  0.42273590  0.58690647  0.54589611  1
  Te2-  Te166  1  0.91632226  0.07669740  0.54908033  1
  Te2-  Te167  1  0.91797736  0.58237587  0.55082907  1
  Te2-  Te168  1  0.00038647  0.00182797  0.88155685  1
  Te2-  Te169  1  0.00081613  0.49934183  0.88172414  1
  Te2-  Te170  1  0.49993166  -0.00153013  0.88406540  1
  Te2-  Te171  1  0.49861054  0.49824043  0.88239741  1
  Te2-  Te172  1  0.33297350  0.16636137  0.21678579  1
  Te2-  Te173  1  0.33344950  0.66565699  0.21599397  1
  Te2-  Te174  1  0.83384232  0.16788341  0.21720182  1
  Te2-  Te175  1  0.83349983  0.66681933  0.21587920  1
  Te2-  Te176  1  0.16719319  0.33621760  0.54765838  1
  Te2-  Te177  1  0.16755659  0.83513510  0.54960778  1
  Te2-  Te178  1  0.66581712  0.33303142  0.55093568  1
  Te2-  Te179  1  0.66410256  0.83338159  0.54891936  1
  Te2-  Te180  1  0.32922702  0.41760694  0.70983068  1
  Te2-  Te181  1  0.32790367  0.91654529  0.71352498  1
  Te2-  Te182  1  0.82559307  0.41420497  0.70910400  1
  Te2-  Te183  1  0.82404682  0.91366597  0.70886278  1
  Te2-  Te184  1  0.08539820  0.17205211  0.70973537  1
  Te2-  Te185  1  0.08679822  0.67323688  0.71295101  1
  Te2-  Te186  1  0.58276182  0.17332691  0.71014174  1
  Te2-  Te187  1  0.58365031  0.67368422  0.70934413  1
  Te2-  Te188  1  0.08903255  0.41790805  0.70750440  1
  Te2-  Te189  1  0.08766021  0.91497892  0.71127765  1
  Te2-  Te190  1  0.58376937  0.41129479  0.71064472  1
  Te2-  Te191  1  0.58399859  0.91305322  0.71044472  1
  Te2-  Te192  1  0.16152007  0.08292756  0.04557454  1
  Te2-  Te193  1  0.16209819  0.57973723  0.04109733  1
  Te2-  Te194  1  0.66132794  0.07673966  0.04664831  1
  Te2-  Te195  1  0.65875860  0.57768918  0.04376796  1
  Te2-  Te196  1  0.41977076  0.33818764  0.04520090  1
  Te2-  Te197  1  0.42377917  0.84125477  0.04520761  1
  Te2-  Te198  1  0.91933169  0.33660665  0.04385233  1
  Te2-  Te199  1  0.91789339  0.83886392  0.04538226  1
  Te2-  Te200  1  0.41862148  0.07961553  0.04570304  1
  Te2-  Te201  1  0.41816975  0.58121263  0.04497207  1
  Te2-  Te202  1  0.92002475  0.08103090  0.04620095  1
  Te2-  Te203  1  0.92017275  0.57664653  0.04085544  1
  Te2-  Te204  1  0.49376417  0.24401350  0.37503596  1
  Te2-  Te205  1  0.49259851  0.74185217  0.37319836  1
  Te2-  Te206  1  0.99296820  0.24988516  0.37568363  1
  Te2-  Te207  1  0.99348353  0.74781471  0.38092553  1
  Te2-  Te208  1  0.25112577  0.00551383  0.37518990  1
  Te2-  Te209  1  0.24958521  0.50359572  0.37297451  1
  Te2-  Te210  1  0.75314770  0.00610401  0.37676193  1
  Te2-  Te211  1  0.75506042  0.50779127  0.38030967  1
  Te2-  Te212  1  0.25103746  0.24395843  0.37240202  1
  Te2-  Te213  1  0.24876361  0.74288610  0.37479259  1
  Te2-  Te214  1  0.75301431  0.24912177  0.37933692  1
  Te2-  Te215  1  0.75292166  0.74696462  0.38055080  1
