# generated using pymatgen
data_Ti(CuTe)4
_symmetry_space_group_name_H-M   'P 1'
_cell_length_a   16.85289755
_cell_length_b   16.85179503
_cell_length_c   20.65603743
_cell_angle_alpha   89.95643323
_cell_angle_beta   90.05251516
_cell_angle_gamma   120.01531501
_symmetry_Int_Tables_number   1
_chemical_formula_structural   Ti(CuTe)4
_chemical_formula_sum   'Ti24 Cu96 Te96'
_cell_volume   5079.61901978
_cell_formula_units_Z   24
loop_
 _symmetry_equiv_pos_site_id
 _symmetry_equiv_pos_as_xyz
  1  'x, y, z'
loop_
 _atom_type_symbol
 _atom_type_oxidation_number
  Ti4+  4.0
  Cu+  1.0
  Te2-  -2.0
loop_
 _atom_site_type_symbol
 _atom_site_label
 _atom_site_symmetry_multiplicity
 _atom_site_fract_x
 _atom_site_fract_y
 _atom_site_fract_z
 _atom_site_occupancy
  Ti4+  Ti0  1  -0.00225233  -0.00121147  0.26092104  1
  Ti4+  Ti1  1  -0.00109045  0.50297416  0.25578781  1
  Ti4+  Ti2  1  0.50374751  0.00325548  0.25652449  1
  Ti4+  Ti3  1  0.49883140  0.49873299  0.25805178  1
  Ti4+  Ti4  1  0.33358685  0.16464455  0.59260140  1
  Ti4+  Ti5  1  0.33407447  0.66562441  0.58752323  1
  Ti4+  Ti6  1  0.83068231  0.16275414  0.59118956  1
  Ti4+  Ti7  1  0.83487007  0.66717948  0.59043633  1
  Ti4+  Ti8  1  0.16561125  0.33328541  0.92325057  1
  Ti4+  Ti9  1  0.16419002  0.83423063  0.92732271  1
  Ti4+  Ti10  1  0.66392644  0.33519908  0.92349641  1
  Ti4+  Ti11  1  0.66790771  0.83602418  0.92625549  1
  Ti4+  Ti12  1  -0.00152787  -0.00051737  0.75696188  1
  Ti4+  Ti13  1  0.00035816  0.50002457  0.75710697  1
  Ti4+  Ti14  1  0.49990529  -0.00095365  0.75756171  1
  Ti4+  Ti15  1  0.50172431  0.49898670  0.75462253  1
  Ti4+  Ti16  1  0.33350522  0.16672696  0.08961148  1
  Ti4+  Ti17  1  0.33372630  0.66712445  0.08803262  1
  Ti4+  Ti18  1  0.83142933  0.16495721  0.09057498  1
  Ti4+  Ti19  1  0.83548844  0.66785281  0.09023468  1
  Ti4+  Ti20  1  0.16685585  0.33238922  0.42002144  1
  Ti4+  Ti21  1  0.16716662  0.83206821  0.42249622  1
  Ti4+  Ti22  1  0.66791438  0.33326496  0.42351509  1
  Ti4+  Ti23  1  0.66659209  0.83327880  0.42029125  1
  Cu+  Cu24  1  0.01989162  0.76632461  0.14712773  1
  Cu+  Cu25  1  0.57239000  0.92664550  0.47247151  1
  Cu+  Cu26  1  0.40275782  0.09444723  0.80780363  1
  Cu+  Cu27  1  0.06872157  0.64037691  0.47471975  1
  Cu+  Cu28  1  0.90222216  0.09730134  0.80803048  1
  Cu+  Cu29  1  0.24705502  0.76577739  0.14197438  1
  Cu+  Cu30  1  0.84604933  0.92621504  0.47907044  1
  Cu+  Cu31  1  0.57362789  0.64446419  0.47192762  1
  Cu+  Cu32  1  0.90521513  0.59770574  0.80960395  1
  Cu+  Cu33  1  0.08039811  0.92524725  0.48066043  1
  Cu+  Cu34  1  0.73596037  0.97203954  0.14263583  1
  Cu+  Cu35  1  0.73662971  0.26279286  0.13587440  1
  Cu+  Cu36  1  0.16637528  0.08299438  0.17342504  1
  Cu+  Cu37  1  0.16553004  0.58807984  0.16813272  1
  Cu+  Cu38  1  0.66621788  0.08348919  0.17044653  1
  Cu+  Cu39  1  0.66378005  0.58224400  0.17278657  1
  Cu+  Cu40  1  0.41705053  0.33473880  0.17175363  1
  Cu+  Cu41  1  0.41915791  0.83715863  0.17027636  1
  Cu+  Cu42  1  0.91091636  0.33576940  0.16981399  1
  Cu+  Cu43  1  0.91975571  0.83828248  0.17438058  1
  Cu+  Cu44  1  0.42134395  0.08498125  0.16979701  1
  Cu+  Cu45  1  0.41892287  0.58104005  0.17143804  1
  Cu+  Cu46  1  0.91099928  0.07546875  0.17301839  1
  Cu+  Cu47  1  0.92451200  0.58729942  0.16873431  1
  Cu+  Cu48  1  0.49995392  0.24619496  0.50719718  1
  Cu+  Cu49  1  0.49660363  0.74758326  0.49919876  1
  Cu+  Cu50  1  0.99989883  0.24678643  0.50333202  1
  Cu+  Cu51  1  0.99774495  0.74579282  0.50337590  1
  Cu+  Cu52  1  0.25447682  0.00578900  0.50603175  1
  Cu+  Cu53  1  0.25161361  0.50171289  0.49980747  1
  Cu+  Cu54  1  0.75107413  0.00729852  0.50165758  1
  Cu+  Cu55  1  0.75332874  0.50186916  0.50489640  1
  Cu+  Cu56  1  0.25091506  0.24737642  0.50385021  1
  Cu+  Cu57  1  0.24735454  0.74193672  0.50080552  1
  Cu+  Cu58  1  0.75068386  0.24743062  0.50481628  1
  Cu+  Cu59  1  0.75112989  0.74747345  0.50088784  1
  Cu+  Cu60  1  0.33227251  0.41549144  0.83692944  1
  Cu+  Cu61  1  0.33257851  0.92037212  0.84049698  1
  Cu+  Cu62  1  0.83138877  0.42142568  0.83879818  1
  Cu+  Cu63  1  0.83060285  0.92130688  0.83914821  1
  Cu+  Cu64  1  0.07867211  0.16897104  0.83738487  1
  Cu+  Cu65  1  0.07946216  0.66907299  0.84121126  1
  Cu+  Cu66  1  0.57902293  0.16852121  0.83892464  1
  Cu+  Cu67  1  0.58418052  0.66743341  0.83914913  1
  Cu+  Cu68  1  0.08708468  0.41520959  0.83755246  1
  Cu+  Cu69  1  0.08216933  0.91199751  0.83949066  1
  Cu+  Cu70  1  0.58535687  0.41382979  0.83549921  1
  Cu+  Cu71  1  0.58729513  0.91580660  0.83939287  1
  Cu+  Cu72  1  0.16686784  0.07997780  0.67769456  1
  Cu+  Cu73  1  0.16898328  0.58306365  0.67406862  1
  Cu+  Cu74  1  0.66616586  0.07918204  0.67580146  1
  Cu+  Cu75  1  0.66948174  0.58349821  0.67447082  1
  Cu+  Cu76  1  0.41806480  0.33049295  0.67426978  1
  Cu+  Cu77  1  0.41840172  0.83092684  0.67250110  1
  Cu+  Cu78  1  0.91739932  0.32981959  0.67489590  1
  Cu+  Cu79  1  0.91787650  0.83275676  0.67592527  1
  Cu+  Cu80  1  0.41379256  0.08322668  0.67996251  1
  Cu+  Cu81  1  0.41830353  0.58485351  0.67192970  1
  Cu+  Cu82  1  0.91244543  0.08199446  0.67929509  1
  Cu+  Cu83  1  0.91760981  0.58573878  0.68100942  1
  Cu+  Cu84  1  0.00155071  0.24914114  0.00908581  1
  Cu+  Cu85  1  0.00166281  0.75018386  0.01664537  1
  Cu+  Cu86  1  0.49915662  0.24983253  0.00788712  1
  Cu+  Cu87  1  0.50244933  0.75053879  0.00853167  1
  Cu+  Cu88  1  0.25110387  0.49692208  0.00637045  1
  Cu+  Cu89  1  0.25006673  1.00029319  0.00987502  1
  Cu+  Cu90  1  0.74918225  0.50055918  0.00901575  1
  Cu+  Cu91  1  0.74931570  0.99651087  0.01466354  1
  Cu+  Cu92  1  0.24663910  0.24973900  0.00573680  1
  Cu+  Cu93  1  0.24760758  0.75215900  0.01286738  1
  Cu+  Cu94  1  0.74609953  0.25298766  0.00865201  1
  Cu+  Cu95  1  0.75166398  0.75361173  0.00923091  1
  Cu+  Cu96  1  0.33439610  0.41567471  0.33994817  1
  Cu+  Cu97  1  0.33656711  0.91854332  0.34179990  1
  Cu+  Cu98  1  0.83406979  0.41853311  0.33972083  1
  Cu+  Cu99  1  0.83567625  0.91666080  0.34920012  1
  Cu+  Cu100  1  0.08143068  0.16397779  0.34069258  1
  Cu+  Cu101  1  0.08411718  0.66430747  0.34640565  1
  Cu+  Cu102  1  0.58639482  0.16686053  0.34103902  1
  Cu+  Cu103  1  0.57985797  0.66037090  0.34416426  1
  Cu+  Cu104  1  0.08103938  0.41776660  0.33726950  1
  Cu+  Cu105  1  0.08282628  0.91811368  0.35074435  1
  Cu+  Cu106  1  0.58268295  0.41661401  0.34154646  1
  Cu+  Cu107  1  0.58448206  0.92057453  0.34431108  1
  Cu+  Cu108  1  0.00414485  0.00522817  0.11796589  1
  Cu+  Cu109  1  0.00334430  0.49630121  0.11130250  1
  Cu+  Cu110  1  0.50047038  0.00050251  0.11196546  1
  Cu+  Cu111  1  0.49912182  0.49650457  0.11548711  1
  Cu+  Cu112  1  0.33947193  0.17550808  0.44930521  1
  Cu+  Cu113  1  0.33262398  0.66313920  0.44155577  1
  Cu+  Cu114  1  0.84003495  0.17767604  0.44736419  1
  Cu+  Cu115  1  0.83285540  0.66426361  0.44590213  1
  Cu+  Cu116  1  0.17209975  0.33321154  0.77926868  1
  Cu+  Cu117  1  0.17147476  0.83058695  0.78450109  1
  Cu+  Cu118  1  0.66969758  0.33063570  0.77976750  1
  Cu+  Cu119  1  0.66596400  0.82724963  0.78342434  1
  Te2-  Te120  1  0.00178009  0.00373324  0.39317551  1
  Te2-  Te121  1  -0.00245121  0.49623030  0.38637926  1
  Te2-  Te122  1  0.50030210  0.00342428  0.38702715  1
  Te2-  Te123  1  0.49685890  0.49396820  0.38922553  1
  Te2-  Te124  1  0.33107200  0.16803097  0.72323199  1
  Te2-  Te125  1  0.33465681  0.66575834  0.71628325  1
  Te2-  Te126  1  0.82975988  0.16686197  0.72173793  1
  Te2-  Te127  1  0.83264313  0.66866277  0.72073766  1
  Te2-  Te128  1  0.16648025  0.33307399  0.05258732  1
  Te2-  Te129  1  0.16851450  0.83851733  0.05973576  1
  Te2-  Te130  1  0.66268321  0.33631112  0.05404283  1
  Te2-  Te131  1  0.66462643  0.82906565  0.05738634  1
  Te2-  Te132  1  0.48941335  0.24883101  0.88257068  1
  Te2-  Te133  1  0.49672941  0.74827748  0.88282593  1
  Te2-  Te134  1  0.98985668  0.24926798  0.88343271  1
  Te2-  Te135  1  0.98934526  0.74810761  0.88876368  1
  Te2-  Te136  1  0.24896858  0.00730264  0.88422444  1
  Te2-  Te137  1  0.25428927  0.50543513  0.88069782  1
  Te2-  Te138  1  0.75229226  0.01128872  0.88743957  1
  Te2-  Te139  1  0.75012188  0.50992268  0.88328268  1
  Te2-  Te140  1  0.24822369  0.24546837  0.87925817  1
  Te2-  Te141  1  0.24991774  0.75049980  0.88463581  1
  Te2-  Te142  1  0.74954917  0.25065393  0.88159362  1
  Te2-  Te143  1  0.75407829  0.75205794  0.88263715  1
  Te2-  Te144  1  0.32731474  0.41315220  0.21423061  1
  Te2-  Te145  1  0.33021919  0.91902987  0.21644290  1
  Te2-  Te146  1  0.82560927  0.41960573  0.21404293  1
  Te2-  Te147  1  0.82347019  0.90740936  0.22138679  1
  Te2-  Te148  1  0.08088614  0.16769485  0.21458979  1
  Te2-  Te149  1  0.09148731  0.68067819  0.21883924  1
  Te2-  Te150  1  0.58835399  0.17640780  0.21520901  1
  Te2-  Te151  1  0.58565865  0.67155349  0.21784260  1
  Te2-  Te152  1  0.08197962  0.41726976  0.21049083  1
  Te2-  Te153  1  0.09032593  0.91752324  0.22296889  1
  Te2-  Te154  1  0.58537029  0.41385066  0.21535386  1
  Te2-  Te155  1  0.58559083  0.91198263  0.21711798  1
  Te2-  Te156  1  0.15932058  0.08076518  0.55178744  1
  Te2-  Te157  1  0.15901198  0.57480022  0.54823774  1
  Te2-  Te158  1  0.65667455  0.07910033  0.54978438  1
  Te2-  Te159  1  0.66223089  0.57943156  0.54871904  1
  Te2-  Te160  1  0.41918385  0.33506632  0.54809514  1
  Te2-  Te161  1  0.41695720  0.83840550  0.54597695  1
  Te2-  Te162  1  0.91883566  0.33353728  0.54877263  1
  Te2-  Te163  1  0.92144094  0.84187167  0.54948701  1
  Te2-  Te164  1  0.41912757  0.07782588  0.55294895  1
  Te2-  Te165  1  0.41963265  0.57817369  0.54577727  1
  Te2-  Te166  1  0.92046789  0.07934678  0.55167016  1
  Te2-  Te167  1  0.91965856  0.57802150  0.55317062  1
  Te2-  Te168  1  0.00006195  0.00000618  0.88394328  1
  Te2-  Te169  1  0.00096663  0.49865827  0.88402472  1
  Te2-  Te170  1  0.50156812  -0.00039437  0.88468632  1
  Te2-  Te171  1  0.50068187  0.49850892  0.88110245  1
  Te2-  Te172  1  0.33529705  0.16693024  0.21626163  1
  Te2-  Te173  1  0.33408170  0.66615874  0.21521715  1
  Te2-  Te174  1  0.83474376  0.16803635  0.21811392  1
  Te2-  Te175  1  0.83388055  0.66586857  0.21730631  1
  Te2-  Te176  1  0.16840566  0.33348968  0.54667650  1
  Te2-  Te177  1  0.16826168  0.83238343  0.55003711  1
  Te2-  Te178  1  0.66880160  0.33296907  0.55009892  1
  Te2-  Te179  1  0.66704456  0.83404332  0.54855911  1
  Te2-  Te180  1  0.33081701  0.41442884  0.70886372  1
  Te2-  Te181  1  0.32832525  0.91014179  0.71178289  1
  Te2-  Te182  1  0.82891635  0.41181602  0.71036205  1
  Te2-  Te183  1  0.82545130  0.91001264  0.71133604  1
  Te2-  Te184  1  0.08637614  0.17127563  0.70962159  1
  Te2-  Te185  1  0.08984654  0.67274748  0.71276256  1
  Te2-  Te186  1  0.58725792  0.17060711  0.71081770  1
  Te2-  Te187  1  0.58710469  0.67101148  0.71077652  1
  Te2-  Te188  1  0.08634556  0.41383032  0.71120987  1
  Te2-  Te189  1  0.08548967  0.91158288  0.71361948  1
  Te2-  Te190  1  0.58826991  0.41319630  0.70923122  1
  Te2-  Te191  1  0.58565840  0.91160210  0.71299872  1
  Te2-  Te192  1  0.16132502  0.08099114  0.04573098  1
  Te2-  Te193  1  0.16199609  0.57865891  0.04077766  1
  Te2-  Te194  1  0.65941590  0.08072737  0.04236295  1
  Te2-  Te195  1  0.66302038  0.58357670  0.04582380  1
  Te2-  Te196  1  0.41685850  0.33753273  0.04387001  1
  Te2-  Te197  1  0.42148295  0.84000781  0.04243174  1
  Te2-  Te198  1  0.91804102  0.33629335  0.04224755  1
  Te2-  Te199  1  0.92050880  0.84228220  0.04675927  1
  Te2-  Te200  1  0.41984137  0.08083151  0.04343708  1
  Te2-  Te201  1  0.42001809  0.58079492  0.04458188  1
  Te2-  Te202  1  0.92107111  0.08085284  0.04580557  1
  Te2-  Te203  1  0.91860487  0.57728697  0.04288800  1
  Te2-  Te204  1  0.49665730  0.24662622  0.37879907  1
  Te2-  Te205  1  0.49321142  0.74684188  0.37187688  1
  Te2-  Te206  1  0.99506522  0.24789395  0.37526969  1
  Te2-  Te207  1  0.99224882  0.74465531  0.37589904  1
  Te2-  Te208  1  0.25664119  0.00713517  0.37900241  1
  Te2-  Te209  1  0.25103309  0.50342011  0.37302722  1
  Te2-  Te210  1  0.75608059  0.01016523  0.37516038  1
  Te2-  Te211  1  0.75229413  0.50471993  0.37786079  1
  Te2-  Te212  1  0.25192603  0.24521348  0.37611471  1
  Te2-  Te213  1  0.25685647  0.74896869  0.37422441  1
  Te2-  Te214  1  0.75503069  0.24939330  0.37708840  1
  Te2-  Te215  1  0.75236037  0.74332030  0.37387421  1
