# generated using pymatgen
data_Ti(CuTe)4
_symmetry_space_group_name_H-M   'P 1'
_cell_length_a   16.88608311
_cell_length_b   16.88616492
_cell_length_c   20.70723680
_cell_angle_alpha   89.98631682
_cell_angle_beta   90.02944935
_cell_angle_gamma   120.00145186
_symmetry_Int_Tables_number   1
_chemical_formula_structural   Ti(CuTe)4
_chemical_formula_sum   'Ti24 Cu96 Te96'
_cell_volume   5113.35940582
_cell_formula_units_Z   24
loop_
 _symmetry_equiv_pos_site_id
 _symmetry_equiv_pos_as_xyz
  1  'x, y, z'
loop_
 _atom_type_symbol
 _atom_type_oxidation_number
  Ti4+  4.0
  Cu+  1.0
  Te2-  -2.0
loop_
 _atom_site_type_symbol
 _atom_site_label
 _atom_site_symmetry_multiplicity
 _atom_site_fract_x
 _atom_site_fract_y
 _atom_site_fract_z
 _atom_site_occupancy
  Ti4+  Ti0  1  -0.00279812  -0.00307456  0.25498805  1
  Ti4+  Ti1  1  0.00145883  0.49956389  0.26100668  1
  Ti4+  Ti2  1  0.50037495  0.00066724  0.25811741  1
  Ti4+  Ti3  1  0.50322901  0.49912718  0.25915870  1
  Ti4+  Ti4  1  0.33542557  0.17224780  0.58987235  1
  Ti4+  Ti5  1  0.33228861  0.66747312  0.58853639  1
  Ti4+  Ti6  1  0.82970542  0.16624923  0.59167700  1
  Ti4+  Ti7  1  0.83411492  0.66700004  0.59282326  1
  Ti4+  Ti8  1  0.16474407  0.33033003  0.92248027  1
  Ti4+  Ti9  1  0.16771217  0.83390248  0.92070630  1
  Ti4+  Ti10  1  0.66972606  0.33534821  0.92881974  1
  Ti4+  Ti11  1  0.66166091  0.83041167  0.92454644  1
  Ti4+  Ti12  1  0.00275463  0.00312515  0.75321041  1
  Ti4+  Ti13  1  -0.00160600  0.49955796  0.75595545  1
  Ti4+  Ti14  1  0.49823423  -0.00192483  0.75576342  1
  Ti4+  Ti15  1  0.50072562  0.50202538  0.75738179  1
  Ti4+  Ti16  1  0.33537713  0.16625624  0.08865468  1
  Ti4+  Ti17  1  0.33173555  0.66463241  0.09076660  1
  Ti4+  Ti18  1  0.83358371  0.16530234  0.08889158  1
  Ti4+  Ti19  1  0.83385266  0.66837327  0.08823991  1
  Ti4+  Ti20  1  0.16786420  0.33245347  0.42021347  1
  Ti4+  Ti21  1  0.16651701  0.83286180  0.42153080  1
  Ti4+  Ti22  1  0.66808661  0.33432957  0.42292578  1
  Ti4+  Ti23  1  0.66533543  0.83398846  0.42256680  1
  Cu+  Cu24  1  0.35071862  0.42912077  0.47484072  1
  Cu+  Cu25  1  0.74984369  0.48904799  0.14799178  1
  Cu+  Cu26  1  0.90416306  0.59235412  0.81041524  1
  Cu+  Cu27  1  0.73686884  0.75993969  0.13941663  1
  Cu+  Cu28  1  0.07258715  0.41903190  0.47765316  1
  Cu+  Cu29  1  0.07028483  0.64915015  0.47684797  1
  Cu+  Cu30  1  0.58007269  0.43027334  0.47858986  1
  Cu+  Cu31  1  0.52004538  0.25584031  0.14519998  1
  Cu+  Cu32  1  0.19291367  0.09714786  0.80536677  1
  Cu+  Cu33  1  0.90290392  0.31013115  0.80889114  1
  Cu+  Cu34  1  0.40301738  0.80547184  0.80524255  1
  Cu+  Cu35  1  0.57024043  0.93141078  0.47331571  1
  Cu+  Cu36  1  0.16309158  0.07831130  0.17006872  1
  Cu+  Cu37  1  0.16435489  0.58178532  0.17478501  1
  Cu+  Cu38  1  0.66452431  0.07992362  0.17108109  1
  Cu+  Cu39  1  0.66469782  0.58162500  0.16971422  1
  Cu+  Cu40  1  0.42352378  0.33382043  0.17187442  1
  Cu+  Cu41  1  0.41741109  0.83445282  0.17329362  1
  Cu+  Cu42  1  0.92052424  0.33391708  0.17273791  1
  Cu+  Cu43  1  0.91316399  0.83711706  0.16806891  1
  Cu+  Cu44  1  0.42250921  0.08328520  0.17120558  1
  Cu+  Cu45  1  0.41546886  0.57851341  0.17294279  1
  Cu+  Cu46  1  0.91666256  0.07832300  0.16836102  1
  Cu+  Cu47  1  0.92216680  0.58163352  0.17308496  1
  Cu+  Cu48  1  0.49816996  0.25485731  0.50291391  1
  Cu+  Cu49  1  0.49696130  0.75514055  0.50179770  1
  Cu+  Cu50  1  0.99435791  0.24852617  0.50441680  1
  Cu+  Cu51  1  0.99691153  0.74580947  0.50597604  1
  Cu+  Cu52  1  0.25022040  0.00525088  0.50418727  1
  Cu+  Cu53  1  0.25163786  0.50431378  0.50056154  1
  Cu+  Cu54  1  0.74354043  0.00184563  0.50479728  1
  Cu+  Cu55  1  0.75267511  0.50634246  0.50555776  1
  Cu+  Cu56  1  0.25758846  0.25366553  0.50135565  1
  Cu+  Cu57  1  0.24820460  0.74648734  0.50167772  1
  Cu+  Cu58  1  0.75185125  0.24817398  0.50480481  1
  Cu+  Cu59  1  0.75129466  0.74991967  0.50584094  1
  Cu+  Cu60  1  0.32992058  0.41693357  0.83761124  1
  Cu+  Cu61  1  0.32970416  0.90828587  0.83392729  1
  Cu+  Cu62  1  0.83047092  0.41589501  0.83951651  1
  Cu+  Cu63  1  0.83071367  0.91539492  0.83844163  1
  Cu+  Cu64  1  0.08979488  0.17095220  0.83399307  1
  Cu+  Cu65  1  0.08090639  0.67051875  0.83529180  1
  Cu+  Cu66  1  0.58354134  0.16801952  0.84123858  1
  Cu+  Cu67  1  0.58360798  0.67032927  0.83867953  1
  Cu+  Cu68  1  0.07852530  0.40923675  0.83671962  1
  Cu+  Cu69  1  0.09100117  0.92171407  0.83337988  1
  Cu+  Cu70  1  0.58594198  0.41753736  0.84252763  1
  Cu+  Cu71  1  0.57639853  0.90760175  0.83729687  1
  Cu+  Cu72  1  0.17237362  0.09040814  0.67619119  1
  Cu+  Cu73  1  0.16678860  0.58355240  0.67421288  1
  Cu+  Cu74  1  0.66595318  0.08367676  0.67715185  1
  Cu+  Cu75  1  0.66947016  0.58483546  0.67872766  1
  Cu+  Cu76  1  0.41916993  0.33703256  0.67633366  1
  Cu+  Cu77  1  0.41465274  0.83136133  0.67678259  1
  Cu+  Cu78  1  0.91320182  0.32969046  0.68032258  1
  Cu+  Cu79  1  0.91734582  0.83265721  0.67416581  1
  Cu+  Cu80  1  0.41699113  0.08800950  0.67311362  1
  Cu+  Cu81  1  0.41859918  0.58643302  0.67350550  1
  Cu+  Cu82  1  0.91463073  0.08558748  0.67321354  1
  Cu+  Cu83  1  0.91418331  0.58472163  0.68082889  1
  Cu+  Cu84  1  0.00048977  0.24819372  0.00623296  1
  Cu+  Cu85  1  0.00334080  0.75332489  0.00508735  1
  Cu+  Cu86  1  0.50599299  0.25334952  0.01616117  1
  Cu+  Cu87  1  0.49724003  0.74677623  0.00974975  1
  Cu+  Cu88  1  0.24462085  0.49417247  0.00783052  1
  Cu+  Cu89  1  0.25183754  0.99874628  0.00480485  1
  Cu+  Cu90  1  0.75258567  0.50022315  0.01642867  1
  Cu+  Cu91  1  0.74608942  0.99570627  0.00665577  1
  Cu+  Cu92  1  0.24915247  0.24992105  0.00710066  1
  Cu+  Cu93  1  0.24749830  0.74891430  0.00716665  1
  Cu+  Cu94  1  0.75201392  0.25195900  0.01182052  1
  Cu+  Cu95  1  0.74733892  0.75262025  0.01130616  1
  Cu+  Cu96  1  0.33850507  0.41371114  0.34586303  1
  Cu+  Cu97  1  0.33476695  0.91889506  0.34014840  1
  Cu+  Cu98  1  0.83643703  0.41651815  0.34390427  1
  Cu+  Cu99  1  0.83380503  0.91660789  0.34040509  1
  Cu+  Cu100  1  0.08052653  0.16036997  0.33789562  1
  Cu+  Cu101  1  0.08224285  0.66265096  0.34767649  1
  Cu+  Cu102  1  0.58483618  0.16552536  0.34297558  1
  Cu+  Cu103  1  0.58500378  0.66581682  0.34238662  1
  Cu+  Cu104  1  0.08344406  0.41710292  0.34705932  1
  Cu+  Cu105  1  0.07957591  0.91623938  0.33797648  1
  Cu+  Cu106  1  0.58625396  0.41870592  0.34836469  1
  Cu+  Cu107  1  0.58097236  0.91927236  0.34498067  1
  Cu+  Cu108  1  0.00416994  0.00286898  0.11030910  1
  Cu+  Cu109  1  0.00265368  0.49786923  0.11772597  1
  Cu+  Cu110  1  0.49941822  -0.00461605  0.11505115  1
  Cu+  Cu111  1  0.49600533  0.49811700  0.11576515  1
  Cu+  Cu112  1  0.33383075  0.16280155  0.44533916  1
  Cu+  Cu113  1  0.33464377  0.66743133  0.44358377  1
  Cu+  Cu114  1  0.83445611  0.16376931  0.44774459  1
  Cu+  Cu115  1  0.83564599  0.67308443  0.44935747  1
  Cu+  Cu116  1  0.16865998  0.33729389  0.77867866  1
  Cu+  Cu117  1  0.16632890  0.83403799  0.77584901  1
  Cu+  Cu118  1  0.66088664  0.32967965  0.78653060  1
  Cu+  Cu119  1  0.67096979  0.83711643  0.78184515  1
  Te2-  Te120  1  -0.00197289  -0.00225751  0.38434460  1
  Te2-  Te121  1  -0.00147992  0.49725132  0.39352341  1
  Te2-  Te122  1  0.49708500  0.00193117  0.38881808  1
  Te2-  Te123  1  0.50415011  0.50332522  0.39101743  1
  Te2-  Te124  1  0.33850480  0.17230041  0.71993952  1
  Te2-  Te125  1  0.33128290  0.66348301  0.71825809  1
  Te2-  Te126  1  0.82999243  0.16281476  0.72210544  1
  Te2-  Te127  1  0.83366541  0.67039263  0.72330447  1
  Te2-  Te128  1  0.16449904  0.32953685  0.05137302  1
  Te2-  Te129  1  0.16765523  0.83437386  0.04936489  1
  Te2-  Te130  1  0.67194649  0.33460406  0.06089835  1
  Te2-  Te131  1  0.66152735  0.83304121  0.05504975  1
  Te2-  Te132  1  0.49899728  0.25012001  0.88865193  1
  Te2-  Te133  1  0.48693263  0.73965334  0.88407965  1
  Te2-  Te134  1  0.99089723  0.23975649  0.88072803  1
  Te2-  Te135  1  0.99413731  0.75308478  0.87957153  1
  Te2-  Te136  1  0.25974905  0.00680557  0.87907222  1
  Te2-  Te137  1  0.24666115  0.50179637  0.88158143  1
  Te2-  Te138  1  0.74595422  0.00042045  0.88060585  1
  Te2-  Te139  1  0.75389199  0.50829749  0.88835581  1
  Te2-  Te140  1  0.25757505  0.24890292  0.88144453  1
  Te2-  Te141  1  0.24816652  0.74053184  0.88102255  1
  Te2-  Te142  1  0.75236053  0.24592115  0.88551109  1
  Te2-  Te143  1  0.75078068  0.74768698  0.88463210  1
  Te2-  Te144  1  0.33350274  0.41084328  0.21858401  1
  Te2-  Te145  1  0.32949053  0.91606503  0.21458208  1
  Te2-  Te146  1  0.82918159  0.41067822  0.21819308  1
  Te2-  Te147  1  0.82126108  0.91244583  0.21515743  1
  Te2-  Te148  1  0.08449959  0.16850897  0.21242142  1
  Te2-  Te149  1  0.08666502  0.67123054  0.22070881  1
  Te2-  Te150  1  0.59258343  0.17455812  0.21753824  1
  Te2-  Te151  1  0.58486923  0.67049364  0.21622450  1
  Te2-  Te152  1  0.08700661  0.41401665  0.21990949  1
  Te2-  Te153  1  0.08115325  0.90942282  0.21248886  1
  Te2-  Te154  1  0.59257131  0.41264674  0.22026375  1
  Te2-  Te155  1  0.58523954  0.91375300  0.21820771  1
  Te2-  Te156  1  0.16453652  0.08765926  0.54915819  1
  Te2-  Te157  1  0.15627453  0.57751444  0.54854351  1
  Te2-  Te158  1  0.65551771  0.08249968  0.55134013  1
  Te2-  Te159  1  0.66062534  0.58352935  0.55268822  1
  Te2-  Te160  1  0.42448094  0.34971977  0.55063671  1
  Te2-  Te161  1  0.41479073  0.84036501  0.54965351  1
  Te2-  Te162  1  0.91695479  0.34044433  0.55320322  1
  Te2-  Te163  1  0.92008275  0.83710973  0.54841508  1
  Te2-  Te164  1  0.41992972  0.08658105  0.54695442  1
  Te2-  Te165  1  0.42230986  0.58613134  0.54720378  1
  Te2-  Te166  1  0.91378066  0.08067866  0.54711950  1
  Te2-  Te167  1  0.91738951  0.57644770  0.55371623  1
  Te2-  Te168  1  0.00143392  0.00119532  0.87993886  1
  Te2-  Te169  1  0.00162372  0.50155863  0.88305064  1
  Te2-  Te170  1  0.49734981  -0.00219368  0.88258362  1
  Te2-  Te171  1  0.49859698  0.50092834  0.88324361  1
  Te2-  Te172  1  0.33234248  0.16350913  0.21546627  1
  Te2-  Te173  1  0.33358717  0.66533187  0.21673552  1
  Te2-  Te174  1  0.83422732  0.16395615  0.21476632  1
  Te2-  Te175  1  0.83573668  0.66741340  0.21558794  1
  Te2-  Te176  1  0.16633675  0.33367973  0.54777336  1
  Te2-  Te177  1  0.16800701  0.83594576  0.54835009  1
  Te2-  Te178  1  0.66780507  0.33498448  0.54964829  1
  Te2-  Te179  1  0.66492970  0.83289859  0.54942239  1
  Te2-  Te180  1  0.32959539  0.41735498  0.71093029  1
  Te2-  Te181  1  0.32750848  0.91685460  0.70732446  1
  Te2-  Te182  1  0.82360155  0.41237098  0.71245733  1
  Te2-  Te183  1  0.83015272  0.91569844  0.71099272  1
  Te2-  Te184  1  0.08517843  0.17562701  0.70759147  1
  Te2-  Te185  1  0.08709326  0.67267548  0.70888986  1
  Te2-  Te186  1  0.58471164  0.17166464  0.71434072  1
  Te2-  Te187  1  0.58733912  0.67378567  0.71255235  1
  Te2-  Te188  1  0.08605442  0.41440413  0.70967725  1
  Te2-  Te189  1  0.08829252  0.91680617  0.70662953  1
  Te2-  Te190  1  0.58756419  0.41559009  0.71561964  1
  Te2-  Te191  1  0.58615116  0.91326249  0.71041916  1
  Te2-  Te192  1  0.16440576  0.08026926  0.04304136  1
  Te2-  Te193  1  0.16068220  0.57967070  0.04707242  1
  Te2-  Te194  1  0.66106462  0.08019857  0.04488618  1
  Te2-  Te195  1  0.65891747  0.58006733  0.04318762  1
  Te2-  Te196  1  0.41896833  0.33957489  0.04486316  1
  Te2-  Te197  1  0.41660470  0.83571007  0.04610170  1
  Te2-  Te198  1  0.92215132  0.33848177  0.04618485  1
  Te2-  Te199  1  0.92065510  0.84042139  0.04151199  1
  Te2-  Te200  1  0.42096177  0.07927044  0.04390798  1
  Te2-  Te201  1  0.41480310  0.57677204  0.04603428  1
  Te2-  Te202  1  0.91675788  0.07786824  0.04217149  1
  Te2-  Te203  1  0.92524197  0.58509030  0.04579798  1
  Te2-  Te204  1  0.49502097  0.24589407  0.37655440  1
  Te2-  Te205  1  0.49407362  0.74606583  0.37501557  1
  Te2-  Te206  1  0.99440486  0.24390942  0.37667590  1
  Te2-  Te207  1  0.99383827  0.74732318  0.37797414  1
  Te2-  Te208  1  0.24950034  0.00358121  0.37672528  1
  Te2-  Te209  1  0.25713876  0.50628520  0.37356572  1
  Te2-  Te210  1  0.75313114  0.00561997  0.37735295  1
  Te2-  Te211  1  0.75854390  0.50865017  0.37900958  1
  Te2-  Te212  1  0.25025232  0.24154666  0.37536412  1
  Te2-  Te213  1  0.25545023  0.74919709  0.37556106  1
  Te2-  Te214  1  0.75416458  0.24678154  0.37934834  1
  Te2-  Te215  1  0.75302198  0.74864763  0.37930296  1
