# generated using pymatgen
data_Ti(CuTe)4
_symmetry_space_group_name_H-M   'P 1'
_cell_length_a   16.88971998
_cell_length_b   16.88974780
_cell_length_c   20.71577479
_cell_angle_alpha   89.99740232
_cell_angle_beta   89.99819061
_cell_angle_gamma   119.99822345
_symmetry_Int_Tables_number   1
_chemical_formula_structural   Ti(CuTe)4
_chemical_formula_sum   'Ti24 Cu96 Te96'
_cell_volume   5117.82226835
_cell_formula_units_Z   24
loop_
 _symmetry_equiv_pos_site_id
 _symmetry_equiv_pos_as_xyz
  1  'x, y, z'
loop_
 _atom_type_symbol
 _atom_type_oxidation_number
  Ti4+  4.0
  Cu+  1.0
  Te2-  -2.0
loop_
 _atom_site_type_symbol
 _atom_site_label
 _atom_site_symmetry_multiplicity
 _atom_site_fract_x
 _atom_site_fract_y
 _atom_site_fract_z
 _atom_site_occupancy
  Ti4+  Ti0  1  -0.00132191  0.00146678  0.25510628  1
  Ti4+  Ti1  1  0.00197688  0.50116889  0.25798335  1
  Ti4+  Ti2  1  0.49966689  0.00214708  0.25410820  1
  Ti4+  Ti3  1  0.50073803  0.50149702  0.25983411  1
  Ti4+  Ti4  1  0.33522340  0.16863647  0.59110805  1
  Ti4+  Ti5  1  0.33348525  0.66508839  0.59270909  1
  Ti4+  Ti6  1  0.83218836  0.16638222  0.59250503  1
  Ti4+  Ti7  1  0.83541387  0.66559195  0.59140189  1
  Ti4+  Ti8  1  0.16537569  0.33064200  0.92413387  1
  Ti4+  Ti9  1  0.16591371  0.82857492  0.92226894  1
  Ti4+  Ti10  1  0.66458928  0.33477651  0.92642943  1
  Ti4+  Ti11  1  0.66622507  0.83372621  0.92338267  1
  Ti4+  Ti12  1  -0.00084056  0.00105179  0.75432555  1
  Ti4+  Ti13  1  0.00041103  0.50144640  0.75595109  1
  Ti4+  Ti14  1  0.49959797  -0.00206423  0.75559169  1
  Ti4+  Ti15  1  0.49982825  0.49729349  0.75614850  1
  Ti4+  Ti16  1  0.33369008  0.16665916  0.08741471  1
  Ti4+  Ti17  1  0.33129369  0.66683184  0.08981202  1
  Ti4+  Ti18  1  0.83381081  0.16587862  0.08596520  1
  Ti4+  Ti19  1  0.83223533  0.66644809  0.08864482  1
  Ti4+  Ti20  1  0.16903525  0.33467736  0.42321152  1
  Ti4+  Ti21  1  0.16539551  0.83196908  0.42339489  1
  Ti4+  Ti22  1  0.66700891  0.33358678  0.42260089  1
  Ti4+  Ti23  1  0.66725070  0.83602224  0.42245363  1
  Cu+  Cu24  1  0.74020933  0.97980861  0.13918482  1
  Cu+  Cu25  1  0.07235369  0.64131323  0.47668149  1
  Cu+  Cu26  1  0.90406181  0.09519492  0.80724957  1
  Cu+  Cu27  1  0.35857456  0.42977795  0.47663610  1
  Cu+  Cu28  1  0.23727119  0.76321522  0.14132802  1
  Cu+  Cu29  1  0.51554966  0.26366046  0.14505861  1
  Cu+  Cu30  1  0.40406672  0.30751288  0.80764291  1
  Cu+  Cu31  1  0.74848320  0.25981201  0.14423312  1
  Cu+  Cu32  1  0.41048512  0.81202502  0.80794801  1
  Cu+  Cu33  1  0.90363448  0.59278576  0.80769826  1
  Cu+  Cu34  1  0.18292069  0.58679092  0.81041759  1
  Cu+  Cu35  1  0.02042537  0.26066261  0.14144327  1
  Cu+  Cu36  1  0.16336969  0.08282338  0.16887215  1
  Cu+  Cu37  1  0.16389790  0.58741743  0.17127059  1
  Cu+  Cu38  1  0.66304770  0.08135022  0.16551222  1
  Cu+  Cu39  1  0.66365485  0.58427512  0.17188698  1
  Cu+  Cu40  1  0.41926177  0.33894369  0.17263738  1
  Cu+  Cu41  1  0.41317077  0.83744549  0.16904118  1
  Cu+  Cu42  1  0.92290590  0.33867089  0.16926509  1
  Cu+  Cu43  1  0.91642235  0.83657274  0.16902650  1
  Cu+  Cu44  1  0.42214557  0.08615150  0.16692145  1
  Cu+  Cu45  1  0.41604290  0.58184913  0.17442546  1
  Cu+  Cu46  1  0.91934395  0.08122489  0.16617161  1
  Cu+  Cu47  1  0.91891232  0.58414123  0.17095910  1
  Cu+  Cu48  1  0.49730967  0.24967780  0.50461014  1
  Cu+  Cu49  1  0.49862570  0.75236195  0.50518098  1
  Cu+  Cu50  1  0.99654451  0.24723178  0.50690385  1
  Cu+  Cu51  1  0.99781280  0.74195136  0.50494818  1
  Cu+  Cu52  1  0.25151003  0.00315677  0.50584204  1
  Cu+  Cu53  1  0.25601800  0.50343964  0.50552813  1
  Cu+  Cu54  1  0.75234312  0.00432469  0.50590298  1
  Cu+  Cu55  1  0.75382254  0.50275637  0.50503936  1
  Cu+  Cu56  1  0.25865388  0.25516816  0.50457269  1
  Cu+  Cu57  1  0.24662091  0.74404351  0.50691979  1
  Cu+  Cu58  1  0.75083625  0.24761263  0.50617177  1
  Cu+  Cu59  1  0.75197332  0.75002450  0.50545701  1
  Cu+  Cu60  1  0.33089174  0.40947666  0.83711540  1
  Cu+  Cu61  1  0.33102540  0.90721032  0.83574008  1
  Cu+  Cu62  1  0.82965350  0.42025192  0.83964537  1
  Cu+  Cu63  1  0.83105579  0.92046486  0.83648120  1
  Cu+  Cu64  1  0.07890237  0.16878993  0.83673061  1
  Cu+  Cu65  1  0.08555752  0.66900582  0.83487717  1
  Cu+  Cu66  1  0.58352111  0.16954403  0.84003703  1
  Cu+  Cu67  1  0.58561404  0.66825152  0.83726108  1
  Cu+  Cu68  1  0.08687902  0.41473454  0.83817814  1
  Cu+  Cu69  1  0.08360064  0.91353153  0.83540027  1
  Cu+  Cu70  1  0.57934770  0.40973451  0.83821654  1
  Cu+  Cu71  1  0.58300409  0.91043643  0.83722322  1
  Cu+  Cu72  1  0.16974837  0.08738827  0.67332131  1
  Cu+  Cu73  1  0.16928326  0.58358477  0.68063427  1
  Cu+  Cu74  1  0.66757713  0.08311620  0.67554370  1
  Cu+  Cu75  1  0.67073428  0.58261972  0.67522925  1
  Cu+  Cu76  1  0.41648230  0.32984087  0.67953647  1
  Cu+  Cu77  1  0.41439070  0.82851862  0.67938642  1
  Cu+  Cu78  1  0.91386865  0.33008925  0.67519020  1
  Cu+  Cu79  1  0.91681652  0.83123571  0.67289275  1
  Cu+  Cu80  1  0.41724249  0.08594708  0.67450480  1
  Cu+  Cu81  1  0.41753575  0.58261430  0.67633052  1
  Cu+  Cu82  1  0.91341265  0.08570213  0.67924962  1
  Cu+  Cu83  1  0.91631005  0.58534079  0.67960871  1
  Cu+  Cu84  1  0.00279355  0.25029985  0.01207237  1
  Cu+  Cu85  1  -0.00045645  0.74676346  0.00706845  1
  Cu+  Cu86  1  0.50153605  0.25253427  0.01502873  1
  Cu+  Cu87  1  0.50079535  0.74987272  0.00942794  1
  Cu+  Cu88  1  0.24802106  0.49577202  0.00952078  1
  Cu+  Cu89  1  0.24817944  0.99421877  0.00526999  1
  Cu+  Cu90  1  0.74680666  0.49946370  0.00972427  1
  Cu+  Cu91  1  0.74835687  0.99607954  0.01001600  1
  Cu+  Cu92  1  0.24803614  0.24825156  0.00763696  1
  Cu+  Cu93  1  0.24633724  0.74741612  0.01196387  1
  Cu+  Cu94  1  0.74777041  0.25315618  0.01313419  1
  Cu+  Cu95  1  0.74905365  0.75172988  0.00669826  1
  Cu+  Cu96  1  0.33869723  0.41940140  0.34725435  1
  Cu+  Cu97  1  0.33446218  0.91891877  0.34048511  1
  Cu+  Cu98  1  0.83567414  0.41719548  0.34275481  1
  Cu+  Cu99  1  0.83452845  0.92068222  0.34010051  1
  Cu+  Cu100  1  0.08197387  0.16565278  0.34026631  1
  Cu+  Cu101  1  0.08260322  0.66403088  0.34743329  1
  Cu+  Cu102  1  0.58373771  0.16740774  0.34106214  1
  Cu+  Cu103  1  0.58190481  0.66680712  0.34314225  1
  Cu+  Cu104  1  0.08413602  0.41739373  0.34218425  1
  Cu+  Cu105  1  0.07993790  0.91827511  0.34029985  1
  Cu+  Cu106  1  0.58264714  0.41821181  0.34388767  1
  Cu+  Cu107  1  0.58371441  0.92113671  0.33957404  1
  Cu+  Cu108  1  0.00296710  -0.00332898  0.11057022  1
  Cu+  Cu109  1  -0.00067380  0.50229394  0.11410666  1
  Cu+  Cu110  1  0.49897863  -0.00114446  0.10912795  1
  Cu+  Cu111  1  0.49908746  0.50410420  0.11741039  1
  Cu+  Cu112  1  0.33145169  0.16341892  0.44790087  1
  Cu+  Cu113  1  0.33572608  0.67059425  0.44950946  1
  Cu+  Cu114  1  0.83490893  0.16827652  0.44960768  1
  Cu+  Cu115  1  0.83178375  0.66864997  0.44899274  1
  Cu+  Cu116  1  0.16779855  0.33309896  0.78049110  1
  Cu+  Cu117  1  0.16882509  0.83930484  0.77807448  1
  Cu+  Cu118  1  0.66708198  0.33002486  0.78327331  1
  Cu+  Cu119  1  0.66891365  0.82902118  0.77997530  1
  Te2-  Te120  1  -0.00118538  0.00137874  0.38402899  1
  Te2-  Te121  1  -0.00018705  0.49680538  0.38823004  1
  Te2-  Te122  1  0.49972961  0.00191289  0.38247489  1
  Te2-  Te123  1  0.50478564  0.50369574  0.39038548  1
  Te2-  Te124  1  0.33182441  0.16313976  0.72208256  1
  Te2-  Te125  1  0.33497193  0.66268244  0.72502264  1
  Te2-  Te126  1  0.82993240  0.16798938  0.72406325  1
  Te2-  Te127  1  0.83350736  0.66920332  0.72219385  1
  Te2-  Te128  1  0.16896875  0.33223317  0.05456929  1
  Te2-  Te129  1  0.16326367  0.83163428  0.05258801  1
  Te2-  Te130  1  0.66738991  0.33747064  0.05868192  1
  Te2-  Te131  1  0.66495594  0.83051162  0.05389695  1
  Te2-  Te132  1  0.49055485  0.24327910  0.88738340  1
  Te2-  Te133  1  0.49209388  0.74131027  0.88372420  1
  Te2-  Te134  1  0.99142763  0.24895176  0.88497327  1
  Te2-  Te135  1  0.99309574  0.74583278  0.88124553  1
  Te2-  Te136  1  0.25237261  -0.00197039  0.87916726  1
  Te2-  Te137  1  0.25682448  0.50342724  0.88355458  1
  Te2-  Te138  1  0.74951597  0.00758826  0.88334096  1
  Te2-  Te139  1  0.74734905  0.50744969  0.88383464  1
  Te2-  Te140  1  0.24733865  0.24018364  0.88192798  1
  Te2-  Te141  1  0.25413853  0.73977149  0.88475920  1
  Te2-  Te142  1  0.75195615  0.25198891  0.88514071  1
  Te2-  Te143  1  0.75387783  0.75145756  0.88075138  1
  Te2-  Te144  1  0.32884350  0.41427930  0.22005223  1
  Te2-  Te145  1  0.32596020  0.91946563  0.21449510  1
  Te2-  Te146  1  0.82958666  0.41604580  0.21646866  1
  Te2-  Te147  1  0.82481800  0.91272357  0.21427613  1
  Te2-  Te148  1  0.08859996  0.17547772  0.21444383  1
  Te2-  Te149  1  0.08474348  0.67535097  0.21952448  1
  Te2-  Te150  1  0.59076784  0.17877528  0.21493920  1
  Te2-  Te151  1  0.58464569  0.67263706  0.21723508  1
  Te2-  Te152  1  0.09139746  0.41804161  0.21592053  1
  Te2-  Te153  1  0.08420368  0.91542975  0.21417466  1
  Te2-  Te154  1  0.59012909  0.41747966  0.21807060  1
  Te2-  Te155  1  0.58297614  0.91301354  0.21315984  1
  Te2-  Te156  1  0.16482786  0.08605771  0.54750085  1
  Te2-  Te157  1  0.16007233  0.57467920  0.55300919  1
  Te2-  Te158  1  0.66054375  0.07999766  0.55019856  1
  Te2-  Te159  1  0.66438982  0.58106844  0.54935116  1
  Te2-  Te160  1  0.42593844  0.34357763  0.55285418  1
  Te2-  Te161  1  0.41491233  0.83499550  0.55226538  1
  Te2-  Te162  1  0.91898603  0.33808749  0.54986666  1
  Te2-  Te163  1  0.92161249  0.83548926  0.54716535  1
  Te2-  Te164  1  0.42002862  0.08203194  0.54888509  1
  Te2-  Te165  1  0.42521925  0.58414688  0.55051221  1
  Te2-  Te166  1  0.91874079  0.08056624  0.55275425  1
  Te2-  Te167  1  0.91954072  0.57455050  0.55302520  1
  Te2-  Te168  1  0.00047584  -0.00117980  0.88111134  1
  Te2-  Te169  1  0.00054750  0.49923074  0.88327355  1
  Te2-  Te170  1  0.50027623  -0.00129043  0.88231652  1
  Te2-  Te171  1  0.49984853  0.49987859  0.88300025  1
  Te2-  Te172  1  0.33295514  0.16651223  0.21434751  1
  Te2-  Te173  1  0.33333223  0.66894348  0.21657521  1
  Te2-  Te174  1  0.83343925  0.16656261  0.21404401  1
  Te2-  Te175  1  0.83357797  0.66846608  0.21481671  1
  Te2-  Te176  1  0.16695970  0.33312336  0.54985960  1
  Te2-  Te177  1  0.16704394  0.83429817  0.55025183  1
  Te2-  Te178  1  0.66683125  0.33319878  0.54894455  1
  Te2-  Te179  1  0.66761895  0.83477442  0.54886698  1
  Te2-  Te180  1  0.32692473  0.41304405  0.71028039  1
  Te2-  Te181  1  0.32782516  0.91489471  0.70885592  1
  Te2-  Te182  1  0.82693047  0.41275579  0.71237426  1
  Te2-  Te183  1  0.82725388  0.91204469  0.70904907  1
  Te2-  Te184  1  0.08668065  0.17377004  0.70986997  1
  Te2-  Te185  1  0.08894340  0.67561072  0.70867587  1
  Te2-  Te186  1  0.58573919  0.17088259  0.71332581  1
  Te2-  Te187  1  0.58733360  0.66945000  0.71096321  1
  Te2-  Te188  1  0.08361757  0.41098505  0.71137094  1
  Te2-  Te189  1  0.08634500  0.91669547  0.70897535  1
  Te2-  Te190  1  0.58884482  0.41325040  0.71178706  1
  Te2-  Te191  1  0.58729413  0.91268078  0.71067514  1
  Te2-  Te192  1  0.16205193  0.07817585  0.04222878  1
  Te2-  Te193  1  0.15863777  0.57603979  0.04446357  1
  Te2-  Te194  1  0.65933861  0.07984126  0.03894600  1
  Te2-  Te195  1  0.65980812  0.58236163  0.04541374  1
  Te2-  Te196  1  0.41726872  0.34099830  0.04518109  1
  Te2-  Te197  1  0.41914578  0.83829935  0.04217391  1
  Te2-  Te198  1  0.92073428  0.34118575  0.04191142  1
  Te2-  Te199  1  0.91896526  0.83696411  0.04231431  1
  Te2-  Te200  1  0.41782397  0.07821167  0.04057012  1
  Te2-  Te201  1  0.41738441  0.58040827  0.04721350  1
  Te2-  Te202  1  0.92047789  0.07769940  0.03987896  1
  Te2-  Te203  1  0.91695483  0.57856479  0.04454221  1
  Te2-  Te204  1  0.49462206  0.24791165  0.37851031  1
  Te2-  Te205  1  0.49567510  0.75119135  0.37843214  1
  Te2-  Te206  1  0.99633517  0.24821107  0.37994562  1
  Te2-  Te207  1  0.99349739  0.74821704  0.37783424  1
  Te2-  Te208  1  0.24970031  0.00333882  0.37870083  1
  Te2-  Te209  1  0.25392627  0.50786506  0.37875463  1
  Te2-  Te210  1  0.75272796  0.00772466  0.37876967  1
  Te2-  Te211  1  0.75390015  0.50594518  0.37883992  1
  Te2-  Te212  1  0.25234243  0.24608583  0.37738199  1
  Te2-  Te213  1  0.25519641  0.74944371  0.37894205  1
  Te2-  Te214  1  0.75301928  0.24736525  0.37912975  1
  Te2-  Te215  1  0.75281514  0.75038232  0.37836629  1
