# generated using pymatgen
data_Ti(CuTe)4
_symmetry_space_group_name_H-M   'P 1'
_cell_length_a   16.86558474
_cell_length_b   16.86920492
_cell_length_c   20.67879091
_cell_angle_alpha   90.01438907
_cell_angle_beta   90.01650151
_cell_angle_gamma   119.99844682
_symmetry_Int_Tables_number   1
_chemical_formula_structural   Ti(CuTe)4
_chemical_formula_sum   'Ti24 Cu96 Te96'
_cell_volume   5095.16818801
_cell_formula_units_Z   24
loop_
 _symmetry_equiv_pos_site_id
 _symmetry_equiv_pos_as_xyz
  1  'x, y, z'
loop_
 _atom_type_symbol
 _atom_type_oxidation_number
  Ti4+  4.0
  Cu+  1.0
  Te2-  -2.0
loop_
 _atom_site_type_symbol
 _atom_site_label
 _atom_site_symmetry_multiplicity
 _atom_site_fract_x
 _atom_site_fract_y
 _atom_site_fract_z
 _atom_site_occupancy
  Ti4+  Ti0  1  0.00375580  0.00349267  0.26059755  1
  Ti4+  Ti1  1  0.00150776  0.49910399  0.25608415  1
  Ti4+  Ti2  1  0.50023287  0.00023934  0.25982912  1
  Ti4+  Ti3  1  0.50400105  0.49937561  0.25923356  1
  Ti4+  Ti4  1  0.33258802  0.16634527  0.59200373  1
  Ti4+  Ti5  1  0.33050368  0.66518035  0.58790272  1
  Ti4+  Ti6  1  0.83204871  0.16499008  0.58909271  1
  Ti4+  Ti7  1  0.82871714  0.66501821  0.59050965  1
  Ti4+  Ti8  1  0.16442116  0.33101386  0.92517778  1
  Ti4+  Ti9  1  0.16537832  0.83517755  0.92282856  1
  Ti4+  Ti10  1  0.66962095  0.33518532  0.92554615  1
  Ti4+  Ti11  1  0.66510866  0.83358969  0.92705865  1
  Ti4+  Ti12  1  0.00216624  0.00162111  0.75536038  1
  Ti4+  Ti13  1  -0.00432842  0.49798341  0.75583760  1
  Ti4+  Ti14  1  0.50018266  -0.00093938  0.75537645  1
  Ti4+  Ti15  1  0.49990904  0.50118595  0.75655449  1
  Ti4+  Ti16  1  0.33450182  0.16763756  0.09095767  1
  Ti4+  Ti17  1  0.33335673  0.66767587  0.08884745  1
  Ti4+  Ti18  1  0.83693210  0.16883427  0.09132559  1
  Ti4+  Ti19  1  0.83162854  0.66478454  0.09059284  1
  Ti4+  Ti20  1  0.16735467  0.33453036  0.42218926  1
  Ti4+  Ti21  1  0.16743673  0.83378778  0.42122925  1
  Ti4+  Ti22  1  0.66803837  0.33349795  0.42240588  1
  Ti4+  Ti23  1  0.66814834  0.83342864  0.41745441  1
  Cu+  Cu24  1  0.57144910  0.14959703  0.47678146  1
  Cu+  Cu25  1  0.57058765  0.65105749  0.47321705  1
  Cu+  Cu26  1  0.06765568  0.42619628  0.47249505  1
  Cu+  Cu27  1  0.90220658  0.59587335  0.80708592  1
  Cu+  Cu28  1  0.02902886  0.26268761  0.14215037  1
  Cu+  Cu29  1  0.19236022  0.09791834  0.80914669  1
  Cu+  Cu30  1  0.73711448  0.47314882  0.14151367  1
  Cu+  Cu31  1  0.90206847  0.30724598  0.80756596  1
  Cu+  Cu32  1  0.57340498  0.91980243  0.47460220  1
  Cu+  Cu33  1  0.57010386  0.41941990  0.47649071  1
  Cu+  Cu34  1  0.07794179  0.15279964  0.47913449  1
  Cu+  Cu35  1  0.84614660  0.91847566  0.47548267  1
  Cu+  Cu36  1  0.16570015  0.08377704  0.17347827  1
  Cu+  Cu37  1  0.16521266  0.58236808  0.16959359  1
  Cu+  Cu38  1  0.66397282  0.08261148  0.17533591  1
  Cu+  Cu39  1  0.66477573  0.57576396  0.17325862  1
  Cu+  Cu40  1  0.42246501  0.33616406  0.17293187  1
  Cu+  Cu41  1  0.41853439  0.83672023  0.17234068  1
  Cu+  Cu42  1  0.92711112  0.33766772  0.16996479  1
  Cu+  Cu43  1  0.91784245  0.83649392  0.17441980  1
  Cu+  Cu44  1  0.42052330  0.08449948  0.17364153  1
  Cu+  Cu45  1  0.42067566  0.58480141  0.17304946  1
  Cu+  Cu46  1  0.92555876  0.08897288  0.17468346  1
  Cu+  Cu47  1  0.91309562  0.57747414  0.17032302  1
  Cu+  Cu48  1  0.49635421  0.24791961  0.50518561  1
  Cu+  Cu49  1  0.49183510  0.74514710  0.49840687  1
  Cu+  Cu50  1  0.99746912  0.25044652  0.50249163  1
  Cu+  Cu51  1  0.99771272  0.74684423  0.50383854  1
  Cu+  Cu52  1  0.24876974  0.00203385  0.50367686  1
  Cu+  Cu53  1  0.24484068  0.50278124  0.50047924  1
  Cu+  Cu54  1  0.75144271  0.00373732  0.49675130  1
  Cu+  Cu55  1  0.74692923  0.50287720  0.50267204  1
  Cu+  Cu56  1  0.25077381  0.24620620  0.50411999  1
  Cu+  Cu57  1  0.24982741  0.74684293  0.50057502  1
  Cu+  Cu58  1  0.74921421  0.24521406  0.50169143  1
  Cu+  Cu59  1  0.74971840  0.74334929  0.49781941  1
  Cu+  Cu60  1  0.33093259  0.41597403  0.83870325  1
  Cu+  Cu61  1  0.32962987  0.91490617  0.83663425  1
  Cu+  Cu62  1  0.82979929  0.41534940  0.83759405  1
  Cu+  Cu63  1  0.82866736  0.91536143  0.84003634  1
  Cu+  Cu64  1  0.08816056  0.17015261  0.83745648  1
  Cu+  Cu65  1  0.07788114  0.66980239  0.83641848  1
  Cu+  Cu66  1  0.58518464  0.16868357  0.83868114  1
  Cu+  Cu67  1  0.58411324  0.67139463  0.83946116  1
  Cu+  Cu68  1  0.07773314  0.40849885  0.83812658  1
  Cu+  Cu69  1  0.09067946  0.92070965  0.83514502  1
  Cu+  Cu70  1  0.58662743  0.41855399  0.83942430  1
  Cu+  Cu71  1  0.58537796  0.91487217  0.83915677  1
  Cu+  Cu72  1  0.16952958  0.08634412  0.68083929  1
  Cu+  Cu73  1  0.16569611  0.58236856  0.67334186  1
  Cu+  Cu74  1  0.66579615  0.08153547  0.67546406  1
  Cu+  Cu75  1  0.66418507  0.58387156  0.67599734  1
  Cu+  Cu76  1  0.41690298  0.33304197  0.67725895  1
  Cu+  Cu77  1  0.41663692  0.83039870  0.67317360  1
  Cu+  Cu78  1  0.91366031  0.32970176  0.67887128  1
  Cu+  Cu79  1  0.91459236  0.83259750  0.67499700  1
  Cu+  Cu80  1  0.41730685  0.08403840  0.67591225  1
  Cu+  Cu81  1  0.41467661  0.58424098  0.67245027  1
  Cu+  Cu82  1  0.91687620  0.08315515  0.67542199  1
  Cu+  Cu83  1  0.91059190  0.58369222  0.67809139  1
  Cu+  Cu84  1  0.00311032  0.24968866  0.01284778  1
  Cu+  Cu85  1  0.00124467  0.75422294  0.00701607  1
  Cu+  Cu86  1  0.50264499  0.25186019  0.00880417  1
  Cu+  Cu87  1  0.50225890  0.75253616  0.00903968  1
  Cu+  Cu88  1  0.24835905  0.49816292  0.00790809  1
  Cu+  Cu89  1  0.24955929  0.99993048  0.00906703  1
  Cu+  Cu90  1  0.74900588  0.49736494  0.01359217  1
  Cu+  Cu91  1  0.74729530  0.99640930  0.01092257  1
  Cu+  Cu92  1  0.25060931  0.25010314  0.01106592  1
  Cu+  Cu93  1  0.24782692  0.75264033  0.00569843  1
  Cu+  Cu94  1  0.75204025  0.25161211  0.01087754  1
  Cu+  Cu95  1  0.74565095  0.75113578  0.01013907  1
  Cu+  Cu96  1  0.33841046  0.41836111  0.34074430  1
  Cu+  Cu97  1  0.33545075  0.91888166  0.34090767  1
  Cu+  Cu98  1  0.83710858  0.41742554  0.33905383  1
  Cu+  Cu99  1  0.84041353  0.92181359  0.34568306  1
  Cu+  Cu100  1  0.08443595  0.16611455  0.34925795  1
  Cu+  Cu101  1  0.08280339  0.66492096  0.33766079  1
  Cu+  Cu102  1  0.58399775  0.16303738  0.34725782  1
  Cu+  Cu103  1  0.58623309  0.66319432  0.34384911  1
  Cu+  Cu104  1  0.08441517  0.42043656  0.34464238  1
  Cu+  Cu105  1  0.08367946  0.91810223  0.34156996  1
  Cu+  Cu106  1  0.58667050  0.41985405  0.34835589  1
  Cu+  Cu107  1  0.58182325  0.91833544  0.34475653  1
  Cu+  Cu108  1  -0.00054752  -0.00294890  0.11822564  1
  Cu+  Cu109  1  0.00284420  0.50603883  0.11215340  1
  Cu+  Cu110  1  0.49826269  -0.00038915  0.11751715  1
  Cu+  Cu111  1  0.49672605  0.50076012  0.11690860  1
  Cu+  Cu112  1  0.33355814  0.16533650  0.44669695  1
  Cu+  Cu113  1  0.33014694  0.66606136  0.44068571  1
  Cu+  Cu114  1  0.83560694  0.16871951  0.44320068  1
  Cu+  Cu115  1  0.83942781  0.66584303  0.44565374  1
  Cu+  Cu116  1  0.16921385  0.33790748  0.78140389  1
  Cu+  Cu117  1  0.16797376  0.83088773  0.77773854  1
  Cu+  Cu118  1  0.66082912  0.32985556  0.78220533  1
  Cu+  Cu119  1  0.66703797  0.83338849  0.78285789  1
  Te2-  Te120  1  0.00414395  0.00040956  0.39313600  1
  Te2-  Te121  1  -0.00025098  0.50240019  0.38662566  1
  Te2-  Te122  1  0.49713801  -0.00214414  0.39221845  1
  Te2-  Te123  1  0.49978898  0.49895188  0.39154991  1
  Te2-  Te124  1  0.33711636  0.16835398  0.72198637  1
  Te2-  Te125  1  0.33088669  0.66530444  0.71661058  1
  Te2-  Te126  1  0.83102082  0.16256593  0.71921005  1
  Te2-  Te127  1  0.82888597  0.66834243  0.72085219  1
  Te2-  Te128  1  0.17038376  0.33473580  0.05547834  1
  Te2-  Te129  1  0.16571469  0.83448374  0.05180840  1
  Te2-  Te130  1  0.66623451  0.33038868  0.05587408  1
  Te2-  Te131  1  0.66469785  0.83304014  0.05682487  1
  Te2-  Te132  1  0.49906263  0.25039698  0.88295129  1
  Te2-  Te133  1  0.49353893  0.74797718  0.88343206  1
  Te2-  Te134  1  0.99076907  0.23989325  0.88478338  1
  Te2-  Te135  1  0.99170098  0.75305289  0.88096278  1
  Te2-  Te136  1  0.25818119  0.00978360  0.88300584  1
  Te2-  Te137  1  0.24715991  0.50077631  0.88159494  1
  Te2-  Te138  1  0.75208312  0.00565646  0.88495944  1
  Te2-  Te139  1  0.75351318  0.50875926  0.88562737  1
  Te2-  Te140  1  0.25667103  0.24934167  0.88482507  1
  Te2-  Te141  1  0.24727013  0.74655156  0.87940696  1
  Te2-  Te142  1  0.75280173  0.24501288  0.88427278  1
  Te2-  Te143  1  0.75126586  0.74795957  0.88419638  1
  Te2-  Te144  1  0.33366450  0.41572411  0.21541742  1
  Te2-  Te145  1  0.32968640  0.91596523  0.21555829  1
  Te2-  Te146  1  0.82831540  0.40750959  0.21377519  1
  Te2-  Te147  1  0.83325291  0.92001488  0.21826753  1
  Te2-  Te148  1  0.09415166  0.17749315  0.22138307  1
  Te2-  Te149  1  0.08286828  0.66863627  0.21205695  1
  Te2-  Te150  1  0.58697986  0.17242848  0.22017271  1
  Te2-  Te151  1  0.58961879  0.66948835  0.21669288  1
  Te2-  Te152  1  0.09415478  0.41703545  0.21751420  1
  Te2-  Te153  1  0.08645123  0.91586475  0.21634326  1
  Te2-  Te154  1  0.58759554  0.40833785  0.22099565  1
  Te2-  Te155  1  0.58572209  0.91441279  0.21769343  1
  Te2-  Te156  1  0.15897551  0.07776365  0.55288780  1
  Te2-  Te157  1  0.15591361  0.58087751  0.54746848  1
  Te2-  Te158  1  0.65661259  0.07632599  0.54911907  1
  Te2-  Te159  1  0.65283686  0.57789741  0.54946493  1
  Te2-  Te160  1  0.41694989  0.33921581  0.55113971  1
  Te2-  Te161  1  0.41721453  0.83845042  0.54690070  1
  Te2-  Te162  1  0.91582029  0.33829133  0.55057250  1
  Te2-  Te163  1  0.91896897  0.83738331  0.54858296  1
  Te2-  Te164  1  0.41640874  0.07778910  0.54986151  1
  Te2-  Te165  1  0.41381460  0.57581664  0.54629334  1
  Te2-  Te166  1  0.91928692  0.07766830  0.54860868  1
  Te2-  Te167  1  0.91357998  0.57922209  0.55039195  1
  Te2-  Te168  1  -0.00018497  -0.00033252  0.88200086  1
  Te2-  Te169  1  0.00021988  0.50076619  0.88311980  1
  Te2-  Te170  1  0.49924347  -0.00097623  0.88141457  1
  Te2-  Te171  1  0.50016746  0.50191821  0.88267365  1
  Te2-  Te172  1  0.33506706  0.16739888  0.21738281  1
  Te2-  Te173  1  0.33394133  0.66756281  0.21530572  1
  Te2-  Te174  1  0.83510771  0.16894003  0.21812225  1
  Te2-  Te175  1  0.83512626  0.66709746  0.21763954  1
  Te2-  Te176  1  0.16702666  0.33376204  0.54985602  1
  Te2-  Te177  1  0.16645047  0.83202362  0.54779220  1
  Te2-  Te178  1  0.66774965  0.33349076  0.55017795  1
  Te2-  Te179  1  0.66545042  0.83222621  0.54572279  1
  Te2-  Te180  1  0.32800860  0.41480216  0.71161365  1
  Te2-  Te181  1  0.32854598  0.91305197  0.70979387  1
  Te2-  Te182  1  0.82222174  0.41117689  0.70989066  1
  Te2-  Te183  1  0.82810587  0.91456826  0.71278888  1
  Te2-  Te184  1  0.08626895  0.17570623  0.71067318  1
  Te2-  Te185  1  0.08340231  0.67011366  0.70896225  1
  Te2-  Te186  1  0.58697272  0.17223137  0.71142575  1
  Te2-  Te187  1  0.58374133  0.67324417  0.71177815  1
  Te2-  Te188  1  0.08520417  0.41393101  0.71072074  1
  Te2-  Te189  1  0.08541651  0.91221266  0.70867950  1
  Te2-  Te190  1  0.58661679  0.41466790  0.71245519  1
  Te2-  Te191  1  0.58583939  0.91192029  0.71160745  1
  Te2-  Te192  1  0.16131527  0.08078482  0.04725354  1
  Te2-  Te193  1  0.16195306  0.58224100  0.04278451  1
  Te2-  Te194  1  0.66356916  0.08220228  0.04868700  1
  Te2-  Te195  1  0.65893394  0.58034982  0.04592740  1
  Te2-  Te196  1  0.42148113  0.34003470  0.04622655  1
  Te2-  Te197  1  0.41808326  0.83941922  0.04488256  1
  Te2-  Te198  1  0.92224302  0.34145259  0.04379901  1
  Te2-  Te199  1  0.91600794  0.83720387  0.04727684  1
  Te2-  Te200  1  0.42033790  0.08187992  0.04613731  1
  Te2-  Te201  1  0.41899056  0.58144351  0.04508366  1
  Te2-  Te202  1  0.91837843  0.07782911  0.04709012  1
  Te2-  Te203  1  0.92201055  0.58397575  0.04274703  1
  Te2-  Te204  1  0.49382623  0.24613311  0.37689804  1
  Te2-  Te205  1  0.49350572  0.74456962  0.37095911  1
  Te2-  Te206  1  0.99368899  0.24846714  0.37503610  1
  Te2-  Te207  1  0.99591597  0.74745288  0.37620616  1
  Te2-  Te208  1  0.25359334  0.00685833  0.37743863  1
  Te2-  Te209  1  0.25660675  0.50663454  0.37432967  1
  Te2-  Te210  1  0.75483968  0.00931678  0.37125942  1
  Te2-  Te211  1  0.75850079  0.50719189  0.37632598  1
  Te2-  Te212  1  0.25724380  0.24974589  0.37770373  1
  Te2-  Te213  1  0.25258134  0.74767549  0.37427545  1
  Te2-  Te214  1  0.75635270  0.24875256  0.37579127  1
  Te2-  Te215  1  0.75874218  0.74811443  0.37192821  1
