# generated using pymatgen
data_Ti(CuTe)4
_symmetry_space_group_name_H-M   'P 1'
_cell_length_a   16.88758095
_cell_length_b   16.89121223
_cell_length_c   20.71618115
_cell_angle_alpha   90.04969336
_cell_angle_beta   89.99817970
_cell_angle_gamma   119.99347479
_symmetry_Int_Tables_number   1
_chemical_formula_structural   Ti(CuTe)4
_chemical_formula_sum   'Ti24 Cu96 Te96'
_cell_volume   5117.96057593
_cell_formula_units_Z   24
loop_
 _symmetry_equiv_pos_site_id
 _symmetry_equiv_pos_as_xyz
  1  'x, y, z'
loop_
 _atom_type_symbol
 _atom_type_oxidation_number
  Ti4+  4.0
  Cu+  1.0
  Te2-  -2.0
loop_
 _atom_site_type_symbol
 _atom_site_label
 _atom_site_symmetry_multiplicity
 _atom_site_fract_x
 _atom_site_fract_y
 _atom_site_fract_z
 _atom_site_occupancy
  Ti4+  Ti0  1  -0.00221935  -0.00057583  0.25749881  1
  Ti4+  Ti1  1  -0.00082041  0.49730518  0.25522249  1
  Ti4+  Ti2  1  0.49571639  -0.00508483  0.25616849  1
  Ti4+  Ti3  1  0.50198078  0.49804466  0.25749629  1
  Ti4+  Ti4  1  0.33191842  0.16785554  0.59041416  1
  Ti4+  Ti5  1  0.33504765  0.66805861  0.59144980  1
  Ti4+  Ti6  1  0.83203217  0.16466324  0.59045475  1
  Ti4+  Ti7  1  0.83478510  0.66639991  0.59236066  1
  Ti4+  Ti8  1  0.16948091  0.33912018  0.92676344  1
  Ti4+  Ti9  1  0.16506612  0.83521027  0.92619644  1
  Ti4+  Ti10  1  0.66810231  0.33272996  0.92281399  1
  Ti4+  Ti11  1  0.66816548  0.83497939  0.92356658  1
  Ti4+  Ti12  1  -0.00026714  -0.00086927  0.75715751  1
  Ti4+  Ti13  1  0.00124687  0.50059450  0.75588668  1
  Ti4+  Ti14  1  0.50249821  0.00309002  0.75641581  1
  Ti4+  Ti15  1  0.49916693  0.50189126  0.75582988  1
  Ti4+  Ti16  1  0.33300267  0.16795827  0.08737713  1
  Ti4+  Ti17  1  0.33475908  0.66929746  0.08779651  1
  Ti4+  Ti18  1  0.83337755  0.16582606  0.08863090  1
  Ti4+  Ti19  1  0.83279978  0.66502345  0.08840938  1
  Ti4+  Ti20  1  0.16801412  0.33219334  0.42270460  1
  Ti4+  Ti21  1  0.16483096  0.83166541  0.42249678  1
  Ti4+  Ti22  1  0.66701300  0.33211987  0.42147799  1
  Ti4+  Ti23  1  0.66496146  0.83346576  0.42302697  1
  Cu+  Cu24  1  0.23662554  0.98245043  0.14157780  1
  Cu+  Cu25  1  0.23828712  0.75437577  0.14293263  1
  Cu+  Cu26  1  0.73663583  0.97479443  0.14014346  1
  Cu+  Cu27  1  0.40495061  0.59792333  0.80835335  1
  Cu+  Cu28  1  0.01576914  0.25340550  0.14255496  1
  Cu+  Cu29  1  0.69296810  0.09767562  0.80778147  1
  Cu+  Cu30  1  0.90497082  0.80908486  0.80827851  1
  Cu+  Cu31  1  0.73668748  0.47269790  0.13783774  1
  Cu+  Cu32  1  0.24847646  0.48792160  0.14541841  1
  Cu+  Cu33  1  0.35761924  0.42876053  0.47470776  1
  Cu+  Cu34  1  0.07203960  0.14413226  0.47520136  1
  Cu+  Cu35  1  0.56963460  0.92840672  0.47494209  1
  Cu+  Cu36  1  0.16187651  0.08075023  0.17004595  1
  Cu+  Cu37  1  0.16248648  0.57995010  0.16839490  1
  Cu+  Cu38  1  0.66271251  0.07361379  0.17018034  1
  Cu+  Cu39  1  0.66575191  0.57692308  0.17058194  1
  Cu+  Cu40  1  0.42001301  0.33846554  0.16905005  1
  Cu+  Cu41  1  0.41550631  0.83802212  0.16863220  1
  Cu+  Cu42  1  0.92239183  0.33590397  0.16859136  1
  Cu+  Cu43  1  0.91522238  0.83559706  0.17005577  1
  Cu+  Cu44  1  0.41187169  0.07755104  0.16840115  1
  Cu+  Cu45  1  0.41964082  0.58009344  0.17165096  1
  Cu+  Cu46  1  0.91552115  0.07950894  0.17068260  1
  Cu+  Cu47  1  0.91200878  0.57551080  0.16828465  1
  Cu+  Cu48  1  0.49783935  0.24947297  0.50361004  1
  Cu+  Cu49  1  0.49646643  0.75210696  0.50466932  1
  Cu+  Cu50  1  0.99735368  0.24327647  0.50474124  1
  Cu+  Cu51  1  0.99663950  0.74875925  0.50572973  1
  Cu+  Cu52  1  0.24891401  0.00200188  0.50428202  1
  Cu+  Cu53  1  0.25788377  0.50267007  0.50511808  1
  Cu+  Cu54  1  0.74526202  0.00288367  0.50370545  1
  Cu+  Cu55  1  0.75344682  0.50236463  0.50525978  1
  Cu+  Cu56  1  0.25155775  0.24841826  0.50281150  1
  Cu+  Cu57  1  0.24927998  0.74687425  0.50503269  1
  Cu+  Cu58  1  0.75067604  0.24734520  0.50361451  1
  Cu+  Cu59  1  0.75367315  0.74990205  0.50731296  1
  Cu+  Cu60  1  0.33164789  0.42467158  0.83892862  1
  Cu+  Cu61  1  0.33128780  0.91983889  0.84096411  1
  Cu+  Cu62  1  0.83140708  0.41692085  0.83687600  1
  Cu+  Cu63  1  0.83148232  0.91183915  0.83787909  1
  Cu+  Cu64  1  0.08513829  0.17127775  0.84103276  1
  Cu+  Cu65  1  0.08729619  0.67140012  0.83853881  1
  Cu+  Cu66  1  0.59152951  0.17169516  0.83668912  1
  Cu+  Cu67  1  0.58006716  0.67070534  0.83649535  1
  Cu+  Cu68  1  0.08682035  0.41724185  0.83961526  1
  Cu+  Cu69  1  0.08085985  0.91280791  0.83935154  1
  Cu+  Cu70  1  0.58513217  0.41617041  0.83806288  1
  Cu+  Cu71  1  0.59207926  0.92397214  0.83787467  1
  Cu+  Cu72  1  0.16809022  0.08580188  0.67548415  1
  Cu+  Cu73  1  0.16937714  0.58291230  0.67511229  1
  Cu+  Cu74  1  0.66977285  0.08606557  0.67913948  1
  Cu+  Cu75  1  0.67048081  0.58520548  0.67477605  1
  Cu+  Cu76  1  0.41360107  0.33221242  0.67495705  1
  Cu+  Cu77  1  0.41634160  0.83405930  0.67639505  1
  Cu+  Cu78  1  0.91619403  0.33082662  0.67437126  1
  Cu+  Cu79  1  0.91646015  0.82883810  0.68024742  1
  Cu+  Cu80  1  0.41476896  0.08708571  0.67481994  1
  Cu+  Cu81  1  0.41564574  0.58637206  0.67917297  1
  Cu+  Cu82  1  0.91604606  0.08295156  0.67427628  1
  Cu+  Cu83  1  0.91864089  0.58559498  0.67551864  1
  Cu+  Cu84  1  0.00600588  0.25539015  0.01405494  1
  Cu+  Cu85  1  0.00045921  0.75197779  0.00917077  1
  Cu+  Cu86  1  0.50227006  0.25261148  0.00533299  1
  Cu+  Cu87  1  0.50366114  0.75464016  0.00759127  1
  Cu+  Cu88  1  0.25161141  0.50167107  0.01436263  1
  Cu+  Cu89  1  0.24643281  0.99892631  0.01240428  1
  Cu+  Cu90  1  0.74752265  0.49499678  0.01030401  1
  Cu+  Cu91  1  0.75039096  0.99770660  0.01157845  1
  Cu+  Cu92  1  0.25234238  0.25654209  0.00778800  1
  Cu+  Cu93  1  0.25129922  0.75757236  0.01369477  1
  Cu+  Cu94  1  0.74949937  0.25058830  0.00707182  1
  Cu+  Cu95  1  0.74993191  0.75066255  0.00780121  1
  Cu+  Cu96  1  0.33811610  0.41810950  0.34632772  1
  Cu+  Cu97  1  0.33034140  0.91322204  0.34237630  1
  Cu+  Cu98  1  0.83423110  0.41531595  0.34024755  1
  Cu+  Cu99  1  0.83248686  0.91786044  0.34259195  1
  Cu+  Cu100  1  0.08099274  0.16253513  0.34577314  1
  Cu+  Cu101  1  0.07950644  0.66228818  0.34067022  1
  Cu+  Cu102  1  0.58071059  0.16064096  0.33910600  1
  Cu+  Cu103  1  0.58275128  0.66275081  0.34139879  1
  Cu+  Cu104  1  0.08360835  0.41782381  0.34168520  1
  Cu+  Cu105  1  0.08087568  0.91646350  0.34283064  1
  Cu+  Cu106  1  0.58459675  0.41604020  0.34205968  1
  Cu+  Cu107  1  0.57882393  0.91489052  0.34546254  1
  Cu+  Cu108  1  -0.00053326  -0.00177201  0.11347471  1
  Cu+  Cu109  1  -0.00099870  0.50042436  0.11084089  1
  Cu+  Cu110  1  0.50333464  0.00804158  0.11219585  1
  Cu+  Cu111  1  0.50287823  0.50324178  0.11365897  1
  Cu+  Cu112  1  0.33595662  0.16407199  0.44714201  1
  Cu+  Cu113  1  0.33000308  0.66495838  0.44837959  1
  Cu+  Cu114  1  0.83509101  0.16975393  0.44725362  1
  Cu+  Cu115  1  0.83163423  0.66610456  0.45001880  1
  Cu+  Cu116  1  0.16608760  0.33118248  0.78379985  1
  Cu+  Cu117  1  0.17060336  0.83580192  0.78326559  1
  Cu+  Cu118  1  0.66638139  0.33732832  0.77961038  1
  Cu+  Cu119  1  0.66701643  0.83458262  0.78031833  1
  Te2-  Te120  1  -0.00355252  -0.00383006  0.38769653  1
  Te2-  Te121  1  -0.00127615  0.49776621  0.38366869  1
  Te2-  Te122  1  0.49503385  -0.00187268  0.38633667  1
  Te2-  Te123  1  0.50473786  0.50001760  0.38802616  1
  Te2-  Te124  1  0.33228233  0.16844346  0.71949618  1
  Te2-  Te125  1  0.33266439  0.66999992  0.72189036  1
  Te2-  Te126  1  0.83690597  0.16742986  0.72080685  1
  Te2-  Te127  1  0.83276473  0.66249082  0.72352984  1
  Te2-  Te128  1  0.17145550  0.33619067  0.05946386  1
  Te2-  Te129  1  0.16229539  0.83361104  0.05863467  1
  Te2-  Te130  1  0.66422420  0.32827772  0.05364649  1
  Te2-  Te131  1  0.66656248  0.83086368  0.05410681  1
  Te2-  Te132  1  0.49741706  0.24705182  0.87986141  1
  Te2-  Te133  1  0.49535891  0.75496426  0.88198251  1
  Te2-  Te134  1  0.99781080  0.25113640  0.88709182  1
  Te2-  Te135  1  0.99185037  0.74358195  0.88363504  1
  Te2-  Te136  1  0.24902183  0.00583135  0.88541992  1
  Te2-  Te137  1  0.25298380  0.51334134  0.88693090  1
  Te2-  Te138  1  0.76019382  0.00834623  0.88444350  1
  Te2-  Te139  1  0.75256446  0.50470851  0.88366403  1
  Te2-  Te140  1  0.25510257  0.25524727  0.88198282  1
  Te2-  Te141  1  0.25375842  0.75233373  0.88642264  1
  Te2-  Te142  1  0.76030598  0.25006483  0.88205936  1
  Te2-  Te143  1  0.74837122  0.74257683  0.88213312  1
  Te2-  Te144  1  0.32741079  0.41032826  0.21903115  1
  Te2-  Te145  1  0.31864608  0.90867820  0.21659444  1
  Te2-  Te146  1  0.82615306  0.40688871  0.21431002  1
  Te2-  Te147  1  0.82421085  0.91094618  0.21671261  1
  Te2-  Te148  1  0.08687603  0.17206090  0.21814357  1
  Te2-  Te149  1  0.08084448  0.66922342  0.21433488  1
  Te2-  Te150  1  0.58169818  0.16338309  0.21223259  1
  Te2-  Te151  1  0.58736046  0.66815833  0.21517522  1
  Te2-  Te152  1  0.09042851  0.41126048  0.21616921  1
  Te2-  Te153  1  0.08198417  0.91079934  0.21658048  1
  Te2-  Te154  1  0.58566048  0.40795097  0.21613244  1
  Te2-  Te155  1  0.58060066  0.90554553  0.21802443  1
  Te2-  Te156  1  0.15796387  0.07849661  0.54967307  1
  Te2-  Te157  1  0.16496889  0.57863704  0.54895405  1
  Te2-  Te158  1  0.65735589  0.08184933  0.55189229  1
  Te2-  Te159  1  0.66353639  0.58099481  0.54918086  1
  Te2-  Te160  1  0.42162879  0.34130851  0.54897076  1
  Te2-  Te161  1  0.41700943  0.84175703  0.55031612  1
  Te2-  Te162  1  0.91935294  0.33451234  0.54789783  1
  Te2-  Te163  1  0.92067570  0.83895677  0.55342651  1
  Te2-  Te164  1  0.41696521  0.08179919  0.54875322  1
  Te2-  Te165  1  0.42588232  0.58489799  0.55203884  1
  Te2-  Te166  1  0.91409999  0.07337696  0.54859286  1
  Te2-  Te167  1  0.92112714  0.58133940  0.55000567  1
  Te2-  Te168  1  0.00032343  0.00187371  0.88393016  1
  Te2-  Te169  1  0.00088802  0.50167336  0.88179286  1
  Te2-  Te170  1  0.50141232  0.00299023  0.88313865  1
  Te2-  Te171  1  0.50177838  0.50202159  0.88256447  1
  Te2-  Te172  1  0.33260889  0.16755859  0.21423944  1
  Te2-  Te173  1  0.33396294  0.66652570  0.21534030  1
  Te2-  Te174  1  0.83199605  0.16655210  0.21605633  1
  Te2-  Te175  1  0.83460991  0.66646114  0.21525504  1
  Te2-  Te176  1  0.16697214  0.33318250  0.54996860  1
  Te2-  Te177  1  0.16610043  0.83307897  0.54869319  1
  Te2-  Te178  1  0.66706613  0.33262668  0.54756984  1
  Te2-  Te179  1  0.66659133  0.83355859  0.54965287  1
  Te2-  Te180  1  0.32613907  0.41427608  0.71165680  1
  Te2-  Te181  1  0.33006982  0.91775922  0.71381674  1
  Te2-  Te182  1  0.82964393  0.41485835  0.71078726  1
  Te2-  Te183  1  0.82772719  0.91359294  0.71101086  1
  Te2-  Te184  1  0.08463564  0.17118068  0.71373319  1
  Te2-  Te185  1  0.08860710  0.67263799  0.71225734  1
  Te2-  Te186  1  0.58546318  0.17459647  0.70999565  1
  Te2-  Te187  1  0.58861168  0.67384432  0.70988676  1
  Te2-  Te188  1  0.08626628  0.41323861  0.71294956  1
  Te2-  Te189  1  0.08898479  0.91590401  0.71246700  1
  Te2-  Te190  1  0.58431923  0.41538338  0.71128618  1
  Te2-  Te191  1  0.58634259  0.91412493  0.71104062  1
  Te2-  Te192  1  0.15998120  0.08548769  0.04298019  1
  Te2-  Te193  1  0.16059315  0.58389700  0.04154654  1
  Te2-  Te194  1  0.66106447  0.08086902  0.04260866  1
  Te2-  Te195  1  0.66090898  0.58072713  0.04324621  1
  Te2-  Te196  1  0.42164687  0.34091379  0.04350018  1
  Te2-  Te197  1  0.42376056  0.84378283  0.04311357  1
  Te2-  Te198  1  0.91830181  0.33986670  0.04267404  1
  Te2-  Te199  1  0.91818474  0.83847475  0.04425891  1
  Te2-  Te200  1  0.41982179  0.08267816  0.04134006  1
  Te2-  Te201  1  0.42426364  0.58482095  0.04396171  1
  Te2-  Te202  1  0.92294488  0.08188212  0.04313579  1
  Te2-  Te203  1  0.92046271  0.58099877  0.04155448  1
  Te2-  Te204  1  0.49538943  0.24545921  0.37677825  1
  Te2-  Te205  1  0.49236162  0.74259117  0.37793543  1
  Te2-  Te206  1  0.99476862  0.24819763  0.37752220  1
  Te2-  Te207  1  0.99305314  0.74595765  0.37895451  1
  Te2-  Te208  1  0.25081518  0.00371618  0.37784476  1
  Te2-  Te209  1  0.25309764  0.50542968  0.37784502  1
  Te2-  Te210  1  0.75132197  0.00634817  0.37723799  1
  Te2-  Te211  1  0.75409675  0.50443216  0.37853836  1
  Te2-  Te212  1  0.25388774  0.24488692  0.37582207  1
  Te2-  Te213  1  0.24904650  0.74386120  0.37829243  1
  Te2-  Te214  1  0.75097050  0.24489315  0.37659970  1
  Te2-  Te215  1  0.75214828  0.74803486  0.38021891  1
