# generated using pymatgen
data_Ti(CuTe)4
_symmetry_space_group_name_H-M   'P 1'
_cell_length_a   16.88751369
_cell_length_b   16.88438790
_cell_length_c   20.70760238
_cell_angle_alpha   89.98535240
_cell_angle_beta   89.98504610
_cell_angle_gamma   119.99983998
_symmetry_Int_Tables_number   1
_chemical_formula_structural   Ti(CuTe)4
_chemical_formula_sum   'Ti24 Cu96 Te96'
_cell_volume   5113.42777636
_cell_formula_units_Z   24
loop_
 _symmetry_equiv_pos_site_id
 _symmetry_equiv_pos_as_xyz
  1  'x, y, z'
loop_
 _atom_type_symbol
 _atom_type_oxidation_number
  Ti4+  4.0
  Cu+  1.0
  Te2-  -2.0
loop_
 _atom_site_type_symbol
 _atom_site_label
 _atom_site_symmetry_multiplicity
 _atom_site_fract_x
 _atom_site_fract_y
 _atom_site_fract_z
 _atom_site_occupancy
  Ti4+  Ti0  1  -0.00113986  -0.00181163  0.25813178  1
  Ti4+  Ti1  1  0.00049408  0.49897860  0.25976698  1
  Ti4+  Ti2  1  0.50280270  -0.00107777  0.25719707  1
  Ti4+  Ti3  1  0.50105666  0.49883935  0.25660794  1
  Ti4+  Ti4  1  0.33799901  0.16882979  0.58725803  1
  Ti4+  Ti5  1  0.33292169  0.66895665  0.59239774  1
  Ti4+  Ti6  1  0.83707398  0.16872986  0.59408780  1
  Ti4+  Ti7  1  0.83179499  0.66830284  0.59063603  1
  Ti4+  Ti8  1  0.16621995  0.33376606  0.92293318  1
  Ti4+  Ti9  1  0.16182458  0.83143178  0.92156643  1
  Ti4+  Ti10  1  0.66644414  0.33244845  0.92490161  1
  Ti4+  Ti11  1  0.66377528  0.83385903  0.92504446  1
  Ti4+  Ti12  1  0.00009420  -0.00043927  0.75422155  1
  Ti4+  Ti13  1  0.00025347  0.50119722  0.75394847  1
  Ti4+  Ti14  1  0.50108423  0.00154325  0.75505485  1
  Ti4+  Ti15  1  0.49876860  0.50090533  0.75565771  1
  Ti4+  Ti16  1  0.33393909  0.16625025  0.08791526  1
  Ti4+  Ti17  1  0.33112060  0.66553916  0.08947334  1
  Ti4+  Ti18  1  0.83226474  0.16491350  0.08938280  1
  Ti4+  Ti19  1  0.83120303  0.66621442  0.08884166  1
  Ti4+  Ti20  1  0.16551253  0.33330268  0.42187760  1
  Ti4+  Ti21  1  0.17016809  0.83375772  0.42083345  1
  Ti4+  Ti22  1  0.66473728  0.33258384  0.42204309  1
  Ti4+  Ti23  1  0.66949046  0.83287664  0.42577206  1
  Cu+  Cu24  1  0.40151214  0.59033305  0.80829196  1
  Cu+  Cu25  1  0.51444593  0.75322118  0.14672952  1
  Cu+  Cu26  1  0.52431868  0.25957073  0.14083482  1
  Cu+  Cu27  1  0.86042498  0.93198865  0.47671428  1
  Cu+  Cu28  1  0.74424230  0.98011451  0.14441830  1
  Cu+  Cu29  1  0.07199731  0.42878024  0.47602732  1
  Cu+  Cu30  1  0.36114672  0.92973555  0.47254553  1
  Cu+  Cu31  1  0.40550275  0.82020896  0.81296717  1
  Cu+  Cu32  1  0.91141680  0.09226009  0.81172007  1
  Cu+  Cu33  1  0.57289184  0.43118565  0.47289997  1
  Cu+  Cu34  1  0.68224054  0.09470428  0.81252110  1
  Cu+  Cu35  1  0.90215947  0.81052390  0.80708275  1
  Cu+  Cu36  1  0.16334845  0.08139459  0.17115856  1
  Cu+  Cu37  1  0.16158912  0.57804156  0.17313588  1
  Cu+  Cu38  1  0.66296073  0.07537014  0.16947429  1
  Cu+  Cu39  1  0.66254880  0.58012823  0.16969240  1
  Cu+  Cu40  1  0.42319336  0.33389583  0.16981969  1
  Cu+  Cu41  1  0.42020400  0.83417766  0.17094755  1
  Cu+  Cu42  1  0.92019640  0.33558258  0.17367741  1
  Cu+  Cu43  1  0.91500954  0.83516026  0.17145301  1
  Cu+  Cu44  1  0.42154919  0.08454810  0.17042278  1
  Cu+  Cu45  1  0.41964776  0.58146500  0.17137773  1
  Cu+  Cu46  1  0.91522943  0.07627703  0.17170478  1
  Cu+  Cu47  1  0.91759496  0.58174107  0.17304357  1
  Cu+  Cu48  1  0.49679599  0.25357748  0.50049708  1
  Cu+  Cu49  1  0.49762897  0.74879067  0.50799629  1
  Cu+  Cu50  1  0.99751596  0.25223493  0.50503358  1
  Cu+  Cu51  1  0.99862970  0.75052743  0.50384032  1
  Cu+  Cu52  1  0.25998366  0.00306696  0.50099342  1
  Cu+  Cu53  1  0.24740571  0.50230040  0.50495938  1
  Cu+  Cu54  1  0.75737803  0.00276024  0.50955602  1
  Cu+  Cu55  1  0.74507044  0.50240997  0.50418307  1
  Cu+  Cu56  1  0.25332271  0.24955677  0.50156213  1
  Cu+  Cu57  1  0.25902505  0.75508007  0.50325144  1
  Cu+  Cu58  1  0.74985991  0.24765475  0.50650669  1
  Cu+  Cu59  1  0.75760723  0.75398815  0.50567207  1
  Cu+  Cu60  1  0.32895930  0.41789388  0.83714515  1
  Cu+  Cu61  1  0.32592399  0.91293823  0.83633251  1
  Cu+  Cu62  1  0.83094144  0.41567698  0.83692196  1
  Cu+  Cu63  1  0.82988738  0.91547666  0.83620207  1
  Cu+  Cu64  1  0.08434094  0.17138121  0.83644416  1
  Cu+  Cu65  1  0.08180127  0.67018380  0.83433613  1
  Cu+  Cu66  1  0.58774120  0.17274259  0.83837565  1
  Cu+  Cu67  1  0.57704606  0.66853833  0.83707724  1
  Cu+  Cu68  1  0.08444164  0.41524533  0.83510883  1
  Cu+  Cu69  1  0.07791521  0.90919228  0.83479745  1
  Cu+  Cu70  1  0.58227898  0.41348117  0.83942598  1
  Cu+  Cu71  1  0.58438188  0.91600530  0.83672236  1
  Cu+  Cu72  1  0.17441979  0.08549174  0.66985698  1
  Cu+  Cu73  1  0.16704914  0.58590021  0.67447584  1
  Cu+  Cu74  1  0.67286734  0.08685518  0.68198870  1
  Cu+  Cu75  1  0.66677111  0.58460297  0.67513113  1
  Cu+  Cu76  1  0.41764183  0.33264030  0.67333433  1
  Cu+  Cu77  1  0.41590547  0.83317776  0.68134892  1
  Cu+  Cu78  1  0.91774325  0.33377852  0.67717496  1
  Cu+  Cu79  1  0.91541621  0.83095027  0.67877837  1
  Cu+  Cu80  1  0.41968423  0.08760873  0.67119872  1
  Cu+  Cu81  1  0.41287862  0.58553704  0.67958463  1
  Cu+  Cu82  1  0.91861930  0.08669792  0.68088380  1
  Cu+  Cu83  1  0.91340432  0.58460460  0.67349312  1
  Cu+  Cu84  1  0.00215199  0.25060644  0.00849821  1
  Cu+  Cu85  1  -0.00212107  0.75037270  0.00734176  1
  Cu+  Cu86  1  0.50382291  0.25014906  0.01158592  1
  Cu+  Cu87  1  0.49820586  0.75148967  0.01554258  1
  Cu+  Cu88  1  0.24628856  0.49720006  0.00858278  1
  Cu+  Cu89  1  0.24540727  0.99555431  0.00476358  1
  Cu+  Cu90  1  0.74788731  0.49798823  0.00837627  1
  Cu+  Cu91  1  0.74786751  0.99847555  0.01422972  1
  Cu+  Cu92  1  0.24778250  0.25120653  0.00604960  1
  Cu+  Cu93  1  0.24275564  0.74810644  0.00773010  1
  Cu+  Cu94  1  0.74992286  0.25116367  0.00996923  1
  Cu+  Cu95  1  0.74704460  0.75005058  0.00912125  1
  Cu+  Cu96  1  0.33514103  0.41675451  0.33878782  1
  Cu+  Cu97  1  0.33992283  0.91755725  0.34347070  1
  Cu+  Cu98  1  0.83617491  0.41652456  0.34276558  1
  Cu+  Cu99  1  0.83773993  0.91742857  0.34819487  1
  Cu+  Cu100  1  0.07952175  0.16328842  0.34071854  1
  Cu+  Cu101  1  0.08452602  0.66361799  0.34238966  1
  Cu+  Cu102  1  0.58355365  0.16433042  0.34135657  1
  Cu+  Cu103  1  0.58405471  0.66455251  0.34325534  1
  Cu+  Cu104  1  0.08094977  0.41772002  0.34736404  1
  Cu+  Cu105  1  0.08234281  0.91617800  0.34005149  1
  Cu+  Cu106  1  0.58070384  0.41602855  0.34438431  1
  Cu+  Cu107  1  0.58506114  0.91476694  0.34465820  1
  Cu+  Cu108  1  0.00262445  -0.00116622  0.11442766  1
  Cu+  Cu109  1  -0.00318294  0.49868782  0.11745633  1
  Cu+  Cu110  1  0.49483577  -0.00260199  0.11342585  1
  Cu+  Cu111  1  0.49629724  0.49645345  0.11294250  1
  Cu+  Cu112  1  0.32820458  0.16431164  0.44294935  1
  Cu+  Cu113  1  0.33604418  0.66477379  0.44918605  1
  Cu+  Cu114  1  0.82970819  0.16557119  0.45150659  1
  Cu+  Cu115  1  0.83793047  0.66486902  0.44768362  1
  Cu+  Cu116  1  0.16714320  0.33257213  0.77869987  1
  Cu+  Cu117  1  0.16658159  0.83514020  0.77665805  1
  Cu+  Cu118  1  0.66744145  0.33876316  0.78167373  1
  Cu+  Cu119  1  0.66622651  0.83156863  0.78075570  1
  Te2-  Te120  1  0.00496507  0.00114290  0.38908909  1
  Te2-  Te121  1  -0.00134794  0.50155885  0.39109608  1
  Te2-  Te122  1  0.50613676  0.00089099  0.38742128  1
  Te2-  Te123  1  0.49765838  0.49996544  0.38697360  1
  Te2-  Te124  1  0.33683890  0.16818083  0.71654850  1
  Te2-  Te125  1  0.32893292  0.66736003  0.72485621  1
  Te2-  Te126  1  0.83803352  0.17118541  0.72651922  1
  Te2-  Te127  1  0.83013667  0.66418565  0.72125162  1
  Te2-  Te128  1  0.16641960  0.33280115  0.05211866  1
  Te2-  Te129  1  0.16244396  0.83233820  0.05056001  1
  Te2-  Te130  1  0.66976204  0.33481935  0.05551206  1
  Te2-  Te131  1  0.66552469  0.83145751  0.05654756  1
  Te2-  Te132  1  0.49462891  0.24546626  0.88445627  1
  Te2-  Te133  1  0.48828799  0.74715820  0.88672819  1
  Te2-  Te134  1  0.99192556  0.24898484  0.88283014  1
  Te2-  Te135  1  0.98688421  0.74123311  0.88169127  1
  Te2-  Te136  1  0.24714138  0.00235016  0.87864145  1
  Te2-  Te137  1  0.24959686  0.50832395  0.88310336  1
  Te2-  Te138  1  0.75335177  0.00866282  0.88614418  1
  Te2-  Te139  1  0.75108255  0.50343759  0.88238856  1
  Te2-  Te140  1  0.25210951  0.24895660  0.87985006  1
  Te2-  Te141  1  0.24739447  0.74228889  0.88208103  1
  Te2-  Te142  1  0.75765792  0.24935937  0.88439960  1
  Te2-  Te143  1  0.74644041  0.74541877  0.88227271  1
  Te2-  Te144  1  0.33155931  0.41269948  0.21261912  1
  Te2-  Te145  1  0.33354764  0.91552282  0.21588658  1
  Te2-  Te146  1  0.82928013  0.41305982  0.21696170  1
  Te2-  Te147  1  0.82377933  0.90827614  0.22103818  1
  Te2-  Te148  1  0.08245546  0.16910573  0.21483025  1
  Te2-  Te149  1  0.08618156  0.67028437  0.21675862  1
  Te2-  Te150  1  0.59174528  0.17156132  0.21538433  1
  Te2-  Te151  1  0.59038764  0.67332364  0.21744831  1
  Te2-  Te152  1  0.08644991  0.41212838  0.22072810  1
  Te2-  Te153  1  0.08388285  0.91266700  0.21419567  1
  Te2-  Te154  1  0.59080270  0.41425947  0.21744342  1
  Te2-  Te155  1  0.58964662  0.90835803  0.21862888  1
  Te2-  Te156  1  0.16759269  0.08043466  0.54401081  1
  Te2-  Te157  1  0.16117144  0.58658149  0.54859295  1
  Te2-  Te158  1  0.66661991  0.08105881  0.55406900  1
  Te2-  Te159  1  0.65845078  0.58536724  0.54947396  1
  Te2-  Te160  1  0.41967049  0.34391545  0.54789852  1
  Te2-  Te161  1  0.42506991  0.84330585  0.55351399  1
  Te2-  Te162  1  0.91806338  0.34140256  0.55127144  1
  Te2-  Te163  1  0.92517081  0.84318384  0.55213446  1
  Te2-  Te164  1  0.42931593  0.08603961  0.54602694  1
  Te2-  Te165  1  0.41512475  0.58075023  0.55220193  1
  Te2-  Te166  1  0.92726073  0.08567719  0.55350558  1
  Te2-  Te167  1  0.91446954  0.58128709  0.54724902  1
  Te2-  Te168  1  0.00040436  0.00093011  0.88174174  1
  Te2-  Te169  1  0.00014732  0.50087626  0.88026145  1
  Te2-  Te170  1  0.49711262  0.00030836  0.88246313  1
  Te2-  Te171  1  0.49832990  0.49920485  0.88260420  1
  Te2-  Te172  1  0.33272558  0.16482477  0.21481701  1
  Te2-  Te173  1  0.33207299  0.66432954  0.21640251  1
  Te2-  Te174  1  0.83295654  0.16493025  0.21616975  1
  Te2-  Te175  1  0.83175619  0.66565653  0.21528276  1
  Te2-  Te176  1  0.16798549  0.33252797  0.54869658  1
  Te2-  Te177  1  0.16823017  0.83450430  0.54761291  1
  Te2-  Te178  1  0.66505505  0.33272798  0.54892512  1
  Te2-  Te179  1  0.66700420  0.83247892  0.55247626  1
  Te2-  Te180  1  0.32732013  0.41252704  0.70959797  1
  Te2-  Te181  1  0.32847778  0.91858729  0.70901269  1
  Te2-  Te182  1  0.82764421  0.41473056  0.71064841  1
  Te2-  Te183  1  0.82556235  0.91370857  0.70901694  1
  Te2-  Te184  1  0.09177807  0.17233127  0.70906783  1
  Te2-  Te185  1  0.08385318  0.67322575  0.70848485  1
  Te2-  Te186  1  0.58785363  0.17525505  0.71125279  1
  Te2-  Te187  1  0.58572377  0.67363815  0.71022459  1
  Te2-  Te188  1  0.08817727  0.41583736  0.70954408  1
  Te2-  Te189  1  0.08874526  0.91637669  0.70776713  1
  Te2-  Te190  1  0.58555774  0.41548237  0.71237087  1
  Te2-  Te191  1  0.58855675  0.91382012  0.71000966  1
  Te2-  Te192  1  0.16234349  0.08150326  0.04403566  1
  Te2-  Te193  1  0.15868469  0.57890956  0.04662299  1
  Te2-  Te194  1  0.65832369  0.08110313  0.04362275  1
  Te2-  Te195  1  0.65903179  0.57943991  0.04380428  1
  Te2-  Te196  1  0.41803651  0.33785512  0.04232061  1
  Te2-  Te197  1  0.41279458  0.83831470  0.04389747  1
  Te2-  Te198  1  0.91986730  0.33784652  0.04692735  1
  Te2-  Te199  1  0.91677141  0.83863741  0.04479224  1
  Te2-  Te200  1  0.41581670  0.07686017  0.04240129  1
  Te2-  Te201  1  0.41642698  0.57824434  0.04384683  1
  Te2-  Te202  1  0.92072363  0.08031278  0.04429820  1
  Te2-  Te203  1  0.91761126  0.58075180  0.04601402  1
  Te2-  Te204  1  0.49255145  0.24356253  0.37454614  1
  Te2-  Te205  1  0.49696088  0.74614832  0.38143023  1
  Te2-  Te206  1  0.99198857  0.24459208  0.37855069  1
  Te2-  Te207  1  0.99739873  0.74714332  0.37747181  1
  Te2-  Te208  1  0.25369004  0.00487526  0.37347617  1
  Te2-  Te209  1  0.25477389  0.50576490  0.37727444  1
  Te2-  Te210  1  0.75425748  0.00587060  0.38167758  1
  Te2-  Te211  1  0.75341742  0.50491658  0.37685805  1
  Te2-  Te212  1  0.25052228  0.24732426  0.37515083  1
  Te2-  Te213  1  0.25511628  0.74544077  0.37674245  1
  Te2-  Te214  1  0.75245278  0.24697988  0.37985021  1
  Te2-  Te215  1  0.75354837  0.74472976  0.37937547  1
