# generated using pymatgen
data_Ti(CuTe)4
_symmetry_space_group_name_H-M   'P 1'
_cell_length_a   16.87312697
_cell_length_b   16.87468690
_cell_length_c   20.68675938
_cell_angle_alpha   89.97202157
_cell_angle_beta   90.05811384
_cell_angle_gamma   120.01055638
_symmetry_Int_Tables_number   1
_chemical_formula_structural   Ti(CuTe)4
_chemical_formula_sum   'Ti24 Cu96 Te96'
_cell_volume   5100.44374808
_cell_formula_units_Z   24
loop_
 _symmetry_equiv_pos_site_id
 _symmetry_equiv_pos_as_xyz
  1  'x, y, z'
loop_
 _atom_type_symbol
 _atom_type_oxidation_number
  Ti4+  4.0
  Cu+  1.0
  Te2-  -2.0
loop_
 _atom_site_type_symbol
 _atom_site_label
 _atom_site_symmetry_multiplicity
 _atom_site_fract_x
 _atom_site_fract_y
 _atom_site_fract_z
 _atom_site_occupancy
  Ti4+  Ti0  1  0.00037352  0.00025144  0.25904148  1
  Ti4+  Ti1  1  0.00060452  0.50346235  0.25799924  1
  Ti4+  Ti2  1  0.50494375  0.00085356  0.25692876  1
  Ti4+  Ti3  1  0.50000504  0.49943013  0.25591148  1
  Ti4+  Ti4  1  0.33312435  0.16612852  0.58872796  1
  Ti4+  Ti5  1  0.33331029  0.66984438  0.59090382  1
  Ti4+  Ti6  1  0.83091039  0.16625189  0.59434125  1
  Ti4+  Ti7  1  0.83593466  0.66766272  0.59264579  1
  Ti4+  Ti8  1  0.16358343  0.33294704  0.92005272  1
  Ti4+  Ti9  1  0.16275937  0.83143301  0.92831417  1
  Ti4+  Ti10  1  0.66467348  0.33183404  0.92436776  1
  Ti4+  Ti11  1  0.66426396  0.82963982  0.92607919  1
  Ti4+  Ti12  1  -0.00015342  -0.00206988  0.75553978  1
  Ti4+  Ti13  1  0.00029991  0.49858654  0.75587520  1
  Ti4+  Ti14  1  0.50090481  0.00069406  0.75831858  1
  Ti4+  Ti15  1  0.49931213  0.50208712  0.75411979  1
  Ti4+  Ti16  1  0.33240238  0.16585530  0.08658264  1
  Ti4+  Ti17  1  0.33414649  0.66615440  0.08771059  1
  Ti4+  Ti18  1  0.83196606  0.16605603  0.08968583  1
  Ti4+  Ti19  1  0.83502165  0.66725647  0.08841083  1
  Ti4+  Ti20  1  0.16843637  0.33386185  0.42179403  1
  Ti4+  Ti21  1  0.16704402  0.83335979  0.42145167  1
  Ti4+  Ti22  1  0.66882796  0.33370427  0.42222194  1
  Ti4+  Ti23  1  0.66770402  0.83548648  0.42515092  1
  Cu+  Cu24  1  0.07277881  0.64697857  0.47720472  1
  Cu+  Cu25  1  0.90194299  0.08317152  0.80921687  1
  Cu+  Cu26  1  0.57111333  0.93080911  0.47565942  1
  Cu+  Cu27  1  0.51753545  0.75409079  0.14432379  1
  Cu+  Cu28  1  0.24873817  0.76195669  0.14497416  1
  Cu+  Cu29  1  0.90175623  0.31439016  0.81004373  1
  Cu+  Cu30  1  0.73948078  0.26405033  0.13976161  1
  Cu+  Cu31  1  0.40212749  0.59729345  0.80553232  1
  Cu+  Cu32  1  0.01788566  0.76273658  0.14645090  1
  Cu+  Cu33  1  0.74603069  0.98228459  0.14284761  1
  Cu+  Cu34  1  0.07137808  0.92569912  0.47523558  1
  Cu+  Cu35  1  0.90256632  0.80662377  0.80884524  1
  Cu+  Cu36  1  0.16458777  0.08388121  0.17025017  1
  Cu+  Cu37  1  0.16425821  0.58565821  0.16988317  1
  Cu+  Cu38  1  0.66678019  0.08247926  0.16920455  1
  Cu+  Cu39  1  0.66345989  0.58089333  0.16956708  1
  Cu+  Cu40  1  0.41695280  0.33574031  0.16856340  1
  Cu+  Cu41  1  0.42353107  0.83700559  0.16933014  1
  Cu+  Cu42  1  0.91350339  0.33692938  0.17141054  1
  Cu+  Cu43  1  0.92101759  0.83847248  0.17070859  1
  Cu+  Cu44  1  0.42142143  0.08447982  0.16806195  1
  Cu+  Cu45  1  0.42298070  0.58143818  0.16839772  1
  Cu+  Cu46  1  0.91668347  0.07965026  0.17217563  1
  Cu+  Cu47  1  0.92361898  0.58674881  0.16951522  1
  Cu+  Cu48  1  0.49802496  0.24612818  0.50319974  1
  Cu+  Cu49  1  0.49904023  0.75566269  0.50594885  1
  Cu+  Cu50  1  0.99911467  0.24983943  0.50777347  1
  Cu+  Cu51  1  0.99702719  0.74895930  0.50449720  1
  Cu+  Cu52  1  0.24855309  0.00425059  0.50186994  1
  Cu+  Cu53  1  0.25244578  0.50299281  0.50410152  1
  Cu+  Cu54  1  0.74629492  0.00369853  0.50766119  1
  Cu+  Cu55  1  0.75177315  0.50237599  0.50521245  1
  Cu+  Cu56  1  0.25269201  0.24752735  0.50211848  1
  Cu+  Cu57  1  0.25025461  0.74505225  0.50231914  1
  Cu+  Cu58  1  0.75301394  0.24946569  0.50608248  1
  Cu+  Cu59  1  0.75411275  0.75149256  0.50728472  1
  Cu+  Cu60  1  0.32989228  0.42080142  0.83358644  1
  Cu+  Cu61  1  0.33200620  0.91539701  0.84243804  1
  Cu+  Cu62  1  0.82860524  0.41193186  0.83874810  1
  Cu+  Cu63  1  0.83041925  0.91079138  0.83891506  1
  Cu+  Cu64  1  0.07996522  0.16887387  0.83326203  1
  Cu+  Cu65  1  0.08287390  0.66958747  0.84101096  1
  Cu+  Cu66  1  0.58408285  0.16923206  0.83866092  1
  Cu+  Cu67  1  0.57705384  0.66758710  0.83676824  1
  Cu+  Cu68  1  0.07950630  0.40895572  0.83358789  1
  Cu+  Cu69  1  0.07727092  0.90681262  0.83867258  1
  Cu+  Cu70  1  0.58349353  0.41439921  0.83735788  1
  Cu+  Cu71  1  0.58369537  0.91358299  0.83996367  1
  Cu+  Cu72  1  0.17080683  0.08268770  0.67343515  1
  Cu+  Cu73  1  0.16824199  0.58579908  0.67553035  1
  Cu+  Cu74  1  0.66571106  0.08291035  0.67798917  1
  Cu+  Cu75  1  0.67025167  0.58630964  0.67553869  1
  Cu+  Cu76  1  0.41660208  0.33133207  0.67065169  1
  Cu+  Cu77  1  0.41797363  0.83564759  0.67546591  1
  Cu+  Cu78  1  0.91583903  0.32936239  0.68108594  1
  Cu+  Cu79  1  0.91828954  0.82966053  0.68087447  1
  Cu+  Cu80  1  0.41489196  0.08514961  0.67292847  1
  Cu+  Cu81  1  0.41639244  0.58959874  0.67678877  1
  Cu+  Cu82  1  0.91453433  0.08427258  0.67948019  1
  Cu+  Cu83  1  0.91906958  0.58523561  0.67679225  1
  Cu+  Cu84  1  0.00026426  0.25002729  0.00770593  1
  Cu+  Cu85  1  0.00163005  0.75099240  0.01615113  1
  Cu+  Cu86  1  0.50012656  0.24897524  0.00615050  1
  Cu+  Cu87  1  0.50108684  0.74846428  0.01474870  1
  Cu+  Cu88  1  0.24792910  0.49666939  0.00443506  1
  Cu+  Cu89  1  0.24632186  0.99758344  0.00803898  1
  Cu+  Cu90  1  0.74947741  0.49617184  0.00725594  1
  Cu+  Cu91  1  0.74922161  0.99573718  0.01476176  1
  Cu+  Cu92  1  0.24652735  0.25058162  0.00138435  1
  Cu+  Cu93  1  0.24638711  0.75039843  0.01520414  1
  Cu+  Cu94  1  0.74743369  0.25112542  0.01299259  1
  Cu+  Cu95  1  0.74996678  0.74895539  0.00825976  1
  Cu+  Cu96  1  0.33682322  0.41858168  0.33832759  1
  Cu+  Cu97  1  0.33810015  0.91748296  0.34187624  1
  Cu+  Cu98  1  0.83549017  0.41876846  0.34222518  1
  Cu+  Cu99  1  0.83555105  0.91730562  0.34420463  1
  Cu+  Cu100  1  0.08237930  0.16551655  0.34172474  1
  Cu+  Cu101  1  0.08433554  0.66640921  0.34845364  1
  Cu+  Cu102  1  0.58935130  0.16710223  0.34176680  1
  Cu+  Cu103  1  0.58360193  0.66371736  0.34217092  1
  Cu+  Cu104  1  0.08293952  0.41894629  0.34062057  1
  Cu+  Cu105  1  0.08340738  0.91915771  0.34699824  1
  Cu+  Cu106  1  0.58272445  0.41792051  0.33880691  1
  Cu+  Cu107  1  0.58556794  0.91830403  0.34772110  1
  Cu+  Cu108  1  0.00265669  0.00361868  0.11427140  1
  Cu+  Cu109  1  0.00099038  0.49702367  0.11357316  1
  Cu+  Cu110  1  0.49940947  0.00165652  0.11165573  1
  Cu+  Cu111  1  0.50084210  0.49462102  0.11061713  1
  Cu+  Cu112  1  0.33872242  0.17121991  0.44420289  1
  Cu+  Cu113  1  0.33691501  0.66351152  0.44735538  1
  Cu+  Cu114  1  0.83877277  0.16954806  0.45173906  1
  Cu+  Cu115  1  0.82834618  0.66379065  0.44939592  1
  Cu+  Cu116  1  0.17061520  0.33115033  0.77481193  1
  Cu+  Cu117  1  0.17235610  0.83560945  0.78618712  1
  Cu+  Cu118  1  0.66384010  0.33466574  0.78064792  1
  Cu+  Cu119  1  0.66667334  0.83256866  0.78178970  1
  Te2-  Te120  1  -0.00030667  0.00209210  0.38938044  1
  Te2-  Te121  1  -0.00023574  0.49917482  0.38825593  1
  Te2-  Te122  1  0.50229374  0.00285554  0.38702771  1
  Te2-  Te123  1  0.50020784  0.49894780  0.38488778  1
  Te2-  Te124  1  0.33450727  0.16859443  0.71796583  1
  Te2-  Te125  1  0.33252678  0.67151657  0.72118247  1
  Te2-  Te126  1  0.82895398  0.16337256  0.72622875  1
  Te2-  Te127  1  0.83316154  0.66309309  0.72328912  1
  Te2-  Te128  1  0.16572380  0.33256383  0.04868272  1
  Te2-  Te129  1  0.16739350  0.83646640  0.06027523  1
  Te2-  Te130  1  0.66299838  0.33331334  0.05503446  1
  Te2-  Te131  1  0.66761264  0.82947540  0.05766979  1
  Te2-  Te132  1  0.49388183  0.24673663  0.88077361  1
  Te2-  Te133  1  0.49056163  0.74739714  0.88654512  1
  Te2-  Te134  1  0.98596372  0.24173952  0.88200242  1
  Te2-  Te135  1  0.98776393  0.74025932  0.88819289  1
  Te2-  Te136  1  0.24623516  0.00036250  0.88234615  1
  Te2-  Te137  1  0.24697592  0.50710378  0.87894469  1
  Te2-  Te138  1  0.75047460  0.00236387  0.88661790  1
  Te2-  Te139  1  0.75138318  0.50254398  0.88154706  1
  Te2-  Te140  1  0.24978094  0.24975781  0.87507200  1
  Te2-  Te141  1  0.24937048  0.74738573  0.88735476  1
  Te2-  Te142  1  0.74959260  0.24195925  0.88578481  1
  Te2-  Te143  1  0.74641826  0.74030885  0.88234130  1
  Te2-  Te144  1  0.32866763  0.41497317  0.21270575  1
  Te2-  Te145  1  0.33253517  0.91761976  0.21562658  1
  Te2-  Te146  1  0.82742632  0.41991736  0.21629384  1
  Te2-  Te147  1  0.82667764  0.90980547  0.21826528  1
  Te2-  Te148  1  0.08437919  0.17086285  0.21565087  1
  Te2-  Te149  1  0.09132861  0.68000272  0.22002628  1
  Te2-  Te150  1  0.58814648  0.17318681  0.21544107  1
  Te2-  Te151  1  0.59213978  0.67523626  0.21640568  1
  Te2-  Te152  1  0.08374516  0.41679060  0.21413200  1
  Te2-  Te153  1  0.09079960  0.91787517  0.21892132  1
  Te2-  Te154  1  0.58510015  0.41356498  0.21289278  1
  Te2-  Te155  1  0.59190570  0.91243324  0.21890208  1
  Te2-  Te156  1  0.15758590  0.08106098  0.54799746  1
  Te2-  Te157  1  0.15952043  0.57744276  0.54960040  1
  Te2-  Te158  1  0.65656634  0.08309397  0.55218394  1
  Te2-  Te159  1  0.66499224  0.58323442  0.54966827  1
  Te2-  Te160  1  0.42038469  0.33714056  0.54505133  1
  Te2-  Te161  1  0.41661035  0.84333847  0.54982841  1
  Te2-  Te162  1  0.91877042  0.33704737  0.55349748  1
  Te2-  Te163  1  0.92070735  0.84151033  0.55328363  1
  Te2-  Te164  1  0.41630217  0.07801639  0.54701699  1
  Te2-  Te165  1  0.42049172  0.58621387  0.54900997  1
  Te2-  Te166  1  0.91514092  0.08080222  0.55181060  1
  Te2-  Te167  1  0.91936963  0.57828488  0.55064585  1
  Te2-  Te168  1  0.00133681  0.00086849  0.88329263  1
  Te2-  Te169  1  -0.00071289  0.49782057  0.88285149  1
  Te2-  Te170  1  0.50071122  0.00032696  0.88462695  1
  Te2-  Te171  1  0.49749069  0.49768564  0.88106560  1
  Te2-  Te172  1  0.33493302  0.16748838  0.21305842  1
  Te2-  Te173  1  0.33542979  0.66520463  0.21544958  1
  Te2-  Te174  1  0.83586222  0.16834864  0.21748424  1
  Te2-  Te175  1  0.83364394  0.66734844  0.21526200  1
  Te2-  Te176  1  0.16973410  0.33372137  0.54808098  1
  Te2-  Te177  1  0.16869219  0.83395418  0.54868553  1
  Te2-  Te178  1  0.66629397  0.33308627  0.54847081  1
  Te2-  Te179  1  0.66752496  0.83415695  0.55204074  1
  Te2-  Te180  1  0.32919900  0.41516927  0.70555591  1
  Te2-  Te181  1  0.32953961  0.91636557  0.71430043  1
  Te2-  Te182  1  0.82709263  0.41409273  0.71111026  1
  Te2-  Te183  1  0.82612882  0.91155308  0.71032930  1
  Te2-  Te184  1  0.08739585  0.17012865  0.70719684  1
  Te2-  Te185  1  0.08727903  0.67316237  0.71476567  1
  Te2-  Te186  1  0.58439354  0.17216721  0.71245413  1
  Te2-  Te187  1  0.58871868  0.67548249  0.70964584  1
  Te2-  Te188  1  0.08921480  0.41470050  0.70822573  1
  Te2-  Te189  1  0.09003400  0.91412071  0.71201580  1
  Te2-  Te190  1  0.58530835  0.41567578  0.71030317  1
  Te2-  Te191  1  0.58651911  0.91341358  0.71366723  1
  Te2-  Te192  1  0.16015212  0.08182691  0.04291722  1
  Te2-  Te193  1  0.16033167  0.57775800  0.04331348  1
  Te2-  Te194  1  0.65833716  0.07802130  0.04232449  1
  Te2-  Te195  1  0.66240125  0.57919398  0.04354455  1
  Te2-  Te196  1  0.41650575  0.33628713  0.04079590  1
  Te2-  Te197  1  0.42017051  0.84085533  0.04202200  1
  Te2-  Te198  1  0.91964351  0.33869939  0.04388493  1
  Te2-  Te199  1  0.91910018  0.84171377  0.04375877  1
  Te2-  Te200  1  0.41786381  0.07887124  0.04177665  1
  Te2-  Te201  1  0.41704847  0.57567022  0.04175065  1
  Te2-  Te202  1  0.92113336  0.08128564  0.04473491  1
  Te2-  Te203  1  0.91903453  0.57748446  0.04363882  1
  Te2-  Te204  1  0.49825419  0.24753381  0.37564772  1
  Te2-  Te205  1  0.49593213  0.74587060  0.37824719  1
  Te2-  Te206  1  0.99584824  0.24903720  0.37923050  1
  Te2-  Te207  1  0.99179893  0.74680929  0.37712531  1
  Te2-  Te208  1  0.25669955  0.00667921  0.37552193  1
  Te2-  Te209  1  0.25349890  0.50518128  0.37674448  1
  Te2-  Te210  1  0.75731531  0.00874571  0.38019971  1
  Te2-  Te211  1  0.75220811  0.50573947  0.37818944  1
  Te2-  Te212  1  0.25365519  0.24811521  0.37558095  1
  Te2-  Te213  1  0.25720990  0.74843521  0.37666091  1
  Te2-  Te214  1  0.75784775  0.24910598  0.37942339  1
  Te2-  Te215  1  0.75265054  0.74805606  0.38093841  1
