# generated using pymatgen
data_Ti(CuTe)4
_symmetry_space_group_name_H-M   'P 1'
_cell_length_a   16.87305660
_cell_length_b   16.87301403
_cell_length_c   20.68290568
_cell_angle_alpha   90.00575993
_cell_angle_beta   89.98083769
_cell_angle_gamma   120.00332208
_symmetry_Int_Tables_number   1
_chemical_formula_structural   Ti(CuTe)4
_chemical_formula_sum   'Ti24 Cu96 Te96'
_cell_volume   5099.34093364
_cell_formula_units_Z   24
loop_
 _symmetry_equiv_pos_site_id
 _symmetry_equiv_pos_as_xyz
  1  'x, y, z'
loop_
 _atom_type_symbol
 _atom_type_oxidation_number
  Ti4+  4.0
  Cu+  1.0
  Te2-  -2.0
loop_
 _atom_site_type_symbol
 _atom_site_label
 _atom_site_symmetry_multiplicity
 _atom_site_fract_x
 _atom_site_fract_y
 _atom_site_fract_z
 _atom_site_occupancy
  Ti4+  Ti0  1  -0.00313263  -0.00330627  0.25514158  1
  Ti4+  Ti1  1  -0.00275195  0.49708851  0.25917034  1
  Ti4+  Ti2  1  0.49784854  -0.00478237  0.25535328  1
  Ti4+  Ti3  1  0.49683216  0.49717530  0.25960570  1
  Ti4+  Ti4  1  0.33646290  0.16926333  0.58864444  1
  Ti4+  Ti5  1  0.33628626  0.67056228  0.59151648  1
  Ti4+  Ti6  1  0.83717138  0.17036900  0.59492628  1
  Ti4+  Ti7  1  0.83510688  0.66711119  0.58998321  1
  Ti4+  Ti8  1  0.16329178  0.33311476  0.92936587  1
  Ti4+  Ti9  1  0.16783983  0.83445828  0.92376386  1
  Ti4+  Ti10  1  0.66825813  0.33703225  0.92369937  1
  Ti4+  Ti11  1  0.66860749  0.83307775  0.92364675  1
  Ti4+  Ti12  1  0.00041002  0.00176014  0.75563487  1
  Ti4+  Ti13  1  0.00017020  0.49988252  0.75534027  1
  Ti4+  Ti14  1  0.50038513  0.00140823  0.75465708  1
  Ti4+  Ti15  1  0.50233934  0.50139588  0.75814969  1
  Ti4+  Ti16  1  0.33260094  0.16567535  0.08744100  1
  Ti4+  Ti17  1  0.33292925  0.66633142  0.08726772  1
  Ti4+  Ti18  1  0.83135682  0.16501008  0.08828782  1
  Ti4+  Ti19  1  0.83296565  0.66672067  0.08983606  1
  Ti4+  Ti20  1  0.16503213  0.33127827  0.42325969  1
  Ti4+  Ti21  1  0.16806506  0.83382290  0.42122151  1
  Ti4+  Ti22  1  0.66667324  0.33297377  0.42034180  1
  Ti4+  Ti23  1  0.66462796  0.83117623  0.42309595  1
  Cu+  Cu24  1  0.23636443  0.97313697  0.13854780  1
  Cu+  Cu25  1  0.58161345  0.42911643  0.47573555  1
  Cu+  Cu26  1  0.36159664  0.93170569  0.47200576  1
  Cu+  Cu27  1  0.00212611  0.25087889  0.15318820  1
  Cu+  Cu28  1  0.90639309  0.31816690  0.81329879  1
  Cu+  Cu29  1  0.34978482  0.42932913  0.47891060  1
  Cu+  Cu30  1  0.69652504  0.59921239  0.80451801  1
  Cu+  Cu31  1  0.24175585  0.48646329  0.14660166  1
  Cu+  Cu32  1  0.90617959  0.09062941  0.81294885  1
  Cu+  Cu33  1  0.24435631  0.25263014  0.14919679  1
  Cu+  Cu34  1  0.73513549  0.97200803  0.13788200  1
  Cu+  Cu35  1  0.85737197  0.42916065  0.47532034  1
  Cu+  Cu36  1  0.16313425  0.07652713  0.16699442  1
  Cu+  Cu37  1  0.16300599  0.58039841  0.17008548  1
  Cu+  Cu38  1  0.66224399  0.07371769  0.16838723  1
  Cu+  Cu39  1  0.66299589  0.57920761  0.17392589  1
  Cu+  Cu40  1  0.41839979  0.33848705  0.17063170  1
  Cu+  Cu41  1  0.41806152  0.83683447  0.16768146  1
  Cu+  Cu42  1  0.91642104  0.33896850  0.17141539  1
  Cu+  Cu43  1  0.91621896  0.83561543  0.16900302  1
  Cu+  Cu44  1  0.41216726  0.07494636  0.16852163  1
  Cu+  Cu45  1  0.41506568  0.57957613  0.16975853  1
  Cu+  Cu46  1  0.91131012  0.07462938  0.16731331  1
  Cu+  Cu47  1  0.91396868  0.57882361  0.17379317  1
  Cu+  Cu48  1  0.49509359  0.25199117  0.49887681  1
  Cu+  Cu49  1  0.49549936  0.74866021  0.50404034  1
  Cu+  Cu50  1  0.99598585  0.24795902  0.50751795  1
  Cu+  Cu51  1  0.99758826  0.74970260  0.50338733  1
  Cu+  Cu52  1  0.25712173  0.00337787  0.50197808  1
  Cu+  Cu53  1  0.25314922  0.50439486  0.50609028  1
  Cu+  Cu54  1  0.75443944  0.00114874  0.50846280  1
  Cu+  Cu55  1  0.75557788  0.50493444  0.50254324  1
  Cu+  Cu56  1  0.25507442  0.25197798  0.50238094  1
  Cu+  Cu57  1  0.25750461  0.75579161  0.50367292  1
  Cu+  Cu58  1  0.75882749  0.25553690  0.50464261  1
  Cu+  Cu59  1  0.75117400  0.74868168  0.50438486  1
  Cu+  Cu60  1  0.32976383  0.41619827  0.84350892  1
  Cu+  Cu61  1  0.33037536  0.91711621  0.83782224  1
  Cu+  Cu62  1  0.82837367  0.41429949  0.83581767  1
  Cu+  Cu63  1  0.82941688  0.91624693  0.83654697  1
  Cu+  Cu64  1  0.08141943  0.17031130  0.84020717  1
  Cu+  Cu65  1  0.08591228  0.67135760  0.83771222  1
  Cu+  Cu66  1  0.58297230  0.17051171  0.83676030  1
  Cu+  Cu67  1  0.59095992  0.66836267  0.83865923  1
  Cu+  Cu68  1  0.08214379  0.41334361  0.83958373  1
  Cu+  Cu69  1  0.08740263  0.91650921  0.83771332  1
  Cu+  Cu70  1  0.59165999  0.42409999  0.83836122  1
  Cu+  Cu71  1  0.58391003  0.91583725  0.83726419  1
  Cu+  Cu72  1  0.17083564  0.08616920  0.67184671  1
  Cu+  Cu73  1  0.17199362  0.58689330  0.67400904  1
  Cu+  Cu74  1  0.67068517  0.08661071  0.67520976  1
  Cu+  Cu75  1  0.67195625  0.58497058  0.67789624  1
  Cu+  Cu76  1  0.41545288  0.33360433  0.67627540  1
  Cu+  Cu77  1  0.41618598  0.83372116  0.67576030  1
  Cu+  Cu78  1  0.91909261  0.33344300  0.68227813  1
  Cu+  Cu79  1  0.91750351  0.83395430  0.67357871  1
  Cu+  Cu80  1  0.41636145  0.08501916  0.67223184  1
  Cu+  Cu81  1  0.41500768  0.58423696  0.67750120  1
  Cu+  Cu82  1  0.91834983  0.08781462  0.68299605  1
  Cu+  Cu83  1  0.91700878  0.58337446  0.67419290  1
  Cu+  Cu84  1  -0.00061547  0.25231621  0.01960189  1
  Cu+  Cu85  1  0.00285411  0.75112018  0.00699492  1
  Cu+  Cu86  1  0.50386481  0.25425996  0.00555584  1
  Cu+  Cu87  1  0.50175999  0.75045515  0.00570448  1
  Cu+  Cu88  1  0.24761257  0.49756228  0.01517940  1
  Cu+  Cu89  1  0.24931811  0.99537812  0.01011631  1
  Cu+  Cu90  1  0.74922005  0.49907702  0.00797323  1
  Cu+  Cu91  1  0.74749545  0.99604023  0.01109662  1
  Cu+  Cu92  1  0.24930748  0.25274362  0.01595541  1
  Cu+  Cu93  1  0.25097448  0.75249137  0.00577930  1
  Cu+  Cu94  1  0.74801699  0.25312018  0.00818934  1
  Cu+  Cu95  1  0.74974347  0.74971293  0.00859422  1
  Cu+  Cu96  1  0.33205798  0.41441726  0.34901024  1
  Cu+  Cu97  1  0.33557876  0.91711824  0.34340931  1
  Cu+  Cu98  1  0.83564063  0.41636296  0.34622876  1
  Cu+  Cu99  1  0.83159022  0.91504853  0.34104986  1
  Cu+  Cu100  1  0.07724592  0.16194307  0.34163012  1
  Cu+  Cu101  1  0.08029384  0.66268900  0.34145693  1
  Cu+  Cu102  1  0.58247104  0.16199568  0.33724239  1
  Cu+  Cu103  1  0.57963389  0.66328421  0.34196885  1
  Cu+  Cu104  1  0.07864813  0.41241190  0.34544839  1
  Cu+  Cu105  1  0.08105641  0.91601303  0.33962647  1
  Cu+  Cu106  1  0.57849169  0.41476400  0.34631925  1
  Cu+  Cu107  1  0.58315935  0.91484747  0.34134571  1
  Cu+  Cu108  1  0.00022824  -0.00135791  0.10884726  1
  Cu+  Cu109  1  0.00092050  0.50712182  0.11546297  1
  Cu+  Cu110  1  0.50111186  0.00339791  0.11055839  1
  Cu+  Cu111  1  0.50409756  0.50514919  0.11519257  1
  Cu+  Cu112  1  0.32732206  0.16267986  0.44337813  1
  Cu+  Cu113  1  0.32916998  0.66489381  0.44682900  1
  Cu+  Cu114  1  0.82733404  0.16035535  0.45202111  1
  Cu+  Cu115  1  0.83539345  0.67131585  0.44563587  1
  Cu+  Cu116  1  0.17083989  0.33508887  0.78576359  1
  Cu+  Cu117  1  0.16713035  0.83381396  0.78056227  1
  Cu+  Cu118  1  0.66162022  0.33113408  0.77976924  1
  Cu+  Cu119  1  0.66148842  0.83107872  0.78071094  1
  Te2-  Te120  1  -0.00295859  -0.00342991  0.38364837  1
  Te2-  Te121  1  0.00177107  0.49992182  0.38978921  1
  Te2-  Te122  1  0.50275622  -0.00056093  0.38552304  1
  Te2-  Te123  1  0.49870985  0.50052236  0.39143590  1
  Te2-  Te124  1  0.33482533  0.16785237  0.71733427  1
  Te2-  Te125  1  0.33523764  0.66933890  0.72047029  1
  Te2-  Te126  1  0.83237952  0.16778367  0.72704656  1
  Te2-  Te127  1  0.83946766  0.66990988  0.72009761  1
  Te2-  Te128  1  0.16502962  0.33297674  0.06276119  1
  Te2-  Te129  1  0.16574942  0.82949632  0.05449500  1
  Te2-  Te130  1  0.66639177  0.33523482  0.05291725  1
  Te2-  Te131  1  0.66456858  0.82873407  0.05372276  1
  Te2-  Te132  1  0.49805499  0.25395510  0.87956032  1
  Te2-  Te133  1  0.49877436  0.74680021  0.87961507  1
  Te2-  Te134  1  0.98822315  0.24563963  0.88952220  1
  Te2-  Te135  1  0.99601474  0.74876266  0.88132890  1
  Te2-  Te136  1  0.25370414  0.00692150  0.88322474  1
  Te2-  Te137  1  0.24840869  0.50310545  0.88750673  1
  Te2-  Te138  1  0.75025755  0.00666812  0.88407568  1
  Te2-  Te139  1  0.76018620  0.51140292  0.88252998  1
  Te2-  Te140  1  0.24821073  0.24810813  0.88770969  1
  Te2-  Te141  1  0.25369404  0.74876923  0.88041164  1
  Te2-  Te142  1  0.74973124  0.24481387  0.88261324  1
  Te2-  Te143  1  0.75970021  0.75018687  0.88294795  1
  Te2-  Te144  1  0.32136793  0.41007159  0.22026655  1
  Te2-  Te145  1  0.32336942  0.90700941  0.21597726  1
  Te2-  Te146  1  0.82529894  0.41190445  0.21922748  1
  Te2-  Te147  1  0.82273832  0.90796378  0.21507033  1
  Te2-  Te148  1  0.08427258  0.17126272  0.21528329  1
  Te2-  Te149  1  0.08333536  0.66733503  0.21542296  1
  Te2-  Te150  1  0.58307471  0.16479809  0.21099664  1
  Te2-  Te151  1  0.58146335  0.66703066  0.21593902  1
  Te2-  Te152  1  0.08592041  0.40973695  0.21924921  1
  Te2-  Te153  1  0.08282986  0.90894112  0.21383522  1
  Te2-  Te154  1  0.58281545  0.41199605  0.21896129  1
  Te2-  Te155  1  0.58314340  0.90587589  0.21548478  1
  Te2-  Te156  1  0.16640906  0.08281465  0.54537488  1
  Te2-  Te157  1  0.16611604  0.58627672  0.54776471  1
  Te2-  Te158  1  0.66845205  0.08641867  0.54881392  1
  Te2-  Te159  1  0.66177132  0.58190763  0.55056879  1
  Te2-  Te160  1  0.42385473  0.34631941  0.54986808  1
  Te2-  Te161  1  0.42578149  0.84468398  0.54970012  1
  Te2-  Te162  1  0.92634044  0.34415341  0.55407115  1
  Te2-  Te163  1  0.91912360  0.83827945  0.54770309  1
  Te2-  Te164  1  0.42689434  0.08620021  0.54640605  1
  Te2-  Te165  1  0.42380352  0.58366885  0.55154405  1
  Te2-  Te166  1  0.92138386  0.08287470  0.55533731  1
  Te2-  Te167  1  0.92460292  0.58286049  0.54855522  1
  Te2-  Te168  1  -0.00008840  -0.00111299  0.88269209  1
  Te2-  Te169  1  -0.00112930  0.50159725  0.88236400  1
  Te2-  Te170  1  0.49967956  0.00128862  0.88146382  1
  Te2-  Te171  1  0.49970799  0.50033638  0.88521149  1
  Te2-  Te172  1  0.33321551  0.16583537  0.21537836  1
  Te2-  Te173  1  0.33266044  0.66694456  0.21478947  1
  Te2-  Te174  1  0.83105942  0.16538468  0.21630374  1
  Te2-  Te175  1  0.83242030  0.66661854  0.21666284  1
  Te2-  Te176  1  0.16786401  0.33373193  0.55022137  1
  Te2-  Te177  1  0.16721117  0.83519995  0.54811538  1
  Te2-  Te178  1  0.66578969  0.33347408  0.54793041  1
  Te2-  Te179  1  0.66575263  0.83184418  0.54994389  1
  Te2-  Te180  1  0.32916408  0.41550857  0.71562812  1
  Te2-  Te181  1  0.32829980  0.91606382  0.71075382  1
  Te2-  Te182  1  0.82626519  0.41437368  0.70944565  1
  Te2-  Te183  1  0.82714130  0.91316765  0.71001186  1
  Te2-  Te184  1  0.09141981  0.17546782  0.71264556  1
  Te2-  Te185  1  0.08693452  0.67187654  0.71081547  1
  Te2-  Te186  1  0.58639874  0.17299738  0.70972027  1
  Te2-  Te187  1  0.58672853  0.67260282  0.71095010  1
  Te2-  Te188  1  0.09186895  0.41745809  0.71248185  1
  Te2-  Te189  1  0.08722614  0.91686105  0.71058859  1
  Te2-  Te190  1  0.58591747  0.41340506  0.71077366  1
  Te2-  Te191  1  0.58732903  0.91603139  0.71049054  1
  Te2-  Te192  1  0.15938122  0.07865700  0.03976956  1
  Te2-  Te193  1  0.15939181  0.58250101  0.04283453  1
  Te2-  Te194  1  0.66009486  0.08158070  0.04129741  1
  Te2-  Te195  1  0.66126386  0.58026554  0.04588801  1
  Te2-  Te196  1  0.42174310  0.34084372  0.04414625  1
  Te2-  Te197  1  0.42041101  0.83883735  0.04219246  1
  Te2-  Te198  1  0.91643171  0.34158323  0.04560422  1
  Te2-  Te199  1  0.91992933  0.83817890  0.04327902  1
  Te2-  Te200  1  0.42177508  0.08344880  0.04095453  1
  Te2-  Te201  1  0.42099122  0.58074650  0.04244510  1
  Te2-  Te202  1  0.91966835  0.07846670  0.04062786  1
  Te2-  Te203  1  0.91883246  0.58145775  0.04569986  1
  Te2-  Te204  1  0.49280197  0.24198227  0.37363145  1
  Te2-  Te205  1  0.49197075  0.74521189  0.37825822  1
  Te2-  Te206  1  0.99069183  0.24339602  0.38144299  1
  Te2-  Te207  1  0.99490897  0.74694210  0.37707794  1
  Te2-  Te208  1  0.25116931  0.00523767  0.37395986  1
  Te2-  Te209  1  0.24963647  0.50459348  0.37807147  1
  Te2-  Te210  1  0.75196813  0.00337817  0.38020030  1
  Te2-  Te211  1  0.75234299  0.50697643  0.37479528  1
  Te2-  Te212  1  0.24767815  0.24180144  0.37551031  1
  Te2-  Te213  1  0.25108572  0.74457532  0.37587521  1
  Te2-  Te214  1  0.75111185  0.24376063  0.37698946  1
  Te2-  Te215  1  0.75003707  0.74521361  0.37743426  1
