# generated using pymatgen
data_Ti(CuTe)4
_symmetry_space_group_name_H-M   'P 1'
_cell_length_a   16.89576199
_cell_length_b   16.89742699
_cell_length_c   20.72317866
_cell_angle_alpha   90.04876122
_cell_angle_beta   89.99543463
_cell_angle_gamma   119.98453119
_symmetry_Int_Tables_number   1
_chemical_formula_structural   Ti(CuTe)4
_chemical_formula_sum   'Ti24 Cu96 Te96'
_cell_volume   5124.51592424
_cell_formula_units_Z   24
loop_
 _symmetry_equiv_pos_site_id
 _symmetry_equiv_pos_as_xyz
  1  'x, y, z'
loop_
 _atom_type_symbol
 _atom_type_oxidation_number
  Ti4+  4.0
  Cu+  1.0
  Te2-  -2.0
loop_
 _atom_site_type_symbol
 _atom_site_label
 _atom_site_symmetry_multiplicity
 _atom_site_fract_x
 _atom_site_fract_y
 _atom_site_fract_z
 _atom_site_occupancy
  Ti4+  Ti0  1  0.00113057  0.00010067  0.26062857  1
  Ti4+  Ti1  1  0.00026019  0.50080023  0.26001058  1
  Ti4+  Ti2  1  0.49735611  -0.00048298  0.25943028  1
  Ti4+  Ti3  1  0.49807715  0.50022752  0.25656884  1
  Ti4+  Ti4  1  0.33623468  0.16798773  0.59257695  1
  Ti4+  Ti5  1  0.33349065  0.66642411  0.59116879  1
  Ti4+  Ti6  1  0.83386733  0.16290214  0.59048912  1
  Ti4+  Ti7  1  0.83358576  0.66350311  0.58661288  1
  Ti4+  Ti8  1  0.16253989  0.33137688  0.92369704  1
  Ti4+  Ti9  1  0.16894860  0.83775937  0.92451411  1
  Ti4+  Ti10  1  0.66778662  0.33387944  0.92364953  1
  Ti4+  Ti11  1  0.66457177  0.83278388  0.92220621  1
  Ti4+  Ti12  1  0.00151917  0.00065517  0.75473298  1
  Ti4+  Ti13  1  -0.00071522  0.49912465  0.75523449  1
  Ti4+  Ti14  1  0.50049360  -0.00065796  0.75380259  1
  Ti4+  Ti15  1  0.50128608  0.50053075  0.75381793  1
  Ti4+  Ti16  1  0.33296630  0.16675894  0.09013835  1
  Ti4+  Ti17  1  0.33298475  0.66758550  0.08862875  1
  Ti4+  Ti18  1  0.83301611  0.16785977  0.09162999  1
  Ti4+  Ti19  1  0.83338529  0.66816734  0.08942443  1
  Ti4+  Ti20  1  0.16646198  0.33333350  0.42238002  1
  Ti4+  Ti21  1  0.16662052  0.83295706  0.42293366  1
  Ti4+  Ti22  1  0.66521745  0.33289779  0.42045304  1
  Ti4+  Ti23  1  0.66804616  0.83455730  0.42031591  1
  Cu+  Cu24  1  0.08016735  0.64786973  0.47472553  1
  Cu+  Cu25  1  0.85173170  0.92105639  0.47547811  1
  Cu+  Cu26  1  0.41403410  0.09311903  0.81301695  1
  Cu+  Cu27  1  0.90740613  0.08675434  0.81352995  1
  Cu+  Cu28  1  0.57008494  0.42625412  0.46946000  1
  Cu+  Cu29  1  0.90133866  0.31177285  0.80615710  1
  Cu+  Cu30  1  0.57277226  0.14548380  0.47444022  1
  Cu+  Cu31  1  0.40477176  0.81181098  0.80717322  1
  Cu+  Cu32  1  0.23828397  0.97822234  0.14463576  1
  Cu+  Cu33  1  0.07911126  0.14812300  0.47708123  1
  Cu+  Cu34  1  0.18137712  0.09504174  0.81228660  1
  Cu+  Cu35  1  0.84590923  0.41738083  0.47533465  1
  Cu+  Cu36  1  0.16348143  0.07947565  0.17325495  1
  Cu+  Cu37  1  0.16440098  0.58395727  0.17261093  1
  Cu+  Cu38  1  0.66401740  0.08441778  0.17467770  1
  Cu+  Cu39  1  0.66293662  0.58130027  0.17146290  1
  Cu+  Cu40  1  0.41747713  0.33792155  0.17175007  1
  Cu+  Cu41  1  0.41692286  0.83620338  0.17143262  1
  Cu+  Cu42  1  0.91762780  0.33757197  0.17474597  1
  Cu+  Cu43  1  0.91669399  0.83682626  0.17255602  1
  Cu+  Cu44  1  0.41334137  0.07792373  0.17295233  1
  Cu+  Cu45  1  0.41558505  0.58068564  0.17006732  1
  Cu+  Cu46  1  0.91838774  0.08394483  0.17553523  1
  Cu+  Cu47  1  0.91874980  0.58373030  0.17386156  1
  Cu+  Cu48  1  0.49847079  0.24872851  0.50324921  1
  Cu+  Cu49  1  0.49802640  0.75061839  0.50469807  1
  Cu+  Cu50  1  0.99777921  0.24346059  0.50322215  1
  Cu+  Cu51  1  0.99804900  0.74227400  0.50099256  1
  Cu+  Cu52  1  0.25457363  0.00469211  0.50610117  1
  Cu+  Cu53  1  0.25284593  0.50430459  0.50385840  1
  Cu+  Cu54  1  0.75784877  0.00236795  0.50186643  1
  Cu+  Cu55  1  0.75066868  0.50221279  0.49858110  1
  Cu+  Cu56  1  0.25088668  0.24701931  0.50543628  1
  Cu+  Cu57  1  0.25108098  0.74643030  0.50629637  1
  Cu+  Cu58  1  0.74986533  0.24428155  0.50254235  1
  Cu+  Cu59  1  0.75419355  0.74817674  0.50058182  1
  Cu+  Cu60  1  0.33142356  0.41696862  0.83659055  1
  Cu+  Cu61  1  0.33058279  0.91647621  0.83533221  1
  Cu+  Cu62  1  0.83076451  0.41223854  0.83746764  1
  Cu+  Cu63  1  0.82732332  0.91499582  0.83657701  1
  Cu+  Cu64  1  0.08410926  0.17321930  0.83583140  1
  Cu+  Cu65  1  0.08382521  0.67162873  0.83773534  1
  Cu+  Cu66  1  0.58724880  0.17457733  0.83571521  1
  Cu+  Cu67  1  0.58512425  0.66999640  0.83503649  1
  Cu+  Cu68  1  0.07606147  0.40985917  0.83621629  1
  Cu+  Cu69  1  0.09068584  0.92102477  0.83684558  1
  Cu+  Cu70  1  0.58651870  0.41758535  0.83676479  1
  Cu+  Cu71  1  0.58123121  0.91033943  0.83453561  1
  Cu+  Cu72  1  0.17140965  0.08457089  0.68248504  1
  Cu+  Cu73  1  0.16900180  0.58605437  0.67628826  1
  Cu+  Cu74  1  0.66807244  0.08189857  0.67305726  1
  Cu+  Cu75  1  0.66921117  0.58321461  0.67113723  1
  Cu+  Cu76  1  0.41792857  0.33259244  0.67510995  1
  Cu+  Cu77  1  0.41424119  0.82859962  0.67812510  1
  Cu+  Cu78  1  0.91495952  0.32833328  0.67814132  1
  Cu+  Cu79  1  0.91657436  0.82819536  0.67229938  1
  Cu+  Cu80  1  0.41869654  0.08592099  0.68124448  1
  Cu+  Cu81  1  0.41720402  0.58572352  0.67377738  1
  Cu+  Cu82  1  0.91795707  0.08286971  0.68199249  1
  Cu+  Cu83  1  0.91673377  0.58250850  0.67290068  1
  Cu+  Cu84  1  -0.00083292  0.24998695  0.01074692  1
  Cu+  Cu85  1  0.00272817  0.75477977  0.00957761  1
  Cu+  Cu86  1  0.50326583  0.25296476  0.00898590  1
  Cu+  Cu87  1  0.49998191  0.75046320  0.00698933  1
  Cu+  Cu88  1  0.24543196  0.49718908  0.00684559  1
  Cu+  Cu89  1  0.25073634  1.00070049  0.01430412  1
  Cu+  Cu90  1  0.75119498  0.49926724  0.00715200  1
  Cu+  Cu91  1  0.74744910  0.99742527  0.00846191  1
  Cu+  Cu92  1  0.24783257  0.25188103  0.00937287  1
  Cu+  Cu93  1  0.25121609  0.75363461  0.00916825  1
  Cu+  Cu94  1  0.74965926  0.25262486  0.00974043  1
  Cu+  Cu95  1  0.74811107  0.75195469  0.00687746  1
  Cu+  Cu96  1  0.33471613  0.41855228  0.34065933  1
  Cu+  Cu97  1  0.33410156  0.91842217  0.34359091  1
  Cu+  Cu98  1  0.83619262  0.41903324  0.34587826  1
  Cu+  Cu99  1  0.83775078  0.92048720  0.34685065  1
  Cu+  Cu100  1  0.08225723  0.16399728  0.34717382  1
  Cu+  Cu101  1  0.08229207  0.66351456  0.34667946  1
  Cu+  Cu102  1  0.57863790  0.16221390  0.34547893  1
  Cu+  Cu103  1  0.58058085  0.66513363  0.33877542  1
  Cu+  Cu104  1  0.08335342  0.41871083  0.34243377  1
  Cu+  Cu105  1  0.08539006  0.91983814  0.34334648  1
  Cu+  Cu106  1  0.57844455  0.41874731  0.34249845  1
  Cu+  Cu107  1  0.58169964  0.91941759  0.34233923  1
  Cu+  Cu108  1  -0.00250405  0.00150077  0.11782206  1
  Cu+  Cu109  1  0.00069916  0.50201006  0.11777332  1
  Cu+  Cu110  1  0.50325182  0.00081954  0.11713917  1
  Cu+  Cu111  1  0.50038483  0.50221718  0.11348805  1
  Cu+  Cu112  1  0.33239862  0.16681510  0.44833168  1
  Cu+  Cu113  1  0.33763477  0.66750851  0.44791158  1
  Cu+  Cu114  1  0.83449854  0.16739173  0.44552482  1
  Cu+  Cu115  1  0.83299375  0.66732491  0.44131650  1
  Cu+  Cu116  1  0.17110660  0.34167427  0.78094813  1
  Cu+  Cu117  1  0.16331722  0.83086195  0.78021143  1
  Cu+  Cu118  1  0.66936342  0.33820508  0.78033830  1
  Cu+  Cu119  1  0.66748535  0.83147903  0.77728126  1
  Te2-  Te120  1  0.00288368  -0.00087263  0.39328893  1
  Te2-  Te121  1  0.00075987  0.49747961  0.39291128  1
  Te2-  Te122  1  0.49712213  -0.00297965  0.39054601  1
  Te2-  Te123  1  0.49740854  0.50311322  0.38783835  1
  Te2-  Te124  1  0.33762260  0.17060336  0.72442194  1
  Te2-  Te125  1  0.33223060  0.66323823  0.72187121  1
  Te2-  Te126  1  0.83000275  0.16200473  0.72212123  1
  Te2-  Te127  1  0.83325768  0.66393560  0.71514003  1
  Te2-  Te128  1  0.16457594  0.33352191  0.05223806  1
  Te2-  Te129  1  0.16692641  0.83353874  0.05447139  1
  Te2-  Te130  1  0.66780198  0.33564740  0.05243133  1
  Te2-  Te131  1  0.66439118  0.83245991  0.05087058  1
  Te2-  Te132  1  0.49372838  0.25051477  0.88308555  1
  Te2-  Te133  1  0.49040208  0.74259220  0.88118912  1
  Te2-  Te134  1  0.98534910  0.24226149  0.88452233  1
  Te2-  Te135  1  0.99895481  0.75437747  0.88306776  1
  Te2-  Te136  1  0.25850537  0.01408667  0.88607877  1
  Te2-  Te137  1  0.24534305  0.50027554  0.88021350  1
  Te2-  Te138  1  0.74806331  0.00672964  0.88226565  1
  Te2-  Te139  1  0.75462554  0.50412581  0.88091538  1
  Te2-  Te140  1  0.25373945  0.24943820  0.88327048  1
  Te2-  Te141  1  0.25202023  0.74817710  0.88280259  1
  Te2-  Te142  1  0.75119142  0.24266320  0.88380850  1
  Te2-  Te143  1  0.75219881  0.74888715  0.88086286  1
  Te2-  Te144  1  0.32595208  0.41360189  0.21546172  1
  Te2-  Te145  1  0.32334561  0.90898994  0.21822760  1
  Te2-  Te146  1  0.82875407  0.41625793  0.21924025  1
  Te2-  Te147  1  0.83006479  0.91625675  0.22002473  1
  Te2-  Te148  1  0.08683205  0.17051754  0.21978343  1
  Te2-  Te149  1  0.08603489  0.67204291  0.21994395  1
  Te2-  Te150  1  0.58133082  0.17048652  0.21853018  1
  Te2-  Te151  1  0.58377608  0.67106400  0.21337183  1
  Te2-  Te152  1  0.08606307  0.41607858  0.21696788  1
  Te2-  Te153  1  0.08422054  0.91017732  0.21782198  1
  Te2-  Te154  1  0.58434875  0.41389164  0.21673050  1
  Te2-  Te155  1  0.58413952  0.91554839  0.21666857  1
  Te2-  Te156  1  0.16265136  0.07843943  0.55440537  1
  Te2-  Te157  1  0.15916105  0.57619072  0.55099990  1
  Te2-  Te158  1  0.66231769  0.07529834  0.54731867  1
  Te2-  Te159  1  0.66085711  0.58079867  0.54537581  1
  Te2-  Te160  1  0.41930693  0.33954010  0.54897167  1
  Te2-  Te161  1  0.41821702  0.83807373  0.55121932  1
  Te2-  Te162  1  0.92060795  0.33439486  0.55038095  1
  Te2-  Te163  1  0.92469573  0.83656408  0.54685038  1
  Te2-  Te164  1  0.42139090  0.08007557  0.55295478  1
  Te2-  Te165  1  0.42025796  0.58227406  0.54815483  1
  Te2-  Te166  1  0.92392086  0.07629463  0.55318845  1
  Te2-  Te167  1  0.92051149  0.57399151  0.54742880  1
  Te2-  Te168  1  -0.00094220  0.00082973  0.88216199  1
  Te2-  Te169  1  0.00006817  0.50276721  0.88200551  1
  Te2-  Te170  1  0.50245626  0.00270144  0.88098121  1
  Te2-  Te171  1  0.50060996  0.50143530  0.87977941  1
  Te2-  Te172  1  0.33360254  0.16862323  0.21673896  1
  Te2-  Te173  1  0.33355904  0.66714810  0.21483134  1
  Te2-  Te174  1  0.83294004  0.16810979  0.21811288  1
  Te2-  Te175  1  0.83207687  0.66723576  0.21555625  1
  Te2-  Te176  1  0.16770484  0.33440816  0.54922432  1
  Te2-  Te177  1  0.16700262  0.83360521  0.54964520  1
  Te2-  Te178  1  0.66916395  0.33368749  0.54880020  1
  Te2-  Te179  1  0.66853810  0.83219359  0.54720925  1
  Te2-  Te180  1  0.32954155  0.41517090  0.70973819  1
  Te2-  Te181  1  0.32594960  0.91285044  0.70869611  1
  Te2-  Te182  1  0.82723136  0.41299684  0.70946300  1
  Te2-  Te183  1  0.82863856  0.90981636  0.70921294  1
  Te2-  Te184  1  0.09013051  0.17636043  0.70941090  1
  Te2-  Te185  1  0.08522383  0.67145674  0.71122076  1
  Te2-  Te186  1  0.59134364  0.17400935  0.70927574  1
  Te2-  Te187  1  0.58745932  0.67132537  0.70849341  1
  Te2-  Te188  1  0.08732498  0.41479741  0.70935382  1
  Te2-  Te189  1  0.08569881  0.91138427  0.71000304  1
  Te2-  Te190  1  0.58767266  0.41471680  0.70998281  1
  Te2-  Te191  1  0.58735898  0.91265986  0.70816527  1
  Te2-  Te192  1  0.15971539  0.08231837  0.04604567  1
  Te2-  Te193  1  0.16103426  0.58268825  0.04542428  1
  Te2-  Te194  1  0.66244641  0.08244580  0.04722524  1
  Te2-  Te195  1  0.66274096  0.58159415  0.04436850  1
  Te2-  Te196  1  0.41837597  0.33847886  0.04547999  1
  Te2-  Te197  1  0.42054639  0.84020006  0.04516944  1
  Te2-  Te198  1  0.91877970  0.33946388  0.04801891  1
  Te2-  Te199  1  0.91780090  0.84016344  0.04602157  1
  Te2-  Te200  1  0.42286898  0.08343524  0.04595417  1
  Te2-  Te201  1  0.41628752  0.57989524  0.04327474  1
  Te2-  Te202  1  0.91693474  0.08034441  0.04802844  1
  Te2-  Te203  1  0.92085408  0.58379121  0.04649211  1
  Te2-  Te204  1  0.49091269  0.24701431  0.37620676  1
  Te2-  Te205  1  0.49565734  0.74920357  0.37780958  1
  Te2-  Te206  1  0.99372953  0.24853449  0.37667497  1
  Te2-  Te207  1  0.99452510  0.74887492  0.37509664  1
  Te2-  Te208  1  0.25368473  0.00661688  0.38028670  1
  Te2-  Te209  1  0.25271788  0.50573011  0.37814279  1
  Te2-  Te210  1  0.75219967  0.00779959  0.37578116  1
  Te2-  Te211  1  0.75110933  0.50670532  0.37249155  1
  Te2-  Te212  1  0.25491314  0.24907541  0.37814526  1
  Te2-  Te213  1  0.25469866  0.74796426  0.37911185  1
  Te2-  Te214  1  0.75238752  0.24600004  0.37497817  1
  Te2-  Te215  1  0.75115391  0.74618404  0.37354998  1
