# generated using pymatgen
data_Ti(CuTe)4
_symmetry_space_group_name_H-M   'P 1'
_cell_length_a   16.88469076
_cell_length_b   16.88479831
_cell_length_c   20.70469111
_cell_angle_alpha   89.98403136
_cell_angle_beta   90.02486635
_cell_angle_gamma   120.00090135
_symmetry_Int_Tables_number   1
_chemical_formula_structural   Ti(CuTe)4
_chemical_formula_sum   'Ti24 Cu96 Te96'
_cell_volume   5111.92400757
_cell_formula_units_Z   24
loop_
 _symmetry_equiv_pos_site_id
 _symmetry_equiv_pos_as_xyz
  1  'x, y, z'
loop_
 _atom_type_symbol
 _atom_type_oxidation_number
  Ti4+  4.0
  Cu+  1.0
  Te2-  -2.0
loop_
 _atom_site_type_symbol
 _atom_site_label
 _atom_site_symmetry_multiplicity
 _atom_site_fract_x
 _atom_site_fract_y
 _atom_site_fract_z
 _atom_site_occupancy
  Ti4+  Ti0  1  -0.00138870  0.00000561  0.25680788  1
  Ti4+  Ti1  1  0.00023668  0.50352625  0.26091856  1
  Ti4+  Ti2  1  0.49973052  0.00052310  0.25784556  1
  Ti4+  Ti3  1  0.50221144  0.50079504  0.25614567  1
  Ti4+  Ti4  1  0.33124570  0.16818650  0.58812792  1
  Ti4+  Ti5  1  0.33440534  0.67006334  0.59245475  1
  Ti4+  Ti6  1  0.83184544  0.16429408  0.58987159  1
  Ti4+  Ti7  1  0.83286794  0.66210888  0.59305506  1
  Ti4+  Ti8  1  0.16569270  0.33395973  0.92165090  1
  Ti4+  Ti9  1  0.16593012  0.83114797  0.92738935  1
  Ti4+  Ti10  1  0.66857346  0.33266521  0.92494648  1
  Ti4+  Ti11  1  0.66751195  0.83304238  0.92577908  1
  Ti4+  Ti12  1  -0.00102958  -0.00138082  0.75573087  1
  Ti4+  Ti13  1  0.00033636  0.49904423  0.75492404  1
  Ti4+  Ti14  1  0.50022341  0.00024107  0.75652395  1
  Ti4+  Ti15  1  0.50035675  0.50031006  0.75501768  1
  Ti4+  Ti16  1  0.33428913  0.16681179  0.08751048  1
  Ti4+  Ti17  1  0.33318471  0.66752446  0.08938341  1
  Ti4+  Ti18  1  0.83481126  0.16725780  0.09031019  1
  Ti4+  Ti19  1  0.83194928  0.66502616  0.08757789  1
  Ti4+  Ti20  1  0.16618833  0.33085866  0.42107852  1
  Ti4+  Ti21  1  0.16644001  0.83156219  0.42268903  1
  Ti4+  Ti22  1  0.66767969  0.33631789  0.42132989  1
  Ti4+  Ti23  1  0.66591435  0.83495720  0.42248635  1
  Cu+  Cu24  1  0.00899014  0.75760767  0.14809086  1
  Cu+  Cu25  1  0.56911064  0.93025222  0.47217317  1
  Cu+  Cu26  1  0.90552764  0.31271161  0.80676469  1
  Cu+  Cu27  1  0.74173930  0.47913841  0.14148826  1
  Cu+  Cu28  1  0.18530448  0.59339263  0.81048255  1
  Cu+  Cu29  1  0.74049293  0.75947109  0.14131084  1
  Cu+  Cu30  1  0.91005107  0.59112934  0.81401052  1
  Cu+  Cu31  1  0.06907093  0.13932310  0.47277916  1
  Cu+  Cu32  1  0.57235312  0.43041274  0.47230123  1
  Cu+  Cu33  1  0.07821658  0.64903229  0.48083785  1
  Cu+  Cu34  1  0.24481835  0.76446803  0.14308191  1
  Cu+  Cu35  1  0.84748516  0.42106221  0.48037280  1
  Cu+  Cu36  1  0.16600801  0.08539565  0.16978469  1
  Cu+  Cu37  1  0.16633929  0.59019572  0.17193039  1
  Cu+  Cu38  1  0.66500479  0.08009116  0.17303032  1
  Cu+  Cu39  1  0.66228416  0.57981389  0.16771288  1
  Cu+  Cu40  1  0.42047110  0.33617320  0.16916927  1
  Cu+  Cu41  1  0.41715700  0.83762399  0.17190734  1
  Cu+  Cu42  1  0.91604039  0.33633081  0.17404589  1
  Cu+  Cu43  1  0.91708915  0.84092912  0.16815123  1
  Cu+  Cu44  1  0.41916964  0.08259574  0.17012455  1
  Cu+  Cu45  1  0.41972948  0.58317298  0.16988333  1
  Cu+  Cu46  1  0.91951262  0.08390569  0.17115062  1
  Cu+  Cu47  1  0.91887146  0.58040826  0.17086631  1
  Cu+  Cu48  1  0.49647988  0.25474378  0.50177065  1
  Cu+  Cu49  1  0.49901465  0.75707949  0.50461985  1
  Cu+  Cu50  1  0.99747604  0.24285691  0.50241900  1
  Cu+  Cu51  1  0.99794163  0.74303953  0.50539394  1
  Cu+  Cu52  1  0.25148410  0.00397927  0.50297046  1
  Cu+  Cu53  1  0.25210508  0.50204933  0.50511917  1
  Cu+  Cu54  1  0.74459507  0.00204366  0.50228164  1
  Cu+  Cu55  1  0.75162888  0.50320955  0.50371768  1
  Cu+  Cu56  1  0.24642567  0.24254064  0.50074414  1
  Cu+  Cu57  1  0.25109684  0.74518694  0.50493107  1
  Cu+  Cu58  1  0.75397771  0.24871874  0.50287342  1
  Cu+  Cu59  1  0.75075183  0.74788847  0.50557929  1
  Cu+  Cu60  1  0.33106937  0.41701495  0.83548066  1
  Cu+  Cu61  1  0.33287436  0.91412254  0.83949435  1
  Cu+  Cu62  1  0.82815255  0.41291187  0.83669221  1
  Cu+  Cu63  1  0.83005837  0.91353278  0.83943795  1
  Cu+  Cu64  1  0.08200873  0.16897412  0.83593339  1
  Cu+  Cu65  1  0.08722285  0.67232096  0.83864097  1
  Cu+  Cu66  1  0.58598376  0.16789867  0.83777525  1
  Cu+  Cu67  1  0.58610181  0.67000276  0.83941991  1
  Cu+  Cu68  1  0.08557137  0.41362213  0.83394759  1
  Cu+  Cu69  1  0.08156446  0.91340072  0.83984019  1
  Cu+  Cu70  1  0.58581961  0.41679215  0.83811933  1
  Cu+  Cu71  1  0.58623197  0.91584293  0.83969565  1
  Cu+  Cu72  1  0.16675531  0.08296155  0.67410551  1
  Cu+  Cu73  1  0.17077841  0.58668480  0.68157789  1
  Cu+  Cu74  1  0.66676213  0.08361291  0.67523780  1
  Cu+  Cu75  1  0.66778981  0.58187725  0.67674670  1
  Cu+  Cu76  1  0.41512781  0.33255733  0.67153475  1
  Cu+  Cu77  1  0.41631178  0.83448304  0.67626368  1
  Cu+  Cu78  1  0.91566353  0.32867913  0.67777890  1
  Cu+  Cu79  1  0.91576942  0.82811041  0.67645472  1
  Cu+  Cu80  1  0.41427891  0.08651927  0.67255065  1
  Cu+  Cu81  1  0.41797148  0.58842541  0.67461657  1
  Cu+  Cu82  1  0.91342885  0.07959700  0.67387638  1
  Cu+  Cu83  1  0.91519215  0.58179783  0.68323256  1
  Cu+  Cu84  1  0.00229862  0.25287645  0.00696152  1
  Cu+  Cu85  1  0.00112104  0.74750220  0.01601669  1
  Cu+  Cu86  1  0.50269251  0.25028084  0.00790256  1
  Cu+  Cu87  1  0.50309876  0.75123914  0.00859859  1
  Cu+  Cu88  1  0.24791568  0.49746325  0.00669963  1
  Cu+  Cu89  1  0.24932065  0.99773247  0.00955343  1
  Cu+  Cu90  1  0.74860225  0.49486270  0.01259687  1
  Cu+  Cu91  1  0.75102325  0.99696596  0.00928573  1
  Cu+  Cu92  1  0.24940811  0.25186665  0.00448416  1
  Cu+  Cu93  1  0.24811512  0.75007435  0.01457492  1
  Cu+  Cu94  1  0.75142422  0.25067121  0.00899082  1
  Cu+  Cu95  1  0.74708896  0.75024307  0.01214217  1
  Cu+  Cu96  1  0.33611223  0.41703479  0.33962569  1
  Cu+  Cu97  1  0.33428333  0.91544533  0.34285598  1
  Cu+  Cu98  1  0.83663258  0.42138661  0.34984514  1
  Cu+  Cu99  1  0.83325809  0.91694041  0.34057338  1
  Cu+  Cu100  1  0.08121036  0.16246979  0.34462241  1
  Cu+  Cu101  1  0.08243095  0.66541376  0.35006229  1
  Cu+  Cu102  1  0.58348074  0.16567406  0.33971469  1
  Cu+  Cu103  1  0.58430330  0.66668025  0.34066226  1
  Cu+  Cu104  1  0.08403972  0.41906654  0.34206031  1
  Cu+  Cu105  1  0.08106967  0.91655994  0.34042655  1
  Cu+  Cu106  1  0.58433033  0.42132309  0.34394887  1
  Cu+  Cu107  1  0.57972346  0.91915754  0.34451108  1
  Cu+  Cu108  1  0.00527279  0.00775083  0.11285105  1
  Cu+  Cu109  1  0.00414118  0.49558112  0.11736839  1
  Cu+  Cu110  1  0.50446853  0.00412253  0.11486523  1
  Cu+  Cu111  1  0.49317066  0.49654105  0.11151935  1
  Cu+  Cu112  1  0.33480004  0.16462036  0.44327527  1
  Cu+  Cu113  1  0.33683331  0.66165815  0.44915227  1
  Cu+  Cu114  1  0.83443892  0.16638990  0.44506365  1
  Cu+  Cu115  1  0.83509267  0.67327297  0.44950169  1
  Cu+  Cu116  1  0.17090339  0.32868243  0.77728723  1
  Cu+  Cu117  1  0.17176004  0.84260535  0.78458321  1
  Cu+  Cu118  1  0.65812749  0.32852733  0.78162566  1
  Cu+  Cu119  1  0.66645648  0.83365495  0.78332663  1
  Te2-  Te120  1  -0.00334007  -0.00448576  0.38711190  1
  Te2-  Te121  1  0.00241711  0.49940818  0.39278675  1
  Te2-  Te122  1  0.49789695  0.00339317  0.38857443  1
  Te2-  Te123  1  0.49945233  0.50298339  0.38660485  1
  Te2-  Te124  1  0.33191656  0.16850714  0.71667976  1
  Te2-  Te125  1  0.33749464  0.67097640  0.72275981  1
  Te2-  Te126  1  0.83132812  0.16189470  0.71982385  1
  Te2-  Te127  1  0.83156464  0.66466171  0.72340888  1
  Te2-  Te128  1  0.16701093  0.33316557  0.05038576  1
  Te2-  Te129  1  0.16684375  0.83495562  0.05913836  1
  Te2-  Te130  1  0.66597472  0.32889379  0.05552076  1
  Te2-  Te131  1  0.66562541  0.83415167  0.05687063  1
  Te2-  Te132  1  0.49831391  0.24834238  0.88168754  1
  Te2-  Te133  1  0.49623886  0.74797923  0.88303709  1
  Te2-  Te134  1  0.99124444  0.24509636  0.88117337  1
  Te2-  Te135  1  0.99262271  0.74654416  0.88734557  1
  Te2-  Te136  1  0.25063983  0.00073314  0.88321435  1
  Te2-  Te137  1  0.25524044  0.50819540  0.88104143  1
  Te2-  Te138  1  0.75376077  0.00453063  0.88356895  1
  Te2-  Te139  1  0.75260983  0.50631646  0.88492093  1
  Te2-  Te140  1  0.25085601  0.24857535  0.87826187  1
  Te2-  Te141  1  0.25550213  0.74765674  0.88682613  1
  Te2-  Te142  1  0.75299066  0.24380861  0.88312086  1
  Te2-  Te143  1  0.75286810  0.74662908  0.88501553  1
  Te2-  Te144  1  0.33151754  0.41527864  0.21352103  1
  Te2-  Te145  1  0.32568401  0.91627583  0.21718094  1
  Te2-  Te146  1  0.82731356  0.41405453  0.22138778  1
  Te2-  Te147  1  0.82505892  0.91637471  0.21504957  1
  Te2-  Te148  1  0.08602687  0.17156649  0.21697349  1
  Te2-  Te149  1  0.08748182  0.67905222  0.22124556  1
  Te2-  Te150  1  0.58667857  0.17094637  0.21416624  1
  Te2-  Te151  1  0.58673213  0.67412306  0.21493297  1
  Te2-  Te152  1  0.08624399  0.42085343  0.21575194  1
  Te2-  Te153  1  0.08824262  0.91700969  0.21465357  1
  Te2-  Te154  1  0.58714165  0.41200842  0.21649640  1
  Te2-  Te155  1  0.58374688  0.91298453  0.21767969  1
  Te2-  Te156  1  0.15612225  0.07473212  0.54831679  1
  Te2-  Te157  1  0.16046413  0.57667699  0.55350868  1
  Te2-  Te158  1  0.65822725  0.08316832  0.54940988  1
  Te2-  Te159  1  0.66041458  0.58048367  0.55064736  1
  Te2-  Te160  1  0.41464625  0.34203694  0.54598083  1
  Te2-  Te161  1  0.41699451  0.84339881  0.55064277  1
  Te2-  Te162  1  0.92398784  0.33727652  0.54997363  1
  Te2-  Te163  1  0.91893568  0.83211390  0.54999355  1
  Te2-  Te164  1  0.41961084  0.08567845  0.54614162  1
  Te2-  Te165  1  0.42123830  0.58743929  0.54800755  1
  Te2-  Te166  1  0.91294957  0.07331684  0.54755808  1
  Te2-  Te167  1  0.92132130  0.57444658  0.55443147  1
  Te2-  Te168  1  -0.00026640  0.00088342  0.88210217  1
  Te2-  Te169  1  0.00040488  0.49945541  0.88294455  1
  Te2-  Te170  1  0.50149362  0.00016435  0.88303043  1
  Te2-  Te171  1  0.49938493  0.49967866  0.88131931  1
  Te2-  Te172  1  0.33474203  0.16777382  0.21396790  1
  Te2-  Te173  1  0.33565073  0.66743586  0.21636907  1
  Te2-  Te174  1  0.83416037  0.16705318  0.21667556  1
  Te2-  Te175  1  0.83371364  0.66893942  0.21586300  1
  Te2-  Te176  1  0.16703231  0.33198196  0.54795758  1
  Te2-  Te177  1  0.16855739  0.83421905  0.54942097  1
  Te2-  Te178  1  0.66605361  0.33175552  0.54879000  1
  Te2-  Te179  1  0.66776419  0.83374622  0.54943316  1
  Te2-  Te180  1  0.32971058  0.41710822  0.70868181  1
  Te2-  Te181  1  0.32855492  0.91681136  0.71233410  1
  Te2-  Te182  1  0.82456306  0.40899404  0.70994044  1
  Te2-  Te183  1  0.82697289  0.91023325  0.71208587  1
  Te2-  Te184  1  0.08336540  0.16958190  0.70923953  1
  Te2-  Te185  1  0.08772374  0.67558098  0.71175236  1
  Te2-  Te186  1  0.58416132  0.17115116  0.71084365  1
  Te2-  Te187  1  0.58770161  0.67271544  0.71212706  1
  Te2-  Te188  1  0.08809349  0.41280371  0.70766596  1
  Te2-  Te189  1  0.08583115  0.91327400  0.71259969  1
  Te2-  Te190  1  0.58406795  0.41191075  0.71097314  1
  Te2-  Te191  1  0.58626148  0.91421418  0.71250823  1
  Te2-  Te192  1  0.16261800  0.08214677  0.04274832  1
  Te2-  Te193  1  0.15979628  0.57802944  0.04467694  1
  Te2-  Te194  1  0.66367977  0.08019131  0.04560140  1
  Te2-  Te195  1  0.65798666  0.57744109  0.04107781  1
  Te2-  Te196  1  0.41934091  0.33782260  0.04215952  1
  Te2-  Te197  1  0.42183377  0.84041036  0.04456012  1
  Te2-  Te198  1  0.92020799  0.33915436  0.04653231  1
  Te2-  Te199  1  0.91992861  0.83998585  0.04152458  1
  Te2-  Te200  1  0.41998768  0.07988298  0.04370252  1
  Te2-  Te201  1  0.41798943  0.58106911  0.04356086  1
  Te2-  Te202  1  0.92115574  0.08276927  0.04453895  1
  Te2-  Te203  1  0.91995043  0.57587929  0.04451709  1
  Te2-  Te204  1  0.49574657  0.24828810  0.37454770  1
  Te2-  Te205  1  0.49393907  0.74663510  0.37687374  1
  Te2-  Te206  1  0.99369995  0.24810448  0.37516832  1
  Te2-  Te207  1  0.99262725  0.74806060  0.37816763  1
  Te2-  Te208  1  0.25091877  0.00307399  0.37688155  1
  Te2-  Te209  1  0.25360143  0.50392822  0.37792762  1
  Te2-  Te210  1  0.75278587  0.00679872  0.37557476  1
  Te2-  Te211  1  0.75513025  0.51207570  0.37705308  1
  Te2-  Te212  1  0.25431175  0.24688862  0.37437899  1
  Te2-  Te213  1  0.25543514  0.74616437  0.37851021  1
  Te2-  Te214  1  0.75275756  0.24738211  0.37618745  1
  Te2-  Te215  1  0.75242577  0.74857303  0.37870392  1
