# generated using pymatgen
data_Ti(CuTe)4
_symmetry_space_group_name_H-M   'P 1'
_cell_length_a   16.87926993
_cell_length_b   16.87628044
_cell_length_c   20.69595060
_cell_angle_alpha   90.01339136
_cell_angle_beta   89.96952248
_cell_angle_gamma   119.99070963
_symmetry_Int_Tables_number   1
_chemical_formula_structural   Ti(CuTe)4
_chemical_formula_sum   'Ti24 Cu96 Te96'
_cell_volume   5106.07265668
_cell_formula_units_Z   24
loop_
 _symmetry_equiv_pos_site_id
 _symmetry_equiv_pos_as_xyz
  1  'x, y, z'
loop_
 _atom_type_symbol
 _atom_type_oxidation_number
  Ti4+  4.0
  Cu+  1.0
  Te2-  -2.0
loop_
 _atom_site_type_symbol
 _atom_site_label
 _atom_site_symmetry_multiplicity
 _atom_site_fract_x
 _atom_site_fract_y
 _atom_site_fract_z
 _atom_site_occupancy
  Ti4+  Ti0  1  0.00490383  0.00090640  0.25700631  1
  Ti4+  Ti1  1  0.00251255  0.49775524  0.25704612  1
  Ti4+  Ti2  1  0.50074295  -0.00008410  0.26074988  1
  Ti4+  Ti3  1  0.50100956  0.50037189  0.25796810  1
  Ti4+  Ti4  1  0.32805850  0.16538301  0.59468589  1
  Ti4+  Ti5  1  0.33432816  0.66831730  0.59126266  1
  Ti4+  Ti6  1  0.83149461  0.16878718  0.59199278  1
  Ti4+  Ti7  1  0.83321995  0.66593474  0.58638117  1
  Ti4+  Ti8  1  0.16698229  0.33125586  0.92414141  1
  Ti4+  Ti9  1  0.16676654  0.83150097  0.92702637  1
  Ti4+  Ti10  1  0.66557226  0.33360881  0.92366998  1
  Ti4+  Ti11  1  0.66604162  0.83650980  0.92098059  1
  Ti4+  Ti12  1  -0.00167964  0.00073412  0.75533040  1
  Ti4+  Ti13  1  -0.00090112  0.50065438  0.75644006  1
  Ti4+  Ti14  1  0.49889763  -0.00058765  0.75340112  1
  Ti4+  Ti15  1  0.49921260  0.49927015  0.75380363  1
  Ti4+  Ti16  1  0.33191385  0.16472151  0.08941578  1
  Ti4+  Ti17  1  0.33356980  0.66654761  0.08924779  1
  Ti4+  Ti18  1  0.83474151  0.16731079  0.09063081  1
  Ti4+  Ti19  1  0.83290082  0.66705565  0.08815921  1
  Ti4+  Ti20  1  0.16760651  0.33216009  0.42434133  1
  Ti4+  Ti21  1  0.16566547  0.83482175  0.42347277  1
  Ti4+  Ti22  1  0.67022395  0.33449715  0.42206144  1
  Ti4+  Ti23  1  0.66494565  0.83267061  0.42131708  1
  Cu+  Cu24  1  0.41088953  0.31448787  0.80837360  1
  Cu+  Cu25  1  0.91255948  0.09829664  0.80723162  1
  Cu+  Cu26  1  0.02773061  0.26255537  0.14036337  1
  Cu+  Cu27  1  0.17872196  0.08436020  0.81437564  1
  Cu+  Cu28  1  0.01666199  0.75204082  0.14400791  1
  Cu+  Cu29  1  0.86110550  0.42933983  0.47099495  1
  Cu+  Cu30  1  0.67929249  0.09342227  0.80950159  1
  Cu+  Cu31  1  0.07007531  0.93114120  0.47529442  1
  Cu+  Cu32  1  0.24703462  0.98097184  0.14412375  1
  Cu+  Cu33  1  0.40398731  0.81144559  0.80696893  1
  Cu+  Cu34  1  0.57146401  0.92833878  0.47668625  1
  Cu+  Cu35  1  0.56929619  0.64454539  0.47284461  1
  Cu+  Cu36  1  0.16445373  0.07600231  0.16904307  1
  Cu+  Cu37  1  0.16426540  0.57869184  0.16943062  1
  Cu+  Cu38  1  0.66385739  0.08121287  0.17535406  1
  Cu+  Cu39  1  0.66143717  0.58190596  0.17123524  1
  Cu+  Cu40  1  0.41883467  0.33692523  0.17244629  1
  Cu+  Cu41  1  0.42107295  0.83610021  0.17338152  1
  Cu+  Cu42  1  0.92380263  0.33465011  0.17144001  1
  Cu+  Cu43  1  0.92319132  0.83480628  0.16956540  1
  Cu+  Cu44  1  0.41751481  0.07972841  0.17356060  1
  Cu+  Cu45  1  0.41874459  0.58208070  0.17196567  1
  Cu+  Cu46  1  0.92565375  0.08895765  0.17168149  1
  Cu+  Cu47  1  0.91860803  0.58034305  0.17208104  1
  Cu+  Cu48  1  0.49770567  0.25081012  0.50785816  1
  Cu+  Cu49  1  0.49619381  0.75018983  0.50337177  1
  Cu+  Cu50  1  0.99707889  0.24701135  0.50569459  1
  Cu+  Cu51  1  0.99619904  0.75368037  0.50119391  1
  Cu+  Cu52  1  0.24226049  0.00272747  0.50719303  1
  Cu+  Cu53  1  0.24988006  0.50197928  0.50545837  1
  Cu+  Cu54  1  0.74566122  0.00345789  0.50512475  1
  Cu+  Cu55  1  0.75871422  0.50309946  0.49974605  1
  Cu+  Cu56  1  0.24937127  0.24712864  0.50801504  1
  Cu+  Cu57  1  0.25143838  0.75023721  0.50597830  1
  Cu+  Cu58  1  0.75612727  0.25409346  0.50374203  1
  Cu+  Cu59  1  0.74602657  0.74276118  0.49966848  1
  Cu+  Cu60  1  0.33237726  0.41160209  0.83603790  1
  Cu+  Cu61  1  0.32901105  0.91057435  0.83691898  1
  Cu+  Cu62  1  0.82957133  0.41642300  0.83726505  1
  Cu+  Cu63  1  0.82970714  0.92158610  0.83431972  1
  Cu+  Cu64  1  0.08603521  0.17115989  0.83637047  1
  Cu+  Cu65  1  0.08289780  0.66803666  0.83982323  1
  Cu+  Cu66  1  0.58752643  0.17377246  0.83451442  1
  Cu+  Cu67  1  0.58566619  0.67191476  0.83431968  1
  Cu+  Cu68  1  0.08341651  0.41561969  0.83837140  1
  Cu+  Cu69  1  0.08529571  0.91328444  0.84030194  1
  Cu+  Cu70  1  0.58158876  0.41305839  0.83667237  1
  Cu+  Cu71  1  0.58378897  0.91458225  0.83224233  1
  Cu+  Cu72  1  0.16460510  0.08305470  0.68374851  1
  Cu+  Cu73  1  0.16891789  0.58633720  0.67580979  1
  Cu+  Cu74  1  0.66670488  0.08645643  0.67893572  1
  Cu+  Cu75  1  0.66829780  0.58311364  0.66955210  1
  Cu+  Cu76  1  0.41175109  0.32805566  0.68076254  1
  Cu+  Cu77  1  0.41476638  0.83064345  0.67908706  1
  Cu+  Cu78  1  0.91580418  0.33486801  0.67557875  1
  Cu+  Cu79  1  0.91413596  0.82953219  0.67184735  1
  Cu+  Cu80  1  0.41121490  0.08243350  0.67481831  1
  Cu+  Cu81  1  0.41740096  0.58616267  0.67433093  1
  Cu+  Cu82  1  0.91041069  0.08416834  0.67900559  1
  Cu+  Cu83  1  0.91716318  0.58557622  0.67186284  1
  Cu+  Cu84  1  0.00316325  0.25093878  0.01298686  1
  Cu+  Cu85  1  0.00235087  0.75154380  0.01434244  1
  Cu+  Cu86  1  0.50196143  0.25146717  0.00882967  1
  Cu+  Cu87  1  0.50094166  0.75241885  0.00610081  1
  Cu+  Cu88  1  0.25035137  0.49832128  0.00712196  1
  Cu+  Cu89  1  0.24847849  0.99651142  0.01477015  1
  Cu+  Cu90  1  0.74527022  0.49778063  0.00626346  1
  Cu+  Cu91  1  0.74706511  1.00021565  0.00782738  1
  Cu+  Cu92  1  0.24901118  0.24823379  0.01054987  1
  Cu+  Cu93  1  0.25104068  0.74972271  0.01078362  1
  Cu+  Cu94  1  0.74648510  0.25051482  0.00897576  1
  Cu+  Cu95  1  0.74667931  0.75240538  0.00446411  1
  Cu+  Cu96  1  0.33698439  0.41694460  0.34222380  1
  Cu+  Cu97  1  0.33579014  0.91904059  0.34506492  1
  Cu+  Cu98  1  0.84023475  0.41697823  0.34290814  1
  Cu+  Cu99  1  0.83803541  0.91969904  0.33877331  1
  Cu+  Cu100  1  0.08756460  0.16675691  0.34188300  1
  Cu+  Cu101  1  0.08431832  0.66473937  0.34184933  1
  Cu+  Cu102  1  0.58285193  0.16486484  0.34328185  1
  Cu+  Cu103  1  0.58082343  0.66244144  0.34428898  1
  Cu+  Cu104  1  0.08377243  0.41371954  0.34266680  1
  Cu+  Cu105  1  0.08362193  0.91838687  0.34751115  1
  Cu+  Cu106  1  0.58342968  0.41781423  0.34019712  1
  Cu+  Cu107  1  0.58195142  0.91966422  0.34774698  1
  Cu+  Cu108  1  -0.00675898  -0.00341903  0.11370405  1
  Cu+  Cu109  1  -0.00217659  0.49834130  0.11318344  1
  Cu+  Cu110  1  0.50270649  0.00064008  0.11793078  1
  Cu+  Cu111  1  0.49824058  0.49938433  0.11489980  1
  Cu+  Cu112  1  0.33833782  0.16860533  0.45263378  1
  Cu+  Cu113  1  0.32851614  0.66384455  0.44823684  1
  Cu+  Cu114  1  0.83580500  0.16537918  0.44820675  1
  Cu+  Cu115  1  0.83201551  0.66622347  0.44087330  1
  Cu+  Cu116  1  0.16901668  0.34125699  0.78123545  1
  Cu+  Cu117  1  0.16295532  0.83008920  0.78284891  1
  Cu+  Cu118  1  0.66948217  0.33963343  0.77889838  1
  Cu+  Cu119  1  0.66698053  0.83031646  0.77541016  1
  Te2-  Te120  1  0.00023133  0.00271466  0.38730612  1
  Te2-  Te121  1  0.00617612  0.50066145  0.38732071  1
  Te2-  Te122  1  0.49908431  0.00255329  0.39167328  1
  Te2-  Te123  1  0.50016277  0.49693657  0.38901400  1
  Te2-  Te124  1  0.33046222  0.16253136  0.72683255  1
  Te2-  Te125  1  0.33254439  0.66429168  0.72174971  1
  Te2-  Te126  1  0.83228989  0.17158572  0.72374323  1
  Te2-  Te127  1  0.83188916  0.66510763  0.71502572  1
  Te2-  Te128  1  0.17073191  0.33471149  0.05420535  1
  Te2-  Te129  1  0.16813074  0.83041018  0.05877340  1
  Te2-  Te130  1  0.66611563  0.33455907  0.05257987  1
  Te2-  Te131  1  0.66554392  0.83498213  0.04955443  1
  Te2-  Te132  1  0.49160941  0.24246752  0.88301922  1
  Te2-  Te133  1  0.49235068  0.74588223  0.88011065  1
  Te2-  Te134  1  0.99385806  0.24842690  0.88524119  1
  Te2-  Te135  1  0.99587092  0.74743430  0.88675068  1
  Te2-  Te136  1  0.25659775  0.00441112  0.88669988  1
  Te2-  Te137  1  0.25284568  0.50066423  0.88095055  1
  Te2-  Te138  1  0.75392460  0.01344195  0.88172527  1
  Te2-  Te139  1  0.74902682  0.50411989  0.88035785  1
  Te2-  Te140  1  0.25471007  0.24284407  0.88417480  1
  Te2-  Te141  1  0.25100954  0.74274134  0.88459973  1
  Te2-  Te142  1  0.75549147  0.24929242  0.88291020  1
  Te2-  Te143  1  0.75333089  0.75313586  0.87851421  1
  Te2-  Te144  1  0.32909295  0.41432396  0.21661239  1
  Te2-  Te145  1  0.32701221  0.90923475  0.21921240  1
  Te2-  Te146  1  0.83224111  0.41205519  0.21575040  1
  Te2-  Te147  1  0.83606613  0.91784441  0.21257861  1
  Te2-  Te148  1  0.09536902  0.17393245  0.21594170  1
  Te2-  Te149  1  0.09058220  0.67130774  0.21607845  1
  Te2-  Te150  1  0.58475313  0.17070351  0.21765622  1
  Te2-  Te151  1  0.58570543  0.67252949  0.21738761  1
  Te2-  Te152  1  0.09245381  0.41336890  0.21693529  1
  Te2-  Te153  1  0.09080260  0.90985607  0.21944307  1
  Te2-  Te154  1  0.58674432  0.41432459  0.21498587  1
  Te2-  Te155  1  0.58692142  0.91429670  0.22054363  1
  Te2-  Te156  1  0.15335834  0.08133259  0.55557474  1
  Te2-  Te157  1  0.16322346  0.58289928  0.55001564  1
  Te2-  Te158  1  0.65874782  0.08624117  0.55107265  1
  Te2-  Te159  1  0.66013898  0.57389198  0.54398351  1
  Te2-  Te160  1  0.41602996  0.33638244  0.55384057  1
  Te2-  Te161  1  0.41847423  0.84213628  0.55180097  1
  Te2-  Te162  1  0.92405102  0.34196051  0.54985247  1
  Te2-  Te163  1  0.91362107  0.84004402  0.54631248  1
  Te2-  Te164  1  0.41218890  0.08042131  0.54916849  1
  Te2-  Te165  1  0.41834633  0.57948672  0.54866360  1
  Te2-  Te166  1  0.91323032  0.07989323  0.55155852  1
  Te2-  Te167  1  0.92651745  0.58539111  0.54613710  1
  Te2-  Te168  1  -0.00092335  -0.00084504  0.88301679  1
  Te2-  Te169  1  -0.00196004  0.49889445  0.88266829  1
  Te2-  Te170  1  0.50089113  0.00179115  0.88082113  1
  Te2-  Te171  1  0.50178503  0.50323264  0.88075692  1
  Te2-  Te172  1  0.33404574  0.16709365  0.21625722  1
  Te2-  Te173  1  0.33344362  0.66560750  0.21531360  1
  Te2-  Te174  1  0.83417854  0.16588210  0.21742775  1
  Te2-  Te175  1  0.83212381  0.66528705  0.21512194  1
  Te2-  Te176  1  0.16543047  0.33350531  0.55048514  1
  Te2-  Te177  1  0.16379255  0.83245096  0.55024962  1
  Te2-  Te178  1  0.66769645  0.33553143  0.54902694  1
  Te2-  Te179  1  0.66672003  0.83254153  0.54871146  1
  Te2-  Te180  1  0.32583678  0.41545524  0.70923983  1
  Te2-  Te181  1  0.32418645  0.91283565  0.71051747  1
  Te2-  Te182  1  0.82797914  0.41655197  0.71034064  1
  Te2-  Te183  1  0.82652890  0.91174397  0.70795771  1
  Te2-  Te184  1  0.08328181  0.17569074  0.70987719  1
  Te2-  Te185  1  0.08542904  0.67241313  0.71276331  1
  Te2-  Te186  1  0.58163787  0.17390433  0.70857334  1
  Te2-  Te187  1  0.58701822  0.67081643  0.70785873  1
  Te2-  Te188  1  0.08578067  0.41567950  0.71140216  1
  Te2-  Te189  1  0.08206014  0.91013226  0.71246983  1
  Te2-  Te190  1  0.58593438  0.41375225  0.70857727  1
  Te2-  Te191  1  0.58766112  0.91382003  0.70596934  1
  Te2-  Te192  1  0.15751645  0.07830832  0.04353421  1
  Te2-  Te193  1  0.16086266  0.57858038  0.04386552  1
  Te2-  Te194  1  0.66182300  0.08227651  0.04816902  1
  Te2-  Te195  1  0.66117480  0.58313453  0.04432734  1
  Te2-  Te196  1  0.41887041  0.33759065  0.04590070  1
  Te2-  Te197  1  0.42059457  0.83994681  0.04669503  1
  Te2-  Te198  1  0.91775338  0.33870383  0.04405426  1
  Te2-  Te199  1  0.91662694  0.83922199  0.04219220  1
  Te2-  Te200  1  0.42165687  0.08112093  0.04581344  1
  Te2-  Te201  1  0.42032945  0.58211317  0.04441811  1
  Te2-  Te202  1  0.91735269  0.07857089  0.04372583  1
  Te2-  Te203  1  0.91605090  0.57771183  0.04378429  1
  Te2-  Te204  1  0.49728851  0.24917832  0.38033952  1
  Te2-  Te205  1  0.49145503  0.74580710  0.37615203  1
  Te2-  Te206  1  0.99588175  0.24472917  0.37894300  1
  Te2-  Te207  1  0.99416400  0.74504726  0.37490475  1
  Te2-  Te208  1  0.25530954  0.00866758  0.37997613  1
  Te2-  Te209  1  0.25361983  0.50363577  0.37904217  1
  Te2-  Te210  1  0.75507567  0.00600159  0.37740742  1
  Te2-  Te211  1  0.75455977  0.50510719  0.37307857  1
  Te2-  Te212  1  0.25584308  0.24764207  0.38151401  1
  Te2-  Te213  1  0.25306745  0.74897855  0.38005884  1
  Te2-  Te214  1  0.75383169  0.24502332  0.37722192  1
  Te2-  Te215  1  0.75404400  0.74963645  0.37338684  1
