# generated using pymatgen
data_Ti(CuTe)4
_symmetry_space_group_name_H-M   'P 1'
_cell_length_a   16.85289593
_cell_length_b   16.84931293
_cell_length_c   20.65601439
_cell_angle_alpha   89.98176644
_cell_angle_beta   89.97929648
_cell_angle_gamma   119.99640336
_symmetry_Int_Tables_number   1
_chemical_formula_structural   Ti(CuTe)4
_chemical_formula_sum   'Ti24 Cu96 Te96'
_cell_volume   5079.83414103
_cell_formula_units_Z   24
loop_
 _symmetry_equiv_pos_site_id
 _symmetry_equiv_pos_as_xyz
  1  'x, y, z'
loop_
 _atom_type_symbol
 _atom_type_oxidation_number
  Ti4+  4.0
  Cu+  1.0
  Te2-  -2.0
loop_
 _atom_site_type_symbol
 _atom_site_label
 _atom_site_symmetry_multiplicity
 _atom_site_fract_x
 _atom_site_fract_y
 _atom_site_fract_z
 _atom_site_occupancy
  Ti4+  Ti0  1  0.00176830  0.00029302  0.25702086  1
  Ti4+  Ti1  1  -0.00354419  0.49923300  0.25646809  1
  Ti4+  Ti2  1  0.50090211  0.00222982  0.26031578  1
  Ti4+  Ti3  1  0.49567889  0.49818657  0.25802607  1
  Ti4+  Ti4  1  0.32907875  0.16498589  0.59205173  1
  Ti4+  Ti5  1  0.33735600  0.66897811  0.58686377  1
  Ti4+  Ti6  1  0.83326147  0.17004493  0.59281975  1
  Ti4+  Ti7  1  0.83480617  0.66843173  0.58805433  1
  Ti4+  Ti8  1  0.16904356  0.33215808  0.92475272  1
  Ti4+  Ti9  1  0.16797373  0.83387664  0.92530282  1
  Ti4+  Ti10  1  0.66896726  0.33091647  0.92567642  1
  Ti4+  Ti11  1  0.66596829  0.83173537  0.92507933  1
  Ti4+  Ti12  1  0.00149617  0.00107964  0.75578036  1
  Ti4+  Ti13  1  -0.00170737  0.49870106  0.75587260  1
  Ti4+  Ti14  1  0.50102386  0.00059199  0.75523912  1
  Ti4+  Ti15  1  0.49942117  0.49980762  0.75669225  1
  Ti4+  Ti16  1  0.33146656  0.16639003  0.09049313  1
  Ti4+  Ti17  1  0.33408232  0.66541524  0.09016032  1
  Ti4+  Ti18  1  0.83112233  0.16650027  0.09079963  1
  Ti4+  Ti19  1  0.83619663  0.66641223  0.08910673  1
  Ti4+  Ti20  1  0.16613786  0.33296472  0.42252712  1
  Ti4+  Ti21  1  0.16476512  0.83415616  0.42105580  1
  Ti4+  Ti22  1  0.66837192  0.33383674  0.42293591  1
  Ti4+  Ti23  1  0.66359120  0.83176442  0.41954037  1
  Cu+  Cu24  1  0.23471373  0.26188229  0.14151350  1
  Cu+  Cu25  1  0.91182284  0.31316685  0.81189516  1
  Cu+  Cu26  1  0.19281677  0.09413710  0.80913948  1
  Cu+  Cu27  1  0.02845162  0.76372370  0.14033425  1
  Cu+  Cu28  1  0.73390868  0.26234893  0.14296774  1
  Cu+  Cu29  1  0.68579990  0.08742881  0.81048904  1
  Cu+  Cu30  1  0.07076136  0.93200548  0.47220888  1
  Cu+  Cu31  1  0.57801896  0.64885909  0.47367869  1
  Cu+  Cu32  1  0.34709866  0.93073309  0.47684764  1
  Cu+  Cu33  1  0.86072488  0.42901581  0.47409541  1
  Cu+  Cu34  1  0.35003633  0.41901992  0.47632921  1
  Cu+  Cu35  1  0.57866463  0.93037129  0.47496812  1
  Cu+  Cu36  1  0.16255206  0.08593699  0.17068691  1
  Cu+  Cu37  1  0.16424047  0.58118020  0.17059254  1
  Cu+  Cu38  1  0.66329144  0.08729587  0.17376310  1
  Cu+  Cu39  1  0.66329331  0.58249060  0.17209560  1
  Cu+  Cu40  1  0.41001342  0.33477796  0.17137222  1
  Cu+  Cu41  1  0.41824272  0.83458601  0.17510977  1
  Cu+  Cu42  1  0.90971222  0.33490461  0.17110587  1
  Cu+  Cu43  1  0.92373445  0.83430680  0.17119345  1
  Cu+  Cu44  1  0.41614943  0.08036042  0.17372855  1
  Cu+  Cu45  1  0.41714359  0.58016624  0.17225470  1
  Cu+  Cu46  1  0.91692146  0.08155981  0.17182015  1
  Cu+  Cu47  1  0.92093462  0.58467662  0.16925290  1
  Cu+  Cu48  1  0.49774140  0.24950475  0.50445957  1
  Cu+  Cu49  1  0.49591303  0.74861877  0.49727367  1
  Cu+  Cu50  1  0.99697301  0.25234815  0.50570221  1
  Cu+  Cu51  1  0.99539169  0.75478189  0.49968295  1
  Cu+  Cu52  1  0.24569517  0.00298822  0.50490838  1
  Cu+  Cu53  1  0.25534729  0.50253306  0.50076605  1
  Cu+  Cu54  1  0.74967780  0.00398464  0.50444707  1
  Cu+  Cu55  1  0.75683341  0.50159402  0.50126057  1
  Cu+  Cu56  1  0.25045394  0.24740457  0.50513831  1
  Cu+  Cu57  1  0.25510677  0.75246977  0.50013487  1
  Cu+  Cu58  1  0.75678802  0.25452788  0.50534066  1
  Cu+  Cu59  1  0.75074524  0.74637314  0.49980787  1
  Cu+  Cu60  1  0.33084104  0.41309181  0.83876182  1
  Cu+  Cu61  1  0.32934556  0.91225146  0.83739228  1
  Cu+  Cu62  1  0.82990228  0.40902619  0.83720063  1
  Cu+  Cu63  1  0.82959542  0.91260815  0.83739154  1
  Cu+  Cu64  1  0.09200926  0.16960716  0.83683875  1
  Cu+  Cu65  1  0.08425561  0.66945002  0.83851325  1
  Cu+  Cu66  1  0.58944417  0.16873101  0.83737721  1
  Cu+  Cu67  1  0.58423442  0.66850779  0.83875389  1
  Cu+  Cu68  1  0.08472037  0.41501106  0.83846607  1
  Cu+  Cu69  1  0.08906941  0.91892938  0.83867129  1
  Cu+  Cu70  1  0.58443164  0.41498643  0.84039332  1
  Cu+  Cu71  1  0.58642834  0.91449036  0.83745058  1
  Cu+  Cu72  1  0.16776198  0.08370848  0.68038771  1
  Cu+  Cu73  1  0.17092317  0.58722941  0.67077065  1
  Cu+  Cu74  1  0.66799140  0.08684729  0.68035382  1
  Cu+  Cu75  1  0.66845023  0.58377171  0.67282967  1
  Cu+  Cu76  1  0.41371465  0.33235899  0.67718177  1
  Cu+  Cu77  1  0.41754809  0.83378787  0.67377530  1
  Cu+  Cu78  1  0.91439801  0.33321051  0.68246077  1
  Cu+  Cu79  1  0.91478745  0.83236076  0.67357353  1
  Cu+  Cu80  1  0.41252593  0.08142860  0.67707489  1
  Cu+  Cu81  1  0.41709929  0.58404088  0.67429360  1
  Cu+  Cu82  1  0.91525138  0.08450460  0.67602139  1
  Cu+  Cu83  1  0.91678032  0.58554008  0.67251074  1
  Cu+  Cu84  1  0.00143250  0.24873520  0.00910803  1
  Cu+  Cu85  1  0.00634812  0.75201007  0.01136250  1
  Cu+  Cu86  1  0.50241426  0.24816517  0.00952395  1
  Cu+  Cu87  1  0.50270374  0.75026241  0.00804697  1
  Cu+  Cu88  1  0.25178314  0.49775117  0.00810142  1
  Cu+  Cu89  1  0.25017327  0.99933635  0.00978718  1
  Cu+  Cu90  1  0.75057004  0.49713077  0.00805041  1
  Cu+  Cu91  1  0.74713839  0.99560699  0.01000653  1
  Cu+  Cu92  1  0.24795082  0.24960233  0.01343142  1
  Cu+  Cu93  1  0.25062457  0.75022624  0.00837818  1
  Cu+  Cu94  1  0.74797307  0.24909040  0.01565944  1
  Cu+  Cu95  1  0.74818389  0.74981696  0.00774371  1
  Cu+  Cu96  1  0.33272480  0.41534811  0.34661405  1
  Cu+  Cu97  1  0.33653376  0.91802872  0.34702692  1
  Cu+  Cu98  1  0.83533718  0.41738063  0.34489611  1
  Cu+  Cu99  1  0.83499842  0.91678570  0.33929077  1
  Cu+  Cu100  1  0.08156308  0.16578269  0.34271576  1
  Cu+  Cu101  1  0.07917230  0.66433699  0.34053102  1
  Cu+  Cu102  1  0.58492748  0.16763899  0.34419350  1
  Cu+  Cu103  1  0.57882837  0.66161429  0.34462965  1
  Cu+  Cu104  1  0.07739346  0.41416412  0.33873037  1
  Cu+  Cu105  1  0.08070408  0.91834227  0.34415680  1
  Cu+  Cu106  1  0.57918665  0.41435617  0.33933945  1
  Cu+  Cu107  1  0.58216990  0.92010905  0.34561746  1
  Cu+  Cu108  1  -0.00543085  -0.00360910  0.11406660  1
  Cu+  Cu109  1  0.00306445  0.49832125  0.11273048  1
  Cu+  Cu110  1  0.49827769  -0.00429755  0.11866319  1
  Cu+  Cu111  1  0.50322954  0.49959951  0.11502805  1
  Cu+  Cu112  1  0.33490645  0.16706521  0.44730064  1
  Cu+  Cu113  1  0.32705102  0.66299573  0.44113875  1
  Cu+  Cu114  1  0.83407677  0.16523032  0.44902957  1
  Cu+  Cu115  1  0.83111561  0.66340117  0.44199981  1
  Cu+  Cu116  1  0.16701470  0.33691496  0.78039898  1
  Cu+  Cu117  1  0.16369257  0.83010388  0.78142898  1
  Cu+  Cu118  1  0.66386910  0.33623580  0.78220290  1
  Cu+  Cu119  1  0.66525710  0.82941463  0.78022851  1
  Te2-  Te120  1  -0.00279730  0.00179982  0.38777365  1
  Te2-  Te121  1  0.00236147  0.50132572  0.38725394  1
  Te2-  Te122  1  0.50179290  0.00482642  0.39309110  1
  Te2-  Te123  1  0.49924290  0.49599802  0.39070260  1
  Te2-  Te124  1  0.33513807  0.16810846  0.72230309  1
  Te2-  Te125  1  0.33512634  0.66801491  0.71574799  1
  Te2-  Te126  1  0.83440766  0.16625881  0.72524045  1
  Te2-  Te127  1  0.83343552  0.66702647  0.71680959  1
  Te2-  Te128  1  0.16520921  0.33440339  0.05527530  1
  Te2-  Te129  1  0.17266730  0.83544981  0.05610363  1
  Te2-  Te130  1  0.66545961  0.33460050  0.05606653  1
  Te2-  Te131  1  0.66634363  0.83125351  0.05460046  1
  Te2-  Te132  1  0.49836566  0.24538355  0.88339768  1
  Te2-  Te133  1  0.49456894  0.74756510  0.88186611  1
  Te2-  Te134  1  0.99665596  0.24237284  0.88281725  1
  Te2-  Te135  1  0.99693645  0.75030530  0.88384556  1
  Te2-  Te136  1  0.25906085  0.00800338  0.88391281  1
  Te2-  Te137  1  0.25221398  0.50277533  0.88226422  1
  Te2-  Te138  1  0.75678473  0.00594148  0.88411513  1
  Te2-  Te139  1  0.75414802  0.50130933  0.88216177  1
  Te2-  Te140  1  0.25869028  0.24688799  0.88634195  1
  Te2-  Te141  1  0.25198411  0.74615326  0.88280985  1
  Te2-  Te142  1  0.75685843  0.24163340  0.88728821  1
  Te2-  Te143  1  0.75225445  0.74606481  0.88218253  1
  Te2-  Te144  1  0.32167129  0.41381717  0.21935757  1
  Te2-  Te145  1  0.32934480  0.91424149  0.22014990  1
  Te2-  Te146  1  0.82263567  0.41702991  0.21734441  1
  Te2-  Te147  1  0.83170780  0.91257102  0.21360279  1
  Te2-  Te148  1  0.08303780  0.17501212  0.21733690  1
  Te2-  Te149  1  0.08909506  0.67330251  0.21540151  1
  Te2-  Te150  1  0.58277419  0.17584961  0.21903978  1
  Te2-  Te151  1  0.58399177  0.67003128  0.21803721  1
  Te2-  Te152  1  0.07917576  0.41200608  0.21316652  1
  Te2-  Te153  1  0.09335076  0.91806103  0.21712207  1
  Te2-  Te154  1  0.57943983  0.41234333  0.21364646  1
  Te2-  Te155  1  0.58809355  0.91898633  0.21859054  1
  Te2-  Te156  1  0.15567030  0.08127539  0.55226624  1
  Te2-  Te157  1  0.16716419  0.58387841  0.54467678  1
  Te2-  Te158  1  0.66113064  0.08600764  0.55202454  1
  Te2-  Te159  1  0.66221881  0.57623591  0.54651973  1
  Te2-  Te160  1  0.42076601  0.33840153  0.55152668  1
  Te2-  Te161  1  0.42370773  0.84550222  0.54765000  1
  Te2-  Te162  1  0.92420108  0.34455351  0.55479196  1
  Te2-  Te163  1  0.91590285  0.84282821  0.54750024  1
  Te2-  Te164  1  0.41849081  0.08197777  0.55083457  1
  Te2-  Te165  1  0.42433494  0.57973153  0.54771624  1
  Te2-  Te166  1  0.91663206  0.08349486  0.54984709  1
  Te2-  Te167  1  0.92652379  0.58680509  0.54628467  1
  Te2-  Te168  1  -0.00061254  -0.00068562  0.88268342  1
  Te2-  Te169  1  -0.00004568  0.49987317  0.88309768  1
  Te2-  Te170  1  0.49934686  -0.00198803  0.88221143  1
  Te2-  Te171  1  0.50024083  0.49959818  0.88328235  1
  Te2-  Te172  1  0.33181921  0.16603563  0.21759083  1
  Te2-  Te173  1  0.33200949  0.66463925  0.21678876  1
  Te2-  Te174  1  0.83293023  0.16632190  0.21786126  1
  Te2-  Te175  1  0.83212440  0.66522881  0.21623726  1
  Te2-  Te176  1  0.16669180  0.33501163  0.54991345  1
  Te2-  Te177  1  0.16482594  0.83113949  0.54862889  1
  Te2-  Te178  1  0.66625094  0.33416791  0.55026485  1
  Te2-  Te179  1  0.66544826  0.83220395  0.54743213  1
  Te2-  Te180  1  0.32694120  0.41473401  0.71185734  1
  Te2-  Te181  1  0.32746016  0.91233538  0.71143262  1
  Te2-  Te182  1  0.82497459  0.41648543  0.71052057  1
  Te2-  Te183  1  0.82841514  0.91483875  0.71116162  1
  Te2-  Te184  1  0.08540787  0.17474942  0.71014611  1
  Te2-  Te185  1  0.08579332  0.67035798  0.71111695  1
  Te2-  Te186  1  0.58344059  0.17475991  0.71053236  1
  Te2-  Te187  1  0.58661379  0.67114677  0.71097634  1
  Te2-  Te188  1  0.08921810  0.41763552  0.70989323  1
  Te2-  Te189  1  0.08410816  0.91070365  0.71084213  1
  Te2-  Te190  1  0.58482021  0.41412315  0.71175344  1
  Te2-  Te191  1  0.58704782  0.91319182  0.70965292  1
  Te2-  Te192  1  0.15818745  0.07705843  0.04429616  1
  Te2-  Te193  1  0.16304595  0.57985150  0.04364296  1
  Te2-  Te194  1  0.65792808  0.07608132  0.04635216  1
  Te2-  Te195  1  0.66394205  0.58045572  0.04497824  1
  Te2-  Te196  1  0.42142722  0.33853580  0.04411025  1
  Te2-  Te197  1  0.42007372  0.83748840  0.04712717  1
  Te2-  Te198  1  0.92151362  0.33884119  0.04369705  1
  Te2-  Te199  1  0.91907198  0.83813816  0.04336482  1
  Te2-  Te200  1  0.41892092  0.07988281  0.04765169  1
  Te2-  Te201  1  0.42092743  0.58002423  0.04558515  1
  Te2-  Te202  1  0.91708101  0.07985693  0.04561540  1
  Te2-  Te203  1  0.92072153  0.57846154  0.04259014  1
  Te2-  Te204  1  0.49471808  0.24707009  0.37854586  1
  Te2-  Te205  1  0.48966955  0.74591551  0.37127425  1
  Te2-  Te206  1  0.99332256  0.24714535  0.37901527  1
  Te2-  Te207  1  0.99171920  0.74590578  0.37357475  1
  Te2-  Te208  1  0.25352100  0.00850375  0.37656043  1
  Te2-  Te209  1  0.24774221  0.50400926  0.37361805  1
  Te2-  Te210  1  0.75488221  0.00614392  0.37673890  1
  Te2-  Te211  1  0.74924892  0.50471136  0.37395059  1
  Te2-  Te212  1  0.25062291  0.24330588  0.37801059  1
  Te2-  Te213  1  0.24913832  0.74527341  0.37382921  1
  Te2-  Te214  1  0.75425948  0.24572963  0.37832959  1
  Te2-  Te215  1  0.75226195  0.74696564  0.37333500  1
