# generated using pymatgen
data_Ti(CuTe)4
_symmetry_space_group_name_H-M   'P 1'
_cell_length_a   16.89034018
_cell_length_b   16.88575287
_cell_length_c   20.70782687
_cell_angle_alpha   90.01474655
_cell_angle_beta   89.92509903
_cell_angle_gamma   119.98746507
_symmetry_Int_Tables_number   1
_chemical_formula_structural   Ti(CuTe)4
_chemical_formula_sum   'Ti24 Cu96 Te96'
_cell_volume   5115.38597077
_cell_formula_units_Z   24
loop_
 _symmetry_equiv_pos_site_id
 _symmetry_equiv_pos_as_xyz
  1  'x, y, z'
loop_
 _atom_type_symbol
 _atom_type_oxidation_number
  Ti4+  4.0
  Cu+  1.0
  Te2-  -2.0
loop_
 _atom_site_type_symbol
 _atom_site_label
 _atom_site_symmetry_multiplicity
 _atom_site_fract_x
 _atom_site_fract_y
 _atom_site_fract_z
 _atom_site_occupancy
  Ti4+  Ti0  1  -0.00134644  -0.00134984  0.25935550  1
  Ti4+  Ti1  1  -0.00111980  0.49879702  0.26007260  1
  Ti4+  Ti2  1  0.50219246  -0.00105497  0.25835016  1
  Ti4+  Ti3  1  0.49959398  0.49700711  0.25498372  1
  Ti4+  Ti4  1  0.33523522  0.16834517  0.58775366  1
  Ti4+  Ti5  1  0.33692151  0.67179347  0.58935393  1
  Ti4+  Ti6  1  0.83539060  0.16913142  0.59372435  1
  Ti4+  Ti7  1  0.83525040  0.66888186  0.59322754  1
  Ti4+  Ti8  1  0.16306931  0.33353630  0.91988908  1
  Ti4+  Ti9  1  0.16645433  0.83178634  0.92309416  1
  Ti4+  Ti10  1  0.66587005  0.33351957  0.92464908  1
  Ti4+  Ti11  1  0.66814253  0.83198395  0.92737742  1
  Ti4+  Ti12  1  -0.00088835  0.00039600  0.75430329  1
  Ti4+  Ti13  1  0.00170423  0.50187442  0.75299462  1
  Ti4+  Ti14  1  0.50004882  0.00111399  0.75720521  1
  Ti4+  Ti15  1  0.49981653  0.50075136  0.75404206  1
  Ti4+  Ti16  1  0.33310916  0.16661500  0.08757823  1
  Ti4+  Ti17  1  0.33175376  0.66543087  0.08865340  1
  Ti4+  Ti18  1  0.83191104  0.16503656  0.09036284  1
  Ti4+  Ti19  1  0.83178233  0.66553502  0.08975388  1
  Ti4+  Ti20  1  0.16550014  0.33275664  0.42155081  1
  Ti4+  Ti21  1  0.16725055  0.83390573  0.42048010  1
  Ti4+  Ti22  1  0.66692264  0.33303189  0.42308160  1
  Ti4+  Ti23  1  0.66662541  0.83207408  0.42404607  1
  Cu+  Cu24  1  0.90685416  0.32218409  0.81200369  1
  Cu+  Cu25  1  0.85665065  0.92897886  0.47708071  1
  Cu+  Cu26  1  0.85725226  0.43063498  0.47652760  1
  Cu+  Cu27  1  0.51614887  0.75422166  0.14440581  1
  Cu+  Cu28  1  0.58225511  0.92880919  0.48029633  1
  Cu+  Cu29  1  0.74456033  0.98075225  0.14639162  1
  Cu+  Cu30  1  0.68430457  0.58842686  0.80803173  1
  Cu+  Cu31  1  0.90286952  0.08590795  0.81052375  1
  Cu+  Cu32  1  0.19043538  0.59647111  0.80320928  1
  Cu+  Cu33  1  0.91191094  0.81877259  0.81216036  1
  Cu+  Cu34  1  0.52275882  0.25837455  0.14055429  1
  Cu+  Cu35  1  0.35325375  0.93105140  0.47261551  1
  Cu+  Cu36  1  0.16307097  0.08254699  0.17153572  1
  Cu+  Cu37  1  0.16066899  0.57931965  0.17295275  1
  Cu+  Cu38  1  0.66254912  0.07464131  0.17061062  1
  Cu+  Cu39  1  0.66118945  0.57870285  0.16908813  1
  Cu+  Cu40  1  0.42163482  0.33412655  0.16777945  1
  Cu+  Cu41  1  0.42074762  0.83349388  0.17133212  1
  Cu+  Cu42  1  0.91601121  0.33607825  0.17431746  1
  Cu+  Cu43  1  0.91630852  0.83471579  0.17278577  1
  Cu+  Cu44  1  0.42090206  0.08505732  0.17138373  1
  Cu+  Cu45  1  0.41885236  0.58185218  0.16962911  1
  Cu+  Cu46  1  0.91543306  0.07719568  0.17352530  1
  Cu+  Cu47  1  0.91505587  0.57968727  0.17407108  1
  Cu+  Cu48  1  0.49557353  0.24821366  0.50192101  1
  Cu+  Cu49  1  0.49583553  0.75302240  0.50266345  1
  Cu+  Cu50  1  0.99731811  0.24948184  0.50577942  1
  Cu+  Cu51  1  0.99625190  0.75173319  0.50382880  1
  Cu+  Cu52  1  0.25626929  0.00532050  0.50128711  1
  Cu+  Cu53  1  0.25196355  0.50357785  0.50399062  1
  Cu+  Cu54  1  0.75515218  0.00347297  0.50723442  1
  Cu+  Cu55  1  0.75305583  0.50214842  0.50658315  1
  Cu+  Cu56  1  0.25257623  0.25036184  0.50297787  1
  Cu+  Cu57  1  0.25714624  0.75584822  0.50175850  1
  Cu+  Cu58  1  0.75586558  0.25521083  0.50599385  1
  Cu+  Cu59  1  0.75576897  0.75313634  0.50697002  1
  Cu+  Cu60  1  0.32691366  0.41426952  0.83320014  1
  Cu+  Cu61  1  0.32994244  0.91469334  0.83803921  1
  Cu+  Cu62  1  0.82540420  0.41270245  0.83592781  1
  Cu+  Cu63  1  0.82741926  0.91228268  0.83757773  1
  Cu+  Cu64  1  0.07818559  0.17022248  0.83320580  1
  Cu+  Cu65  1  0.08986388  0.67064709  0.83461686  1
  Cu+  Cu66  1  0.58235011  0.16862335  0.83911673  1
  Cu+  Cu67  1  0.58701146  0.66656841  0.83799704  1
  Cu+  Cu68  1  0.08505213  0.41631963  0.83190365  1
  Cu+  Cu69  1  0.08336629  0.91193080  0.83666654  1
  Cu+  Cu70  1  0.58504313  0.41707484  0.83805709  1
  Cu+  Cu71  1  0.58438543  0.91609852  0.84143282  1
  Cu+  Cu72  1  0.17246498  0.08639064  0.67000134  1
  Cu+  Cu73  1  0.17352376  0.59011702  0.67527880  1
  Cu+  Cu74  1  0.66918185  0.08620160  0.67755941  1
  Cu+  Cu75  1  0.67098314  0.58672855  0.67925056  1
  Cu+  Cu76  1  0.41562178  0.33162092  0.67107974  1
  Cu+  Cu77  1  0.41841236  0.83612403  0.67611067  1
  Cu+  Cu78  1  0.91696893  0.33382141  0.68158159  1
  Cu+  Cu79  1  0.91483421  0.83269234  0.68203744  1
  Cu+  Cu80  1  0.41547513  0.08489362  0.67395634  1
  Cu+  Cu81  1  0.41642170  0.58632304  0.67219181  1
  Cu+  Cu82  1  0.91537507  0.08544237  0.68113107  1
  Cu+  Cu83  1  0.91680067  0.58541873  0.67581084  1
  Cu+  Cu84  1  -0.00106526  0.25135346  0.00765015  1
  Cu+  Cu85  1  0.00230699  0.75004265  0.00831157  1
  Cu+  Cu86  1  0.50245849  0.25161565  0.01115028  1
  Cu+  Cu87  1  0.50266451  0.75110035  0.01382292  1
  Cu+  Cu88  1  0.24441919  0.49786075  0.00527060  1
  Cu+  Cu89  1  0.24644065  0.99640296  0.00674877  1
  Cu+  Cu90  1  0.74812664  0.49809254  0.00940591  1
  Cu+  Cu91  1  0.74931530  0.99691835  0.01645169  1
  Cu+  Cu92  1  0.24441896  0.24967374  0.00338076  1
  Cu+  Cu93  1  0.24649521  0.74863914  0.00857258  1
  Cu+  Cu94  1  0.74844054  0.25005218  0.01023841  1
  Cu+  Cu95  1  0.75080297  0.74983687  0.01126847  1
  Cu+  Cu96  1  0.33508005  0.41686585  0.33695162  1
  Cu+  Cu97  1  0.33716187  0.91725660  0.34375674  1
  Cu+  Cu98  1  0.83715401  0.41912356  0.34783505  1
  Cu+  Cu99  1  0.83606689  0.91560238  0.34851037  1
  Cu+  Cu100  1  0.07881235  0.16308961  0.34224908  1
  Cu+  Cu101  1  0.07918827  0.66307806  0.34251628  1
  Cu+  Cu102  1  0.58381747  0.16524775  0.34207561  1
  Cu+  Cu103  1  0.58080479  0.66032460  0.34158458  1
  Cu+  Cu104  1  0.07979917  0.41564200  0.34261097  1
  Cu+  Cu105  1  0.08045253  0.91601792  0.34135564  1
  Cu+  Cu106  1  0.58135354  0.41488516  0.34021047  1
  Cu+  Cu107  1  0.58205289  0.91421609  0.34972195  1
  Cu+  Cu108  1  0.00228148  -0.00051099  0.11614059  1
  Cu+  Cu109  1  -0.00253832  0.49946545  0.11790688  1
  Cu+  Cu110  1  0.49437939  -0.00296961  0.11504979  1
  Cu+  Cu111  1  0.49340503  0.49589286  0.11082473  1
  Cu+  Cu112  1  0.33099054  0.16795322  0.44355493  1
  Cu+  Cu113  1  0.32864413  0.66234027  0.44562267  1
  Cu+  Cu114  1  0.83213003  0.16763660  0.45074003  1
  Cu+  Cu115  1  0.83004088  0.66433941  0.45011527  1
  Cu+  Cu116  1  0.16877492  0.33274881  0.77381391  1
  Cu+  Cu117  1  0.16894058  0.83705810  0.77878670  1
  Cu+  Cu118  1  0.66032183  0.33082171  0.78143913  1
  Cu+  Cu119  1  0.65765270  0.82941793  0.78470459  1
  Te2-  Te120  1  0.00264894  0.00059311  0.39038303  1
  Te2-  Te121  1  0.00306537  0.50117904  0.39148535  1
  Te2-  Te122  1  0.50290686  0.00233345  0.38993555  1
  Te2-  Te123  1  0.49776677  0.49568974  0.38397507  1
  Te2-  Te124  1  0.33457712  0.16854196  0.71710340  1
  Te2-  Te125  1  0.33909252  0.67147559  0.71973218  1
  Te2-  Te126  1  0.83173883  0.16769261  0.72554360  1
  Te2-  Te127  1  0.83600371  0.66667197  0.72530218  1
  Te2-  Te128  1  0.16438060  0.33323470  0.04851304  1
  Te2-  Te129  1  0.16649165  0.83295525  0.05211545  1
  Te2-  Te130  1  0.66835791  0.33416323  0.05492601  1
  Te2-  Te131  1  0.66812794  0.83043454  0.05925593  1
  Te2-  Te132  1  0.49547949  0.24954508  0.88353482  1
  Te2-  Te133  1  0.49934898  0.74710097  0.88527303  1
  Te2-  Te134  1  0.98578085  0.24539332  0.88180128  1
  Te2-  Te135  1  0.99283918  0.74091619  0.88231227  1
  Te2-  Te136  1  0.24992616  0.00330556  0.88085219  1
  Te2-  Te137  1  0.25264003  0.50697468  0.87946535  1
  Te2-  Te138  1  0.75172256  0.00473479  0.88815041  1
  Te2-  Te139  1  0.75563805  0.50718005  0.88356213  1
  Te2-  Te140  1  0.24590899  0.24591491  0.87726080  1
  Te2-  Te141  1  0.25649285  0.74712639  0.88275142  1
  Te2-  Te142  1  0.74974344  0.24362383  0.88425283  1
  Te2-  Te143  1  0.75601079  0.74421116  0.88501296  1
  Te2-  Te144  1  0.32990196  0.41253619  0.21083293  1
  Te2-  Te145  1  0.33367655  0.91544284  0.21591989  1
  Te2-  Te146  1  0.82645272  0.41301536  0.22090646  1
  Te2-  Te147  1  0.82411624  0.90785624  0.22126199  1
  Te2-  Te148  1  0.08255862  0.16968343  0.21642192  1
  Te2-  Te149  1  0.08356353  0.67009810  0.21698035  1
  Te2-  Te150  1  0.59115153  0.17092900  0.21600875  1
  Te2-  Te151  1  0.58902669  0.67196585  0.21614439  1
  Te2-  Te152  1  0.08374342  0.41190256  0.21725608  1
  Te2-  Te153  1  0.08467159  0.91406620  0.21561024  1
  Te2-  Te154  1  0.58990036  0.41253725  0.21473359  1
  Te2-  Te155  1  0.58866750  0.90822115  0.22110520  1
  Te2-  Te156  1  0.16406819  0.08097055  0.54453150  1
  Te2-  Te157  1  0.16676576  0.58778491  0.54789656  1
  Te2-  Te158  1  0.66419077  0.08581755  0.55103726  1
  Te2-  Te159  1  0.66577092  0.58407877  0.55169935  1
  Te2-  Te160  1  0.42081932  0.34046117  0.54585242  1
  Te2-  Te161  1  0.42475111  0.84941309  0.55032756  1
  Te2-  Te162  1  0.92374805  0.34231242  0.55358047  1
  Te2-  Te163  1  0.92350214  0.84336650  0.55438390  1
  Te2-  Te164  1  0.42524009  0.08279896  0.54851454  1
  Te2-  Te165  1  0.42123471  0.58558710  0.54654181  1
  Te2-  Te166  1  0.92297744  0.08324412  0.55368922  1
  Te2-  Te167  1  0.92399024  0.58485809  0.55012346  1
  Te2-  Te168  1  0.00009139  0.00010007  0.88172005  1
  Te2-  Te169  1  -0.00244991  0.49931005  0.88026535  1
  Te2-  Te170  1  0.49826826  -0.00026858  0.88360044  1
  Te2-  Te171  1  0.49437565  0.49673128  0.88091305  1
  Te2-  Te172  1  0.33223465  0.16621689  0.21457506  1
  Te2-  Te173  1  0.33108170  0.66350240  0.21562281  1
  Te2-  Te174  1  0.83222566  0.16530137  0.21716606  1
  Te2-  Te175  1  0.83029251  0.66457856  0.21605443  1
  Te2-  Te176  1  0.16818563  0.33496308  0.54771842  1
  Te2-  Te177  1  0.16719048  0.83574458  0.54728381  1
  Te2-  Te178  1  0.66391688  0.33274789  0.54997534  1
  Te2-  Te179  1  0.66490979  0.83216699  0.55154230  1
  Te2-  Te180  1  0.32966908  0.41590651  0.70688705  1
  Te2-  Te181  1  0.32925013  0.91621445  0.71162524  1
  Te2-  Te182  1  0.82587930  0.41567994  0.70978019  1
  Te2-  Te183  1  0.82279221  0.91322942  0.71093796  1
  Te2-  Te184  1  0.08894044  0.17255730  0.70690367  1
  Te2-  Te185  1  0.08746606  0.67608772  0.70839061  1
  Te2-  Te186  1  0.58485573  0.17227763  0.71242917  1
  Te2-  Te187  1  0.58561053  0.67415379  0.71052906  1
  Te2-  Te188  1  0.09069349  0.41709218  0.70539394  1
  Te2-  Te189  1  0.08876947  0.91718902  0.70921731  1
  Te2-  Te190  1  0.58513260  0.41352445  0.70995873  1
  Te2-  Te191  1  0.58748950  0.91637025  0.71398959  1
  Te2-  Te192  1  0.16138543  0.08114591  0.04428116  1
  Te2-  Te193  1  0.15902486  0.57977290  0.04634942  1
  Te2-  Te194  1  0.65845200  0.07955433  0.04471235  1
  Te2-  Te195  1  0.65928339  0.57909085  0.04395531  1
  Te2-  Te196  1  0.41480415  0.33737705  0.04028109  1
  Te2-  Te197  1  0.41718374  0.83844076  0.04406701  1
  Te2-  Te198  1  0.91743116  0.33806806  0.04762497  1
  Te2-  Te199  1  0.92059223  0.83823445  0.04632649  1
  Te2-  Te200  1  0.41721987  0.07857492  0.04333760  1
  Te2-  Te201  1  0.41504532  0.57736940  0.04168304  1
  Te2-  Te202  1  0.92201066  0.08186698  0.04587705  1
  Te2-  Te203  1  0.91808566  0.57992880  0.04689791  1
  Te2-  Te204  1  0.49497069  0.24593909  0.37651333  1
  Te2-  Te205  1  0.49314420  0.74204974  0.37704315  1
  Te2-  Te206  1  0.99251424  0.24610480  0.37976734  1
  Te2-  Te207  1  0.99323874  0.74692588  0.37856759  1
  Te2-  Te208  1  0.25248935  0.00600407  0.37385409  1
  Te2-  Te209  1  0.25151301  0.50303405  0.37638253  1
  Te2-  Te210  1  0.75434669  0.00664397  0.37927105  1
  Te2-  Te211  1  0.75055377  0.50537189  0.37896110  1
  Te2-  Te212  1  0.25048186  0.24749427  0.37584234  1
  Te2-  Te213  1  0.25105306  0.74473373  0.37514079  1
  Te2-  Te214  1  0.75309484  0.24592731  0.37881946  1
  Te2-  Te215  1  0.75035924  0.74289382  0.37968659  1
