# generated using pymatgen
data_Ti(CuTe)4
_symmetry_space_group_name_H-M   'P 1'
_cell_length_a   16.85415875
_cell_length_b   16.85680657
_cell_length_c   20.65737954
_cell_angle_alpha   89.99197070
_cell_angle_beta   90.02106396
_cell_angle_gamma   120.00252138
_symmetry_Int_Tables_number   1
_chemical_formula_structural   Ti(CuTe)4
_chemical_formula_sum   'Ti24 Cu96 Te96'
_cell_volume   5082.49757305
_cell_formula_units_Z   24
loop_
 _symmetry_equiv_pos_site_id
 _symmetry_equiv_pos_as_xyz
  1  'x, y, z'
loop_
 _atom_type_symbol
 _atom_type_oxidation_number
  Ti4+  4.0
  Cu+  1.0
  Te2-  -2.0
loop_
 _atom_site_type_symbol
 _atom_site_label
 _atom_site_symmetry_multiplicity
 _atom_site_fract_x
 _atom_site_fract_y
 _atom_site_fract_z
 _atom_site_occupancy
  Ti4+  Ti0  1  0.00275011  0.00369193  0.25831817  1
  Ti4+  Ti1  1  0.00187186  0.50037910  0.25945461  1
  Ti4+  Ti2  1  0.50088519  -0.00062294  0.25527616  1
  Ti4+  Ti3  1  0.50172675  0.50135439  0.26310496  1
  Ti4+  Ti4  1  0.32972455  0.16558992  0.58740345  1
  Ti4+  Ti5  1  0.33567053  0.66777063  0.58993606  1
  Ti4+  Ti6  1  0.83059320  0.16544565  0.58846946  1
  Ti4+  Ti7  1  0.83624551  0.66402660  0.59073072  1
  Ti4+  Ti8  1  0.16618363  0.33540334  0.92739455  1
  Ti4+  Ti9  1  0.16329433  0.83237994  0.92399857  1
  Ti4+  Ti10  1  0.66478590  0.33254547  0.92556452  1
  Ti4+  Ti11  1  0.66430109  0.83147877  0.92452595  1
  Ti4+  Ti12  1  -0.00010950  -0.00184979  0.75596774  1
  Ti4+  Ti13  1  -0.00009119  0.49988110  0.75545036  1
  Ti4+  Ti14  1  0.50041887  0.00024699  0.75456001  1
  Ti4+  Ti15  1  0.49998231  0.50175704  0.75586314  1
  Ti4+  Ti16  1  0.33243837  0.16653629  0.08980448  1
  Ti4+  Ti17  1  0.33310941  0.66730940  0.09134709  1
  Ti4+  Ti18  1  0.83532069  0.16741307  0.08897936  1
  Ti4+  Ti19  1  0.83192572  0.66575347  0.09386382  1
  Ti4+  Ti20  1  0.16817451  0.33263681  0.41949034  1
  Ti4+  Ti21  1  0.16651518  0.83287853  0.42130046  1
  Ti4+  Ti22  1  0.66950955  0.33432539  0.41912327  1
  Ti4+  Ti23  1  0.66721569  0.83539573  0.42091878  1
  Cu+  Cu24  1  0.06641815  0.91674218  0.47443849  1
  Cu+  Cu25  1  0.90353351  0.58680721  0.81249581  1
  Cu+  Cu26  1  0.02831679  0.26559956  0.14221334  1
  Cu+  Cu27  1  0.85401192  0.42262178  0.47360667  1
  Cu+  Cu28  1  0.90165114  0.81225161  0.80991320  1
  Cu+  Cu29  1  0.07788525  0.64822728  0.47661319  1
  Cu+  Cu30  1  0.07058188  0.14936203  0.47513591  1
  Cu+  Cu31  1  0.58037706  0.65896465  0.48194093  1
  Cu+  Cu32  1  0.58239157  0.42268380  0.48011649  1
  Cu+  Cu33  1  0.40110705  0.59550066  0.80923133  1
  Cu+  Cu34  1  0.56763107  0.92857305  0.47006055  1
  Cu+  Cu35  1  0.34416120  0.42031347  0.48002370  1
  Cu+  Cu36  1  0.16426662  0.08262256  0.17203020  1
  Cu+  Cu37  1  0.16516897  0.58676311  0.17353367  1
  Cu+  Cu38  1  0.66303435  0.07867088  0.17003733  1
  Cu+  Cu39  1  0.66449299  0.58254724  0.17806594  1
  Cu+  Cu40  1  0.41841333  0.33533678  0.17602843  1
  Cu+  Cu41  1  0.42106248  0.83652295  0.17130781  1
  Cu+  Cu42  1  0.92253648  0.33526534  0.17232586  1
  Cu+  Cu43  1  0.91992518  0.83541399  0.17489457  1
  Cu+  Cu44  1  0.41764566  0.08182715  0.17003564  1
  Cu+  Cu45  1  0.41981995  0.58409961  0.17701208  1
  Cu+  Cu46  1  0.92550824  0.08984084  0.17083467  1
  Cu+  Cu47  1  0.91762949  0.58198428  0.17652261  1
  Cu+  Cu48  1  0.49589479  0.24713489  0.49921675  1
  Cu+  Cu49  1  0.49850953  0.75270338  0.50195766  1
  Cu+  Cu50  1  0.99483689  0.24571669  0.49988841  1
  Cu+  Cu51  1  0.99722909  0.74437254  0.50351542  1
  Cu+  Cu52  1  0.24446107  0.00196815  0.49940464  1
  Cu+  Cu53  1  0.25556246  0.50521573  0.50085090  1
  Cu+  Cu54  1  0.74419129  0.00287590  0.49944618  1
  Cu+  Cu55  1  0.75830657  0.50346389  0.49987420  1
  Cu+  Cu56  1  0.24948840  0.24377229  0.49829861  1
  Cu+  Cu57  1  0.25095439  0.74611844  0.50148645  1
  Cu+  Cu58  1  0.75399721  0.24908957  0.49915995  1
  Cu+  Cu59  1  0.75472300  0.74956773  0.50114561  1
  Cu+  Cu60  1  0.33041968  0.42134124  0.83976091  1
  Cu+  Cu61  1  0.33095605  0.91662676  0.83734255  1
  Cu+  Cu62  1  0.82685058  0.41435137  0.83827537  1
  Cu+  Cu63  1  0.82977517  0.91260264  0.83840356  1
  Cu+  Cu64  1  0.08250605  0.16969522  0.84062993  1
  Cu+  Cu65  1  0.08120549  0.67072519  0.83561809  1
  Cu+  Cu66  1  0.58158352  0.16848838  0.83783000  1
  Cu+  Cu67  1  0.57962753  0.67074872  0.83586583  1
  Cu+  Cu68  1  0.08324604  0.41312913  0.83946574  1
  Cu+  Cu69  1  0.08015586  0.90963520  0.83579532  1
  Cu+  Cu70  1  0.58340647  0.41349927  0.83757643  1
  Cu+  Cu71  1  0.58354734  0.91414612  0.83677415  1
  Cu+  Cu72  1  0.16659718  0.08606516  0.67519266  1
  Cu+  Cu73  1  0.16931752  0.58076979  0.67584927  1
  Cu+  Cu74  1  0.66758678  0.08446879  0.67287140  1
  Cu+  Cu75  1  0.66790174  0.58126230  0.67570167  1
  Cu+  Cu76  1  0.41585590  0.33295289  0.67482821  1
  Cu+  Cu77  1  0.41821512  0.83291830  0.67420850  1
  Cu+  Cu78  1  0.91707992  0.33094379  0.67472490  1
  Cu+  Cu79  1  0.91792237  0.82957361  0.68100729  1
  Cu+  Cu80  1  0.41437907  0.08494572  0.67003873  1
  Cu+  Cu81  1  0.41860477  0.58639309  0.68038673  1
  Cu+  Cu82  1  0.91605716  0.08440570  0.67298786  1
  Cu+  Cu83  1  0.91857811  0.58351546  0.68202240  1
  Cu+  Cu84  1  0.00521309  0.25366792  0.01411855  1
  Cu+  Cu85  1  -0.00100347  0.74887509  0.01189705  1
  Cu+  Cu86  1  0.50170720  0.25190498  0.00862444  1
  Cu+  Cu87  1  0.50044084  0.74884341  0.00966100  1
  Cu+  Cu88  1  0.24953364  0.50060085  0.01277992  1
  Cu+  Cu89  1  0.24520349  0.99689182  0.00646147  1
  Cu+  Cu90  1  0.74774290  0.49751664  0.01162219  1
  Cu+  Cu91  1  0.74851249  0.99594686  0.00762932  1
  Cu+  Cu92  1  0.24965917  0.25129787  0.00955191  1
  Cu+  Cu93  1  0.24716707  0.75155808  0.00700824  1
  Cu+  Cu94  1  0.74696557  0.25023707  0.00814690  1
  Cu+  Cu95  1  0.74681523  0.74841910  0.01029013  1
  Cu+  Cu96  1  0.33825245  0.41972702  0.34830875  1
  Cu+  Cu97  1  0.33587345  0.91668951  0.33709744  1
  Cu+  Cu98  1  0.83960339  0.41803630  0.34468083  1
  Cu+  Cu99  1  0.83585888  0.92003674  0.33802795  1
  Cu+  Cu100  1  0.08303510  0.16440569  0.34589401  1
  Cu+  Cu101  1  0.08197039  0.66358162  0.34706715  1
  Cu+  Cu102  1  0.58380625  0.16439618  0.33631010  1
  Cu+  Cu103  1  0.58550050  0.66629701  0.34955651  1
  Cu+  Cu104  1  0.08516184  0.41763566  0.34107105  1
  Cu+  Cu105  1  0.08268134  0.92059655  0.34556076  1
  Cu+  Cu106  1  0.58398686  0.41951183  0.34878054  1
  Cu+  Cu107  1  0.58153974  0.92102282  0.34247467  1
  Cu+  Cu108  1  -0.00294211  -0.00350826  0.11638968  1
  Cu+  Cu109  1  -0.00161424  0.50005539  0.11803044  1
  Cu+  Cu110  1  0.49696621  -0.00003435  0.11296233  1
  Cu+  Cu111  1  0.49865813  0.49865573  0.12230687  1
  Cu+  Cu112  1  0.33610664  0.16350488  0.44089227  1
  Cu+  Cu113  1  0.33558108  0.66994450  0.44349960  1
  Cu+  Cu114  1  0.83330495  0.16544490  0.44187257  1
  Cu+  Cu115  1  0.83433588  0.66785801  0.44373330  1
  Cu+  Cu116  1  0.16818329  0.33070220  0.78443059  1
  Cu+  Cu117  1  0.17298035  0.83616239  0.77902736  1
  Cu+  Cu118  1  0.66426254  0.32831180  0.78058369  1
  Cu+  Cu119  1  0.66906813  0.83804317  0.77902024  1
  Te2-  Te120  1  -0.00425990  -0.00130931  0.39119368  1
  Te2-  Te121  1  0.00436623  0.49819204  0.39218917  1
  Te2-  Te122  1  0.49742150  0.00317804  0.38668223  1
  Te2-  Te123  1  0.50240175  0.50193894  0.39748211  1
  Te2-  Te124  1  0.33263255  0.16704457  0.71597831  1
  Te2-  Te125  1  0.33357535  0.66922147  0.72007286  1
  Te2-  Te126  1  0.83228062  0.16539099  0.71727489  1
  Te2-  Te127  1  0.83095904  0.66277814  0.72240170  1
  Te2-  Te128  1  0.17200151  0.33635448  0.05802620  1
  Te2-  Te129  1  0.16503210  0.83332928  0.05289734  1
  Te2-  Te130  1  0.66544655  0.33221210  0.05489148  1
  Te2-  Te131  1  0.66530946  0.83218028  0.05361590  1
  Te2-  Te132  1  0.49288213  0.24734441  0.88289930  1
  Te2-  Te133  1  0.48968634  0.74792033  0.88380304  1
  Te2-  Te134  1  0.99373244  0.24773095  0.88748631  1
  Te2-  Te135  1  0.98519172  0.74237828  0.88499850  1
  Te2-  Te136  1  0.24777709  0.00276187  0.88048140  1
  Te2-  Te137  1  0.24963125  0.50948863  0.88627889  1
  Te2-  Te138  1  0.75185769  0.00251021  0.88148706  1
  Te2-  Te139  1  0.74918595  0.50707854  0.88517973  1
  Te2-  Te140  1  0.25261937  0.25189687  0.88300385  1
  Te2-  Te141  1  0.24863092  0.74729713  0.88088232  1
  Te2-  Te142  1  0.75057983  0.24728337  0.88186955  1
  Te2-  Te143  1  0.74699326  0.74104498  0.88348035  1
  Te2-  Te144  1  0.33106677  0.41596857  0.22123299  1
  Te2-  Te145  1  0.32912978  0.91346752  0.21220466  1
  Te2-  Te146  1  0.83107373  0.41191639  0.21799717  1
  Te2-  Te147  1  0.83330950  0.92018702  0.21279603  1
  Te2-  Te148  1  0.09299782  0.17774729  0.21909435  1
  Te2-  Te149  1  0.08550235  0.67278180  0.22075382  1
  Te2-  Te150  1  0.58664325  0.17070823  0.21138764  1
  Te2-  Te151  1  0.58723279  0.67270995  0.22261000  1
  Te2-  Te152  1  0.09272624  0.41868005  0.21618803  1
  Te2-  Te153  1  0.08737550  0.91620047  0.21917225  1
  Te2-  Te154  1  0.58613502  0.41477263  0.22177472  1
  Te2-  Te155  1  0.58793914  0.91294962  0.21662114  1
  Te2-  Te156  1  0.15269289  0.07726058  0.54886696  1
  Te2-  Te157  1  0.16249584  0.57634332  0.54971464  1
  Te2-  Te158  1  0.65682533  0.08336916  0.54666468  1
  Te2-  Te159  1  0.66244282  0.57907728  0.54970048  1
  Te2-  Te160  1  0.42072781  0.34131636  0.54880821  1
  Te2-  Te161  1  0.41738454  0.84032704  0.54804094  1
  Te2-  Te162  1  0.92347443  0.33909901  0.54834295  1
  Te2-  Te163  1  0.91809273  0.83666836  0.55262260  1
  Te2-  Te164  1  0.41389368  0.07986778  0.54389536  1
  Te2-  Te165  1  0.42375770  0.58060535  0.55194154  1
  Te2-  Te166  1  0.91289280  0.07521811  0.54678268  1
  Te2-  Te167  1  0.92350600  0.57616198  0.55266170  1
  Te2-  Te168  1  -0.00001199  -0.00075008  0.88296211  1
  Te2-  Te169  1  -0.00155834  0.50020371  0.88229889  1
  Te2-  Te170  1  0.49937681  -0.00051158  0.88090332  1
  Te2-  Te171  1  0.50047599  0.50082017  0.88263852  1
  Te2-  Te172  1  0.33381612  0.16513618  0.21629164  1
  Te2-  Te173  1  0.33439474  0.66899507  0.21775765  1
  Te2-  Te174  1  0.83245271  0.16555634  0.21591637  1
  Te2-  Te175  1  0.83439918  0.66772997  0.22025974  1
  Te2-  Te176  1  0.16666644  0.33242874  0.54735850  1
  Te2-  Te177  1  0.16850762  0.83361700  0.54904071  1
  Te2-  Te178  1  0.66588253  0.33176105  0.54722510  1
  Te2-  Te179  1  0.66899105  0.83413969  0.54898722  1
  Te2-  Te180  1  0.32675095  0.41330493  0.71140636  1
  Te2-  Te181  1  0.32972751  0.91551490  0.70886349  1
  Te2-  Te182  1  0.82635356  0.41017648  0.71037714  1
  Te2-  Te183  1  0.82811269  0.91405811  0.70965884  1
  Te2-  Te184  1  0.08364658  0.17125093  0.71329775  1
  Te2-  Te185  1  0.09132616  0.67347042  0.70894896  1
  Te2-  Te186  1  0.58379357  0.17121826  0.70946745  1
  Te2-  Te187  1  0.59156103  0.67505508  0.70915362  1
  Te2-  Te188  1  0.08594927  0.41216935  0.71305958  1
  Te2-  Te189  1  0.09023792  0.91556974  0.70916320  1
  Te2-  Te190  1  0.58483094  0.41283620  0.71136727  1
  Te2-  Te191  1  0.58736131  0.91492263  0.70967248  1
  Te2-  Te192  1  0.16003273  0.08078794  0.04546349  1
  Te2-  Te193  1  0.16065762  0.58275973  0.04704271  1
  Te2-  Te194  1  0.66299203  0.08015006  0.04401789  1
  Te2-  Te195  1  0.65987954  0.57943060  0.05052210  1
  Te2-  Te196  1  0.41971789  0.33941766  0.04822741  1
  Te2-  Te197  1  0.41795432  0.83762847  0.04424270  1
  Te2-  Te198  1  0.91785065  0.34011937  0.04488936  1
  Te2-  Te199  1  0.91690308  0.83656924  0.04749312  1
  Te2-  Te200  1  0.41642388  0.08030971  0.04284428  1
  Te2-  Te201  1  0.41968971  0.58053420  0.04968508  1
  Te2-  Te202  1  0.91941133  0.07928421  0.04365612  1
  Te2-  Te203  1  0.91740845  0.57959593  0.04918401  1
  Te2-  Te204  1  0.49614683  0.24569507  0.37276318  1
  Te2-  Te205  1  0.49376100  0.74849513  0.37458477  1
  Te2-  Te206  1  0.99389494  0.24825479  0.37353985  1
  Te2-  Te207  1  0.99282932  0.74755369  0.37567669  1
  Te2-  Te208  1  0.25489151  0.00478874  0.37306805  1
  Te2-  Te209  1  0.25425265  0.50834097  0.37504000  1
  Te2-  Te210  1  0.75410684  0.00709728  0.37303798  1
  Te2-  Te211  1  0.75788740  0.50939904  0.37318709  1
  Te2-  Te212  1  0.25651409  0.24591992  0.37226645  1
  Te2-  Te213  1  0.25517407  0.74876771  0.37470597  1
  Te2-  Te214  1  0.75264536  0.24482673  0.37268980  1
  Te2-  Te215  1  0.75838294  0.75197444  0.37497438  1
