# generated using pymatgen
data_Ti(CuTe)4
_symmetry_space_group_name_H-M   'P 1'
_cell_length_a   16.88219016
_cell_length_b   16.88471432
_cell_length_c   20.69977737
_cell_angle_alpha   90.02628442
_cell_angle_beta   90.02461265
_cell_angle_gamma   120.00210517
_symmetry_Int_Tables_number   1
_chemical_formula_structural   Ti(CuTe)4
_chemical_formula_sum   'Ti24 Cu96 Te96'
_cell_volume   5109.86499942
_cell_formula_units_Z   24
loop_
 _symmetry_equiv_pos_site_id
 _symmetry_equiv_pos_as_xyz
  1  'x, y, z'
loop_
 _atom_type_symbol
 _atom_type_oxidation_number
  Ti4+  4.0
  Cu+  1.0
  Te2-  -2.0
loop_
 _atom_site_type_symbol
 _atom_site_label
 _atom_site_symmetry_multiplicity
 _atom_site_fract_x
 _atom_site_fract_y
 _atom_site_fract_z
 _atom_site_occupancy
  Ti4+  Ti0  1  0.00146204  -0.00263967  0.25899830  1
  Ti4+  Ti1  1  0.00095577  0.49818067  0.25768326  1
  Ti4+  Ti2  1  0.49877385  -0.00041785  0.25576624  1
  Ti4+  Ti3  1  0.50170330  0.50396301  0.25841239  1
  Ti4+  Ti4  1  0.33255966  0.16998554  0.58952916  1
  Ti4+  Ti5  1  0.33147902  0.66948002  0.58968405  1
  Ti4+  Ti6  1  0.83155837  0.16280781  0.58793607  1
  Ti4+  Ti7  1  0.83191909  0.66397165  0.59631010  1
  Ti4+  Ti8  1  0.16765279  0.33288406  0.92368672  1
  Ti4+  Ti9  1  0.16587083  0.83307614  0.92454995  1
  Ti4+  Ti10  1  0.66548295  0.33228706  0.92175411  1
  Ti4+  Ti11  1  0.66752979  0.83279607  0.92708275  1
  Ti4+  Ti12  1  -0.00018763  0.00005344  0.75542927  1
  Ti4+  Ti13  1  0.00051509  0.50000224  0.75372748  1
  Ti4+  Ti14  1  0.49997308  0.00101921  0.75542151  1
  Ti4+  Ti15  1  0.49817040  0.49893620  0.75489525  1
  Ti4+  Ti16  1  0.33379193  0.16556555  0.09008557  1
  Ti4+  Ti17  1  0.33419245  0.66606307  0.08700390  1
  Ti4+  Ti18  1  0.83437731  0.16807686  0.08835490  1
  Ti4+  Ti19  1  0.83403006  0.66772730  0.09011705  1
  Ti4+  Ti20  1  0.16739569  0.33083358  0.42057703  1
  Ti4+  Ti21  1  0.16733868  0.83050598  0.42361375  1
  Ti4+  Ti22  1  0.66651232  0.33642301  0.42209705  1
  Ti4+  Ti23  1  0.66713597  0.83643846  0.42383149  1
  Cu+  Cu24  1  0.57205426  0.43350011  0.47596377  1
  Cu+  Cu25  1  0.91081299  0.82178954  0.81490164  1
  Cu+  Cu26  1  0.23957622  0.47805598  0.13970708  1
  Cu+  Cu27  1  0.67151209  0.58593725  0.81915466  1
  Cu+  Cu28  1  0.07066198  0.14078779  0.47331895  1
  Cu+  Cu29  1  0.06692789  0.63889016  0.47388598  1
  Cu+  Cu30  1  0.74623944  0.76177864  0.14764326  1
  Cu+  Cu31  1  0.91198242  0.58833193  0.81392981  1
  Cu+  Cu32  1  0.51501826  0.75991863  0.14453056  1
  Cu+  Cu33  1  0.40383044  0.31027294  0.80620218  1
  Cu+  Cu34  1  0.23636734  0.97350999  0.14010528  1
  Cu+  Cu35  1  0.56800782  0.93021222  0.47180018  1
  Cu+  Cu36  1  0.16686103  0.07680999  0.17326713  1
  Cu+  Cu37  1  0.16326428  0.57763573  0.16970872  1
  Cu+  Cu38  1  0.66562162  0.08303480  0.16974287  1
  Cu+  Cu39  1  0.66532646  0.58596812  0.17188715  1
  Cu+  Cu40  1  0.42244046  0.33780423  0.17237724  1
  Cu+  Cu41  1  0.42240300  0.84017038  0.16797604  1
  Cu+  Cu42  1  0.91833806  0.33716438  0.17009783  1
  Cu+  Cu43  1  0.91904576  0.83922427  0.17170547  1
  Cu+  Cu44  1  0.41173571  0.07655259  0.17018870  1
  Cu+  Cu45  1  0.41907820  0.58233444  0.16851346  1
  Cu+  Cu46  1  0.91992053  0.08465337  0.17199683  1
  Cu+  Cu47  1  0.92094479  0.58367753  0.17275894  1
  Cu+  Cu48  1  0.49847773  0.25817507  0.50341234  1
  Cu+  Cu49  1  0.49790225  0.75713134  0.50498841  1
  Cu+  Cu50  1  0.99784642  0.24123107  0.50192614  1
  Cu+  Cu51  1  0.99897180  0.74360801  0.50881912  1
  Cu+  Cu52  1  0.25202224  0.00329891  0.50420335  1
  Cu+  Cu53  1  0.25163547  0.50347293  0.50329120  1
  Cu+  Cu54  1  0.74618183  0.00362161  0.50202406  1
  Cu+  Cu55  1  0.74669340  0.50376018  0.50673906  1
  Cu+  Cu56  1  0.24793335  0.24448190  0.50188119  1
  Cu+  Cu57  1  0.24613865  0.74324268  0.50302832  1
  Cu+  Cu58  1  0.75000119  0.24722287  0.50224415  1
  Cu+  Cu59  1  0.75178352  0.74968133  0.50942621  1
  Cu+  Cu60  1  0.32850080  0.41041274  0.83641324  1
  Cu+  Cu61  1  0.33136738  0.91828059  0.83890504  1
  Cu+  Cu62  1  0.83060155  0.41516165  0.83438020  1
  Cu+  Cu63  1  0.83040308  0.91292373  0.83824771  1
  Cu+  Cu64  1  0.08601212  0.17164962  0.83652809  1
  Cu+  Cu65  1  0.08457679  0.67107488  0.83617452  1
  Cu+  Cu66  1  0.58505851  0.16989341  0.83550764  1
  Cu+  Cu67  1  0.58634805  0.67304829  0.83885271  1
  Cu+  Cu68  1  0.08705639  0.41637254  0.83697951  1
  Cu+  Cu69  1  0.08468848  0.91480683  0.83752849  1
  Cu+  Cu70  1  0.58156252  0.40988805  0.83388078  1
  Cu+  Cu71  1  0.58291434  0.91491225  0.84045494  1
  Cu+  Cu72  1  0.16701799  0.08636846  0.67510870  1
  Cu+  Cu73  1  0.16830905  0.58505714  0.67428562  1
  Cu+  Cu74  1  0.66808189  0.08199602  0.67425200  1
  Cu+  Cu75  1  0.66690349  0.58448438  0.68520305  1
  Cu+  Cu76  1  0.41214174  0.33242194  0.67699111  1
  Cu+  Cu77  1  0.41463287  0.83344238  0.67394850  1
  Cu+  Cu78  1  0.91693979  0.32722153  0.67029893  1
  Cu+  Cu79  1  0.91622074  0.82929891  0.68312659  1
  Cu+  Cu80  1  0.41643157  0.08807170  0.67265125  1
  Cu+  Cu81  1  0.41426261  0.58879669  0.67330955  1
  Cu+  Cu82  1  0.91493415  0.08246784  0.67263327  1
  Cu+  Cu83  1  0.91497453  0.58286594  0.68185155  1
  Cu+  Cu84  1  0.00296884  0.25322107  0.00750292  1
  Cu+  Cu85  1  0.00093723  0.75055367  0.01085336  1
  Cu+  Cu86  1  0.50189133  0.25156214  0.00662808  1
  Cu+  Cu87  1  0.50440948  0.75147873  0.01428520  1
  Cu+  Cu88  1  0.24859433  0.49557894  0.01047143  1
  Cu+  Cu89  1  0.24696695  0.99489693  0.01223253  1
  Cu+  Cu90  1  0.74931622  0.49695557  0.00861288  1
  Cu+  Cu91  1  0.75132944  0.99893032  0.00870467  1
  Cu+  Cu92  1  0.25139918  0.25193084  0.00877309  1
  Cu+  Cu93  1  0.24934465  0.75067547  0.00623873  1
  Cu+  Cu94  1  0.75001299  0.25223264  0.00565183  1
  Cu+  Cu95  1  0.74959632  0.75064728  0.01723226  1
  Cu+  Cu96  1  0.33620565  0.41818538  0.34125961  1
  Cu+  Cu97  1  0.33457693  0.91552194  0.34076887  1
  Cu+  Cu98  1  0.83552024  0.41993167  0.34139085  1
  Cu+  Cu99  1  0.83623579  0.91766924  0.34447373  1
  Cu+  Cu100  1  0.08450557  0.16001728  0.34482324  1
  Cu+  Cu101  1  0.08227407  0.65958289  0.34559660  1
  Cu+  Cu102  1  0.58168241  0.16664472  0.33797977  1
  Cu+  Cu103  1  0.58567313  0.66922009  0.34407476  1
  Cu+  Cu104  1  0.08393813  0.41624538  0.34062861  1
  Cu+  Cu105  1  0.08336923  0.91373560  0.34346503  1
  Cu+  Cu106  1  0.58433431  0.42404891  0.34718760  1
  Cu+  Cu107  1  0.58292241  0.92091722  0.34462215  1
  Cu+  Cu108  1  0.00380414  0.00756885  0.11661584  1
  Cu+  Cu109  1  -0.00158919  0.50094564  0.11405031  1
  Cu+  Cu110  1  0.50486913  0.00778601  0.11266262  1
  Cu+  Cu111  1  0.50093302  0.49726477  0.11417599  1
  Cu+  Cu112  1  0.33700105  0.16385162  0.44630812  1
  Cu+  Cu113  1  0.33546788  0.66415327  0.44673669  1
  Cu+  Cu114  1  0.83594427  0.17369079  0.44410546  1
  Cu+  Cu115  1  0.83583803  0.67183332  0.45376583  1
  Cu+  Cu116  1  0.16374092  0.33370465  0.77898956  1
  Cu+  Cu117  1  0.17130922  0.83597065  0.78100387  1
  Cu+  Cu118  1  0.66867982  0.33077990  0.77649124  1
  Cu+  Cu119  1  0.66684676  0.83896601  0.78314512  1
  Te2-  Te120  1  0.00019921  -0.00573249  0.38934051  1
  Te2-  Te121  1  -0.00180451  0.49348312  0.38855143  1
  Te2-  Te122  1  0.49834074  0.00384349  0.38596037  1
  Te2-  Te123  1  0.49906728  0.50527616  0.38903474  1
  Te2-  Te124  1  0.33126816  0.16604398  0.71982696  1
  Te2-  Te125  1  0.33208190  0.66973533  0.71881072  1
  Te2-  Te126  1  0.83299060  0.16446610  0.71689008  1
  Te2-  Te127  1  0.83219848  0.66462257  0.72922558  1
  Te2-  Te128  1  0.16610500  0.33020672  0.05451799  1
  Te2-  Te129  1  0.16511028  0.82847716  0.05506635  1
  Te2-  Te130  1  0.66614279  0.33216031  0.05056961  1
  Te2-  Te131  1  0.66955557  0.83695200  0.05906373  1
  Te2-  Te132  1  0.49147290  0.24313776  0.88097381  1
  Te2-  Te133  1  0.49650900  0.74768226  0.88673033  1
  Te2-  Te134  1  0.99622556  0.24881505  0.88173885  1
  Te2-  Te135  1  0.98923725  0.74476652  0.88505366  1
  Te2-  Te136  1  0.25025382  0.00425211  0.88494445  1
  Te2-  Te137  1  0.25450832  0.50411419  0.88299644  1
  Te2-  Te138  1  0.75261409  0.00197887  0.88260565  1
  Te2-  Te139  1  0.75365473  0.50852720  0.88268613  1
  Te2-  Te140  1  0.25204772  0.24242794  0.88309443  1
  Te2-  Te141  1  0.25152948  0.74877919  0.88043834  1
  Te2-  Te142  1  0.75285258  0.24895527  0.87956943  1
  Te2-  Te143  1  0.75525389  0.74408090  0.88871748  1
  Te2-  Te144  1  0.32945770  0.41359461  0.21526558  1
  Te2-  Te145  1  0.32468862  0.90745380  0.21517193  1
  Te2-  Te146  1  0.82958800  0.41563780  0.21567740  1
  Te2-  Te147  1  0.82782307  0.91737896  0.21848787  1
  Te2-  Te148  1  0.08811733  0.16726661  0.21705242  1
  Te2-  Te149  1  0.08839902  0.66977366  0.21806553  1
  Te2-  Te150  1  0.58229554  0.16915365  0.21189866  1
  Te2-  Te151  1  0.58920595  0.67975620  0.21803892  1
  Te2-  Te152  1  0.08566185  0.40893808  0.21510915  1
  Te2-  Te153  1  0.08474808  0.90697413  0.21776583  1
  Te2-  Te154  1  0.58891235  0.42000711  0.21941682  1
  Te2-  Te155  1  0.59015907  0.91679501  0.21742374  1
  Te2-  Te156  1  0.15836304  0.07693990  0.54947488  1
  Te2-  Te157  1  0.15667063  0.57554905  0.54889126  1
  Te2-  Te158  1  0.65637108  0.08090279  0.54859718  1
  Te2-  Te159  1  0.65831893  0.58279405  0.55607437  1
  Te2-  Te160  1  0.41482117  0.34350200  0.54971146  1
  Te2-  Te161  1  0.41432187  0.84328321  0.54837086  1
  Te2-  Te162  1  0.91961011  0.33293935  0.54413118  1
  Te2-  Te163  1  0.91988222  0.83354352  0.55464768  1
  Te2-  Te164  1  0.42076809  0.08819031  0.54648494  1
  Te2-  Te165  1  0.41997468  0.58707481  0.54727443  1
  Te2-  Te166  1  0.91451342  0.07177405  0.54717833  1
  Te2-  Te167  1  0.91430230  0.57418586  0.55387093  1
  Te2-  Te168  1  0.00141681  0.00209863  0.88258196  1
  Te2-  Te169  1  0.00088836  0.49982910  0.88099636  1
  Te2-  Te170  1  0.50043317  0.00196983  0.88173400  1
  Te2-  Te171  1  0.49933051  0.49939644  0.88261375  1
  Te2-  Te172  1  0.33654540  0.16894535  0.21698404  1
  Te2-  Te173  1  0.33446530  0.66869428  0.21442102  1
  Te2-  Te174  1  0.83409041  0.16830064  0.21477462  1
  Te2-  Te175  1  0.83572156  0.66830930  0.21694046  1
  Te2-  Te176  1  0.16722431  0.33360830  0.54732618  1
  Te2-  Te177  1  0.16937136  0.83493543  0.55044095  1
  Te2-  Te178  1  0.66708571  0.33284942  0.54892651  1
  Te2-  Te179  1  0.66693704  0.83555703  0.55061931  1
  Te2-  Te180  1  0.32587302  0.41803248  0.70965074  1
  Te2-  Te181  1  0.32897943  0.91795740  0.71115999  1
  Te2-  Te182  1  0.82811548  0.40902949  0.70747593  1
  Te2-  Te183  1  0.82625827  0.91299270  0.71108043  1
  Te2-  Te184  1  0.08391636  0.17222903  0.71063365  1
  Te2-  Te185  1  0.08779571  0.67433247  0.70964458  1
  Te2-  Te186  1  0.58632861  0.17140690  0.70899902  1
  Te2-  Te187  1  0.58339285  0.67406625  0.71250776  1
  Te2-  Te188  1  0.08610642  0.41426697  0.70970429  1
  Te2-  Te189  1  0.08946387  0.91603250  0.71086757  1
  Te2-  Te190  1  0.58462333  0.41084974  0.70744654  1
  Te2-  Te191  1  0.58395104  0.91309104  0.71271444  1
  Te2-  Te192  1  0.16139641  0.08142377  0.04547440  1
  Te2-  Te193  1  0.16090189  0.58066307  0.04258218  1
  Te2-  Te194  1  0.66317758  0.08180314  0.04276495  1
  Te2-  Te195  1  0.66060236  0.57767957  0.04515303  1
  Te2-  Te196  1  0.42035419  0.33793039  0.04577596  1
  Te2-  Te197  1  0.41942989  0.84010962  0.04206395  1
  Te2-  Te198  1  0.91951681  0.33965891  0.04377038  1
  Te2-  Te199  1  0.92281828  0.84205037  0.04560036  1
  Te2-  Te200  1  0.42019091  0.08106943  0.04271240  1
  Te2-  Te201  1  0.42109129  0.57844676  0.04179784  1
  Te2-  Te202  1  0.92139529  0.08285840  0.04490922  1
  Te2-  Te203  1  0.91897418  0.58054292  0.04582871  1
  Te2-  Te204  1  0.49507907  0.24969892  0.37543623  1
  Te2-  Te205  1  0.49491075  0.74905060  0.37753366  1
  Te2-  Te206  1  0.99544851  0.24507382  0.37437756  1
  Te2-  Te207  1  0.99408705  0.74388004  0.38067477  1
  Te2-  Te208  1  0.25286190  0.00273074  0.37812612  1
  Te2-  Te209  1  0.25280707  0.50419416  0.37705866  1
  Te2-  Te210  1  0.75552933  0.00845158  0.37635875  1
  Te2-  Te211  1  0.75655682  0.51034034  0.37988729  1
  Te2-  Te212  1  0.25727169  0.24748612  0.37574319  1
  Te2-  Te213  1  0.25502148  0.74610308  0.37690023  1
  Te2-  Te214  1  0.75078469  0.24918398  0.37584056  1
  Te2-  Te215  1  0.75394725  0.74895012  0.38266094  1
