# generated using pymatgen
data_Ti(CuTe)4
_symmetry_space_group_name_H-M   'P 1'
_cell_length_a   16.86502534
_cell_length_b   16.86881217
_cell_length_c   20.68161864
_cell_angle_alpha   90.04118681
_cell_angle_beta   89.99945291
_cell_angle_gamma   119.99232527
_symmetry_Int_Tables_number   1
_chemical_formula_structural   Ti(CuTe)4
_chemical_formula_sum   'Ti24 Cu96 Te96'
_cell_volume   5095.89054710
_cell_formula_units_Z   24
loop_
 _symmetry_equiv_pos_site_id
 _symmetry_equiv_pos_as_xyz
  1  'x, y, z'
loop_
 _atom_type_symbol
 _atom_type_oxidation_number
  Ti4+  4.0
  Cu+  1.0
  Te2-  -2.0
loop_
 _atom_site_type_symbol
 _atom_site_label
 _atom_site_symmetry_multiplicity
 _atom_site_fract_x
 _atom_site_fract_y
 _atom_site_fract_z
 _atom_site_occupancy
  Ti4+  Ti0  1  -0.00081072  -0.00126990  0.25863628  1
  Ti4+  Ti1  1  0.00403514  0.49973300  0.25953334  1
  Ti4+  Ti2  1  0.50546548  0.00372190  0.25648908  1
  Ti4+  Ti3  1  0.50261533  0.49847075  0.25726933  1
  Ti4+  Ti4  1  0.33110475  0.16309577  0.59069375  1
  Ti4+  Ti5  1  0.33026193  0.66276119  0.58883481  1
  Ti4+  Ti6  1  0.83074883  0.16605399  0.59325720  1
  Ti4+  Ti7  1  0.83135782  0.66770936  0.58983657  1
  Ti4+  Ti8  1  0.16293553  0.33313568  0.92811261  1
  Ti4+  Ti9  1  0.16761789  0.83665876  0.92364894  1
  Ti4+  Ti10  1  0.66592200  0.33457111  0.92330828  1
  Ti4+  Ti11  1  0.66757193  0.83231313  0.92463934  1
  Ti4+  Ti12  1  -0.00157648  -0.00025824  0.75592772  1
  Ti4+  Ti13  1  -0.00125359  0.49767554  0.75664351  1
  Ti4+  Ti14  1  0.49630245  0.00028301  0.75521247  1
  Ti4+  Ti15  1  0.50196768  0.50172953  0.75663753  1
  Ti4+  Ti16  1  0.33696625  0.17043667  0.08952467  1
  Ti4+  Ti17  1  0.33194466  0.66607310  0.08837883  1
  Ti4+  Ti18  1  0.83200265  0.16573163  0.08855698  1
  Ti4+  Ti19  1  0.83470609  0.66839846  0.09047733  1
  Ti4+  Ti20  1  0.16785951  0.33607711  0.42234756  1
  Ti4+  Ti21  1  0.16776656  0.83618604  0.41976467  1
  Ti4+  Ti22  1  0.66820438  0.33134770  0.42345089  1
  Ti4+  Ti23  1  0.66650765  0.83048216  0.42242541  1
  Cu+  Cu24  1  0.06910432  0.42053823  0.47803580  1
  Cu+  Cu25  1  0.53008892  0.26520504  0.13930520  1
  Cu+  Cu26  1  0.07109080  0.65402499  0.47511105  1
  Cu+  Cu27  1  0.24625138  0.48170527  0.14350457  1
  Cu+  Cu28  1  0.01327779  0.25119480  0.14511103  1
  Cu+  Cu29  1  0.90394980  0.30833657  0.80994104  1
  Cu+  Cu30  1  0.07159762  0.92943763  0.47393653  1
  Cu+  Cu31  1  0.40268162  0.09766355  0.80721817  1
  Cu+  Cu32  1  0.56793271  0.63765094  0.47229133  1
  Cu+  Cu33  1  0.73946541  0.97648729  0.14000472  1
  Cu+  Cu34  1  0.57046931  0.13964888  0.47440107  1
  Cu+  Cu35  1  0.69386797  0.59702867  0.80709368  1
  Cu+  Cu36  1  0.16593861  0.08123791  0.17271276  1
  Cu+  Cu37  1  0.16553472  0.57810843  0.17094939  1
  Cu+  Cu38  1  0.66395899  0.07888858  0.16883767  1
  Cu+  Cu39  1  0.66567867  0.58335517  0.17181222  1
  Cu+  Cu40  1  0.42690387  0.33756866  0.16947087  1
  Cu+  Cu41  1  0.42096789  0.83802897  0.16934959  1
  Cu+  Cu42  1  0.92419980  0.33773066  0.17018789  1
  Cu+  Cu43  1  0.92074161  0.83700610  0.17255341  1
  Cu+  Cu44  1  0.42787511  0.09225171  0.17047080  1
  Cu+  Cu45  1  0.41783234  0.58099289  0.17147608  1
  Cu+  Cu46  1  0.91541295  0.07773856  0.17080821  1
  Cu+  Cu47  1  0.92070706  0.58403532  0.17407477  1
  Cu+  Cu48  1  0.49823743  0.24249742  0.50519052  1
  Cu+  Cu49  1  0.49690414  0.74137823  0.50293519  1
  Cu+  Cu50  1  0.99663201  0.25078319  0.50669803  1
  Cu+  Cu51  1  0.99656455  0.75317127  0.50203608  1
  Cu+  Cu52  1  0.24825199  0.00547357  0.50154723  1
  Cu+  Cu53  1  0.24720903  0.50460305  0.50070441  1
  Cu+  Cu54  1  0.75114799  0.00253433  0.50607717  1
  Cu+  Cu55  1  0.74963630  0.50311546  0.50368223  1
  Cu+  Cu56  1  0.25008953  0.24793178  0.50464997  1
  Cu+  Cu57  1  0.24844980  0.74547365  0.49998794  1
  Cu+  Cu58  1  0.74679113  0.24367563  0.50561968  1
  Cu+  Cu59  1  0.74458897  0.74228724  0.50283212  1
  Cu+  Cu60  1  0.33020241  0.41882558  0.84180545  1
  Cu+  Cu61  1  0.32865649  0.92105410  0.83636936  1
  Cu+  Cu62  1  0.83084943  0.41164015  0.83708003  1
  Cu+  Cu63  1  0.82896180  0.91550090  0.83824827  1
  Cu+  Cu64  1  0.08180851  0.16908185  0.84000283  1
  Cu+  Cu65  1  0.08587991  0.67131175  0.83865346  1
  Cu+  Cu66  1  0.57717999  0.16972576  0.83661598  1
  Cu+  Cu67  1  0.59101169  0.67007937  0.83744313  1
  Cu+  Cu68  1  0.07912307  0.41055549  0.84075628  1
  Cu+  Cu69  1  0.08415901  0.91456723  0.83685475  1
  Cu+  Cu70  1  0.58915284  0.42138728  0.83718394  1
  Cu+  Cu71  1  0.58346265  0.91462690  0.83928119  1
  Cu+  Cu72  1  0.16489954  0.08240027  0.67631233  1
  Cu+  Cu73  1  0.16657696  0.58129189  0.67597372  1
  Cu+  Cu74  1  0.66518170  0.08376006  0.67733160  1
  Cu+  Cu75  1  0.66861566  0.58544221  0.67947555  1
  Cu+  Cu76  1  0.41485556  0.33081094  0.67439243  1
  Cu+  Cu77  1  0.41326787  0.82740438  0.67135055  1
  Cu+  Cu78  1  0.91429116  0.32919218  0.68145057  1
  Cu+  Cu79  1  0.91422691  0.83385498  0.67353533  1
  Cu+  Cu80  1  0.41173952  0.08222876  0.67788279  1
  Cu+  Cu81  1  0.41492278  0.58231006  0.67359392  1
  Cu+  Cu82  1  0.91547685  0.08562795  0.67621937  1
  Cu+  Cu83  1  0.91649157  0.58538669  0.67448380  1
  Cu+  Cu84  1  -0.00097889  0.25150300  0.01577207  1
  Cu+  Cu85  1  0.00476979  0.75381346  0.00767007  1
  Cu+  Cu86  1  0.50350409  0.25509067  0.01134527  1
  Cu+  Cu87  1  0.50193875  0.75049214  0.00617757  1
  Cu+  Cu88  1  0.24377974  0.49648170  0.01398382  1
  Cu+  Cu89  1  0.25035689  1.00026922  0.00778611  1
  Cu+  Cu90  1  0.75144524  0.50206019  0.00872458  1
  Cu+  Cu91  1  0.74531701  0.99492941  0.01176271  1
  Cu+  Cu92  1  0.24784763  0.25216701  0.01030861  1
  Cu+  Cu93  1  0.24858712  0.75410892  0.00599701  1
  Cu+  Cu94  1  0.74736751  0.24985773  0.00747935  1
  Cu+  Cu95  1  0.75120121  0.75207444  0.00949074  1
  Cu+  Cu96  1  0.33644640  0.41726714  0.34100788  1
  Cu+  Cu97  1  0.33965544  0.92421912  0.33761640  1
  Cu+  Cu98  1  0.83814941  0.41763517  0.34233349  1
  Cu+  Cu99  1  0.83458836  0.91666568  0.34237101  1
  Cu+  Cu100  1  0.08181916  0.16530805  0.34295314  1
  Cu+  Cu101  1  0.08604477  0.66557487  0.34523111  1
  Cu+  Cu102  1  0.58658205  0.16451085  0.34538110  1
  Cu+  Cu103  1  0.58190701  0.66018424  0.34389932  1
  Cu+  Cu104  1  0.08604286  0.41973770  0.34902245  1
  Cu+  Cu105  1  0.08359933  0.92131007  0.34578589  1
  Cu+  Cu106  1  0.58587294  0.41566591  0.34195602  1
  Cu+  Cu107  1  0.58604454  0.91846645  0.34124634  1
  Cu+  Cu108  1  0.00401579  0.00023800  0.11492704  1
  Cu+  Cu109  1  -0.00103274  0.50360256  0.11633611  1
  Cu+  Cu110  1  0.49413723  -0.00257934  0.11220324  1
  Cu+  Cu111  1  0.50239572  0.50447932  0.11326238  1
  Cu+  Cu112  1  0.33729963  0.17420945  0.44718171  1
  Cu+  Cu113  1  0.33743900  0.67378348  0.44355004  1
  Cu+  Cu114  1  0.83431104  0.16379813  0.44950725  1
  Cu+  Cu115  1  0.83371965  0.66551939  0.44476287  1
  Cu+  Cu116  1  0.17056422  0.33384969  0.78545162  1
  Cu+  Cu117  1  0.16423098  0.83007725  0.77923958  1
  Cu+  Cu118  1  0.66715580  0.33404119  0.77942043  1
  Cu+  Cu119  1  0.66325760  0.83463752  0.78115312  1
  Te2-  Te120  1  -0.00213050  0.00182104  0.38920326  1
  Te2-  Te121  1  0.00054305  0.50064232  0.39162598  1
  Te2-  Te122  1  0.50128437  -0.00234675  0.38701117  1
  Te2-  Te123  1  0.49987186  0.49394896  0.38757868  1
  Te2-  Te124  1  0.32984916  0.16709425  0.72082829  1
  Te2-  Te125  1  0.33210428  0.66406316  0.71756089  1
  Te2-  Te126  1  0.82911460  0.16258958  0.72368543  1
  Te2-  Te127  1  0.83649089  0.66972038  0.71988402  1
  Te2-  Te128  1  0.16484083  0.33139313  0.06012935  1
  Te2-  Te129  1  0.16857927  0.83678665  0.05303289  1
  Te2-  Te130  1  0.67099301  0.33724200  0.05331703  1
  Te2-  Te131  1  0.66417060  0.82884125  0.05540654  1
  Te2-  Te132  1  0.49264827  0.25365580  0.88369226  1
  Te2-  Te133  1  0.49727561  0.74557567  0.88055153  1
  Te2-  Te134  1  0.98854376  0.24188960  0.88780999  1
  Te2-  Te135  1  0.99543841  0.74834949  0.88208366  1
  Te2-  Te136  1  0.25055240  0.01155606  0.88219277  1
  Te2-  Te137  1  0.24705110  0.50364348  0.88630538  1
  Te2-  Te138  1  0.75086540  0.00394969  0.88440991  1
  Te2-  Te139  1  0.75842176  0.50759704  0.88253424  1
  Te2-  Te140  1  0.24967823  0.24978076  0.88440325  1
  Te2-  Te141  1  0.25444479  0.75237351  0.88018754  1
  Te2-  Te142  1  0.74599982  0.24175310  0.88155294  1
  Te2-  Te143  1  0.75935463  0.74928827  0.88361275  1
  Te2-  Te144  1  0.32994889  0.40886294  0.21527499  1
  Te2-  Te145  1  0.33575902  0.92193401  0.21160754  1
  Te2-  Te146  1  0.83419440  0.41462738  0.21647119  1
  Te2-  Te147  1  0.82561446  0.90932812  0.21659465  1
  Te2-  Te148  1  0.08792674  0.17140312  0.21696093  1
  Te2-  Te149  1  0.08938539  0.66941935  0.21756366  1
  Te2-  Te150  1  0.59674556  0.17755984  0.21750464  1
  Te2-  Te151  1  0.58522671  0.66982897  0.21657969  1
  Te2-  Te152  1  0.09140454  0.41050125  0.22044162  1
  Te2-  Te153  1  0.08730385  0.91493084  0.21844675  1
  Te2-  Te154  1  0.59463377  0.41643530  0.21625847  1
  Te2-  Te155  1  0.58716104  0.91119304  0.21567179  1
  Te2-  Te156  1  0.15673630  0.08124183  0.55030403  1
  Te2-  Te157  1  0.15337757  0.57770532  0.54951682  1
  Te2-  Te158  1  0.65692233  0.07506543  0.55137425  1
  Te2-  Te159  1  0.65686416  0.57559726  0.55167202  1
  Te2-  Te160  1  0.41859736  0.33339612  0.54793226  1
  Te2-  Te161  1  0.41718991  0.83242656  0.54479665  1
  Te2-  Te162  1  0.91426970  0.33906997  0.55341638  1
  Te2-  Te163  1  0.91378775  0.83999992  0.54746698  1
  Te2-  Te164  1  0.41412601  0.07255816  0.55017906  1
  Te2-  Te165  1  0.41373886  0.57198360  0.54779274  1
  Te2-  Te166  1  0.91865789  0.08318686  0.55028801  1
  Te2-  Te167  1  0.91706282  0.58065101  0.54843265  1
  Te2-  Te168  1  -0.00097703  -0.00107138  0.88206880  1
  Te2-  Te169  1  -0.00005873  0.50216868  0.88346054  1
  Te2-  Te170  1  0.49818241  -0.00018962  0.88202583  1
  Te2-  Te171  1  0.50017648  0.50170435  0.88371154  1
  Te2-  Te172  1  0.33588004  0.16859240  0.21650550  1
  Te2-  Te173  1  0.33594180  0.66922706  0.21553337  1
  Te2-  Te174  1  0.83436584  0.16766451  0.21634328  1
  Te2-  Te175  1  0.83520550  0.66762299  0.21673191  1
  Te2-  Te176  1  0.16753708  0.33505731  0.54944969  1
  Te2-  Te177  1  0.16749287  0.83397375  0.54753544  1
  Te2-  Te178  1  0.66690948  0.33410404  0.55038284  1
  Te2-  Te179  1  0.66539849  0.83236961  0.54932386  1
  Te2-  Te180  1  0.32920410  0.41408830  0.71386899  1
  Te2-  Te181  1  0.32473912  0.90929727  0.70875371  1
  Te2-  Te182  1  0.82643034  0.41532731  0.71004078  1
  Te2-  Te183  1  0.82589021  0.91484310  0.71163374  1
  Te2-  Te184  1  0.08525388  0.17298446  0.71324265  1
  Te2-  Te185  1  0.08523527  0.66980254  0.71156717  1
  Te2-  Te186  1  0.58433239  0.17356025  0.70958900  1
  Te2-  Te187  1  0.58458170  0.67387827  0.71005905  1
  Te2-  Te188  1  0.08692931  0.41194579  0.71322326  1
  Te2-  Te189  1  0.08371589  0.91245346  0.71056535  1
  Te2-  Te190  1  0.58499438  0.41237732  0.71015085  1
  Te2-  Te191  1  0.58194429  0.91322077  0.71179347  1
  Te2-  Te192  1  0.16362233  0.08257212  0.04633777  1
  Te2-  Te193  1  0.15867426  0.58405516  0.04402821  1
  Te2-  Te194  1  0.65831533  0.08037877  0.04294281  1
  Te2-  Te195  1  0.66230385  0.58215328  0.04519987  1
  Te2-  Te196  1  0.41907459  0.34312005  0.04310963  1
  Te2-  Te197  1  0.41884789  0.83737690  0.04269768  1
  Te2-  Te198  1  0.91643902  0.34085590  0.04403635  1
  Te2-  Te199  1  0.92143385  0.84015080  0.04593551  1
  Te2-  Te200  1  0.42067866  0.08255138  0.04254151  1
  Te2-  Te201  1  0.41858810  0.58039479  0.04297999  1
  Te2-  Te202  1  0.91832340  0.07778393  0.04309646  1
  Te2-  Te203  1  0.92149355  0.58386145  0.04593214  1
  Te2-  Te204  1  0.49597257  0.24626888  0.37719348  1
  Te2-  Te205  1  0.49565535  0.74714949  0.37485133  1
  Te2-  Te206  1  0.99376343  0.24672612  0.37853892  1
  Te2-  Te207  1  0.99414447  0.74713176  0.37371509  1
  Te2-  Te208  1  0.25667883  0.01013899  0.37540765  1
  Te2-  Te209  1  0.25905702  0.50976736  0.37527934  1
  Te2-  Te210  1  0.75379388  0.00453962  0.37968055  1
  Te2-  Te211  1  0.75495727  0.50424453  0.37803572  1
  Te2-  Te212  1  0.25188305  0.24760105  0.37817627  1
  Te2-  Te213  1  0.25844295  0.75379459  0.37323682  1
  Te2-  Te214  1  0.75826617  0.24809653  0.37882338  1
  Te2-  Te215  1  0.75439907  0.74587915  0.37604248  1
