# generated using pymatgen
data_Ti(CuTe)4
_symmetry_space_group_name_H-M   'P 1'
_cell_length_a   16.87832516
_cell_length_b   16.87802861
_cell_length_c   20.68919746
_cell_angle_alpha   89.99644705
_cell_angle_beta   90.00608006
_cell_angle_gamma   120.01323972
_symmetry_Int_Tables_number   1
_chemical_formula_structural   Ti(CuTe)4
_chemical_formula_sum   'Ti24 Cu96 Te96'
_cell_volume   5103.49138651
_cell_formula_units_Z   24
loop_
 _symmetry_equiv_pos_site_id
 _symmetry_equiv_pos_as_xyz
  1  'x, y, z'
loop_
 _atom_type_symbol
 _atom_type_oxidation_number
  Ti4+  4.0
  Cu+  1.0
  Te2-  -2.0
loop_
 _atom_site_type_symbol
 _atom_site_label
 _atom_site_symmetry_multiplicity
 _atom_site_fract_x
 _atom_site_fract_y
 _atom_site_fract_z
 _atom_site_occupancy
  Ti4+  Ti0  1  -0.00098346  0.00108390  0.25625030  1
  Ti4+  Ti1  1  0.00140703  0.50056176  0.26281251  1
  Ti4+  Ti2  1  0.49766860  0.00015509  0.25961390  1
  Ti4+  Ti3  1  0.50273907  0.50098315  0.25492640  1
  Ti4+  Ti4  1  0.33473319  0.16339594  0.58861921  1
  Ti4+  Ti5  1  0.32892755  0.66363578  0.59248553  1
  Ti4+  Ti6  1  0.83184640  0.16563155  0.59221318  1
  Ti4+  Ti7  1  0.83298713  0.66623661  0.59154153  1
  Ti4+  Ti8  1  0.16868778  0.33744297  0.92118678  1
  Ti4+  Ti9  1  0.16421249  0.83181518  0.92870221  1
  Ti4+  Ti10  1  0.66719920  0.33328674  0.92656760  1
  Ti4+  Ti11  1  0.66951081  0.83622614  0.92015494  1
  Ti4+  Ti12  1  -0.00127781  -0.00201578  0.75361892  1
  Ti4+  Ti13  1  0.00096750  0.49928692  0.75621929  1
  Ti4+  Ti14  1  0.50032004  -0.00011693  0.75732621  1
  Ti4+  Ti15  1  0.49875777  0.49959748  0.75265801  1
  Ti4+  Ti16  1  0.33480486  0.16767296  0.08600854  1
  Ti4+  Ti17  1  0.33259376  0.66744948  0.09093286  1
  Ti4+  Ti18  1  0.83404442  0.16690514  0.09101123  1
  Ti4+  Ti19  1  0.83328848  0.66774425  0.08835706  1
  Ti4+  Ti20  1  0.16693672  0.33422785  0.42214390  1
  Ti4+  Ti21  1  0.16631602  0.83369391  0.42105277  1
  Ti4+  Ti22  1  0.66592950  0.33146294  0.42130577  1
  Ti4+  Ti23  1  0.66679342  0.83363904  0.42325401  1
  Cu+  Cu24  1  0.41240155  0.59806938  0.80703253  1
  Cu+  Cu25  1  0.68547875  0.09903623  0.81010895  1
  Cu+  Cu26  1  0.91251552  0.09560409  0.80700427  1
  Cu+  Cu27  1  0.23574725  0.75423550  0.14793044  1
  Cu+  Cu28  1  0.24128823  0.98772644  0.14593104  1
  Cu+  Cu29  1  0.52264141  0.25976150  0.14161076  1
  Cu+  Cu30  1  0.06920711  0.42074392  0.47761353  1
  Cu+  Cu31  1  0.90676142  0.80885472  0.80526311  1
  Cu+  Cu32  1  0.34478071  0.91637031  0.47897134  1
  Cu+  Cu33  1  0.57696165  0.14600519  0.47527956  1
  Cu+  Cu34  1  0.07180398  0.65230386  0.47968260  1
  Cu+  Cu35  1  0.18346778  0.59712622  0.81207984  1
  Cu+  Cu36  1  0.16035008  0.08040427  0.16790878  1
  Cu+  Cu37  1  0.16287198  0.58265994  0.17655833  1
  Cu+  Cu38  1  0.66441656  0.08228205  0.17340254  1
  Cu+  Cu39  1  0.66350662  0.58336489  0.16813128  1
  Cu+  Cu40  1  0.42548924  0.33921141  0.16703395  1
  Cu+  Cu41  1  0.41232815  0.83437585  0.17245368  1
  Cu+  Cu42  1  0.92146508  0.33509060  0.17650115  1
  Cu+  Cu43  1  0.91639544  0.83774137  0.16939496  1
  Cu+  Cu44  1  0.41936404  0.08273021  0.16964982  1
  Cu+  Cu45  1  0.42028700  0.58244719  0.17075794  1
  Cu+  Cu46  1  0.91838887  0.08229944  0.17110725  1
  Cu+  Cu47  1  0.91748524  0.58365860  0.17418640  1
  Cu+  Cu48  1  0.49726042  0.24154805  0.50105419  1
  Cu+  Cu49  1  0.49780559  0.74583773  0.50561830  1
  Cu+  Cu50  1  0.99721436  0.24954506  0.50602020  1
  Cu+  Cu51  1  0.99351992  0.74586427  0.50450303  1
  Cu+  Cu52  1  0.25689425  0.00474530  0.50074895  1
  Cu+  Cu53  1  0.24533230  0.50020328  0.50455090  1
  Cu+  Cu54  1  0.75042462  0.00204196  0.50571323  1
  Cu+  Cu55  1  0.75077354  0.50172229  0.50410474  1
  Cu+  Cu56  1  0.25240638  0.24698019  0.50310061  1
  Cu+  Cu57  1  0.24845871  0.74231316  0.50296807  1
  Cu+  Cu58  1  0.74832668  0.24405053  0.50341458  1
  Cu+  Cu59  1  0.75338441  0.75058027  0.50617018  1
  Cu+  Cu60  1  0.33107653  0.42080598  0.83285435  1
  Cu+  Cu61  1  0.32978884  0.91489966  0.84246463  1
  Cu+  Cu62  1  0.83081105  0.41535318  0.83944711  1
  Cu+  Cu63  1  0.83157911  0.91533838  0.83199190  1
  Cu+  Cu64  1  0.08439219  0.17206864  0.83424352  1
  Cu+  Cu65  1  0.08634355  0.67039806  0.83993604  1
  Cu+  Cu66  1  0.58691378  0.17061564  0.84125192  1
  Cu+  Cu67  1  0.58457855  0.67175877  0.83279010  1
  Cu+  Cu68  1  0.09079159  0.41959562  0.83374405  1
  Cu+  Cu69  1  0.07981513  0.91095650  0.83950606  1
  Cu+  Cu70  1  0.58412207  0.41392651  0.83889655  1
  Cu+  Cu71  1  0.59020155  0.92080642  0.83381818  1
  Cu+  Cu72  1  0.17070470  0.08183253  0.67104669  1
  Cu+  Cu73  1  0.16559897  0.58258593  0.68222041  1
  Cu+  Cu74  1  0.66698371  0.08408113  0.68118880  1
  Cu+  Cu75  1  0.66758033  0.58212022  0.67308787  1
  Cu+  Cu76  1  0.41658328  0.32778740  0.67064206  1
  Cu+  Cu77  1  0.41208482  0.83152123  0.67665237  1
  Cu+  Cu78  1  0.91474516  0.33177666  0.67624482  1
  Cu+  Cu79  1  0.91640266  0.82691186  0.67776013  1
  Cu+  Cu80  1  0.41544534  0.08211052  0.67649202  1
  Cu+  Cu81  1  0.41120501  0.58208036  0.67804511  1
  Cu+  Cu82  1  0.91497827  0.08416027  0.67736926  1
  Cu+  Cu83  1  0.91604138  0.58363013  0.67711468  1
  Cu+  Cu84  1  0.00331259  0.25317044  0.00634257  1
  Cu+  Cu85  1  -0.00003339  0.74950790  0.01117174  1
  Cu+  Cu86  1  0.50506075  0.25181951  0.01222658  1
  Cu+  Cu87  1  0.50329805  0.75342430  0.00630887  1
  Cu+  Cu88  1  0.24977019  0.50117177  0.00918068  1
  Cu+  Cu89  1  0.24781600  0.99723900  0.01441922  1
  Cu+  Cu90  1  0.74940632  0.49798422  0.00961792  1
  Cu+  Cu91  1  0.75119769  1.00127257  0.00758580  1
  Cu+  Cu92  1  0.24960925  0.25394560  0.00280977  1
  Cu+  Cu93  1  0.24723912  0.75025564  0.01848716  1
  Cu+  Cu94  1  0.75063929  0.25084097  0.01224276  1
  Cu+  Cu95  1  0.75055225  0.75215981  0.00428327  1
  Cu+  Cu96  1  0.33894985  0.41924354  0.33732659  1
  Cu+  Cu97  1  0.33356950  0.91961342  0.34922326  1
  Cu+  Cu98  1  0.83555581  0.41697241  0.34409840  1
  Cu+  Cu99  1  0.83533298  0.91958826  0.34033026  1
  Cu+  Cu100  1  0.08182895  0.16406854  0.33892778  1
  Cu+  Cu101  1  0.08259177  0.66550965  0.35061121  1
  Cu+  Cu102  1  0.58092307  0.16419157  0.34700261  1
  Cu+  Cu103  1  0.58392509  0.66498355  0.33955109  1
  Cu+  Cu104  1  0.08397083  0.42084145  0.34913147  1
  Cu+  Cu105  1  0.07977344  0.91889326  0.34018563  1
  Cu+  Cu106  1  0.58381151  0.41912437  0.33905544  1
  Cu+  Cu107  1  0.58154688  0.91646487  0.34279567  1
  Cu+  Cu108  1  -0.00337835  0.00056987  0.11139964  1
  Cu+  Cu109  1  -0.00557541  0.49631260  0.12119309  1
  Cu+  Cu110  1  0.50343701  -0.00246990  0.11604038  1
  Cu+  Cu111  1  0.49970287  0.50316317  0.10984807  1
  Cu+  Cu112  1  0.33396112  0.17192269  0.44373532  1
  Cu+  Cu113  1  0.33873916  0.66364138  0.44882797  1
  Cu+  Cu114  1  0.83564755  0.16409411  0.44824257  1
  Cu+  Cu115  1  0.82683632  0.66451325  0.44831026  1
  Cu+  Cu116  1  0.16915939  0.33013640  0.77493108  1
  Cu+  Cu117  1  0.16880535  0.83697713  0.78539255  1
  Cu+  Cu118  1  0.66701536  0.33627152  0.78360112  1
  Cu+  Cu119  1  0.66655794  0.83231268  0.77327034  1
  Te2-  Te120  1  -0.00099740  0.00139472  0.38566522  1
  Te2-  Te121  1  -0.00247381  0.49955595  0.39485479  1
  Te2-  Te122  1  0.49975568  -0.00220460  0.39127389  1
  Te2-  Te123  1  0.50177043  0.50074953  0.38414465  1
  Te2-  Te124  1  0.33338780  0.16518162  0.71795260  1
  Te2-  Te125  1  0.33210581  0.66827194  0.72424198  1
  Te2-  Te126  1  0.83413099  0.16849382  0.72380209  1
  Te2-  Te127  1  0.83007974  0.66145209  0.72236088  1
  Te2-  Te128  1  0.16809550  0.33534273  0.04983121  1
  Te2-  Te129  1  0.16273466  0.83226238  0.06067686  1
  Te2-  Te130  1  0.67034396  0.33464998  0.05719360  1
  Te2-  Te131  1  0.66875648  0.83514649  0.04841406  1
  Te2-  Te132  1  0.49601823  0.24708966  0.88489415  1
  Te2-  Te133  1  0.49624575  0.75342041  0.88006897  1
  Te2-  Te134  1  0.99506637  0.25286223  0.88036311  1
  Te2-  Te135  1  0.99149223  0.74193620  0.88538234  1
  Te2-  Te136  1  0.24806639  0.00166955  0.88600619  1
  Te2-  Te137  1  0.25780954  0.51463838  0.88281737  1
  Te2-  Te138  1  0.75821396  0.01226013  0.88115021  1
  Te2-  Te139  1  0.75207698  0.50394439  0.88350886  1
  Te2-  Te140  1  0.25310914  0.25212419  0.87675010  1
  Te2-  Te141  1  0.25478402  0.74880173  0.88993828  1
  Te2-  Te142  1  0.75800916  0.24961636  0.88625838  1
  Te2-  Te143  1  0.75190480  0.74594729  0.87834925  1
  Te2-  Te144  1  0.33155328  0.41339477  0.21150024  1
  Te2-  Te145  1  0.32228964  0.91338701  0.22036085  1
  Te2-  Te146  1  0.83199683  0.41528686  0.21816437  1
  Te2-  Te147  1  0.82724223  0.91487060  0.21448525  1
  Te2-  Te148  1  0.08639667  0.17261283  0.21338920  1
  Te2-  Te149  1  0.08368510  0.67422599  0.22255669  1
  Te2-  Te150  1  0.58756361  0.17256329  0.21918262  1
  Te2-  Te151  1  0.58765804  0.67339678  0.21390237  1
  Te2-  Te152  1  0.08820574  0.41623884  0.22206921  1
  Te2-  Te153  1  0.08308907  0.91071394  0.21467226  1
  Te2-  Te154  1  0.59347299  0.41677181  0.21359336  1
  Te2-  Te155  1  0.58092324  0.91371506  0.21668412  1
  Te2-  Te156  1  0.16353170  0.07821149  0.54552530  1
  Te2-  Te157  1  0.15316912  0.57610413  0.55397266  1
  Te2-  Te158  1  0.65855747  0.07616314  0.55309342  1
  Te2-  Te159  1  0.66261486  0.58100279  0.54736183  1
  Te2-  Te160  1  0.42147480  0.33393880  0.54473753  1
  Te2-  Te161  1  0.41887281  0.83538576  0.55060823  1
  Te2-  Te162  1  0.91439072  0.33829355  0.55063848  1
  Te2-  Te163  1  0.92069473  0.83810130  0.55101168  1
  Te2-  Te164  1  0.42319800  0.07406887  0.55045636  1
  Te2-  Te165  1  0.41302603  0.57798075  0.55023306  1
  Te2-  Te166  1  0.91814652  0.08170856  0.54982010  1
  Te2-  Te167  1  0.91699463  0.57587982  0.55138735  1
  Te2-  Te168  1  0.00066309  0.00306656  0.88138999  1
  Te2-  Te169  1  0.00104811  0.49905524  0.88320980  1
  Te2-  Te170  1  0.50088284  -0.00046168  0.88434683  1
  Te2-  Te171  1  0.50060051  0.50186280  0.87967072  1
  Te2-  Te172  1  0.33212118  0.16829554  0.21344215  1
  Te2-  Te173  1  0.33489695  0.66519924  0.21787610  1
  Te2-  Te174  1  0.83367908  0.16509634  0.21724449  1
  Te2-  Te175  1  0.83181325  0.66871665  0.21455385  1
  Te2-  Te176  1  0.16761228  0.33040786  0.54925382  1
  Te2-  Te177  1  0.16635856  0.83330772  0.54863538  1
  Te2-  Te178  1  0.66589522  0.33206346  0.54835712  1
  Te2-  Te179  1  0.66646898  0.83234210  0.54972851  1
  Te2-  Te180  1  0.32693876  0.40907202  0.70574546  1
  Te2-  Te181  1  0.32668237  0.91372837  0.71529472  1
  Te2-  Te182  1  0.82759015  0.41363715  0.71337950  1
  Te2-  Te183  1  0.82613129  0.91104397  0.70501422  1
  Te2-  Te184  1  0.08793298  0.16979735  0.70638787  1
  Te2-  Te185  1  0.08527704  0.67418098  0.71307480  1
  Te2-  Te186  1  0.58491490  0.17352974  0.71359951  1
  Te2-  Te187  1  0.58558675  0.67172326  0.70547005  1
  Te2-  Te188  1  0.08490241  0.40962604  0.70828624  1
  Te2-  Te189  1  0.08810284  0.91345741  0.71157435  1
  Te2-  Te190  1  0.58503513  0.41280308  0.71119826  1
  Te2-  Te191  1  0.58317682  0.91074616  0.70813728  1
  Te2-  Te192  1  0.16131487  0.08454099  0.04079651  1
  Te2-  Te193  1  0.15796528  0.57765558  0.04893061  1
  Te2-  Te194  1  0.66173448  0.08053943  0.04639182  1
  Te2-  Te195  1  0.66213509  0.58227583  0.04192572  1
  Te2-  Te196  1  0.41936568  0.34005527  0.04001097  1
  Te2-  Te197  1  0.42127681  0.84020919  0.04516323  1
  Te2-  Te198  1  0.92119380  0.33930210  0.04848374  1
  Te2-  Te199  1  0.91937129  0.84001768  0.04285016  1
  Te2-  Te200  1  0.42127027  0.07880909  0.04255168  1
  Te2-  Te201  1  0.41996580  0.58425912  0.04379598  1
  Te2-  Te202  1  0.92083067  0.08351433  0.04366345  1
  Te2-  Te203  1  0.91933224  0.57958975  0.04734966  1
  Te2-  Te204  1  0.49342352  0.24923831  0.37445573  1
  Te2-  Te205  1  0.49536297  0.74615369  0.37814697  1
  Te2-  Te206  1  0.99426881  0.24621017  0.37765235  1
  Te2-  Te207  1  0.99220998  0.74912566  0.37778665  1
  Te2-  Te208  1  0.24949902  0.00793830  0.37526076  1
  Te2-  Te209  1  0.25747181  0.50704493  0.37721711  1
  Te2-  Te210  1  0.75174834  0.00554520  0.37854849  1
  Te2-  Te211  1  0.75274598  0.50462107  0.37799724  1
  Te2-  Te212  1  0.25209467  0.24942810  0.37555134  1
  Te2-  Te213  1  0.25583068  0.74657819  0.37644740  1
  Te2-  Te214  1  0.75450246  0.24591411  0.37673030  1
  Te2-  Te215  1  0.75326740  0.74945552  0.37842176  1
