# generated using pymatgen
data_Ti(CuTe)4
_symmetry_space_group_name_H-M   'P 1'
_cell_length_a   16.88680007
_cell_length_b   16.89043714
_cell_length_c   20.70973350
_cell_angle_alpha   90.04174034
_cell_angle_beta   90.00490943
_cell_angle_gamma   120.00042093
_symmetry_Int_Tables_number   1
_chemical_formula_structural   Ti(CuTe)4
_chemical_formula_sum   'Ti24 Cu96 Te96'
_cell_volume   5115.53873278
_cell_formula_units_Z   24
loop_
 _symmetry_equiv_pos_site_id
 _symmetry_equiv_pos_as_xyz
  1  'x, y, z'
loop_
 _atom_type_symbol
 _atom_type_oxidation_number
  Ti4+  4.0
  Cu+  1.0
  Te2-  -2.0
loop_
 _atom_site_type_symbol
 _atom_site_label
 _atom_site_symmetry_multiplicity
 _atom_site_fract_x
 _atom_site_fract_y
 _atom_site_fract_z
 _atom_site_occupancy
  Ti4+  Ti0  1  0.00293719  0.00172725  0.25679117  1
  Ti4+  Ti1  1  -0.00180194  0.49736234  0.25394746  1
  Ti4+  Ti2  1  0.49716749  -0.00136654  0.25568399  1
  Ti4+  Ti3  1  0.50310550  0.50168776  0.25926396  1
  Ti4+  Ti4  1  0.33108278  0.16460161  0.59303733  1
  Ti4+  Ti5  1  0.33444530  0.66475078  0.59184784  1
  Ti4+  Ti6  1  0.83338775  0.16337369  0.58980346  1
  Ti4+  Ti7  1  0.83169575  0.66553879  0.59235280  1
  Ti4+  Ti8  1  0.16892188  0.33686533  0.92380076  1
  Ti4+  Ti9  1  0.16568040  0.83273680  0.92244698  1
  Ti4+  Ti10  1  0.66333937  0.33433684  0.92136652  1
  Ti4+  Ti11  1  0.66790572  0.83578078  0.93071764  1
  Ti4+  Ti12  1  -0.00077504  -0.00027128  0.75743751  1
  Ti4+  Ti13  1  0.00028402  0.50105765  0.75380990  1
  Ti4+  Ti14  1  0.49978739  -0.00036886  0.75521610  1
  Ti4+  Ti15  1  0.49974361  0.49916615  0.75642786  1
  Ti4+  Ti16  1  0.33202458  0.16550128  0.08959403  1
  Ti4+  Ti17  1  0.33472135  0.66973360  0.08779512  1
  Ti4+  Ti18  1  0.83676817  0.17167647  0.08588403  1
  Ti4+  Ti19  1  0.83199505  0.66524858  0.08767902  1
  Ti4+  Ti20  1  0.16628517  0.33214003  0.42254620  1
  Ti4+  Ti21  1  0.16729920  0.83334549  0.42343509  1
  Ti4+  Ti22  1  0.66768708  0.33345964  0.42276658  1
  Ti4+  Ti23  1  0.66686608  0.83264900  0.42211886  1
  Cu+  Cu24  1  0.18873903  0.59498775  0.80580892  1
  Cu+  Cu25  1  0.40256684  0.31488462  0.80856769  1
  Cu+  Cu26  1  0.57286116  0.64388761  0.47733473  1
  Cu+  Cu27  1  0.74899794  0.99760303  0.14935869  1
  Cu+  Cu28  1  0.40396378  0.08944674  0.80783909  1
  Cu+  Cu29  1  0.90618172  0.59478745  0.80684197  1
  Cu+  Cu30  1  0.74708535  0.75391348  0.15100173  1
  Cu+  Cu31  1  0.07210314  0.14164549  0.47467831  1
  Cu+  Cu32  1  0.73673251  0.47454107  0.13780564  1
  Cu+  Cu33  1  0.23600753  0.97281693  0.13891746  1
  Cu+  Cu34  1  0.51149556  0.75581873  0.14874058  1
  Cu+  Cu35  1  0.02627064  0.26450479  0.13814328  1
  Cu+  Cu36  1  0.16474230  0.07814662  0.17018673  1
  Cu+  Cu37  1  0.16252964  0.58244799  0.16867104  1
  Cu+  Cu38  1  0.66232834  0.08433384  0.16772505  1
  Cu+  Cu39  1  0.66323212  0.57843451  0.16990348  1
  Cu+  Cu40  1  0.41927626  0.33633790  0.17353558  1
  Cu+  Cu41  1  0.42001222  0.84008153  0.16823937  1
  Cu+  Cu42  1  0.92476549  0.34036452  0.16561210  1
  Cu+  Cu43  1  0.92114106  0.83912285  0.16914719  1
  Cu+  Cu44  1  0.41048584  0.07607621  0.17011730  1
  Cu+  Cu45  1  0.42017764  0.58448476  0.17169668  1
  Cu+  Cu46  1  0.92545353  0.08926549  0.16805209  1
  Cu+  Cu47  1  0.91152854  0.57494384  0.16763470  1
  Cu+  Cu48  1  0.49824916  0.24889134  0.50749132  1
  Cu+  Cu49  1  0.49763642  0.74331190  0.50431767  1
  Cu+  Cu50  1  0.99703794  0.24100608  0.50318859  1
  Cu+  Cu51  1  0.99811285  0.74937295  0.50694855  1
  Cu+  Cu52  1  0.25235427  0.00223370  0.50616441  1
  Cu+  Cu53  1  0.25229707  0.50296708  0.50521566  1
  Cu+  Cu54  1  0.75310215  0.00322071  0.50340498  1
  Cu+  Cu55  1  0.75223743  0.50264027  0.50566631  1
  Cu+  Cu56  1  0.24713692  0.24437001  0.50584009  1
  Cu+  Cu57  1  0.25107055  0.74743890  0.50640456  1
  Cu+  Cu58  1  0.75004301  0.24563288  0.50453382  1
  Cu+  Cu59  1  0.74753985  0.74415557  0.50475194  1
  Cu+  Cu60  1  0.32899518  0.41344563  0.83747197  1
  Cu+  Cu61  1  0.32905617  0.91720254  0.83591591  1
  Cu+  Cu62  1  0.82941102  0.42164364  0.83479942  1
  Cu+  Cu63  1  0.83078250  0.91574559  0.84347717  1
  Cu+  Cu64  1  0.08310123  0.17035681  0.83876380  1
  Cu+  Cu65  1  0.08474284  0.66928136  0.83451918  1
  Cu+  Cu66  1  0.57914599  0.16934816  0.83487626  1
  Cu+  Cu67  1  0.58523801  0.67109963  0.84309725  1
  Cu+  Cu68  1  0.08940098  0.42128321  0.83700997  1
  Cu+  Cu69  1  0.08474335  0.91614680  0.83687789  1
  Cu+  Cu70  1  0.58025154  0.41159098  0.83544052  1
  Cu+  Cu71  1  0.58607951  0.91620491  0.84213578  1
  Cu+  Cu72  1  0.16565512  0.08338963  0.67670096  1
  Cu+  Cu73  1  0.17144952  0.58443355  0.67803489  1
  Cu+  Cu74  1  0.67021287  0.08195210  0.67444523  1
  Cu+  Cu75  1  0.66701786  0.58458507  0.67695535  1
  Cu+  Cu76  1  0.41462118  0.32931264  0.67961646  1
  Cu+  Cu77  1  0.41816937  0.83022951  0.67462732  1
  Cu+  Cu78  1  0.91504717  0.32749997  0.67102969  1
  Cu+  Cu79  1  0.91294387  0.83055456  0.67615234  1
  Cu+  Cu80  1  0.41507572  0.08433658  0.67939782  1
  Cu+  Cu81  1  0.41808586  0.58455666  0.67696457  1
  Cu+  Cu82  1  0.91442195  0.08179705  0.67566417  1
  Cu+  Cu83  1  0.91413486  0.58497736  0.67816974  1
  Cu+  Cu84  1  0.00690418  0.25828116  0.00982338  1
  Cu+  Cu85  1  0.00066102  0.75006095  0.00610795  1
  Cu+  Cu86  1  0.49867936  0.25132492  0.00867701  1
  Cu+  Cu87  1  0.50557743  0.75554589  0.01696841  1
  Cu+  Cu88  1  0.25130291  0.50170408  0.00748929  1
  Cu+  Cu89  1  0.24705025  0.99632392  0.01147644  1
  Cu+  Cu90  1  0.74630106  0.49762350  0.00933454  1
  Cu+  Cu91  1  0.75120266  1.00084618  0.01600691  1
  Cu+  Cu92  1  0.24989247  0.25245580  0.00941406  1
  Cu+  Cu93  1  0.25004149  0.75218989  0.00620233  1
  Cu+  Cu94  1  0.75012564  0.25600178  0.00278227  1
  Cu+  Cu95  1  0.74803252  0.75271527  0.01765680  1
  Cu+  Cu96  1  0.33704555  0.42044494  0.34355008  1
  Cu+  Cu97  1  0.33349309  0.91580791  0.34154816  1
  Cu+  Cu98  1  0.83388157  0.41570236  0.33863229  1
  Cu+  Cu99  1  0.83555662  0.91953171  0.34282575  1
  Cu+  Cu100  1  0.08448436  0.16530322  0.34466738  1
  Cu+  Cu101  1  0.08017173  0.66200208  0.33904407  1
  Cu+  Cu102  1  0.57968292  0.16271545  0.33952487  1
  Cu+  Cu103  1  0.58401522  0.66486439  0.34777919  1
  Cu+  Cu104  1  0.08254625  0.41730151  0.34008576  1
  Cu+  Cu105  1  0.08504109  0.91793747  0.34340754  1
  Cu+  Cu106  1  0.58623805  0.41942925  0.34437931  1
  Cu+  Cu107  1  0.58242545  0.91809382  0.34254039  1
  Cu+  Cu108  1  0.00103987  0.00039197  0.11194192  1
  Cu+  Cu109  1  0.00302140  0.50592828  0.10885599  1
  Cu+  Cu110  1  0.50246798  0.00666754  0.11124938  1
  Cu+  Cu111  1  0.49427831  0.49676325  0.11639492  1
  Cu+  Cu112  1  0.33663951  0.16833323  0.45064480  1
  Cu+  Cu113  1  0.33259248  0.66834543  0.44885262  1
  Cu+  Cu114  1  0.83346130  0.16909064  0.44626014  1
  Cu+  Cu115  1  0.83729631  0.66871387  0.44978471  1
  Cu+  Cu116  1  0.16259198  0.33167714  0.78028443  1
  Cu+  Cu117  1  0.16658249  0.83401166  0.77787293  1
  Cu+  Cu118  1  0.66944642  0.33120653  0.77698289  1
  Cu+  Cu119  1  0.66698249  0.83342730  0.78817519  1
  Te2-  Te120  1  0.00036722  -0.00174545  0.38645502  1
  Te2-  Te121  1  -0.00180481  0.49764073  0.38272692  1
  Te2-  Te122  1  0.49823968  -0.00102606  0.38442304  1
  Te2-  Te123  1  0.50072586  0.49814461  0.38935847  1
  Te2-  Te124  1  0.32856802  0.16365398  0.72520725  1
  Te2-  Te125  1  0.33739220  0.66779431  0.72256597  1
  Te2-  Te126  1  0.83395149  0.16573599  0.71913260  1
  Te2-  Te127  1  0.83075299  0.66727242  0.72304441  1
  Te2-  Te128  1  0.17253986  0.33877123  0.05449190  1
  Te2-  Te129  1  0.16366467  0.82877369  0.05291553  1
  Te2-  Te130  1  0.66352132  0.33079845  0.05173586  1
  Te2-  Te131  1  0.66933709  0.83748920  0.06491917  1
  Te2-  Te132  1  0.48604260  0.24422797  0.88312512  1
  Te2-  Te133  1  0.49679742  0.74980339  0.88948189  1
  Te2-  Te134  1  0.99848657  0.25376249  0.88287399  1
  Te2-  Te135  1  0.99296507  0.74825310  0.88061239  1
  Te2-  Te136  1  0.25016028  0.00651635  0.88447633  1
  Te2-  Te137  1  0.25892549  0.51045855  0.88202696  1
  Te2-  Te138  1  0.75328488  0.00618006  0.88836898  1
  Te2-  Te139  1  0.74730923  0.50793453  0.88244757  1
  Te2-  Te140  1  0.25028919  0.24425631  0.88390469  1
  Te2-  Te141  1  0.25499016  0.74966270  0.88044604  1
  Te2-  Te142  1  0.74931337  0.25180983  0.87683071  1
  Te2-  Te143  1  0.75199190  0.74864545  0.88987640  1
  Te2-  Te144  1  0.33274848  0.41820162  0.21725898  1
  Te2-  Te145  1  0.32307569  0.90751190  0.21580651  1
  Te2-  Te146  1  0.82381763  0.40619730  0.21297841  1
  Te2-  Te147  1  0.82790220  0.91670787  0.21655552  1
  Te2-  Te148  1  0.09226911  0.17403138  0.21671672  1
  Te2-  Te149  1  0.08049393  0.66852467  0.21263751  1
  Te2-  Te150  1  0.58040249  0.16867798  0.21310910  1
  Te2-  Te151  1  0.59094180  0.67744526  0.22015001  1
  Te2-  Te152  1  0.09175828  0.41558818  0.21445148  1
  Te2-  Te153  1  0.08511709  0.91021742  0.21714636  1
  Te2-  Te154  1  0.58704783  0.41227929  0.21808941  1
  Te2-  Te155  1  0.58926667  0.91372541  0.21669369  1
  Te2-  Te156  1  0.15797345  0.07523459  0.55093646  1
  Te2-  Te157  1  0.16257179  0.57968317  0.55141815  1
  Te2-  Te158  1  0.66109429  0.07755412  0.54883497  1
  Te2-  Te159  1  0.65774508  0.57526962  0.55129355  1
  Te2-  Te160  1  0.41570275  0.33502847  0.55205557  1
  Te2-  Te161  1  0.42078996  0.83495526  0.54844113  1
  Te2-  Te162  1  0.92012759  0.33372057  0.54519436  1
  Te2-  Te163  1  0.91551938  0.83607057  0.54986949  1
  Te2-  Te164  1  0.41891267  0.08109862  0.55255319  1
  Te2-  Te165  1  0.41875113  0.57475658  0.55140973  1
  Te2-  Te166  1  0.91843834  0.07280070  0.55011999  1
  Te2-  Te167  1  0.91910509  0.58140259  0.55145065  1
  Te2-  Te168  1  0.00133146  0.00153651  0.88357764  1
  Te2-  Te169  1  -0.00188515  0.50015373  0.88120213  1
  Te2-  Te170  1  0.49891803  0.00071092  0.88216247  1
  Te2-  Te171  1  0.49915437  0.49981218  0.88329942  1
  Te2-  Te172  1  0.33329760  0.16710278  0.21636779  1
  Te2-  Te173  1  0.33270706  0.66901806  0.21485573  1
  Te2-  Te174  1  0.83375484  0.17003629  0.21363699  1
  Te2-  Te175  1  0.83564997  0.66822389  0.21537208  1
  Te2-  Te176  1  0.16596780  0.33313359  0.54933064  1
  Te2-  Te177  1  0.16726501  0.83261899  0.54976729  1
  Te2-  Te178  1  0.66804848  0.33242358  0.54903071  1
  Te2-  Te179  1  0.66737652  0.83379791  0.54876820  1
  Te2-  Te180  1  0.32654250  0.41398435  0.71099222  1
  Te2-  Te181  1  0.32762499  0.91100727  0.70893694  1
  Te2-  Te182  1  0.82850921  0.41170288  0.70737945  1
  Te2-  Te183  1  0.82682939  0.91320315  0.71613096  1
  Te2-  Te184  1  0.08402786  0.17114330  0.71233428  1
  Te2-  Te185  1  0.08750811  0.67395193  0.70723903  1
  Te2-  Te186  1  0.58811528  0.17105427  0.70819946  1
  Te2-  Te187  1  0.58672139  0.67305871  0.71605930  1
  Te2-  Te188  1  0.08428908  0.41194044  0.70972751  1
  Te2-  Te189  1  0.08382206  0.91314389  0.71101352  1
  Te2-  Te190  1  0.58743851  0.41385427  0.70971802  1
  Te2-  Te191  1  0.58691637  0.91335363  0.71501566  1
  Te2-  Te192  1  0.16028209  0.08201162  0.04344460  1
  Te2-  Te193  1  0.16304704  0.58294674  0.04240100  1
  Te2-  Te194  1  0.66287988  0.08657258  0.04085046  1
  Te2-  Te195  1  0.65679191  0.57943546  0.04342609  1
  Te2-  Te196  1  0.41833714  0.33854864  0.04680581  1
  Te2-  Te197  1  0.41945299  0.84316396  0.04229646  1
  Te2-  Te198  1  0.91961069  0.34395882  0.03942628  1
  Te2-  Te199  1  0.92156589  0.83980177  0.04281410  1
  Te2-  Te200  1  0.41938768  0.08148163  0.04270186  1
  Te2-  Te201  1  0.42096616  0.58194803  0.04456339  1
  Te2-  Te202  1  0.92494033  0.08514169  0.04109819  1
  Te2-  Te203  1  0.91882946  0.58029072  0.04039124  1
  Te2-  Te204  1  0.49595099  0.24815131  0.37984389  1
  Te2-  Te205  1  0.49356730  0.74763522  0.37728900  1
  Te2-  Te206  1  0.99431840  0.24735562  0.37588849  1
  Te2-  Te207  1  0.99618845  0.74731199  0.37929981  1
  Te2-  Te208  1  0.25436301  0.00571022  0.38000795  1
  Te2-  Te209  1  0.25182275  0.50500738  0.37920453  1
  Te2-  Te210  1  0.75247517  0.00592292  0.37768910  1
  Te2-  Te211  1  0.75580236  0.50590421  0.37941760  1
  Te2-  Te212  1  0.25646231  0.24930477  0.37846589  1
  Te2-  Te213  1  0.25014290  0.74561315  0.37875475  1
  Te2-  Te214  1  0.75005674  0.24577554  0.37694714  1
  Te2-  Te215  1  0.75688972  0.74901867  0.37762486  1
