# generated using pymatgen
data_Ti(CuTe)4
_symmetry_space_group_name_H-M   'P 1'
_cell_length_a   16.88671785
_cell_length_b   16.89053890
_cell_length_c   20.70751639
_cell_angle_alpha   90.01673608
_cell_angle_beta   90.01222617
_cell_angle_gamma   119.99950719
_symmetry_Int_Tables_number   1
_chemical_formula_structural   Ti(CuTe)4
_chemical_formula_sum   'Ti24 Cu96 Te96'
_cell_volume   5115.04547654
_cell_formula_units_Z   24
loop_
 _symmetry_equiv_pos_site_id
 _symmetry_equiv_pos_as_xyz
  1  'x, y, z'
loop_
 _atom_type_symbol
 _atom_type_oxidation_number
  Ti4+  4.0
  Cu+  1.0
  Te2-  -2.0
loop_
 _atom_site_type_symbol
 _atom_site_label
 _atom_site_symmetry_multiplicity
 _atom_site_fract_x
 _atom_site_fract_y
 _atom_site_fract_z
 _atom_site_occupancy
  Ti4+  Ti0  1  -0.00239762  -0.00104936  0.25675669  1
  Ti4+  Ti1  1  -0.00349020  0.49924439  0.25520278  1
  Ti4+  Ti2  1  0.49850725  0.00215527  0.25780163  1
  Ti4+  Ti3  1  0.50034591  0.50396751  0.25910325  1
  Ti4+  Ti4  1  0.33525651  0.16747824  0.58999398  1
  Ti4+  Ti5  1  0.33802852  0.67091073  0.59325157  1
  Ti4+  Ti6  1  0.83712719  0.16766416  0.58793723  1
  Ti4+  Ti7  1  0.83669986  0.66740599  0.59380169  1
  Ti4+  Ti8  1  0.16744075  0.33161180  0.92147819  1
  Ti4+  Ti9  1  0.16483677  0.83075791  0.92951324  1
  Ti4+  Ti10  1  0.66333258  0.32964725  0.92272492  1
  Ti4+  Ti11  1  0.66451446  0.82981017  0.92321607  1
  Ti4+  Ti12  1  0.00035718  -0.00170217  0.75660769  1
  Ti4+  Ti13  1  0.00297579  0.50121685  0.75490826  1
  Ti4+  Ti14  1  0.50231706  0.00151451  0.75675506  1
  Ti4+  Ti15  1  0.50013467  0.49876708  0.75303340  1
  Ti4+  Ti16  1  0.33268887  0.16519688  0.08918340  1
  Ti4+  Ti17  1  0.33296082  0.66491057  0.08932504  1
  Ti4+  Ti18  1  0.83200778  0.16688515  0.08685365  1
  Ti4+  Ti19  1  0.83048461  0.66581454  0.08691724  1
  Ti4+  Ti20  1  0.16650083  0.33339046  0.42119300  1
  Ti4+  Ti21  1  0.16770239  0.83489794  0.42428678  1
  Ti4+  Ti22  1  0.66695282  0.33553590  0.42163875  1
  Ti4+  Ti23  1  0.66633760  0.83523907  0.42308925  1
  Cu+  Cu24  1  0.40395286  0.81686041  0.81248743  1
  Cu+  Cu25  1  0.73568902  0.26141590  0.13832608  1
  Cu+  Cu26  1  0.73571668  0.76110857  0.13919613  1
  Cu+  Cu27  1  0.24159318  0.98695947  0.14858401  1
  Cu+  Cu28  1  0.40545267  0.30975708  0.80595628  1
  Cu+  Cu29  1  0.07457243  0.14473463  0.47290424  1
  Cu+  Cu30  1  0.00401004  0.75311239  0.14989630  1
  Cu+  Cu31  1  0.35463307  0.42904844  0.47599718  1
  Cu+  Cu32  1  0.35982581  0.93032754  0.47668923  1
  Cu+  Cu33  1  0.90580135  0.80799896  0.81066452  1
  Cu+  Cu34  1  0.40815038  0.58521720  0.81165455  1
  Cu+  Cu35  1  0.24397053  0.75462129  0.14912077  1
  Cu+  Cu36  1  0.16200433  0.08026830  0.17085399  1
  Cu+  Cu37  1  0.16190380  0.58170656  0.16959318  1
  Cu+  Cu38  1  0.66418381  0.08733190  0.17012713  1
  Cu+  Cu39  1  0.66172764  0.58782124  0.16970635  1
  Cu+  Cu40  1  0.41709373  0.33727795  0.17357719  1
  Cu+  Cu41  1  0.41619447  0.83636301  0.17134152  1
  Cu+  Cu42  1  0.91093739  0.33497563  0.16809744  1
  Cu+  Cu43  1  0.91323274  0.83756036  0.16739940  1
  Cu+  Cu44  1  0.41548242  0.07818919  0.16992408  1
  Cu+  Cu45  1  0.41892926  0.58132161  0.17243832  1
  Cu+  Cu46  1  0.91736967  0.08242758  0.16931928  1
  Cu+  Cu47  1  0.91849524  0.57910659  0.16677234  1
  Cu+  Cu48  1  0.49906582  0.25063837  0.50336077  1
  Cu+  Cu49  1  0.49811391  0.75195164  0.50623107  1
  Cu+  Cu50  1  0.99732864  0.24374655  0.50102205  1
  Cu+  Cu51  1  0.99811519  0.74985414  0.50828596  1
  Cu+  Cu52  1  0.25738819  0.00409520  0.50407414  1
  Cu+  Cu53  1  0.25673116  0.50448561  0.50540407  1
  Cu+  Cu54  1  0.75408741  0.00522609  0.50270723  1
  Cu+  Cu55  1  0.75542637  0.50452628  0.50626366  1
  Cu+  Cu56  1  0.25180067  0.24979962  0.50281630  1
  Cu+  Cu57  1  0.25840814  0.75663658  0.50639717  1
  Cu+  Cu58  1  0.75388894  0.25107254  0.50300435  1
  Cu+  Cu59  1  0.75536916  0.75320634  0.50812481  1
  Cu+  Cu60  1  0.32826750  0.41001186  0.83390705  1
  Cu+  Cu61  1  0.33054486  0.91437317  0.84261114  1
  Cu+  Cu62  1  0.83172537  0.41299813  0.83738688  1
  Cu+  Cu63  1  0.83129422  0.90888774  0.83789923  1
  Cu+  Cu64  1  0.08619651  0.16884801  0.83621975  1
  Cu+  Cu65  1  0.08542195  0.66907774  0.83968796  1
  Cu+  Cu66  1  0.58589628  0.17027480  0.83708349  1
  Cu+  Cu67  1  0.58381049  0.67073653  0.83473157  1
  Cu+  Cu68  1  0.08601566  0.41481643  0.83488359  1
  Cu+  Cu69  1  0.08010709  0.91085744  0.84191467  1
  Cu+  Cu70  1  0.57895222  0.40740479  0.83484733  1
  Cu+  Cu71  1  0.58023056  0.91109834  0.83692932  1
  Cu+  Cu72  1  0.16908666  0.08364097  0.67443742  1
  Cu+  Cu73  1  0.17224239  0.58803857  0.67528205  1
  Cu+  Cu74  1  0.67421753  0.08871788  0.67284177  1
  Cu+  Cu75  1  0.67288796  0.58539794  0.67511357  1
  Cu+  Cu76  1  0.41554532  0.33080194  0.67713128  1
  Cu+  Cu77  1  0.41792386  0.83435084  0.68237511  1
  Cu+  Cu78  1  0.91902213  0.33189615  0.67027486  1
  Cu+  Cu79  1  0.91681360  0.82856097  0.68164587  1
  Cu+  Cu80  1  0.41986503  0.08623150  0.67657609  1
  Cu+  Cu81  1  0.41883524  0.58695618  0.68081681  1
  Cu+  Cu82  1  0.91786963  0.08472137  0.67280515  1
  Cu+  Cu83  1  0.92003243  0.58581740  0.67651084  1
  Cu+  Cu84  1  0.00308445  0.25068841  0.00472247  1
  Cu+  Cu85  1  -0.00038676  0.74874170  0.01674325  1
  Cu+  Cu86  1  0.49842990  0.24857018  0.00762680  1
  Cu+  Cu87  1  0.49948407  0.74596854  0.00985231  1
  Cu+  Cu88  1  0.25118608  0.49523199  0.00673957  1
  Cu+  Cu89  1  0.24698183  0.99479393  0.01609936  1
  Cu+  Cu90  1  0.74490961  0.49444025  0.00467345  1
  Cu+  Cu91  1  0.74886141  0.99621757  0.00571639  1
  Cu+  Cu92  1  0.25046398  0.25139684  0.00688184  1
  Cu+  Cu93  1  0.24840998  0.74960117  0.01715390  1
  Cu+  Cu94  1  0.74668349  0.25069599  0.01022598  1
  Cu+  Cu95  1  0.74605204  0.74899837  0.01116883  1
  Cu+  Cu96  1  0.33697088  0.42075501  0.34657857  1
  Cu+  Cu97  1  0.33496751  0.91866294  0.34830700  1
  Cu+  Cu98  1  0.83390767  0.41933185  0.34010241  1
  Cu+  Cu99  1  0.83251142  0.91685880  0.34151827  1
  Cu+  Cu100  1  0.08072547  0.16305172  0.34363079  1
  Cu+  Cu101  1  0.08069363  0.66511364  0.34381711  1
  Cu+  Cu102  1  0.58082900  0.16779810  0.34124228  1
  Cu+  Cu103  1  0.58237026  0.66815556  0.34408842  1
  Cu+  Cu104  1  0.08029071  0.41898228  0.33801999  1
  Cu+  Cu105  1  0.08023630  0.91584630  0.34377787  1
  Cu+  Cu106  1  0.58323845  0.42239144  0.34186883  1
  Cu+  Cu107  1  0.58021843  0.91852032  0.34160334  1
  Cu+  Cu108  1  -0.00013813  0.00448362  0.11199978  1
  Cu+  Cu109  1  0.00065581  0.49543345  0.11080895  1
  Cu+  Cu110  1  0.50293238  -0.00190484  0.11423344  1
  Cu+  Cu111  1  0.49787988  0.49528121  0.11528934  1
  Cu+  Cu112  1  0.33426960  0.16809428  0.44656769  1
  Cu+  Cu113  1  0.32967460  0.66561718  0.44997824  1
  Cu+  Cu114  1  0.83196396  0.16905152  0.44420834  1
  Cu+  Cu115  1  0.83268838  0.66866070  0.45204956  1
  Cu+  Cu116  1  0.16188167  0.33000933  0.77669208  1
  Cu+  Cu117  1  0.16893789  0.83623564  0.78652529  1
  Cu+  Cu118  1  0.67240424  0.33631654  0.77906122  1
  Cu+  Cu119  1  0.67117277  0.83993904  0.78002890  1
  Te2-  Te120  1  -0.00331294  -0.00313107  0.38683073  1
  Te2-  Te121  1  -0.00190340  0.49953126  0.38410719  1
  Te2-  Te122  1  0.50264796  0.00427547  0.38788371  1
  Te2-  Te123  1  0.50272640  0.50440799  0.38986683  1
  Te2-  Te124  1  0.33292318  0.16408785  0.72013620  1
  Te2-  Te125  1  0.33386064  0.66777228  0.72539507  1
  Te2-  Te126  1  0.83813194  0.16902540  0.71706576  1
  Te2-  Te127  1  0.83431630  0.66249833  0.72516101  1
  Te2-  Te128  1  0.16622923  0.33127249  0.05077282  1
  Te2-  Te129  1  0.16433608  0.83063336  0.06289883  1
  Te2-  Te130  1  0.66210785  0.33266587  0.05339096  1
  Te2-  Te131  1  0.66395829  0.83378037  0.05342012  1
  Te2-  Te132  1  0.48875199  0.23957296  0.88231473  1
  Te2-  Te133  1  0.48759225  0.74198575  0.88397818  1
  Te2-  Te134  1  0.99606245  0.24688911  0.87892108  1
  Te2-  Te135  1  0.99186854  0.74170147  0.88816740  1
  Te2-  Te136  1  0.24846796  0.00001549  0.88802403  1
  Te2-  Te137  1  0.25266599  0.50522491  0.88125733  1
  Te2-  Te138  1  0.75000484  -0.00146134  0.87937932  1
  Te2-  Te139  1  0.74774286  0.49981962  0.87862890  1
  Te2-  Te140  1  0.25294342  0.24256297  0.88148631  1
  Te2-  Te141  1  0.25089195  0.74389814  0.88880097  1
  Te2-  Te142  1  0.75174374  0.24581435  0.88363138  1
  Te2-  Te143  1  0.74837509  0.73990905  0.88437868  1
  Te2-  Te144  1  0.32797101  0.41547801  0.21953277  1
  Te2-  Te145  1  0.32123486  0.91090252  0.22069100  1
  Te2-  Te146  1  0.82298041  0.41574625  0.21439534  1
  Te2-  Te147  1  0.82465702  0.91523994  0.21540321  1
  Te2-  Te148  1  0.08451826  0.16938926  0.21606277  1
  Te2-  Te149  1  0.08646600  0.67671889  0.21771613  1
  Te2-  Te150  1  0.58172190  0.17457525  0.21525139  1
  Te2-  Te151  1  0.58508745  0.67852111  0.21821587  1
  Te2-  Te152  1  0.08087890  0.41379334  0.21181678  1
  Te2-  Te153  1  0.08436426  0.90967280  0.21778025  1
  Te2-  Te154  1  0.58688559  0.42005807  0.21553992  1
  Te2-  Te155  1  0.58387297  0.91802055  0.21503368  1
  Te2-  Te156  1  0.16309446  0.07865597  0.54822885  1
  Te2-  Te157  1  0.16916911  0.58650955  0.54880946  1
  Te2-  Te158  1  0.66488256  0.08324101  0.54725972  1
  Te2-  Te159  1  0.66603487  0.58357781  0.54960666  1
  Te2-  Te160  1  0.42164644  0.34041426  0.54991806  1
  Te2-  Te161  1  0.42615115  0.84511616  0.55466841  1
  Te2-  Te162  1  0.92349400  0.33851592  0.54458304  1
  Te2-  Te163  1  0.92227251  0.84002414  0.55483813  1
  Te2-  Te164  1  0.42608699  0.08435286  0.55047795  1
  Te2-  Te165  1  0.42556953  0.58511129  0.55280914  1
  Te2-  Te166  1  0.92096931  0.07584155  0.54758136  1
  Te2-  Te167  1  0.92298953  0.58215180  0.55110446  1
  Te2-  Te168  1  -0.00042711  0.00071056  0.88351432  1
  Te2-  Te169  1  0.00058410  0.49772700  0.88107605  1
  Te2-  Te170  1  0.50186994  0.00117477  0.88381226  1
  Te2-  Te171  1  0.49963659  0.49892695  0.88030895  1
  Te2-  Te172  1  0.33291068  0.16696703  0.21619053  1
  Te2-  Te173  1  0.33204295  0.66548024  0.21640776  1
  Te2-  Te174  1  0.83334099  0.16700755  0.21377866  1
  Te2-  Te175  1  0.83274142  0.66556799  0.21449501  1
  Te2-  Te176  1  0.16653489  0.33417223  0.54853830  1
  Te2-  Te177  1  0.16842842  0.83578349  0.55104899  1
  Te2-  Te178  1  0.66886449  0.33445346  0.54795161  1
  Te2-  Te179  1  0.66905991  0.83705341  0.54944935  1
  Te2-  Te180  1  0.32562276  0.41327596  0.70676900  1
  Te2-  Te181  1  0.32823515  0.91669970  0.71435560  1
  Te2-  Te182  1  0.83218945  0.41429958  0.71008339  1
  Te2-  Te183  1  0.82925938  0.91479060  0.71028130  1
  Te2-  Te184  1  0.08644680  0.16977795  0.71004740  1
  Te2-  Te185  1  0.08977504  0.67474395  0.71368215  1
  Te2-  Te186  1  0.58981798  0.17336116  0.71137893  1
  Te2-  Te187  1  0.59159513  0.67412587  0.70938549  1
  Te2-  Te188  1  0.08859167  0.41641921  0.70825678  1
  Te2-  Te189  1  0.08958567  0.91459091  0.71391182  1
  Te2-  Te190  1  0.58865661  0.41403720  0.70816455  1
  Te2-  Te191  1  0.59121729  0.91879988  0.71010470  1
  Te2-  Te192  1  0.16016643  0.08138738  0.04371876  1
  Te2-  Te193  1  0.16092855  0.57587021  0.04266279  1
  Te2-  Te194  1  0.66008755  0.07786974  0.04225157  1
  Te2-  Te195  1  0.65727406  0.57642161  0.04264800  1
  Te2-  Te196  1  0.41845721  0.33728900  0.04609976  1
  Te2-  Te197  1  0.42139306  0.83839346  0.04427173  1
  Te2-  Te198  1  0.91981895  0.33791229  0.04055069  1
  Te2-  Te199  1  0.91862776  0.84109286  0.04098543  1
  Te2-  Te200  1  0.42004412  0.07898792  0.04388769  1
  Te2-  Te201  1  0.41882488  0.57757625  0.04648492  1
  Te2-  Te202  1  0.91826531  0.08125637  0.04254141  1
  Te2-  Te203  1  0.91435013  0.57518899  0.04115460  1
  Te2-  Te204  1  0.49477569  0.25146008  0.37724357  1
  Te2-  Te205  1  0.49325846  0.74937827  0.38026097  1
  Te2-  Te206  1  0.99418469  0.24923629  0.37437137  1
  Te2-  Te207  1  0.99415719  0.74744459  0.38182385  1
  Te2-  Te208  1  0.25067628  0.00722199  0.37749535  1
  Te2-  Te209  1  0.24970320  0.50644562  0.37753315  1
  Te2-  Te210  1  0.75127131  0.00603013  0.37653204  1
  Te2-  Te211  1  0.75333229  0.50766577  0.37933291  1
  Te2-  Te212  1  0.25326714  0.24700722  0.37503724  1
  Te2-  Te213  1  0.25120242  0.74599102  0.37894040  1
  Te2-  Te214  1  0.75161518  0.24934294  0.37604749  1
  Te2-  Te215  1  0.75245701  0.74866745  0.38085028  1
