# generated using pymatgen
data_Ti(CuTe)4
_symmetry_space_group_name_H-M   'P 1'
_cell_length_a   16.89422508
_cell_length_b   16.89114460
_cell_length_c   20.71816227
_cell_angle_alpha   89.98911741
_cell_angle_beta   89.98499083
_cell_angle_gamma   119.99037522
_symmetry_Int_Tables_number   1
_chemical_formula_structural   Ti(CuTe)4
_chemical_formula_sum   'Ti24 Cu96 Te96'
_cell_volume   5120.60510817
_cell_formula_units_Z   24
loop_
 _symmetry_equiv_pos_site_id
 _symmetry_equiv_pos_as_xyz
  1  'x, y, z'
loop_
 _atom_type_symbol
 _atom_type_oxidation_number
  Ti4+  4.0
  Cu+  1.0
  Te2-  -2.0
loop_
 _atom_site_type_symbol
 _atom_site_label
 _atom_site_symmetry_multiplicity
 _atom_site_fract_x
 _atom_site_fract_y
 _atom_site_fract_z
 _atom_site_occupancy
  Ti4+  Ti0  1  -0.00138828  0.00015465  0.25868194  1
  Ti4+  Ti1  1  -0.00084419  0.50190744  0.25854567  1
  Ti4+  Ti2  1  0.49586961  -0.00244611  0.26184302  1
  Ti4+  Ti3  1  0.49815299  0.50078313  0.25757915  1
  Ti4+  Ti4  1  0.33720313  0.16765566  0.58956170  1
  Ti4+  Ti5  1  0.33324779  0.66640996  0.59415750  1
  Ti4+  Ti6  1  0.83621517  0.16810287  0.59137069  1
  Ti4+  Ti7  1  0.83353357  0.66674898  0.58851167  1
  Ti4+  Ti8  1  0.16658704  0.33320521  0.92324773  1
  Ti4+  Ti9  1  0.16659164  0.83203009  0.92311466  1
  Ti4+  Ti10  1  0.66399252  0.33049951  0.92342568  1
  Ti4+  Ti11  1  0.66979459  0.83540946  0.92164277  1
  Ti4+  Ti12  1  -0.00019797  -0.00159160  0.75404187  1
  Ti4+  Ti13  1  0.00212922  0.50016005  0.75481630  1
  Ti4+  Ti14  1  0.50114362  0.00206973  0.75288601  1
  Ti4+  Ti15  1  0.50107056  0.50011868  0.75369384  1
  Ti4+  Ti16  1  0.33255093  0.16572389  0.08990733  1
  Ti4+  Ti17  1  0.33254943  0.66782890  0.08984714  1
  Ti4+  Ti18  1  0.83271784  0.16541920  0.09063346  1
  Ti4+  Ti19  1  0.83225247  0.66552100  0.08895745  1
  Ti4+  Ti20  1  0.16535353  0.33310255  0.42208531  1
  Ti4+  Ti21  1  0.16642556  0.83279155  0.42348549  1
  Ti4+  Ti22  1  0.66563131  0.33398913  0.41996349  1
  Ti4+  Ti23  1  0.66745808  0.83416119  0.42317674  1
  Cu+  Cu24  1  0.40597097  0.09285312  0.80844247  1
  Cu+  Cu25  1  0.90563965  0.80829040  0.80538758  1
  Cu+  Cu26  1  0.57289253  0.42796189  0.47073032  1
  Cu+  Cu27  1  0.23592138  0.76236004  0.14252027  1
  Cu+  Cu28  1  0.58169068  0.15519565  0.47795776  1
  Cu+  Cu29  1  0.85257520  0.42666150  0.47351966  1
  Cu+  Cu30  1  0.18483982  0.58838764  0.81091278  1
  Cu+  Cu31  1  0.68029553  0.09435103  0.81017125  1
  Cu+  Cu32  1  0.41477832  0.82502734  0.81444669  1
  Cu+  Cu33  1  0.35008396  0.91985488  0.47950539  1
  Cu+  Cu34  1  0.85870800  0.93015425  0.47425440  1
  Cu+  Cu35  1  0.91239699  0.09326085  0.80962609  1
  Cu+  Cu36  1  0.16250835  0.08197557  0.17226231  1
  Cu+  Cu37  1  0.16308275  0.58766971  0.17156083  1
  Cu+  Cu38  1  0.66315215  0.08129489  0.17571989  1
  Cu+  Cu39  1  0.66180832  0.58206792  0.17166836  1
  Cu+  Cu40  1  0.41594258  0.33593183  0.17226069  1
  Cu+  Cu41  1  0.41031474  0.83508551  0.17324685  1
  Cu+  Cu42  1  0.91696196  0.33505131  0.17335164  1
  Cu+  Cu43  1  0.91506612  0.83558597  0.17298449  1
  Cu+  Cu44  1  0.41494511  0.07949796  0.17469647  1
  Cu+  Cu45  1  0.41761988  0.58216797  0.17176669  1
  Cu+  Cu46  1  0.91605849  0.07974213  0.17323407  1
  Cu+  Cu47  1  0.91648285  0.58107823  0.17198770  1
  Cu+  Cu48  1  0.49640059  0.24838688  0.50044396  1
  Cu+  Cu49  1  0.49683957  0.74872436  0.50667537  1
  Cu+  Cu50  1  0.99749219  0.24823732  0.50310153  1
  Cu+  Cu51  1  0.99567485  0.74809561  0.50325063  1
  Cu+  Cu52  1  0.25717508  0.00174641  0.50395378  1
  Cu+  Cu53  1  0.24780904  0.50097004  0.50662201  1
  Cu+  Cu54  1  0.75654286  0.00305860  0.50492250  1
  Cu+  Cu55  1  0.75084801  0.50351344  0.50012294  1
  Cu+  Cu56  1  0.25271381  0.25030523  0.50290363  1
  Cu+  Cu57  1  0.25340514  0.74834688  0.50849254  1
  Cu+  Cu58  1  0.75508782  0.25009604  0.50289888  1
  Cu+  Cu59  1  0.75676612  0.75406848  0.50288319  1
  Cu+  Cu60  1  0.33133123  0.41396373  0.83597961  1
  Cu+  Cu61  1  0.32767209  0.91490355  0.83400974  1
  Cu+  Cu62  1  0.83117024  0.41387403  0.83723371  1
  Cu+  Cu63  1  0.83202917  0.91504602  0.83365492  1
  Cu+  Cu64  1  0.08381947  0.17042239  0.83664797  1
  Cu+  Cu65  1  0.08913351  0.66867631  0.83566136  1
  Cu+  Cu66  1  0.58445237  0.17400194  0.83421328  1
  Cu+  Cu67  1  0.58625767  0.66965492  0.83441782  1
  Cu+  Cu68  1  0.08837285  0.41535052  0.83659588  1
  Cu+  Cu69  1  0.08045556  0.90991750  0.83551045  1
  Cu+  Cu70  1  0.58272245  0.41321580  0.83654217  1
  Cu+  Cu71  1  0.59094688  0.91771058  0.83358108  1
  Cu+  Cu72  1  0.17231996  0.08402126  0.67247477  1
  Cu+  Cu73  1  0.17107566  0.58587257  0.68101709  1
  Cu+  Cu74  1  0.67207516  0.08641768  0.67932254  1
  Cu+  Cu75  1  0.66867199  0.58422691  0.67180279  1
  Cu+  Cu76  1  0.41936329  0.33280288  0.67396313  1
  Cu+  Cu77  1  0.41398629  0.83054378  0.68302467  1
  Cu+  Cu78  1  0.91785174  0.33325805  0.67475983  1
  Cu+  Cu79  1  0.91585672  0.82956177  0.67784258  1
  Cu+  Cu80  1  0.41886552  0.08739807  0.67883339  1
  Cu+  Cu81  1  0.41515156  0.58344371  0.67536856  1
  Cu+  Cu82  1  0.91706224  0.08461383  0.67989583  1
  Cu+  Cu83  1  0.91539702  0.58295016  0.67336811  1
  Cu+  Cu84  1  0.00218853  0.25032014  0.00872671  1
  Cu+  Cu85  1  -0.00026909  0.74781209  0.00876855  1
  Cu+  Cu86  1  0.49997033  0.24771003  0.00848864  1
  Cu+  Cu87  1  0.50346215  0.75274180  0.00831252  1
  Cu+  Cu88  1  0.24926531  0.49814775  0.00897881  1
  Cu+  Cu89  1  0.25026549  0.99857167  0.00861352  1
  Cu+  Cu90  1  0.74660778  0.49513128  0.00808217  1
  Cu+  Cu91  1  0.75005887  0.99938236  0.00869357  1
  Cu+  Cu92  1  0.24822615  0.25079678  0.00717537  1
  Cu+  Cu93  1  0.25023406  0.75187119  0.01334411  1
  Cu+  Cu94  1  0.74655589  0.24839097  0.00922237  1
  Cu+  Cu95  1  0.75048835  0.75069108  0.00689774  1
  Cu+  Cu96  1  0.33388315  0.41854837  0.34116578  1
  Cu+  Cu97  1  0.33427005  0.91536753  0.34986358  1
  Cu+  Cu98  1  0.83568226  0.41820667  0.34469069  1
  Cu+  Cu99  1  0.83702013  0.91962437  0.34595440  1
  Cu+  Cu100  1  0.08044626  0.16514721  0.34106558  1
  Cu+  Cu101  1  0.08139663  0.66516291  0.34356589  1
  Cu+  Cu102  1  0.57830157  0.16191827  0.34787338  1
  Cu+  Cu103  1  0.58094703  0.66465616  0.34144119  1
  Cu+  Cu104  1  0.08071059  0.41818455  0.34148531  1
  Cu+  Cu105  1  0.07956855  0.91730313  0.34136571  1
  Cu+  Cu106  1  0.57895973  0.41904874  0.34287150  1
  Cu+  Cu107  1  0.58007328  0.91599153  0.34349389  1
  Cu+  Cu108  1  0.00002886  -0.00156161  0.11613143  1
  Cu+  Cu109  1  -0.00191119  0.49602984  0.11615354  1
  Cu+  Cu110  1  0.50181393  0.00089042  0.11975268  1
  Cu+  Cu111  1  0.49818204  0.49947539  0.11487017  1
  Cu+  Cu112  1  0.32652688  0.16431321  0.44588463  1
  Cu+  Cu113  1  0.33355101  0.66240963  0.45164000  1
  Cu+  Cu114  1  0.83385563  0.16612127  0.44638865  1
  Cu+  Cu115  1  0.83277754  0.66792762  0.44352017  1
  Cu+  Cu116  1  0.16910700  0.33094831  0.77921157  1
  Cu+  Cu117  1  0.16342031  0.83158255  0.77818287  1
  Cu+  Cu118  1  0.67250110  0.34250018  0.77994458  1
  Cu+  Cu119  1  0.66690358  0.83085474  0.77666284  1
  Te2-  Te120  1  0.00306741  0.00295012  0.38996225  1
  Te2-  Te121  1  0.00132268  0.50136231  0.38934792  1
  Te2-  Te122  1  0.50035908  -0.00252113  0.39464513  1
  Te2-  Te123  1  0.49676214  0.50193107  0.38877189  1
  Te2-  Te124  1  0.33440412  0.16937981  0.72015692  1
  Te2-  Te125  1  0.33589814  0.66546144  0.72670367  1
  Te2-  Te126  1  0.83735974  0.17090205  0.72340782  1
  Te2-  Te127  1  0.83147914  0.66247045  0.71891778  1
  Te2-  Te128  1  0.16676144  0.33332917  0.05202818  1
  Te2-  Te129  1  0.16458572  0.83395130  0.05287236  1
  Te2-  Te130  1  0.66429617  0.33092529  0.05217926  1
  Te2-  Te131  1  0.66877943  0.83388121  0.04992978  1
  Te2-  Te132  1  0.48961742  0.24586538  0.88255053  1
  Te2-  Te133  1  0.49691546  0.74774143  0.88186621  1
  Te2-  Te134  1  0.99252080  0.24929942  0.88277088  1
  Te2-  Te135  1  0.99393573  0.74131797  0.88214162  1
  Te2-  Te136  1  0.24910933  0.00442464  0.88203323  1
  Te2-  Te137  1  0.25798113  0.50727851  0.88319773  1
  Te2-  Te138  1  0.75762437  0.01166560  0.88243412  1
  Te2-  Te139  1  0.75068906  0.50155388  0.88172584  1
  Te2-  Te140  1  0.25066574  0.24633375  0.88107678  1
  Te2-  Te141  1  0.25707383  0.74629199  0.88531343  1
  Te2-  Te142  1  0.75406280  0.24659996  0.88324038  1
  Te2-  Te143  1  0.75337413  0.74611255  0.88067921  1
  Te2-  Te144  1  0.32657591  0.41475929  0.21565042  1
  Te2-  Te145  1  0.32189259  0.91331748  0.22225019  1
  Te2-  Te146  1  0.82752228  0.41388681  0.21799191  1
  Te2-  Te147  1  0.82612851  0.91341710  0.21940315  1
  Te2-  Te148  1  0.08404575  0.17147495  0.21574751  1
  Te2-  Te149  1  0.08320653  0.67625234  0.21788904  1
  Te2-  Te150  1  0.58215969  0.16853651  0.22059857  1
  Te2-  Te151  1  0.58484472  0.67275155  0.21602895  1
  Te2-  Te152  1  0.08622789  0.41890531  0.21541721  1
  Te2-  Te153  1  0.08363118  0.91381854  0.21585947  1
  Te2-  Te154  1  0.58367798  0.41440533  0.21668758  1
  Te2-  Te155  1  0.57931172  0.91166700  0.21753445  1
  Te2-  Te156  1  0.16792788  0.08136856  0.54668611  1
  Te2-  Te157  1  0.16221772  0.58198478  0.55398200  1
  Te2-  Te158  1  0.66423441  0.07955176  0.55117918  1
  Te2-  Te159  1  0.66161983  0.58402286  0.54597951  1
  Te2-  Te160  1  0.42087768  0.34052475  0.54808313  1
  Te2-  Te161  1  0.42288138  0.84048234  0.55523087  1
  Te2-  Te162  1  0.92290395  0.34068288  0.54892740  1
  Te2-  Te163  1  0.92408316  0.84150334  0.55113502  1
  Te2-  Te164  1  0.42622462  0.08000218  0.55144001  1
  Te2-  Te165  1  0.41699817  0.58036507  0.54956715  1
  Te2-  Te166  1  0.92447903  0.08300746  0.55218812  1
  Te2-  Te167  1  0.92057368  0.58071277  0.54771770  1
  Te2-  Te168  1  0.00126963  -0.00000463  0.88155203  1
  Te2-  Te169  1  0.00066640  0.49880204  0.88179329  1
  Te2-  Te170  1  0.50068256  0.00028898  0.88087759  1
  Te2-  Te171  1  0.50065319  0.50050145  0.87959657  1
  Te2-  Te172  1  0.33137367  0.16660111  0.21611240  1
  Te2-  Te173  1  0.33216048  0.66548860  0.21663073  1
  Te2-  Te174  1  0.83282488  0.16614229  0.21713745  1
  Te2-  Te175  1  0.83102369  0.66577622  0.21513919  1
  Te2-  Te176  1  0.16621358  0.33172725  0.54818390  1
  Te2-  Te177  1  0.16514916  0.83225193  0.55030215  1
  Te2-  Te178  1  0.66720846  0.33357584  0.54831626  1
  Te2-  Te179  1  0.66720967  0.83318744  0.54995740  1
  Te2-  Te180  1  0.32911921  0.41304637  0.70958238  1
  Te2-  Te181  1  0.32537666  0.91474785  0.70777643  1
  Te2-  Te182  1  0.82971315  0.41421313  0.71043822  1
  Te2-  Te183  1  0.82592133  0.91212263  0.70689337  1
  Te2-  Te184  1  0.08991321  0.17159307  0.70911037  1
  Te2-  Te185  1  0.08504857  0.67291168  0.70909771  1
  Te2-  Te186  1  0.59107372  0.17775195  0.70782297  1
  Te2-  Te187  1  0.58621109  0.67164526  0.70808575  1
  Te2-  Te188  1  0.08755632  0.41223493  0.70986926  1
  Te2-  Te189  1  0.08859788  0.91453196  0.70853705  1
  Te2-  Te190  1  0.58833312  0.41526804  0.70961336  1
  Te2-  Te191  1  0.58813954  0.91360574  0.70704535  1
  Te2-  Te192  1  0.16153696  0.08067897  0.04513687  1
  Te2-  Te193  1  0.16001567  0.57908679  0.04447934  1
  Te2-  Te194  1  0.66086822  0.07937338  0.04798326  1
  Te2-  Te195  1  0.66103100  0.58037352  0.04468213  1
  Te2-  Te196  1  0.41803194  0.33684723  0.04533055  1
  Te2-  Te197  1  0.42220298  0.84112486  0.04580669  1
  Te2-  Te198  1  0.91752296  0.33620267  0.04602377  1
  Te2-  Te199  1  0.91937551  0.83774216  0.04563239  1
  Te2-  Te200  1  0.41869633  0.07879192  0.04783521  1
  Te2-  Te201  1  0.41931592  0.58253113  0.04530493  1
  Te2-  Te202  1  0.91945036  0.08052985  0.04650097  1
  Te2-  Te203  1  0.91697307  0.57781316  0.04556699  1
  Te2-  Te204  1  0.49025674  0.24678758  0.37448587  1
  Te2-  Te205  1  0.49430155  0.74692699  0.38049906  1
  Te2-  Te206  1  0.99368173  0.24800669  0.37710008  1
  Te2-  Te207  1  0.99441421  0.74824817  0.37775190  1
  Te2-  Te208  1  0.25001828  0.00490362  0.37711059  1
  Te2-  Te209  1  0.25058363  0.50495964  0.37935865  1
  Te2-  Te210  1  0.75088146  0.00641407  0.37781541  1
  Te2-  Te211  1  0.75174082  0.50749291  0.37331463  1
  Te2-  Te212  1  0.25118662  0.24811743  0.37636308  1
  Te2-  Te213  1  0.25081287  0.74302122  0.38114004  1
  Te2-  Te214  1  0.75191789  0.24526852  0.37542837  1
  Te2-  Te215  1  0.75117754  0.74659250  0.37622948  1
