# generated using pymatgen
data_Ti(CuTe)4
_symmetry_space_group_name_H-M   'P 1'
_cell_length_a   16.89408291
_cell_length_b   16.88427392
_cell_length_c   20.71315144
_cell_angle_alpha   89.96653078
_cell_angle_beta   89.91931610
_cell_angle_gamma   119.99655747
_symmetry_Int_Tables_number   1
_chemical_formula_structural   Ti(CuTe)4
_chemical_formula_sum   'Ti24 Cu96 Te96'
_cell_volume   5116.91232605
_cell_formula_units_Z   24
loop_
 _symmetry_equiv_pos_site_id
 _symmetry_equiv_pos_as_xyz
  1  'x, y, z'
loop_
 _atom_type_symbol
 _atom_type_oxidation_number
  Ti4+  4.0
  Cu+  1.0
  Te2-  -2.0
loop_
 _atom_site_type_symbol
 _atom_site_label
 _atom_site_symmetry_multiplicity
 _atom_site_fract_x
 _atom_site_fract_y
 _atom_site_fract_z
 _atom_site_occupancy
  Ti4+  Ti0  1  0.00124449  0.00060458  0.25898950  1
  Ti4+  Ti1  1  0.00401173  0.50095675  0.25796815  1
  Ti4+  Ti2  1  0.50048657  0.00092411  0.25634484  1
  Ti4+  Ti3  1  0.50046310  0.49766248  0.25859853  1
  Ti4+  Ti4  1  0.33332763  0.16734823  0.59144689  1
  Ti4+  Ti5  1  0.33548306  0.66563162  0.59291629  1
  Ti4+  Ti6  1  0.83428569  0.16793169  0.59043264  1
  Ti4+  Ti7  1  0.83737742  0.66975354  0.58994880  1
  Ti4+  Ti8  1  0.16508726  0.33296480  0.92382346  1
  Ti4+  Ti9  1  0.16404322  0.83415195  0.92382736  1
  Ti4+  Ti10  1  0.66780514  0.33451655  0.92315851  1
  Ti4+  Ti11  1  0.66380243  0.83183832  0.92369650  1
  Ti4+  Ti12  1  0.00098804  0.00043827  0.75637960  1
  Ti4+  Ti13  1  -0.00287794  0.49838792  0.75407639  1
  Ti4+  Ti14  1  0.49949628  -0.00074456  0.75423831  1
  Ti4+  Ti15  1  0.49990878  0.50078442  0.75456239  1
  Ti4+  Ti16  1  0.33353954  0.16681716  0.08931137  1
  Ti4+  Ti17  1  0.32927816  0.66431526  0.08914182  1
  Ti4+  Ti18  1  0.83226253  0.16576937  0.08890866  1
  Ti4+  Ti19  1  0.83251410  0.66668617  0.09020357  1
  Ti4+  Ti20  1  0.16800112  0.33247779  0.42403854  1
  Ti4+  Ti21  1  0.16532522  0.83249460  0.42328045  1
  Ti4+  Ti22  1  0.66907619  0.33344746  0.42237618  1
  Ti4+  Ti23  1  0.66555470  0.83240709  0.42058559  1
  Cu+  Cu24  1  0.90385969  0.31133992  0.80778661  1
  Cu+  Cu25  1  0.52462479  0.26225738  0.13997890  1
  Cu+  Cu26  1  0.19063007  0.09630704  0.80863890  1
  Cu+  Cu27  1  0.02413165  0.76186996  0.14169415  1
  Cu+  Cu28  1  0.02359375  0.26090097  0.14143484  1
  Cu+  Cu29  1  0.86119036  0.43126247  0.47288490  1
  Cu+  Cu30  1  0.41029096  0.59410123  0.81046745  1
  Cu+  Cu31  1  0.90344904  0.59282095  0.80687653  1
  Cu+  Cu32  1  0.85058136  0.93016435  0.47303922  1
  Cu+  Cu33  1  0.17485046  0.59104176  0.81197541  1
  Cu+  Cu34  1  0.35876081  0.42899313  0.47493274  1
  Cu+  Cu35  1  0.07808549  0.92981352  0.47736988  1
  Cu+  Cu36  1  0.16202913  0.07936557  0.17165867  1
  Cu+  Cu37  1  0.16151960  0.57980235  0.17033769  1
  Cu+  Cu38  1  0.66094684  0.07997625  0.16942798  1
  Cu+  Cu39  1  0.66158416  0.57992671  0.17144607  1
  Cu+  Cu40  1  0.42154979  0.33489364  0.17219925  1
  Cu+  Cu41  1  0.41523997  0.83417777  0.17129363  1
  Cu+  Cu42  1  0.92175174  0.33386904  0.17178827  1
  Cu+  Cu43  1  0.92165578  0.83449999  0.17293915  1
  Cu+  Cu44  1  0.42297133  0.08691485  0.17004029  1
  Cu+  Cu45  1  0.41297236  0.57803137  0.17277608  1
  Cu+  Cu46  1  0.92055685  0.08573775  0.17176951  1
  Cu+  Cu47  1  0.92172871  0.58696738  0.17252760  1
  Cu+  Cu48  1  0.49748075  0.24725180  0.50463077  1
  Cu+  Cu49  1  0.49550453  0.74509625  0.50341544  1
  Cu+  Cu50  1  0.99555195  0.24899057  0.50481229  1
  Cu+  Cu51  1  0.99693792  0.75247473  0.50347317  1
  Cu+  Cu52  1  0.24828308  0.00324070  0.50594843  1
  Cu+  Cu53  1  0.25685318  0.50143939  0.50720177  1
  Cu+  Cu54  1  0.75242833  0.00289003  0.50348972  1
  Cu+  Cu55  1  0.75856095  0.50198171  0.50430806  1
  Cu+  Cu56  1  0.25558434  0.25166260  0.50528753  1
  Cu+  Cu57  1  0.25043332  0.74698835  0.50717776  1
  Cu+  Cu58  1  0.75779711  0.25587330  0.50397276  1
  Cu+  Cu59  1  0.75560727  0.75453660  0.50148763  1
  Cu+  Cu60  1  0.32932570  0.41858096  0.83583090  1
  Cu+  Cu61  1  0.32982632  0.91504452  0.83570204  1
  Cu+  Cu62  1  0.82713964  0.41422780  0.83435154  1
  Cu+  Cu63  1  0.82840350  0.91327032  0.83919129  1
  Cu+  Cu64  1  0.08704497  0.16873150  0.83792951  1
  Cu+  Cu65  1  0.07887859  0.67050230  0.83648405  1
  Cu+  Cu66  1  0.58324549  0.16856583  0.83654969  1
  Cu+  Cu67  1  0.58285213  0.67117253  0.83685951  1
  Cu+  Cu68  1  0.08096079  0.41192883  0.83555750  1
  Cu+  Cu69  1  0.08676113  0.91898931  0.83773706  1
  Cu+  Cu70  1  0.58505079  0.41618589  0.83671747  1
  Cu+  Cu71  1  0.58414121  0.91484418  0.83588510  1
  Cu+  Cu72  1  0.17059921  0.08541899  0.67977152  1
  Cu+  Cu73  1  0.17045386  0.58250213  0.68020804  1
  Cu+  Cu74  1  0.66829980  0.08508531  0.67227076  1
  Cu+  Cu75  1  0.67111610  0.58497068  0.67216607  1
  Cu+  Cu76  1  0.41572015  0.33159466  0.67590956  1
  Cu+  Cu77  1  0.41657321  0.83071944  0.67536081  1
  Cu+  Cu78  1  0.91158077  0.32914779  0.67904386  1
  Cu+  Cu79  1  0.91732580  0.83359418  0.67630530  1
  Cu+  Cu80  1  0.41348033  0.08244808  0.67412245  1
  Cu+  Cu81  1  0.41634516  0.58425522  0.68064322  1
  Cu+  Cu82  1  0.91454500  0.08349008  0.67569880  1
  Cu+  Cu83  1  0.91563024  0.58505998  0.67763094  1
  Cu+  Cu84  1  0.00087778  0.24974174  0.01203376  1
  Cu+  Cu85  1  0.00100335  0.75212052  0.01198100  1
  Cu+  Cu86  1  0.50355545  0.25258826  0.01170892  1
  Cu+  Cu87  1  0.49904745  0.74848893  0.00812390  1
  Cu+  Cu88  1  0.24545349  0.49846760  0.00939230  1
  Cu+  Cu89  1  0.24731243  0.99965763  0.00889144  1
  Cu+  Cu90  1  0.74841777  0.49935332  0.00812292  1
  Cu+  Cu91  1  0.74512570  0.99493281  0.00764963  1
  Cu+  Cu92  1  0.24788126  0.24949116  0.00952878  1
  Cu+  Cu93  1  0.24428944  0.74776756  0.00876117  1
  Cu+  Cu94  1  0.74774980  0.24922850  0.00715812  1
  Cu+  Cu95  1  0.74450512  0.74976469  0.00804677  1
  Cu+  Cu96  1  0.33843026  0.41653363  0.34637312  1
  Cu+  Cu97  1  0.33730100  0.91845242  0.33990332  1
  Cu+  Cu98  1  0.84130808  0.41900462  0.34403780  1
  Cu+  Cu99  1  0.83578297  0.91757404  0.34406022  1
  Cu+  Cu100  1  0.08221321  0.16582613  0.34338565  1
  Cu+  Cu101  1  0.08385082  0.66604674  0.34282961  1
  Cu+  Cu102  1  0.58283977  0.16436177  0.34102232  1
  Cu+  Cu103  1  0.57872724  0.66267439  0.34086625  1
  Cu+  Cu104  1  0.08449798  0.41557591  0.34289553  1
  Cu+  Cu105  1  0.08011769  0.91524529  0.34801492  1
  Cu+  Cu106  1  0.58257447  0.41496703  0.34287664  1
  Cu+  Cu107  1  0.57907883  0.91592669  0.33984164  1
  Cu+  Cu108  1  -0.00444250  -0.00247229  0.11609267  1
  Cu+  Cu109  1  -0.00803839  0.49586255  0.11563541  1
  Cu+  Cu110  1  0.49548941  -0.00471668  0.11311742  1
  Cu+  Cu111  1  0.49699682  0.50088390  0.11592076  1
  Cu+  Cu112  1  0.33560704  0.16485915  0.44801121  1
  Cu+  Cu113  1  0.33006379  0.66660426  0.44993398  1
  Cu+  Cu114  1  0.82883803  0.16426874  0.44726180  1
  Cu+  Cu115  1  0.82587558  0.66278835  0.44694486  1
  Cu+  Cu116  1  0.16574547  0.33136711  0.77967536  1
  Cu+  Cu117  1  0.16754237  0.83456860  0.77979791  1
  Cu+  Cu118  1  0.65951435  0.32974290  0.77884236  1
  Cu+  Cu119  1  0.66849937  0.83540123  0.78021757  1
  Te2-  Te120  1  0.00104680  0.00273779  0.39105741  1
  Te2-  Te121  1  0.00705041  0.50217494  0.38865681  1
  Te2-  Te122  1  0.50044567  0.00045798  0.38566306  1
  Te2-  Te123  1  0.50466508  0.50061160  0.38943850  1
  Te2-  Te124  1  0.33691237  0.16822037  0.72221306  1
  Te2-  Te125  1  0.33500174  0.66869056  0.72536196  1
  Te2-  Te126  1  0.83001939  0.16276643  0.72118879  1
  Te2-  Te127  1  0.83320565  0.66912109  0.72041842  1
  Te2-  Te128  1  0.16795875  0.33405267  0.05376944  1
  Te2-  Te129  1  0.16777730  0.83536109  0.05407960  1
  Te2-  Te130  1  0.67067481  0.33546596  0.05351845  1
  Te2-  Te131  1  0.66275439  0.83143836  0.05302452  1
  Te2-  Te132  1  0.49670979  0.24930571  0.88390490  1
  Te2-  Te133  1  0.48937050  0.74802745  0.88248188  1
  Te2-  Te134  1  0.99286494  0.24341919  0.88404853  1
  Te2-  Te135  1  0.99105947  0.75053528  0.88422809  1
  Te2-  Te136  1  0.25577761  0.00784584  0.88298748  1
  Te2-  Te137  1  0.25072852  0.50882571  0.88326454  1
  Te2-  Te138  1  0.75078277  0.00392928  0.88201136  1
  Te2-  Te139  1  0.75190204  0.50846800  0.88228994  1
  Te2-  Te140  1  0.25644553  0.25153370  0.88328966  1
  Te2-  Te141  1  0.25033959  0.74784776  0.88256784  1
  Te2-  Te142  1  0.75100927  0.24441013  0.88128196  1
  Te2-  Te143  1  0.74929220  0.74509794  0.88239156  1
  Te2-  Te144  1  0.32908271  0.41042343  0.21895547  1
  Te2-  Te145  1  0.32952713  0.91762314  0.21396192  1
  Te2-  Te146  1  0.83473285  0.41664855  0.21612425  1
  Te2-  Te147  1  0.83275978  0.91595548  0.21644507  1
  Te2-  Te148  1  0.09006404  0.17420170  0.21746136  1
  Te2-  Te149  1  0.09118423  0.67532225  0.21720894  1
  Te2-  Te150  1  0.59166492  0.17649557  0.21562448  1
  Te2-  Te151  1  0.58225273  0.66857615  0.21514213  1
  Te2-  Te152  1  0.09123680  0.41402529  0.21724975  1
  Te2-  Te153  1  0.08939661  0.91430036  0.22048341  1
  Te2-  Te154  1  0.59052092  0.41350642  0.21724602  1
  Te2-  Te155  1  0.58396125  0.91276057  0.21420919  1
  Te2-  Te156  1  0.15979170  0.08453628  0.55259937  1
  Te2-  Te157  1  0.16465361  0.57850972  0.55200989  1
  Te2-  Te158  1  0.66537774  0.08494880  0.54597633  1
  Te2-  Te159  1  0.66928863  0.58438011  0.54548424  1
  Te2-  Te160  1  0.42420538  0.34102865  0.55030143  1
  Te2-  Te161  1  0.41953943  0.83608883  0.54947547  1
  Te2-  Te162  1  0.92457812  0.34332053  0.55232990  1
  Te2-  Te163  1  0.92313827  0.84691463  0.55041186  1
  Te2-  Te164  1  0.41603116  0.07934355  0.54844457  1
  Te2-  Te165  1  0.42495186  0.58083237  0.55349388  1
  Te2-  Te166  1  0.92262184  0.08238338  0.55003790  1
  Te2-  Te167  1  0.92695526  0.58576165  0.55078140  1
  Te2-  Te168  1  -0.00217787  -0.00058680  0.88305006  1
  Te2-  Te169  1  -0.00268312  0.49907956  0.88249470  1
  Te2-  Te170  1  0.49864338  -0.00093313  0.88017913  1
  Te2-  Te171  1  0.49920126  0.50019178  0.88142653  1
  Te2-  Te172  1  0.33212436  0.16489366  0.21601111  1
  Te2-  Te173  1  0.33077586  0.66508878  0.21506750  1
  Te2-  Te174  1  0.83004182  0.16450061  0.21571406  1
  Te2-  Te175  1  0.83070045  0.66500833  0.21699365  1
  Te2-  Te176  1  0.16545133  0.33127666  0.55064943  1
  Te2-  Te177  1  0.16638204  0.83269138  0.55018251  1
  Te2-  Te178  1  0.66642703  0.33302113  0.54915067  1
  Te2-  Te179  1  0.66528876  0.83263579  0.54756389  1
  Te2-  Te180  1  0.32612052  0.41163998  0.70967093  1
  Te2-  Te181  1  0.32758217  0.91246250  0.70966253  1
  Te2-  Te182  1  0.82285775  0.41282586  0.70783772  1
  Te2-  Te183  1  0.82887282  0.91437922  0.71244197  1
  Te2-  Te184  1  0.08470997  0.17260298  0.71080617  1
  Te2-  Te185  1  0.08763108  0.67312352  0.70906891  1
  Te2-  Te186  1  0.58409895  0.17076976  0.70963539  1
  Te2-  Te187  1  0.58969810  0.67365899  0.70947465  1
  Te2-  Te188  1  0.08418697  0.41020313  0.70891228  1
  Te2-  Te189  1  0.08628249  0.91282750  0.71090002  1
  Te2-  Te190  1  0.58640659  0.41535351  0.71009120  1
  Te2-  Te191  1  0.58691555  0.91481742  0.70958908  1
  Te2-  Te192  1  0.15968729  0.08039926  0.04616643  1
  Te2-  Te193  1  0.15634676  0.57858720  0.04487291  1
  Te2-  Te194  1  0.66023584  0.07970837  0.04385773  1
  Te2-  Te195  1  0.66045781  0.58054079  0.04558508  1
  Te2-  Te196  1  0.41841671  0.33991391  0.04485756  1
  Te2-  Te197  1  0.41535864  0.83556200  0.04417722  1
  Te2-  Te198  1  0.91724696  0.33850870  0.04375004  1
  Te2-  Te199  1  0.91524122  0.83860178  0.04525283  1
  Te2-  Te200  1  0.41828517  0.07944512  0.04291193  1
  Te2-  Te201  1  0.41566173  0.57867451  0.04546630  1
  Te2-  Te202  1  0.91574955  0.07705466  0.04426772  1
  Te2-  Te203  1  0.91786362  0.57980204  0.04448676  1
  Te2-  Te204  1  0.49632161  0.24628603  0.37869758  1
  Te2-  Te205  1  0.49289131  0.74616772  0.37768105  1
  Te2-  Te206  1  0.99463750  0.24699711  0.37956147  1
  Te2-  Te207  1  0.99172239  0.74318447  0.37786870  1
  Te2-  Te208  1  0.25350193  0.00465134  0.37811213  1
  Te2-  Te209  1  0.25454533  0.50531326  0.37966487  1
  Te2-  Te210  1  0.75017739  0.00479893  0.37559012  1
  Te2-  Te211  1  0.75417566  0.50495415  0.37638723  1
  Te2-  Te212  1  0.25233265  0.24392960  0.37868273  1
  Te2-  Te213  1  0.25363261  0.74900411  0.37979592  1
  Te2-  Te214  1  0.75342555  0.24644688  0.37640334  1
  Te2-  Te215  1  0.75010714  0.74463036  0.37445148  1
