# generated using pymatgen
data_Ti(CuTe)4
_symmetry_space_group_name_H-M   'P 1'
_cell_length_a   16.87880477
_cell_length_b   16.87847467
_cell_length_c   20.69302240
_cell_angle_alpha   90.00235524
_cell_angle_beta   89.99773221
_cell_angle_gamma   119.99434867
_symmetry_Int_Tables_number   1
_chemical_formula_structural   Ti(CuTe)4
_chemical_formula_sum   'Ti24 Cu96 Te96'
_cell_volume   5105.68684683
_cell_formula_units_Z   24
loop_
 _symmetry_equiv_pos_site_id
 _symmetry_equiv_pos_as_xyz
  1  'x, y, z'
loop_
 _atom_type_symbol
 _atom_type_oxidation_number
  Ti4+  4.0
  Cu+  1.0
  Te2-  -2.0
loop_
 _atom_site_type_symbol
 _atom_site_label
 _atom_site_symmetry_multiplicity
 _atom_site_fract_x
 _atom_site_fract_y
 _atom_site_fract_z
 _atom_site_occupancy
  Ti4+  Ti0  1  0.00161879  -0.00104053  0.25565538  1
  Ti4+  Ti1  1  0.00014293  0.50157441  0.25890386  1
  Ti4+  Ti2  1  0.50356840  -0.00137226  0.25912936  1
  Ti4+  Ti3  1  0.50281932  0.49930869  0.25844485  1
  Ti4+  Ti4  1  0.33580357  0.16461229  0.58863236  1
  Ti4+  Ti5  1  0.32888735  0.66377179  0.58945706  1
  Ti4+  Ti6  1  0.83337630  0.16478440  0.58991259  1
  Ti4+  Ti7  1  0.82992087  0.66417280  0.59511852  1
  Ti4+  Ti8  1  0.16655077  0.33478816  0.92268745  1
  Ti4+  Ti9  1  0.16682102  0.83727453  0.92527271  1
  Ti4+  Ti10  1  0.66523669  0.33761448  0.92540217  1
  Ti4+  Ti11  1  0.66464505  0.83524381  0.92664439  1
  Ti4+  Ti12  1  -0.00003339  -0.00079541  0.75448259  1
  Ti4+  Ti13  1  -0.00125468  0.49971740  0.75618606  1
  Ti4+  Ti14  1  0.49845116  0.00021456  0.75789038  1
  Ti4+  Ti15  1  0.49997461  0.49930694  0.75480220  1
  Ti4+  Ti16  1  0.33387319  0.16812518  0.09016574  1
  Ti4+  Ti17  1  0.33341374  0.66864169  0.08931802  1
  Ti4+  Ti18  1  0.83199925  0.16676395  0.08785154  1
  Ti4+  Ti19  1  0.83369058  0.66724447  0.08925233  1
  Ti4+  Ti20  1  0.16635445  0.33341222  0.41946449  1
  Ti4+  Ti21  1  0.16875992  0.83240684  0.42160771  1
  Ti4+  Ti22  1  0.66660961  0.33317509  0.42202392  1
  Ti4+  Ti23  1  0.66768967  0.83241428  0.42296837  1
  Cu+  Cu24  1  0.91109294  0.59811336  0.81168681  1
  Cu+  Cu25  1  0.35177949  0.91914277  0.47421449  1
  Cu+  Cu26  1  0.68017891  0.59645758  0.81439705  1
  Cu+  Cu27  1  0.51868610  0.75430444  0.14260244  1
  Cu+  Cu28  1  0.57894724  0.15037587  0.47646682  1
  Cu+  Cu29  1  0.74162805  0.47917329  0.14356574  1
  Cu+  Cu30  1  0.74588033  0.98207538  0.14207296  1
  Cu+  Cu31  1  0.40320013  0.09913937  0.80744638  1
  Cu+  Cu32  1  0.06874354  0.64956602  0.47763676  1
  Cu+  Cu33  1  0.06793074  0.42046656  0.47350270  1
  Cu+  Cu34  1  0.02321745  0.75984364  0.14130548  1
  Cu+  Cu35  1  0.57294067  0.42804445  0.47624055  1
  Cu+  Cu36  1  0.16485114  0.08161392  0.17044678  1
  Cu+  Cu37  1  0.16291893  0.58312885  0.17191648  1
  Cu+  Cu38  1  0.66483674  0.07863989  0.17005798  1
  Cu+  Cu39  1  0.66268306  0.57538566  0.17017276  1
  Cu+  Cu40  1  0.42204699  0.33558258  0.17238058  1
  Cu+  Cu41  1  0.42270712  0.83595808  0.17082054  1
  Cu+  Cu42  1  0.92034352  0.33689215  0.17077698  1
  Cu+  Cu43  1  0.92514000  0.83746820  0.16869027  1
  Cu+  Cu44  1  0.41986999  0.08255412  0.17444592  1
  Cu+  Cu45  1  0.41992725  0.58426937  0.17184464  1
  Cu+  Cu46  1  0.91632842  0.07924853  0.16925462  1
  Cu+  Cu47  1  0.91917902  0.58359112  0.17122333  1
  Cu+  Cu48  1  0.49782473  0.24769484  0.50105112  1
  Cu+  Cu49  1  0.49655703  0.74669551  0.50340424  1
  Cu+  Cu50  1  0.99717091  0.24941453  0.50222569  1
  Cu+  Cu51  1  0.99585382  0.74607147  0.50741362  1
  Cu+  Cu52  1  0.25825423  0.00156079  0.50126164  1
  Cu+  Cu53  1  0.24475139  0.50034442  0.50065264  1
  Cu+  Cu54  1  0.75254354  0.00149272  0.50355806  1
  Cu+  Cu55  1  0.74692843  0.50363694  0.50628803  1
  Cu+  Cu56  1  0.25082383  0.24553391  0.50136374  1
  Cu+  Cu57  1  0.24980046  0.74425037  0.50093467  1
  Cu+  Cu58  1  0.75083284  0.24319588  0.50224857  1
  Cu+  Cu59  1  0.74761791  0.74601776  0.50728571  1
  Cu+  Cu60  1  0.32798091  0.41603947  0.83638630  1
  Cu+  Cu61  1  0.33083484  0.92274507  0.83882739  1
  Cu+  Cu62  1  0.83135680  0.42230359  0.83822076  1
  Cu+  Cu63  1  0.83020526  0.92084521  0.83862978  1
  Cu+  Cu64  1  0.08562758  0.17042694  0.83590652  1
  Cu+  Cu65  1  0.08256878  0.67083377  0.83965037  1
  Cu+  Cu66  1  0.57817910  0.16965708  0.83933761  1
  Cu+  Cu67  1  0.58281788  0.67158798  0.83954076  1
  Cu+  Cu68  1  0.08650212  0.41485425  0.83772351  1
  Cu+  Cu69  1  0.08532009  0.91633794  0.83678604  1
  Cu+  Cu70  1  0.58869335  0.41962053  0.83627144  1
  Cu+  Cu71  1  0.58261690  0.91479470  0.84144354  1
  Cu+  Cu72  1  0.16841261  0.07999594  0.67158544  1
  Cu+  Cu73  1  0.16568871  0.58290668  0.67559447  1
  Cu+  Cu74  1  0.66882277  0.08135183  0.67557070  1
  Cu+  Cu75  1  0.66634980  0.58284421  0.68386839  1
  Cu+  Cu76  1  0.41720737  0.33112779  0.67351488  1
  Cu+  Cu77  1  0.41429517  0.82932786  0.67572534  1
  Cu+  Cu78  1  0.91500891  0.32834998  0.67487730  1
  Cu+  Cu79  1  0.91459719  0.83106895  0.67728336  1
  Cu+  Cu80  1  0.41714961  0.08369467  0.67928387  1
  Cu+  Cu81  1  0.41282831  0.58260249  0.67209001  1
  Cu+  Cu82  1  0.91654598  0.08347364  0.67205147  1
  Cu+  Cu83  1  0.91267416  0.58271132  0.68216995  1
  Cu+  Cu84  1  0.00281381  0.25352676  0.00480193  1
  Cu+  Cu85  1  0.00334760  0.75314991  0.01377451  1
  Cu+  Cu86  1  0.50059418  0.25226508  0.00927352  1
  Cu+  Cu87  1  0.50151890  0.75315503  0.01342963  1
  Cu+  Cu88  1  0.24594503  0.49757882  0.00635338  1
  Cu+  Cu89  1  0.25069280  1.00112214  0.00984855  1
  Cu+  Cu90  1  0.74866927  0.49998926  0.01581472  1
  Cu+  Cu91  1  0.74521710  0.99855688  0.01320366  1
  Cu+  Cu92  1  0.24849104  0.25431970  0.00624250  1
  Cu+  Cu93  1  0.24726006  0.75155542  0.00726685  1
  Cu+  Cu94  1  0.74923735  0.25478461  0.00763626  1
  Cu+  Cu95  1  0.74832232  0.75127648  0.00960835  1
  Cu+  Cu96  1  0.33714808  0.41733053  0.33979638  1
  Cu+  Cu97  1  0.33913847  0.91813841  0.34536426  1
  Cu+  Cu98  1  0.83353708  0.41909429  0.34189091  1
  Cu+  Cu99  1  0.83768974  0.91586528  0.34032391  1
  Cu+  Cu100  1  0.08190785  0.16336109  0.33735150  1
  Cu+  Cu101  1  0.08214673  0.66592404  0.34741760  1
  Cu+  Cu102  1  0.58435040  0.16348509  0.34603424  1
  Cu+  Cu103  1  0.58537808  0.66433836  0.34171484  1
  Cu+  Cu104  1  0.08197194  0.41983723  0.34525326  1
  Cu+  Cu105  1  0.08319105  0.91752866  0.34101902  1
  Cu+  Cu106  1  0.58396390  0.41880084  0.34788068  1
  Cu+  Cu107  1  0.58602807  0.91584819  0.34368082  1
  Cu+  Cu108  1  0.00339800  0.00647681  0.11121328  1
  Cu+  Cu109  1  0.00067687  0.49820699  0.11459656  1
  Cu+  Cu110  1  0.49787438  0.00213388  0.11588269  1
  Cu+  Cu111  1  0.49277591  0.49707216  0.11520215  1
  Cu+  Cu112  1  0.33063374  0.16608066  0.44343160  1
  Cu+  Cu113  1  0.33752450  0.66306749  0.44459409  1
  Cu+  Cu114  1  0.83628407  0.16273936  0.44507299  1
  Cu+  Cu115  1  0.83469708  0.67115352  0.45183777  1
  Cu+  Cu116  1  0.16621158  0.33051244  0.77817697  1
  Cu+  Cu117  1  0.16868198  0.83266334  0.78147835  1
  Cu+  Cu118  1  0.66837246  0.32938223  0.78207174  1
  Cu+  Cu119  1  0.66639381  0.83545012  0.78332093  1
  Te2-  Te120  1  0.00183106  0.00055424  0.38452630  1
  Te2-  Te121  1  -0.00361810  0.49988012  0.39084202  1
  Te2-  Te122  1  0.50434885  -0.00214882  0.39114073  1
  Te2-  Te123  1  0.49943198  0.50112399  0.38886745  1
  Te2-  Te124  1  0.33216480  0.16669814  0.71869175  1
  Te2-  Te125  1  0.33070889  0.66426414  0.71811553  1
  Te2-  Te126  1  0.83366413  0.16409728  0.71858891  1
  Te2-  Te127  1  0.83246266  0.66849573  0.72682885  1
  Te2-  Te128  1  0.16524807  0.33441228  0.05223917  1
  Te2-  Te129  1  0.17020581  0.83681438  0.05566118  1
  Te2-  Te130  1  0.66461942  0.33277124  0.05577786  1
  Te2-  Te131  1  0.66716635  0.83286092  0.05852735  1
  Te2-  Te132  1  0.49228144  0.25341661  0.88344801  1
  Te2-  Te133  1  0.49327046  0.74809681  0.88637459  1
  Te2-  Te134  1  0.99457182  0.24726419  0.87950214  1
  Te2-  Te135  1  0.99298356  0.75163883  0.88614809  1
  Te2-  Te136  1  0.25071033  0.01110969  0.88391218  1
  Te2-  Te137  1  0.25322889  0.50781632  0.88111693  1
  Te2-  Te138  1  0.74974303  0.00634328  0.88584252  1
  Te2-  Te139  1  0.75529481  0.51411303  0.88750897  1
  Te2-  Te140  1  0.25303174  0.24919875  0.88047912  1
  Te2-  Te141  1  0.25181914  0.75251022  0.88124200  1
  Te2-  Te142  1  0.74931558  0.25255322  0.88118550  1
  Te2-  Te143  1  0.75515052  0.75284750  0.88376600  1
  Te2-  Te144  1  0.33293645  0.41560712  0.21392754  1
  Te2-  Te145  1  0.33364528  0.91382196  0.21781048  1
  Te2-  Te146  1  0.82772323  0.41185502  0.21612893  1
  Te2-  Te147  1  0.82816081  0.90775224  0.21451591  1
  Te2-  Te148  1  0.08431394  0.16958609  0.21174242  1
  Te2-  Te149  1  0.08870304  0.67483749  0.21931460  1
  Te2-  Te150  1  0.58841806  0.16862750  0.21823404  1
  Te2-  Te151  1  0.59209650  0.67187124  0.21609792  1
  Te2-  Te152  1  0.08622679  0.41647895  0.21779589  1
  Te2-  Te153  1  0.09245550  0.91487141  0.21544753  1
  Te2-  Te154  1  0.58749374  0.40931425  0.21998707  1
  Te2-  Te155  1  0.59126144  0.91032246  0.21755878  1
  Te2-  Te156  1  0.16572903  0.07743516  0.54544861  1
  Te2-  Te157  1  0.15263809  0.57628417  0.54911357  1
  Te2-  Te158  1  0.65898632  0.07446343  0.54948159  1
  Te2-  Te159  1  0.65623024  0.58026115  0.55530655  1
  Te2-  Te160  1  0.41793025  0.33762662  0.54749627  1
  Te2-  Te161  1  0.42012485  0.83737191  0.54925733  1
  Te2-  Te162  1  0.91628620  0.33873397  0.54900610  1
  Te2-  Te163  1  0.91609544  0.83406221  0.55120003  1
  Te2-  Te164  1  0.42485175  0.07750371  0.55101950  1
  Te2-  Te165  1  0.41313057  0.57799082  0.54589700  1
  Te2-  Te166  1  0.92051429  0.08161086  0.54614292  1
  Te2-  Te167  1  0.91358323  0.57518485  0.55405357  1
  Te2-  Te168  1  0.00060438  0.00238512  0.88076488  1
  Te2-  Te169  1  0.00142584  0.50022164  0.88292547  1
  Te2-  Te170  1  0.49918113  0.00135629  0.88481361  1
  Te2-  Te171  1  0.49797431  0.50029594  0.88174784  1
  Te2-  Te172  1  0.33382097  0.16626777  0.21633424  1
  Te2-  Te173  1  0.33291807  0.66632150  0.21650572  1
  Te2-  Te174  1  0.83509973  0.16703343  0.21501174  1
  Te2-  Te175  1  0.83317227  0.66760170  0.21661791  1
  Te2-  Te176  1  0.16676300  0.33096056  0.54647921  1
  Te2-  Te177  1  0.16724358  0.83227146  0.54952091  1
  Te2-  Te178  1  0.66737967  0.33118808  0.54951029  1
  Te2-  Te179  1  0.66478948  0.83272072  0.54909917  1
  Te2-  Te180  1  0.32855017  0.41305563  0.70951517  1
  Te2-  Te181  1  0.32663049  0.91167462  0.71114450  1
  Te2-  Te182  1  0.82600129  0.40987538  0.71111371  1
  Te2-  Te183  1  0.82698345  0.91437855  0.71176419  1
  Te2-  Te184  1  0.08706588  0.16960566  0.70823700  1
  Te2-  Te185  1  0.08578189  0.67289100  0.71140054  1
  Te2-  Te186  1  0.58887993  0.17172826  0.71138977  1
  Te2-  Te187  1  0.58210234  0.67289620  0.71149845  1
  Te2-  Te188  1  0.08457049  0.41320714  0.71148282  1
  Te2-  Te189  1  0.08568426  0.91148779  0.71081748  1
  Te2-  Te190  1  0.58563054  0.40974239  0.71058651  1
  Te2-  Te191  1  0.58337389  0.91262787  0.71443128  1
  Te2-  Te192  1  0.16300179  0.08406838  0.04396293  1
  Te2-  Te193  1  0.16134098  0.58220563  0.04519071  1
  Te2-  Te194  1  0.65835184  0.08420799  0.04342683  1
  Te2-  Te195  1  0.65853209  0.58221900  0.04460742  1
  Te2-  Te196  1  0.41818430  0.33965732  0.04541719  1
  Te2-  Te197  1  0.41747579  0.84169037  0.04405137  1
  Te2-  Te198  1  0.91919818  0.33906457  0.04399826  1
  Te2-  Te199  1  0.91856094  0.84111752  0.04325294  1
  Te2-  Te200  1  0.42041659  0.08259769  0.04620904  1
  Te2-  Te201  1  0.41635345  0.57970824  0.04372375  1
  Te2-  Te202  1  0.91967529  0.08293606  0.04128127  1
  Te2-  Te203  1  0.92171466  0.58080568  0.04371491  1
  Te2-  Te204  1  0.49314859  0.24500342  0.37435180  1
  Te2-  Te205  1  0.49604146  0.74547427  0.37663028  1
  Te2-  Te206  1  0.99406785  0.24579613  0.37398306  1
  Te2-  Te207  1  0.99397789  0.74902085  0.37938151  1
  Te2-  Te208  1  0.25370526  0.00521230  0.37502455  1
  Te2-  Te209  1  0.25525736  0.50630686  0.37361660  1
  Te2-  Te210  1  0.75599884  0.00415945  0.37700216  1
  Te2-  Te211  1  0.75533244  0.50871347  0.37976323  1
  Te2-  Te212  1  0.25183504  0.24693035  0.37471686  1
  Te2-  Te213  1  0.25561594  0.74518043  0.37434369  1
  Te2-  Te214  1  0.75645793  0.24897722  0.37624740  1
  Te2-  Te215  1  0.75431935  0.74670163  0.38008874  1
