# generated using pymatgen
data_Ti(CuTe)4
_symmetry_space_group_name_H-M   'P 1'
_cell_length_a   16.86687545
_cell_length_b   16.86698400
_cell_length_c   20.68146861
_cell_angle_alpha   90.04270537
_cell_angle_beta   89.95805770
_cell_angle_gamma   119.97634013
_symmetry_Int_Tables_number   1
_chemical_formula_structural   Ti(CuTe)4
_chemical_formula_sum   'Ti24 Cu96 Te96'
_cell_volume   5096.68052709
_cell_formula_units_Z   24
loop_
 _symmetry_equiv_pos_site_id
 _symmetry_equiv_pos_as_xyz
  1  'x, y, z'
loop_
 _atom_type_symbol
 _atom_type_oxidation_number
  Ti4+  4.0
  Cu+  1.0
  Te2-  -2.0
loop_
 _atom_site_type_symbol
 _atom_site_label
 _atom_site_symmetry_multiplicity
 _atom_site_fract_x
 _atom_site_fract_y
 _atom_site_fract_z
 _atom_site_occupancy
  Ti4+  Ti0  1  0.00022829  0.00537148  0.25898033  1
  Ti4+  Ti1  1  -0.00097068  0.50294086  0.25959219  1
  Ti4+  Ti2  1  0.50017510  0.00456719  0.25783885  1
  Ti4+  Ti3  1  0.49803468  0.50034120  0.25905574  1
  Ti4+  Ti4  1  0.33447895  0.16496355  0.59199711  1
  Ti4+  Ti5  1  0.33574078  0.66314703  0.59016093  1
  Ti4+  Ti6  1  0.83257155  0.16296990  0.58981690  1
  Ti4+  Ti7  1  0.83651906  0.66503020  0.58708005  1
  Ti4+  Ti8  1  0.16894430  0.33400237  0.92684491  1
  Ti4+  Ti9  1  0.16455984  0.83099623  0.92543502  1
  Ti4+  Ti10  1  0.66493657  0.33085316  0.92516317  1
  Ti4+  Ti11  1  0.66548742  0.83434867  0.92297157  1
  Ti4+  Ti12  1  0.00048804  -0.00131139  0.75566377  1
  Ti4+  Ti13  1  0.00031581  0.49990616  0.75529734  1
  Ti4+  Ti14  1  0.50303703  0.00015038  0.75446616  1
  Ti4+  Ti15  1  0.49740062  0.49753968  0.75660028  1
  Ti4+  Ti16  1  0.33386909  0.16904937  0.08972612  1
  Ti4+  Ti17  1  0.33256975  0.66696559  0.09020920  1
  Ti4+  Ti18  1  0.83282825  0.16684585  0.09073477  1
  Ti4+  Ti19  1  0.83207715  0.66652386  0.08970109  1
  Ti4+  Ti20  1  0.16735290  0.33586465  0.42186398  1
  Ti4+  Ti21  1  0.16487623  0.83365085  0.41975752  1
  Ti4+  Ti22  1  0.66484739  0.33352435  0.42209764  1
  Ti4+  Ti23  1  0.66640399  0.83409258  0.42072920  1
  Cu+  Cu24  1  0.40314938  0.59237948  0.80985816  1
  Cu+  Cu25  1  0.08094939  0.64821712  0.47342590  1
  Cu+  Cu26  1  0.35102634  0.41894705  0.47699676  1
  Cu+  Cu27  1  0.58097794  0.64873846  0.47541168  1
  Cu+  Cu28  1  0.84820923  0.41540588  0.47435133  1
  Cu+  Cu29  1  0.40265362  0.30730878  0.80927811  1
  Cu+  Cu30  1  0.52285845  0.26467811  0.14059413  1
  Cu+  Cu31  1  0.23952138  0.26477102  0.14244345  1
  Cu+  Cu32  1  0.57128011  0.14192103  0.47456995  1
  Cu+  Cu33  1  0.08186957  0.15208100  0.47683454  1
  Cu+  Cu34  1  0.84944739  0.92148247  0.47529852  1
  Cu+  Cu35  1  0.69267559  0.09731375  0.80714967  1
  Cu+  Cu36  1  0.16293585  0.09085199  0.17100644  1
  Cu+  Cu37  1  0.16313824  0.58593419  0.17369019  1
  Cu+  Cu38  1  0.66310825  0.08593143  0.17225947  1
  Cu+  Cu39  1  0.66380850  0.58583847  0.17209416  1
  Cu+  Cu40  1  0.41607932  0.33709888  0.17110583  1
  Cu+  Cu41  1  0.41587172  0.83677635  0.17237929  1
  Cu+  Cu42  1  0.91575161  0.33710979  0.17440814  1
  Cu+  Cu43  1  0.91513012  0.83714224  0.17271195  1
  Cu+  Cu44  1  0.42403479  0.08901144  0.17077296  1
  Cu+  Cu45  1  0.41705675  0.58332110  0.17330230  1
  Cu+  Cu46  1  0.91792330  0.08430711  0.17343650  1
  Cu+  Cu47  1  0.91773648  0.58330057  0.17366749  1
  Cu+  Cu48  1  0.49649699  0.24255839  0.50366936  1
  Cu+  Cu49  1  0.49748516  0.74216569  0.50125402  1
  Cu+  Cu50  1  0.99703764  0.24357008  0.50059629  1
  Cu+  Cu51  1  0.99741043  0.74262230  0.49769297  1
  Cu+  Cu52  1  0.25263141  0.00293147  0.50242807  1
  Cu+  Cu53  1  0.25961398  0.50448811  0.50052745  1
  Cu+  Cu54  1  0.75510180  0.00375470  0.50108747  1
  Cu+  Cu55  1  0.75799425  0.50350276  0.49892768  1
  Cu+  Cu56  1  0.25391226  0.24833659  0.50579094  1
  Cu+  Cu57  1  0.25064740  0.74731876  0.50318168  1
  Cu+  Cu58  1  0.74698107  0.24371110  0.50463974  1
  Cu+  Cu59  1  0.75355295  0.74765289  0.50145354  1
  Cu+  Cu60  1  0.32928431  0.41367085  0.83854845  1
  Cu+  Cu61  1  0.32878503  0.91290053  0.83834024  1
  Cu+  Cu62  1  0.83004229  0.41594226  0.83790776  1
  Cu+  Cu63  1  0.82956006  0.91426236  0.83654009  1
  Cu+  Cu64  1  0.08475427  0.16779393  0.84030021  1
  Cu+  Cu65  1  0.08444624  0.67020711  0.83790386  1
  Cu+  Cu66  1  0.58895123  0.16943233  0.83694412  1
  Cu+  Cu67  1  0.57983389  0.67021484  0.83624710  1
  Cu+  Cu68  1  0.08397749  0.41563220  0.83961643  1
  Cu+  Cu69  1  0.08392980  0.91210325  0.83941594  1
  Cu+  Cu70  1  0.57811625  0.40902632  0.83900444  1
  Cu+  Cu71  1  0.59039885  0.91950381  0.83487166  1
  Cu+  Cu72  1  0.16847516  0.08426201  0.67705426  1
  Cu+  Cu73  1  0.16835320  0.58190820  0.67434305  1
  Cu+  Cu74  1  0.66987121  0.08426527  0.67835969  1
  Cu+  Cu75  1  0.67055740  0.58307799  0.67284513  1
  Cu+  Cu76  1  0.41520764  0.32835066  0.68086626  1
  Cu+  Cu77  1  0.41615754  0.82897270  0.67309301  1
  Cu+  Cu78  1  0.91567078  0.33143101  0.67531550  1
  Cu+  Cu79  1  0.91747229  0.83072664  0.67180476  1
  Cu+  Cu80  1  0.41786798  0.08256781  0.67637651  1
  Cu+  Cu81  1  0.41607571  0.58152653  0.68125776  1
  Cu+  Cu82  1  0.91800935  0.08207809  0.67652540  1
  Cu+  Cu83  1  0.91847353  0.58298313  0.67418976  1
  Cu+  Cu84  1  0.00238516  0.25034225  0.01135811  1
  Cu+  Cu85  1  0.00114595  0.74984481  0.00868445  1
  Cu+  Cu86  1  0.50249202  0.24988118  0.01247368  1
  Cu+  Cu87  1  0.50116575  0.75102901  0.00730569  1
  Cu+  Cu88  1  0.25115604  0.49987952  0.01152708  1
  Cu+  Cu89  1  0.24597238  0.99428813  0.00861009  1
  Cu+  Cu90  1  0.74706515  0.49725681  0.00898061  1
  Cu+  Cu91  1  0.74902521  0.99856039  0.00886001  1
  Cu+  Cu92  1  0.24977554  0.25272515  0.01443556  1
  Cu+  Cu93  1  0.24599680  0.75051387  0.00803116  1
  Cu+  Cu94  1  0.74925960  0.24944690  0.01005028  1
  Cu+  Cu95  1  0.74671035  0.75074146  0.00615633  1
  Cu+  Cu96  1  0.33470477  0.42000697  0.34758615  1
  Cu+  Cu97  1  0.33541215  0.92202972  0.33921553  1
  Cu+  Cu98  1  0.83527399  0.42117337  0.34574289  1
  Cu+  Cu99  1  0.83664846  0.92315616  0.34612747  1
  Cu+  Cu100  1  0.08167145  0.16806629  0.34736319  1
  Cu+  Cu101  1  0.07987046  0.66503881  0.34500661  1
  Cu+  Cu102  1  0.57841676  0.16480640  0.34650876  1
  Cu+  Cu103  1  0.57902373  0.66393190  0.34629750  1
  Cu+  Cu104  1  0.08315040  0.42194020  0.34094976  1
  Cu+  Cu105  1  0.08291033  0.92260471  0.33863819  1
  Cu+  Cu106  1  0.57928683  0.41658632  0.34108330  1
  Cu+  Cu107  1  0.58037771  0.92036201  0.33965043  1
  Cu+  Cu108  1  -0.00242550  -0.00347321  0.11631591  1
  Cu+  Cu109  1  -0.00041909  0.49914364  0.11756088  1
  Cu+  Cu110  1  0.49958431  -0.00383093  0.11522145  1
  Cu+  Cu111  1  0.50240501  0.50414615  0.11579721  1
  Cu+  Cu112  1  0.33231878  0.16518386  0.44644536  1
  Cu+  Cu113  1  0.33521758  0.67377869  0.44499844  1
  Cu+  Cu114  1  0.83306840  0.16895366  0.44447058  1
  Cu+  Cu115  1  0.83353476  0.66844377  0.44002626  1
  Cu+  Cu116  1  0.16008292  0.33039711  0.78386098  1
  Cu+  Cu117  1  0.16762656  0.83335491  0.78125392  1
  Cu+  Cu118  1  0.66907720  0.33722689  0.78128101  1
  Cu+  Cu119  1  0.66875040  0.83145405  0.77735342  1
  Te2-  Te120  1  0.00186959  0.00222697  0.39122658  1
  Te2-  Te121  1  0.00022356  0.50001774  0.39159274  1
  Te2-  Te122  1  0.49692055  -0.00145134  0.38872294  1
  Te2-  Te123  1  0.50018962  0.49891143  0.39147288  1
  Te2-  Te124  1  0.33267615  0.16170391  0.72236581  1
  Te2-  Te125  1  0.33240927  0.66547527  0.72030084  1
  Te2-  Te126  1  0.83690237  0.16669365  0.71966601  1
  Te2-  Te127  1  0.83539868  0.66586456  0.71562089  1
  Te2-  Te128  1  0.16644994  0.33592182  0.05732893  1
  Te2-  Te129  1  0.16425135  0.83160747  0.05507416  1
  Te2-  Te130  1  0.66890005  0.33363073  0.05560404  1
  Te2-  Te131  1  0.66551256  0.83341644  0.05195607  1
  Te2-  Te132  1  0.49152789  0.23973507  0.88467230  1
  Te2-  Te133  1  0.49192562  0.75143670  0.88117343  1
  Te2-  Te134  1  0.99802833  0.24856873  0.88520929  1
  Te2-  Te135  1  0.99252362  0.74488760  0.88298557  1
  Te2-  Te136  1  0.25159609  0.00303473  0.88291496  1
  Te2-  Te137  1  0.25187657  0.50700847  0.88496995  1
  Te2-  Te138  1  0.75760703  0.00887171  0.88263140  1
  Te2-  Te139  1  0.74728849  0.50116318  0.88260602  1
  Te2-  Te140  1  0.25252030  0.24412970  0.88647236  1
  Te2-  Te141  1  0.25131751  0.74576270  0.88249002  1
  Te2-  Te142  1  0.75710430  0.24914662  0.88398097  1
  Te2-  Te143  1  0.74841102  0.74629214  0.88011680  1
  Te2-  Te144  1  0.32512249  0.41610683  0.21947754  1
  Te2-  Te145  1  0.32976440  0.92018259  0.21383052  1
  Te2-  Te146  1  0.82737964  0.41623714  0.21882045  1
  Te2-  Te147  1  0.82872261  0.91776510  0.21894765  1
  Te2-  Te148  1  0.08453134  0.17942809  0.21977501  1
  Te2-  Te149  1  0.08480235  0.67451925  0.21829881  1
  Te2-  Te150  1  0.59062640  0.17949161  0.21918706  1
  Te2-  Te151  1  0.58348707  0.67153028  0.21912295  1
  Te2-  Te152  1  0.08478235  0.41764422  0.21589274  1
  Te2-  Te153  1  0.08578809  0.92157741  0.21311247  1
  Te2-  Te154  1  0.58686781  0.41715461  0.21560547  1
  Te2-  Te155  1  0.58448167  0.91762918  0.21438122  1
  Te2-  Te156  1  0.16154218  0.07778493  0.55075184  1
  Te2-  Te157  1  0.16333242  0.57516967  0.54822012  1
  Te2-  Te158  1  0.65926550  0.07439295  0.55036015  1
  Te2-  Te159  1  0.66343437  0.57587599  0.54684167  1
  Te2-  Te160  1  0.42438368  0.33777463  0.55255879  1
  Te2-  Te161  1  0.41918999  0.83275082  0.54671669  1
  Te2-  Te162  1  0.92109476  0.33499341  0.54878068  1
  Te2-  Te163  1  0.92470273  0.83757772  0.54557681  1
  Te2-  Te164  1  0.41787144  0.07462924  0.55044784  1
  Te2-  Te165  1  0.42492066  0.57531019  0.55233403  1
  Te2-  Te166  1  0.92274253  0.07674546  0.55013474  1
  Te2-  Te167  1  0.92435848  0.57609983  0.54787060  1
  Te2-  Te168  1  -0.00148172  -0.00276973  0.88223017  1
  Te2-  Te169  1  -0.00087925  0.50077722  0.88200962  1
  Te2-  Te170  1  0.49940819  -0.00146990  0.88110971  1
  Te2-  Te171  1  0.50015422  0.50145207  0.88386413  1
  Te2-  Te172  1  0.33227667  0.16746042  0.21713256  1
  Te2-  Te173  1  0.33252960  0.66894697  0.21708682  1
  Te2-  Te174  1  0.83179884  0.16814737  0.21753189  1
  Te2-  Te175  1  0.83253758  0.66876194  0.21659833  1
  Te2-  Te176  1  0.16674309  0.33383533  0.54948864  1
  Te2-  Te177  1  0.16622355  0.83250544  0.54704037  1
  Te2-  Te178  1  0.66726645  0.33453384  0.54963391  1
  Te2-  Te179  1  0.66753688  0.83254067  0.54842817  1
  Te2-  Te180  1  0.32312834  0.40893372  0.71111453  1
  Te2-  Te181  1  0.32987236  0.91219126  0.71120421  1
  Te2-  Te182  1  0.82794429  0.41341112  0.71094764  1
  Te2-  Te183  1  0.82893771  0.91168891  0.70969945  1
  Te2-  Te184  1  0.08718642  0.17235846  0.71322876  1
  Te2-  Te185  1  0.08812647  0.67191869  0.71071718  1
  Te2-  Te186  1  0.58776089  0.17438298  0.71021107  1
  Te2-  Te187  1  0.58868576  0.67014868  0.70936137  1
  Te2-  Te188  1  0.08562593  0.41249082  0.71221185  1
  Te2-  Te189  1  0.08665903  0.91298334  0.71176226  1
  Te2-  Te190  1  0.58757543  0.41454364  0.71153535  1
  Te2-  Te191  1  0.58636973  0.91078341  0.70815594  1
  Te2-  Te192  1  0.16089480  0.07976203  0.04441262  1
  Te2-  Te193  1  0.16056977  0.58083858  0.04652446  1
  Te2-  Te194  1  0.66066679  0.08016661  0.04586063  1
  Te2-  Te195  1  0.66053197  0.58135513  0.04497859  1
  Te2-  Te196  1  0.42260257  0.34287378  0.04352864  1
  Te2-  Te197  1  0.41693395  0.83735742  0.04481097  1
  Te2-  Te198  1  0.91951665  0.33871232  0.04685530  1
  Te2-  Te199  1  0.91684530  0.83719031  0.04488616  1
  Te2-  Te200  1  0.41623039  0.07799524  0.04463134  1
  Te2-  Te201  1  0.42080408  0.58222086  0.04663362  1
  Te2-  Te202  1  0.91897585  0.08027486  0.04707100  1
  Te2-  Te203  1  0.91754943  0.57963339  0.04655061  1
  Te2-  Te204  1  0.49069557  0.24840962  0.37733381  1
  Te2-  Te205  1  0.49324439  0.75038479  0.37485667  1
  Te2-  Te206  1  0.99359204  0.25216436  0.37542991  1
  Te2-  Te207  1  0.99270397  0.75145643  0.37186367  1
  Te2-  Te208  1  0.25173084  0.00713157  0.37665509  1
  Te2-  Te209  1  0.25252194  0.51006757  0.37560514  1
  Te2-  Te210  1  0.74971118  0.00816531  0.37565463  1
  Te2-  Te211  1  0.74920325  0.50701573  0.37402374  1
  Te2-  Te212  1  0.25405473  0.24752061  0.37702691  1
  Te2-  Te213  1  0.25401578  0.75064849  0.37452626  1
  Te2-  Te214  1  0.75234386  0.24793201  0.37602684  1
  Te2-  Te215  1  0.75326174  0.74846077  0.37278238  1
