# generated using pymatgen
data_Ti(CuTe)4
_symmetry_space_group_name_H-M   'P 1'
_cell_length_a   16.89581021
_cell_length_b   16.89773506
_cell_length_c   20.71645755
_cell_angle_alpha   90.04344448
_cell_angle_beta   90.00329651
_cell_angle_gamma   120.00119155
_symmetry_Int_Tables_number   1
_chemical_formula_structural   Ti(CuTe)4
_chemical_formula_sum   'Ti24 Cu96 Te96'
_cell_volume   5122.10233045
_cell_formula_units_Z   24
loop_
 _symmetry_equiv_pos_site_id
 _symmetry_equiv_pos_as_xyz
  1  'x, y, z'
loop_
 _atom_type_symbol
 _atom_type_oxidation_number
  Ti4+  4.0
  Cu+  1.0
  Te2-  -2.0
loop_
 _atom_site_type_symbol
 _atom_site_label
 _atom_site_symmetry_multiplicity
 _atom_site_fract_x
 _atom_site_fract_y
 _atom_site_fract_z
 _atom_site_occupancy
  Ti4+  Ti0  1  0.00069237  0.00024477  0.25659888  1
  Ti4+  Ti1  1  -0.00045594  0.49738696  0.25364977  1
  Ti4+  Ti2  1  0.50051047  -0.00000176  0.26334509  1
  Ti4+  Ti3  1  0.50026981  0.50117407  0.25688005  1
  Ti4+  Ti4  1  0.33570428  0.16871001  0.58915496  1
  Ti4+  Ti5  1  0.33449568  0.66873832  0.59168241  1
  Ti4+  Ti6  1  0.83405981  0.16591311  0.59155279  1
  Ti4+  Ti7  1  0.83140596  0.66811012  0.58718752  1
  Ti4+  Ti8  1  0.16497219  0.33106240  0.92347434  1
  Ti4+  Ti9  1  0.16748542  0.83300247  0.92234046  1
  Ti4+  Ti10  1  0.66692475  0.33150802  0.92505332  1
  Ti4+  Ti11  1  0.66329595  0.83132186  0.92969681  1
  Ti4+  Ti12  1  0.00136274  0.00115179  0.75542455  1
  Ti4+  Ti13  1  -0.00153432  0.49867523  0.75413991  1
  Ti4+  Ti14  1  0.49914157  -0.00093365  0.75678512  1
  Ti4+  Ti15  1  0.50146327  0.50204172  0.75799699  1
  Ti4+  Ti16  1  0.33377399  0.16667024  0.08932204  1
  Ti4+  Ti17  1  0.33183525  0.66528276  0.08952040  1
  Ti4+  Ti18  1  0.83336193  0.16663284  0.08965473  1
  Ti4+  Ti19  1  0.83295572  0.66595993  0.08678823  1
  Ti4+  Ti20  1  0.16669491  0.33383634  0.42177565  1
  Ti4+  Ti21  1  0.16680638  0.83319175  0.41986306  1
  Ti4+  Ti22  1  0.66588009  0.33472602  0.42048743  1
  Ti4+  Ti23  1  0.66928136  0.83410848  0.42027769  1
  Cu+  Cu24  1  0.23800200  0.47480254  0.13685532  1
  Cu+  Cu25  1  0.58131544  0.16101923  0.48370007  1
  Cu+  Cu26  1  0.34589328  0.92338905  0.47930890  1
  Cu+  Cu27  1  0.58244540  0.91956090  0.48604097  1
  Cu+  Cu28  1  0.40608868  0.81016714  0.81079878  1
  Cu+  Cu29  1  0.74581418  0.75856224  0.14647161  1
  Cu+  Cu30  1  0.57550002  0.65665331  0.47936938  1
  Cu+  Cu31  1  0.73899197  0.47832456  0.13926242  1
  Cu+  Cu32  1  0.57157078  0.42508637  0.47385968  1
  Cu+  Cu33  1  0.90469094  0.30999403  0.80918419  1
  Cu+  Cu34  1  0.85662339  0.92937009  0.47258340  1
  Cu+  Cu35  1  0.51181957  0.75971770  0.14937185  1
  Cu+  Cu36  1  0.16500899  0.08258126  0.17084060  1
  Cu+  Cu37  1  0.16319154  0.57528557  0.16831666  1
  Cu+  Cu38  1  0.66483721  0.08263146  0.17572057  1
  Cu+  Cu39  1  0.66400438  0.58115177  0.16917810  1
  Cu+  Cu40  1  0.41856801  0.33639080  0.16987947  1
  Cu+  Cu41  1  0.42049661  0.84003588  0.17563466  1
  Cu+  Cu42  1  0.92021773  0.33695980  0.16839997  1
  Cu+  Cu43  1  0.91839493  0.84014016  0.16970321  1
  Cu+  Cu44  1  0.41741233  0.08262120  0.17578482  1
  Cu+  Cu45  1  0.41673735  0.58186173  0.16986190  1
  Cu+  Cu46  1  0.91815810  0.08210967  0.17081500  1
  Cu+  Cu47  1  0.91436228  0.57676007  0.16741673  1
  Cu+  Cu48  1  0.49411209  0.24969741  0.50114526  1
  Cu+  Cu49  1  0.49013172  0.74565767  0.50245420  1
  Cu+  Cu50  1  0.99878502  0.24955366  0.50470770  1
  Cu+  Cu51  1  0.99567943  0.74859943  0.50017470  1
  Cu+  Cu52  1  0.25338980  0.00372201  0.50173853  1
  Cu+  Cu53  1  0.25192280  0.50186099  0.50483300  1
  Cu+  Cu54  1  0.75819958  0.00774046  0.50189992  1
  Cu+  Cu55  1  0.74615491  0.50527143  0.49973107  1
  Cu+  Cu56  1  0.25237136  0.25093983  0.50273637  1
  Cu+  Cu57  1  0.25290024  0.75131626  0.50338736  1
  Cu+  Cu58  1  0.75363656  0.24950058  0.50422836  1
  Cu+  Cu59  1  0.75436288  0.74856970  0.49843161  1
  Cu+  Cu60  1  0.33145699  0.41564508  0.83952364  1
  Cu+  Cu61  1  0.32973653  0.91046912  0.83686849  1
  Cu+  Cu62  1  0.82973909  0.41018029  0.83735457  1
  Cu+  Cu63  1  0.83268869  0.91597865  0.84229061  1
  Cu+  Cu64  1  0.08604832  0.16974261  0.83633188  1
  Cu+  Cu65  1  0.08492182  0.67016445  0.83533375  1
  Cu+  Cu66  1  0.58522854  0.17017771  0.83822374  1
  Cu+  Cu67  1  0.58400299  0.67029121  0.84266824  1
  Cu+  Cu68  1  0.08006600  0.41084910  0.83675533  1
  Cu+  Cu69  1  0.08755596  0.91752568  0.83654095  1
  Cu+  Cu70  1  0.58435352  0.41524193  0.84045490  1
  Cu+  Cu71  1  0.57880808  0.90984224  0.84126884  1
  Cu+  Cu72  1  0.17073565  0.08603677  0.67248803  1
  Cu+  Cu73  1  0.16834227  0.58618888  0.67416120  1
  Cu+  Cu74  1  0.66798187  0.08416515  0.67806834  1
  Cu+  Cu75  1  0.66751532  0.58675879  0.67534321  1
  Cu+  Cu76  1  0.41846516  0.33376444  0.67478137  1
  Cu+  Cu77  1  0.41561461  0.83119464  0.68140269  1
  Cu+  Cu78  1  0.91403986  0.32973706  0.67915374  1
  Cu+  Cu79  1  0.91518205  0.83334574  0.67310748  1
  Cu+  Cu80  1  0.41732350  0.08662321  0.67582115  1
  Cu+  Cu81  1  0.41942663  0.58793255  0.67757201  1
  Cu+  Cu82  1  0.91668105  0.08385066  0.67659054  1
  Cu+  Cu83  1  0.91321763  0.58458269  0.67104887  1
  Cu+  Cu84  1  -0.00002965  0.24944090  0.00782229  1
  Cu+  Cu85  1  0.00386563  0.75303584  0.00469591  1
  Cu+  Cu86  1  0.50218381  0.24956105  0.00931145  1
  Cu+  Cu87  1  0.50006334  0.75114338  0.01752335  1
  Cu+  Cu88  1  0.24470438  0.49376898  0.00937043  1
  Cu+  Cu89  1  0.25074049  0.99737170  0.00682690  1
  Cu+  Cu90  1  0.74905798  0.49494373  0.01038129  1
  Cu+  Cu91  1  0.74566877  0.99605909  0.01174396  1
  Cu+  Cu92  1  0.24969057  0.25057627  0.00748867  1
  Cu+  Cu93  1  0.24957166  0.75235398  0.00771765  1
  Cu+  Cu94  1  0.74955152  0.24996320  0.01012554  1
  Cu+  Cu95  1  0.74715181  0.75129099  0.01583614  1
  Cu+  Cu96  1  0.33367384  0.41832086  0.34149567  1
  Cu+  Cu97  1  0.33727593  0.91749132  0.34875647  1
  Cu+  Cu98  1  0.83668320  0.41789577  0.33822813  1
  Cu+  Cu99  1  0.83885545  0.91934214  0.34473907  1
  Cu+  Cu100  1  0.08102398  0.16464192  0.34036941  1
  Cu+  Cu101  1  0.08110785  0.66181702  0.33574955  1
  Cu+  Cu102  1  0.58178570  0.16412232  0.35012575  1
  Cu+  Cu103  1  0.58394879  0.66512848  0.34707539  1
  Cu+  Cu104  1  0.08287041  0.41754242  0.34002263  1
  Cu+  Cu105  1  0.08122224  0.91618871  0.33851585  1
  Cu+  Cu106  1  0.58397793  0.42041651  0.34468577  1
  Cu+  Cu107  1  0.58334390  0.91856337  0.35157141  1
  Cu+  Cu108  1  0.00409685  0.00432493  0.11309220  1
  Cu+  Cu109  1  0.00109885  0.50244007  0.10939338  1
  Cu+  Cu110  1  0.50086424  0.00476225  0.12093195  1
  Cu+  Cu111  1  0.49852700  0.49794628  0.11281772  1
  Cu+  Cu112  1  0.32691676  0.16512878  0.44517582  1
  Cu+  Cu113  1  0.32336090  0.66158468  0.44816066  1
  Cu+  Cu114  1  0.83870246  0.17438743  0.44697949  1
  Cu+  Cu115  1  0.83819032  0.66571911  0.44123607  1
  Cu+  Cu116  1  0.17015714  0.33610437  0.78083805  1
  Cu+  Cu117  1  0.16434786  0.83353104  0.77853316  1
  Cu+  Cu118  1  0.66519257  0.33528588  0.78223463  1
  Cu+  Cu119  1  0.67144630  0.83711615  0.78805290  1
  Te2-  Te120  1  0.00496093  0.00196132  0.38736090  1
  Te2-  Te121  1  0.00016741  0.49935262  0.38259407  1
  Te2-  Te122  1  0.50100512  0.00032059  0.39739040  1
  Te2-  Te123  1  0.49682149  0.49932968  0.38860737  1
  Te2-  Te124  1  0.33457136  0.16893294  0.71748710  1
  Te2-  Te125  1  0.33136957  0.66423079  0.72184170  1
  Te2-  Te126  1  0.83245351  0.16360663  0.72161677  1
  Te2-  Te127  1  0.83320732  0.66843782  0.71552989  1
  Te2-  Te128  1  0.16366535  0.32781943  0.05392485  1
  Te2-  Te129  1  0.16662282  0.83349555  0.05148105  1
  Te2-  Te130  1  0.66543845  0.32971900  0.05566757  1
  Te2-  Te131  1  0.66547238  0.83435031  0.06237030  1
  Te2-  Te132  1  0.49553484  0.24672565  0.88353836  1
  Te2-  Te133  1  0.48941310  0.74215023  0.88972827  1
  Te2-  Te134  1  0.99106689  0.24135333  0.88215572  1
  Te2-  Te135  1  0.99622429  0.74895565  0.87924280  1
  Te2-  Te136  1  0.25564250  0.00416501  0.88084575  1
  Te2-  Te137  1  0.24819954  0.50174598  0.88254264  1
  Te2-  Te138  1  0.74707335  0.00025532  0.88532105  1
  Te2-  Te139  1  0.75362289  0.50194618  0.88327683  1
  Te2-  Te140  1  0.25242829  0.24733546  0.88192187  1
  Te2-  Te141  1  0.25104379  0.74152445  0.88232046  1
  Te2-  Te142  1  0.75116693  0.24137570  0.88422947  1
  Te2-  Te143  1  0.75091814  0.74845991  0.88862412  1
  Te2-  Te144  1  0.32804645  0.41334976  0.21554337  1
  Te2-  Te145  1  0.33042205  0.91492598  0.22161621  1
  Te2-  Te146  1  0.82465370  0.40841196  0.21334464  1
  Te2-  Te147  1  0.82571495  0.91579731  0.21833916  1
  Te2-  Te148  1  0.08558479  0.17100132  0.21469842  1
  Te2-  Te149  1  0.08448696  0.66713518  0.20972175  1
  Te2-  Te150  1  0.58483801  0.16964149  0.22226282  1
  Te2-  Te151  1  0.58771662  0.67547602  0.21855638  1
  Te2-  Te152  1  0.08589851  0.40823113  0.21479230  1
  Te2-  Te153  1  0.08474236  0.91368137  0.21310076  1
  Te2-  Te154  1  0.58536803  0.41356934  0.21738410  1
  Te2-  Te155  1  0.58955201  0.91584181  0.22342961  1
  Te2-  Te156  1  0.16549585  0.08243655  0.54638760  1
  Te2-  Te157  1  0.16506835  0.58418745  0.54791780  1
  Te2-  Te158  1  0.65885686  0.07842781  0.55194099  1
  Te2-  Te159  1  0.65415090  0.58026811  0.54920565  1
  Te2-  Te160  1  0.41950552  0.34252548  0.54890476  1
  Te2-  Te161  1  0.42263623  0.84458407  0.55354554  1
  Te2-  Te162  1  0.91842949  0.33681381  0.55140410  1
  Te2-  Te163  1  0.92159914  0.84181334  0.54695171  1
  Te2-  Te164  1  0.42339920  0.08030636  0.55025752  1
  Te2-  Te165  1  0.41908308  0.57975976  0.55146072  1
  Te2-  Te166  1  0.92347365  0.08187301  0.55049538  1
  Te2-  Te167  1  0.91381397  0.58016003  0.54477239  1
  Te2-  Te168  1  0.00303361  0.00122359  0.88187327  1
  Te2-  Te169  1  0.00000804  0.50083145  0.88082742  1
  Te2-  Te170  1  0.49883727  0.00067128  0.88334982  1
  Te2-  Te171  1  0.49981812  0.49960232  0.88399193  1
  Te2-  Te172  1  0.33315860  0.16843280  0.21589334  1
  Te2-  Te173  1  0.33219187  0.66720038  0.21704800  1
  Te2-  Te174  1  0.83573595  0.16857966  0.21595932  1
  Te2-  Te175  1  0.83543098  0.66799995  0.21424689  1
  Te2-  Te176  1  0.16748902  0.33365273  0.54851283  1
  Te2-  Te177  1  0.16432161  0.83322865  0.54704913  1
  Te2-  Te178  1  0.66678732  0.33517997  0.54834686  1
  Te2-  Te179  1  0.66680106  0.83303635  0.54832162  1
  Te2-  Te180  1  0.33083150  0.41648249  0.71218195  1
  Te2-  Te181  1  0.32710483  0.91613509  0.70996618  1
  Te2-  Te182  1  0.82611083  0.41513166  0.70976882  1
  Te2-  Te183  1  0.82839349  0.91448395  0.71443332  1
  Te2-  Te184  1  0.08772539  0.17280072  0.71016901  1
  Te2-  Te185  1  0.08304108  0.67076317  0.70898374  1
  Te2-  Te186  1  0.58643639  0.17243829  0.71232371  1
  Te2-  Te187  1  0.58786686  0.67523644  0.71593225  1
  Te2-  Te188  1  0.08770660  0.41546331  0.70935781  1
  Te2-  Te189  1  0.08614764  0.91583777  0.70924289  1
  Te2-  Te190  1  0.58735967  0.41685510  0.71291693  1
  Te2-  Te191  1  0.58801266  0.91411229  0.71372776  1
  Te2-  Te192  1  0.16322342  0.08042012  0.04372621  1
  Te2-  Te193  1  0.16078491  0.58169657  0.04150452  1
  Te2-  Te194  1  0.65996676  0.08022054  0.04873086  1
  Te2-  Te195  1  0.65868247  0.57745013  0.04210127  1
  Te2-  Te196  1  0.41968286  0.33792743  0.04367240  1
  Te2-  Te197  1  0.41716470  0.84028838  0.04847583  1
  Te2-  Te198  1  0.91975570  0.33845666  0.04307873  1
  Te2-  Te199  1  0.92112453  0.83953327  0.04293137  1
  Te2-  Te200  1  0.41947367  0.08008519  0.04805918  1
  Te2-  Te201  1  0.41698479  0.57704336  0.04287347  1
  Te2-  Te202  1  0.91745406  0.07911246  0.04438554  1
  Te2-  Te203  1  0.92172746  0.58302092  0.04043123  1
  Te2-  Te204  1  0.49128304  0.24746190  0.37459238  1
  Te2-  Te205  1  0.49189334  0.74545416  0.37635547  1
  Te2-  Te206  1  0.99531972  0.24818370  0.37771306  1
  Te2-  Te207  1  0.99629475  0.74650997  0.37337645  1
  Te2-  Te208  1  0.25141251  0.00579352  0.37461715  1
  Te2-  Te209  1  0.25206338  0.50574595  0.37779974  1
  Te2-  Te210  1  0.75696981  0.01001872  0.37581799  1
  Te2-  Te211  1  0.75599884  0.50667768  0.37327672  1
  Te2-  Te212  1  0.25181760  0.24796467  0.37588009  1
  Te2-  Te213  1  0.25027197  0.74389589  0.37558573  1
  Te2-  Te214  1  0.75510798  0.24967612  0.37716214  1
  Te2-  Te215  1  0.75639970  0.74656259  0.37253118  1
