# generated using pymatgen
data_Ti(CuTe)4
_symmetry_space_group_name_H-M   'P 1'
_cell_length_a   16.84536367
_cell_length_b   16.84566048
_cell_length_c   20.64694859
_cell_angle_alpha   90.03042136
_cell_angle_beta   89.97117120
_cell_angle_gamma   119.98793574
_symmetry_Int_Tables_number   1
_chemical_formula_structural   Ti(CuTe)4
_chemical_formula_sum   'Ti24 Cu96 Te96'
_cell_volume   5074.66815955
_cell_formula_units_Z   24
loop_
 _symmetry_equiv_pos_site_id
 _symmetry_equiv_pos_as_xyz
  1  'x, y, z'
loop_
 _atom_type_symbol
 _atom_type_oxidation_number
  Ti4+  4.0
  Cu+  1.0
  Te2-  -2.0
loop_
 _atom_site_type_symbol
 _atom_site_label
 _atom_site_symmetry_multiplicity
 _atom_site_fract_x
 _atom_site_fract_y
 _atom_site_fract_z
 _atom_site_occupancy
  Ti4+  Ti0  1  0.00127991  0.00127176  0.25901479  1
  Ti4+  Ti1  1  -0.00029852  0.50083980  0.25742964  1
  Ti4+  Ti2  1  0.49983847  0.00016697  0.25867006  1
  Ti4+  Ti3  1  0.50154469  0.50001870  0.25961152  1
  Ti4+  Ti4  1  0.32974337  0.16265015  0.58949526  1
  Ti4+  Ti5  1  0.33527235  0.66277205  0.59146979  1
  Ti4+  Ti6  1  0.82983497  0.16639656  0.58985923  1
  Ti4+  Ti7  1  0.83584691  0.66560258  0.58856510  1
  Ti4+  Ti8  1  0.16966307  0.33607399  0.92277020  1
  Ti4+  Ti9  1  0.16597025  0.83265062  0.92417776  1
  Ti4+  Ti10  1  0.66344517  0.33101818  0.92723274  1
  Ti4+  Ti11  1  0.66864234  0.83687803  0.92359784  1
  Ti4+  Ti12  1  -0.00094436  -0.00053108  0.75572208  1
  Ti4+  Ti13  1  0.00091301  0.50124880  0.75529154  1
  Ti4+  Ti14  1  0.50129431  0.00040527  0.75476134  1
  Ti4+  Ti15  1  0.49760919  0.49722589  0.75593258  1
  Ti4+  Ti16  1  0.33334793  0.16733535  0.09040322  1
  Ti4+  Ti17  1  0.33358190  0.66727264  0.09157114  1
  Ti4+  Ti18  1  0.83353432  0.16835327  0.09007593  1
  Ti4+  Ti19  1  0.83232648  0.66625329  0.08872943  1
  Ti4+  Ti20  1  0.16749361  0.33485778  0.42100377  1
  Ti4+  Ti21  1  0.16576483  0.83455650  0.42152613  1
  Ti4+  Ti22  1  0.66710883  0.33351926  0.42365601  1
  Ti4+  Ti23  1  0.66524268  0.83213891  0.42124839  1
  Cu+  Cu24  1  0.06777691  0.92351813  0.47342188  1
  Cu+  Cu25  1  0.18870682  0.59880189  0.80759517  1
  Cu+  Cu26  1  0.41208498  0.59373071  0.81300782  1
  Cu+  Cu27  1  0.07194832  0.15094415  0.47590745  1
  Cu+  Cu28  1  0.40472958  0.30499259  0.80748921  1
  Cu+  Cu29  1  0.74315912  0.48060215  0.14298538  1
  Cu+  Cu30  1  0.69384979  0.09999203  0.80812000  1
  Cu+  Cu31  1  0.51840601  0.25598041  0.14495162  1
  Cu+  Cu32  1  0.35085269  0.41915985  0.47753273  1
  Cu+  Cu33  1  0.85839709  0.42605432  0.47230153  1
  Cu+  Cu34  1  0.57078006  0.14202523  0.47488341  1
  Cu+  Cu35  1  0.57753879  0.64512884  0.47565657  1
  Cu+  Cu36  1  0.16287235  0.08159731  0.17311079  1
  Cu+  Cu37  1  0.16548893  0.58268564  0.17297516  1
  Cu+  Cu38  1  0.66414120  0.08351457  0.17270888  1
  Cu+  Cu39  1  0.66519840  0.58051936  0.17083502  1
  Cu+  Cu40  1  0.42072670  0.33634718  0.17160292  1
  Cu+  Cu41  1  0.41759083  0.83398607  0.17383405  1
  Cu+  Cu42  1  0.91684582  0.33637394  0.17193890  1
  Cu+  Cu43  1  0.92115245  0.83714339  0.17133445  1
  Cu+  Cu44  1  0.41995796  0.08292475  0.17306846  1
  Cu+  Cu45  1  0.41885824  0.58366421  0.17542956  1
  Cu+  Cu46  1  0.92036907  0.08664572  0.17316905  1
  Cu+  Cu47  1  0.91647996  0.57946340  0.17087760  1
  Cu+  Cu48  1  0.49649410  0.24277180  0.50379652  1
  Cu+  Cu49  1  0.49738811  0.74086967  0.50276130  1
  Cu+  Cu50  1  0.99430392  0.24632022  0.50152051  1
  Cu+  Cu51  1  0.99738338  0.74957014  0.50175426  1
  Cu+  Cu52  1  0.24496884  0.00088177  0.50116923  1
  Cu+  Cu53  1  0.25913774  0.50491807  0.50241068  1
  Cu+  Cu54  1  0.74672016  0.00286398  0.50279298  1
  Cu+  Cu55  1  0.75922066  0.50319001  0.50187678  1
  Cu+  Cu56  1  0.24936173  0.24562832  0.50215531  1
  Cu+  Cu57  1  0.24786057  0.74530795  0.50487695  1
  Cu+  Cu58  1  0.74788565  0.24765914  0.50444430  1
  Cu+  Cu59  1  0.74978885  0.74698480  0.50171365  1
  Cu+  Cu60  1  0.32852428  0.41273972  0.83412821  1
  Cu+  Cu61  1  0.33008070  0.91555378  0.83608675  1
  Cu+  Cu62  1  0.82961335  0.41882990  0.83881247  1
  Cu+  Cu63  1  0.83154384  0.91725865  0.83735162  1
  Cu+  Cu64  1  0.08380372  0.16856203  0.83728983  1
  Cu+  Cu65  1  0.08765118  0.67123269  0.83702523  1
  Cu+  Cu66  1  0.58729082  0.16946488  0.83795717  1
  Cu+  Cu67  1  0.58566278  0.67254220  0.83706810  1
  Cu+  Cu68  1  0.08846585  0.42170439  0.83536205  1
  Cu+  Cu69  1  0.08395478  0.91584276  0.83853643  1
  Cu+  Cu70  1  0.57813640  0.40868065  0.83974010  1
  Cu+  Cu71  1  0.59221061  0.92266847  0.83503868  1
  Cu+  Cu72  1  0.16627123  0.08377479  0.67595134  1
  Cu+  Cu73  1  0.17139786  0.58346724  0.67854054  1
  Cu+  Cu74  1  0.66887300  0.08745542  0.67957400  1
  Cu+  Cu75  1  0.66898350  0.58226324  0.67348733  1
  Cu+  Cu76  1  0.41506986  0.32729863  0.67869499  1
  Cu+  Cu77  1  0.41648438  0.83118627  0.67254838  1
  Cu+  Cu78  1  0.91123429  0.33268135  0.67473085  1
  Cu+  Cu79  1  0.91550733  0.83046175  0.67398338  1
  Cu+  Cu80  1  0.41386017  0.08124448  0.67335212  1
  Cu+  Cu81  1  0.41609562  0.58206464  0.68234722  1
  Cu+  Cu82  1  0.91364268  0.08316388  0.67397553  1
  Cu+  Cu83  1  0.91639815  0.58383502  0.67367719  1
  Cu+  Cu84  1  0.00413902  0.25502040  0.00647987  1
  Cu+  Cu85  1  0.00145002  0.75059938  0.00707412  1
  Cu+  Cu86  1  0.50066801  0.25154272  0.01566190  1
  Cu+  Cu87  1  0.50243969  0.75227656  0.00829130  1
  Cu+  Cu88  1  0.25216159  0.50029485  0.00984997  1
  Cu+  Cu89  1  0.24624332  0.99730405  0.00826443  1
  Cu+  Cu90  1  0.74355964  0.49557564  0.01474478  1
  Cu+  Cu91  1  0.74990501  1.00064496  0.00935330  1
  Cu+  Cu92  1  0.24784091  0.25007375  0.00795382  1
  Cu+  Cu93  1  0.24779690  0.75058978  0.00930148  1
  Cu+  Cu94  1  0.74934491  0.24996003  0.00990255  1
  Cu+  Cu95  1  0.75067007  0.75498217  0.00759118  1
  Cu+  Cu96  1  0.33744153  0.42267764  0.34640265  1
  Cu+  Cu97  1  0.33553541  0.91748784  0.34138344  1
  Cu+  Cu98  1  0.83800484  0.42092342  0.34573330  1
  Cu+  Cu99  1  0.83319770  0.91960169  0.33928842  1
  Cu+  Cu100  1  0.08214123  0.16497448  0.34629330  1
  Cu+  Cu101  1  0.08230693  0.66574251  0.33947273  1
  Cu+  Cu102  1  0.57883288  0.16283936  0.34736933  1
  Cu+  Cu103  1  0.58062441  0.66244147  0.34606222  1
  Cu+  Cu104  1  0.08303494  0.41905157  0.34016705  1
  Cu+  Cu105  1  0.08224555  0.92094193  0.34562005  1
  Cu+  Cu106  1  0.58390707  0.41738645  0.34389760  1
  Cu+  Cu107  1  0.58284821  0.91868610  0.34044358  1
  Cu+  Cu108  1  -0.00406129  0.00064560  0.11693214  1
  Cu+  Cu109  1  0.00394031  0.50114421  0.11501497  1
  Cu+  Cu110  1  0.49900947  -0.00454264  0.11656472  1
  Cu+  Cu111  1  0.49846006  0.50283490  0.11732761  1
  Cu+  Cu112  1  0.33331386  0.16615213  0.44468831  1
  Cu+  Cu113  1  0.33470731  0.67354925  0.44769840  1
  Cu+  Cu114  1  0.83159190  0.16769568  0.44522549  1
  Cu+  Cu115  1  0.83413502  0.66948770  0.44277686  1
  Cu+  Cu116  1  0.15880434  0.32862335  0.77844508  1
  Cu+  Cu117  1  0.16413982  0.83512563  0.77988898  1
  Cu+  Cu118  1  0.66717023  0.33338958  0.78312798  1
  Cu+  Cu119  1  0.66896570  0.83451302  0.77834200  1
  Te2-  Te120  1  -0.00566196  -0.00079653  0.39160826  1
  Te2-  Te121  1  0.00525837  0.50345209  0.38855498  1
  Te2-  Te122  1  0.49799122  -0.00439954  0.38983177  1
  Te2-  Te123  1  0.50185373  0.49741794  0.39237603  1
  Te2-  Te124  1  0.33022320  0.16025458  0.72017737  1
  Te2-  Te125  1  0.33744625  0.67034083  0.72381095  1
  Te2-  Te126  1  0.83624268  0.16925947  0.72036055  1
  Te2-  Te127  1  0.83357219  0.66568577  0.71745464  1
  Te2-  Te128  1  0.16793197  0.33474770  0.05155644  1
  Te2-  Te129  1  0.16519783  0.83287892  0.05345769  1
  Te2-  Te130  1  0.66709552  0.32981489  0.05939410  1
  Te2-  Te131  1  0.66733064  0.83567967  0.05260052  1
  Te2-  Te132  1  0.49001693  0.23988218  0.88718496  1
  Te2-  Te133  1  0.49531346  0.75376349  0.88159250  1
  Te2-  Te134  1  0.99889236  0.25325298  0.88029981  1
  Te2-  Te135  1  0.99460222  0.74585403  0.88080807  1
  Te2-  Te136  1  0.25245701  0.00471456  0.88235316  1
  Te2-  Te137  1  0.25763055  0.51246101  0.88316614  1
  Te2-  Te138  1  0.75932613  0.01205262  0.88335705  1
  Te2-  Te139  1  0.74583279  0.50227938  0.88699817  1
  Te2-  Te140  1  0.25258880  0.24464329  0.88197930  1
  Te2-  Te141  1  0.25782935  0.74942228  0.88329074  1
  Te2-  Te142  1  0.75656084  0.25111471  0.88384019  1
  Te2-  Te143  1  0.75229290  0.74866792  0.88154494  1
  Te2-  Te144  1  0.33090143  0.41414937  0.21911706  1
  Te2-  Te145  1  0.32865063  0.91495053  0.21547284  1
  Te2-  Te146  1  0.82424541  0.41035393  0.21943759  1
  Te2-  Te147  1  0.83075673  0.91626362  0.21350041  1
  Te2-  Te148  1  0.08802044  0.17396108  0.21942406  1
  Te2-  Te149  1  0.08436096  0.67181856  0.21363885  1
  Te2-  Te150  1  0.58954298  0.17554670  0.22076804  1
  Te2-  Te151  1  0.58831656  0.67068983  0.21894014  1
  Te2-  Te152  1  0.08510624  0.41431642  0.21510852  1
  Te2-  Te153  1  0.08744616  0.91449475  0.21901293  1
  Te2-  Te154  1  0.58968850  0.41167013  0.21809136  1
  Te2-  Te155  1  0.58632230  0.91506320  0.21535704  1
  Te2-  Te156  1  0.15353138  0.07751947  0.54982506  1
  Te2-  Te157  1  0.16454070  0.57703953  0.55109844  1
  Te2-  Te158  1  0.65559903  0.07765342  0.55205976  1
  Te2-  Te159  1  0.66267085  0.57490324  0.54760973  1
  Te2-  Te160  1  0.42083686  0.33527523  0.55091808  1
  Te2-  Te161  1  0.41866445  0.83169283  0.54647266  1
  Te2-  Te162  1  0.92041887  0.33903103  0.54828606  1
  Te2-  Te163  1  0.91588331  0.83921027  0.54795342  1
  Te2-  Te164  1  0.41286967  0.07273107  0.54781624  1
  Te2-  Te165  1  0.42483673  0.57392641  0.55376120  1
  Te2-  Te166  1  0.91418618  0.07727296  0.54845048  1
  Te2-  Te167  1  0.92740699  0.58251753  0.54793047  1
  Te2-  Te168  1  0.00002518  0.00066205  0.88270531  1
  Te2-  Te169  1  -0.00090427  0.50125933  0.88253774  1
  Te2-  Te170  1  0.49979420  -0.00044062  0.88185544  1
  Te2-  Te171  1  0.49852609  0.50131535  0.88347252  1
  Te2-  Te172  1  0.33289857  0.16684052  0.21765259  1
  Te2-  Te173  1  0.33297295  0.66639796  0.21879962  1
  Te2-  Te174  1  0.83329599  0.16791296  0.21714712  1
  Te2-  Te175  1  0.83482496  0.66826996  0.21605032  1
  Te2-  Te176  1  0.16547983  0.33298010  0.54888963  1
  Te2-  Te177  1  0.16638304  0.83228317  0.54896451  1
  Te2-  Te178  1  0.66557113  0.33442364  0.55132556  1
  Te2-  Te179  1  0.66632547  0.83314904  0.54862563  1
  Te2-  Te180  1  0.32330086  0.40868945  0.70764893  1
  Te2-  Te181  1  0.32796301  0.91202140  0.70980987  1
  Te2-  Te182  1  0.82678329  0.41593363  0.71244907  1
  Te2-  Te183  1  0.82792351  0.91344877  0.70995288  1
  Te2-  Te184  1  0.08349808  0.17095070  0.70983603  1
  Te2-  Te185  1  0.08713067  0.67339494  0.70919310  1
  Te2-  Te186  1  0.58293501  0.17423365  0.71064382  1
  Te2-  Te187  1  0.58922616  0.67125059  0.71011559  1
  Te2-  Te188  1  0.08264711  0.41067392  0.70815195  1
  Te2-  Te189  1  0.08491317  0.91361486  0.71082413  1
  Te2-  Te190  1  0.58724890  0.41327864  0.71218456  1
  Te2-  Te191  1  0.58656107  0.91293800  0.70799119  1
  Te2-  Te192  1  0.16062309  0.08101205  0.04671710  1
  Te2-  Te193  1  0.16262545  0.58103018  0.04565293  1
  Te2-  Te194  1  0.66041821  0.08085186  0.04618913  1
  Te2-  Te195  1  0.65884172  0.58434582  0.04403680  1
  Te2-  Te196  1  0.41711118  0.34109080  0.04490978  1
  Te2-  Te197  1  0.41824930  0.83788544  0.04602305  1
  Te2-  Te198  1  0.91984155  0.34028958  0.04490784  1
  Te2-  Te199  1  0.92007784  0.83892371  0.04492664  1
  Te2-  Te200  1  0.41674947  0.07761293  0.04572910  1
  Te2-  Te201  1  0.42116898  0.58334925  0.04742841  1
  Te2-  Te202  1  0.92115777  0.08483420  0.04544269  1
  Te2-  Te203  1  0.91870631  0.57975789  0.04353046  1
  Te2-  Te204  1  0.49284132  0.24870618  0.37727337  1
  Te2-  Te205  1  0.49261337  0.74779363  0.37547588  1
  Te2-  Te206  1  0.99350752  0.24975633  0.37514627  1
  Te2-  Te207  1  0.99366367  0.74700894  0.37451542  1
  Te2-  Te208  1  0.25519520  0.00757534  0.37478885  1
  Te2-  Te209  1  0.25228883  0.50961823  0.37649125  1
  Te2-  Te210  1  0.75119613  0.00596059  0.37699496  1
  Te2-  Te211  1  0.75293960  0.50786629  0.37594660  1
  Te2-  Te212  1  0.25563052  0.24883862  0.37481169  1
  Te2-  Te213  1  0.25122096  0.74767925  0.37771716  1
  Te2-  Te214  1  0.75305474  0.24710499  0.37634357  1
  Te2-  Te215  1  0.75453726  0.74921290  0.37415188  1
