# generated using pymatgen
data_Ti(CuTe)4
_symmetry_space_group_name_H-M   'P 1'
_cell_length_a   16.89295191
_cell_length_b   16.89303729
_cell_length_c   20.71742281
_cell_angle_alpha   90.05147214
_cell_angle_beta   89.95195506
_cell_angle_gamma   119.97917288
_symmetry_Int_Tables_number   1
_chemical_formula_structural   Ti(CuTe)4
_chemical_formula_sum   'Ti24 Cu96 Te96'
_cell_volume   5121.18582378
_cell_formula_units_Z   24
loop_
 _symmetry_equiv_pos_site_id
 _symmetry_equiv_pos_as_xyz
  1  'x, y, z'
loop_
 _atom_type_symbol
 _atom_type_oxidation_number
  Ti4+  4.0
  Cu+  1.0
  Te2-  -2.0
loop_
 _atom_site_type_symbol
 _atom_site_label
 _atom_site_symmetry_multiplicity
 _atom_site_fract_x
 _atom_site_fract_y
 _atom_site_fract_z
 _atom_site_occupancy
  Ti4+  Ti0  1  -0.00278694  -0.00307097  0.25826654  1
  Ti4+  Ti1  1  0.00200099  0.50264776  0.25604868  1
  Ti4+  Ti2  1  0.50044822  -0.00228930  0.25816468  1
  Ti4+  Ti3  1  0.49688886  0.49833326  0.25854337  1
  Ti4+  Ti4  1  0.33090520  0.16680207  0.58996687  1
  Ti4+  Ti5  1  0.33385635  0.66876123  0.59460617  1
  Ti4+  Ti6  1  0.83223168  0.16694637  0.58887209  1
  Ti4+  Ti7  1  0.83055183  0.66780949  0.59254088  1
  Ti4+  Ti8  1  0.16849130  0.33390769  0.92408093  1
  Ti4+  Ti9  1  0.16808223  0.83173478  0.92563500  1
  Ti4+  Ti10  1  0.66839082  0.33228684  0.92080217  1
  Ti4+  Ti11  1  0.67018415  0.83319101  0.92429392  1
  Ti4+  Ti12  1  -0.00135114  -0.00006437  0.75605408  1
  Ti4+  Ti13  1  0.00025025  0.50169447  0.75455550  1
  Ti4+  Ti14  1  0.50161051  0.00170108  0.75504278  1
  Ti4+  Ti15  1  0.49894673  0.50065947  0.75387682  1
  Ti4+  Ti16  1  0.33480726  0.16711188  0.08736359  1
  Ti4+  Ti17  1  0.33350700  0.66525623  0.08818170  1
  Ti4+  Ti18  1  0.83284004  0.16473137  0.08930775  1
  Ti4+  Ti19  1  0.83508333  0.66777884  0.08942578  1
  Ti4+  Ti20  1  0.16516110  0.33310685  0.42186855  1
  Ti4+  Ti21  1  0.16616076  0.83366766  0.42438050  1
  Ti4+  Ti22  1  0.66565381  0.33343806  0.42054554  1
  Ti4+  Ti23  1  0.66528489  0.83298975  0.42261585  1
  Cu+  Cu24  1  0.69278908  0.09484606  0.80488957  1
  Cu+  Cu25  1  0.18284166  0.58874191  0.81298220  1
  Cu+  Cu26  1  0.73713407  0.97365126  0.14152477  1
  Cu+  Cu27  1  0.91294548  0.81556006  0.81058841  1
  Cu+  Cu28  1  0.57074704  0.64651128  0.47591256  1
  Cu+  Cu29  1  0.01975692  0.76325236  0.14338363  1
  Cu+  Cu30  1  0.68293607  0.58703913  0.80846158  1
  Cu+  Cu31  1  0.57162759  0.92538933  0.47691771  1
  Cu+  Cu32  1  0.85047969  0.92619076  0.47661402  1
  Cu+  Cu33  1  0.24773845  0.75688096  0.14977858  1
  Cu+  Cu34  1  0.23930297  0.47777967  0.14117862  1
  Cu+  Cu35  1  0.41579148  0.82053216  0.81249540  1
  Cu+  Cu36  1  0.16553023  0.08279530  0.16963587  1
  Cu+  Cu37  1  0.16205394  0.58021303  0.16799644  1
  Cu+  Cu38  1  0.66550412  0.07528540  0.17167873  1
  Cu+  Cu39  1  0.66313436  0.58364840  0.17352401  1
  Cu+  Cu40  1  0.41690845  0.33599795  0.16943132  1
  Cu+  Cu41  1  0.42117544  0.84036340  0.17059691  1
  Cu+  Cu42  1  0.91790680  0.33687302  0.17033530  1
  Cu+  Cu43  1  0.92105978  0.83781526  0.17158414  1
  Cu+  Cu44  1  0.41746294  0.08218908  0.16982910  1
  Cu+  Cu45  1  0.41454390  0.57658066  0.17128792  1
  Cu+  Cu46  1  0.90970525  0.07488133  0.17206564  1
  Cu+  Cu47  1  0.92334304  0.58822489  0.16962802  1
  Cu+  Cu48  1  0.49485402  0.24821818  0.50295699  1
  Cu+  Cu49  1  0.49510833  0.74925700  0.50555885  1
  Cu+  Cu50  1  0.99643288  0.24838125  0.50225671  1
  Cu+  Cu51  1  0.99734176  0.75271854  0.50690311  1
  Cu+  Cu52  1  0.25005677  0.00426157  0.50519355  1
  Cu+  Cu53  1  0.24743429  0.50153634  0.50647791  1
  Cu+  Cu54  1  0.75060797  0.00522971  0.50221576  1
  Cu+  Cu55  1  0.74675708  0.50132022  0.50429680  1
  Cu+  Cu56  1  0.24842589  0.24700040  0.50387073  1
  Cu+  Cu57  1  0.25105555  0.75049730  0.50871919  1
  Cu+  Cu58  1  0.74872572  0.24837586  0.50233861  1
  Cu+  Cu59  1  0.75043152  0.74800243  0.50430548  1
  Cu+  Cu60  1  0.32895080  0.41464680  0.83620596  1
  Cu+  Cu61  1  0.33167416  0.91139220  0.83715551  1
  Cu+  Cu62  1  0.82853664  0.41341752  0.83428907  1
  Cu+  Cu63  1  0.83186239  0.91249098  0.83736339  1
  Cu+  Cu64  1  0.08573469  0.17026575  0.83827730  1
  Cu+  Cu65  1  0.08927078  0.67088406  0.83744301  1
  Cu+  Cu66  1  0.59161609  0.17017827  0.83455695  1
  Cu+  Cu67  1  0.58939838  0.66898091  0.83573078  1
  Cu+  Cu68  1  0.08775283  0.41716679  0.83785123  1
  Cu+  Cu69  1  0.08294555  0.91252805  0.83920762  1
  Cu+  Cu70  1  0.58635844  0.41520730  0.83511596  1
  Cu+  Cu71  1  0.59038218  0.91942637  0.83789073  1
  Cu+  Cu72  1  0.16824045  0.08523209  0.67402036  1
  Cu+  Cu73  1  0.16980733  0.58760570  0.68277127  1
  Cu+  Cu74  1  0.66996485  0.08648308  0.67643654  1
  Cu+  Cu75  1  0.66673947  0.58616460  0.67909084  1
  Cu+  Cu76  1  0.41169939  0.33021964  0.67211205  1
  Cu+  Cu77  1  0.41571281  0.83291383  0.68177724  1
  Cu+  Cu78  1  0.91532967  0.33329326  0.67258814  1
  Cu+  Cu79  1  0.91223032  0.83192845  0.68091201  1
  Cu+  Cu80  1  0.41338760  0.08737990  0.67315065  1
  Cu+  Cu81  1  0.41371882  0.58435212  0.67636849  1
  Cu+  Cu82  1  0.91523752  0.08469540  0.67392529  1
  Cu+  Cu83  1  0.91462421  0.58554471  0.67553720  1
  Cu+  Cu84  1  0.00410599  0.25225618  0.00758650  1
  Cu+  Cu85  1  0.00387866  0.75133016  0.01406999  1
  Cu+  Cu86  1  0.50381718  0.25147014  0.00378950  1
  Cu+  Cu87  1  0.50351002  0.75046809  0.00880121  1
  Cu+  Cu88  1  0.24982594  0.49639090  0.01247179  1
  Cu+  Cu89  1  0.25048836  0.99816809  0.00744549  1
  Cu+  Cu90  1  0.74709672  0.49628908  0.00712544  1
  Cu+  Cu91  1  0.74906074  0.99605598  0.01225356  1
  Cu+  Cu92  1  0.25191127  0.25219180  0.00743025  1
  Cu+  Cu93  1  0.25122009  0.75059703  0.01681966  1
  Cu+  Cu94  1  0.74883743  0.24954457  0.00645957  1
  Cu+  Cu95  1  0.75253125  0.75014468  0.01038630  1
  Cu+  Cu96  1  0.33280964  0.41733065  0.34283257  1
  Cu+  Cu97  1  0.33491668  0.91630076  0.34376441  1
  Cu+  Cu98  1  0.83698237  0.42095932  0.33978970  1
  Cu+  Cu99  1  0.83414298  0.91570029  0.34626414  1
  Cu+  Cu100  1  0.07914514  0.16268230  0.34041779  1
  Cu+  Cu101  1  0.08367644  0.66649918  0.34331771  1
  Cu+  Cu102  1  0.58289724  0.16404370  0.33976145  1
  Cu+  Cu103  1  0.57789868  0.66079118  0.34636893  1
  Cu+  Cu104  1  0.08348827  0.41980928  0.34104385  1
  Cu+  Cu105  1  0.08132740  0.91647916  0.34366237  1
  Cu+  Cu106  1  0.58102683  0.41763796  0.34137184  1
  Cu+  Cu107  1  0.58095884  0.91717690  0.34678432  1
  Cu+  Cu108  1  0.00468763  0.00738987  0.11575267  1
  Cu+  Cu109  1  -0.00639474  0.49568936  0.11192308  1
  Cu+  Cu110  1  0.50436474  0.00825952  0.11519318  1
  Cu+  Cu111  1  0.50369336  0.49930072  0.11527273  1
  Cu+  Cu112  1  0.33259733  0.16725802  0.44661379  1
  Cu+  Cu113  1  0.32710548  0.66377300  0.45172948  1
  Cu+  Cu114  1  0.83473989  0.17287320  0.44490931  1
  Cu+  Cu115  1  0.83621221  0.66256196  0.44979082  1
  Cu+  Cu116  1  0.16340082  0.33034657  0.78023229  1
  Cu+  Cu117  1  0.16874505  0.83789153  0.78171661  1
  Cu+  Cu118  1  0.66446871  0.33278233  0.77591243  1
  Cu+  Cu119  1  0.66627210  0.83316919  0.78097415  1
  Te2-  Te120  1  0.00025030  -0.00010362  0.38859566  1
  Te2-  Te121  1  0.00057918  0.50133886  0.38468390  1
  Te2-  Te122  1  0.49917817  0.00166959  0.38858275  1
  Te2-  Te123  1  0.49603695  0.49521952  0.38945423  1
  Te2-  Te124  1  0.33151945  0.16801332  0.71988177  1
  Te2-  Te125  1  0.33545466  0.66753377  0.72695260  1
  Te2-  Te126  1  0.83688283  0.16995926  0.71943814  1
  Te2-  Te127  1  0.83281317  0.66575720  0.72478851  1
  Te2-  Te128  1  0.16673820  0.33006995  0.05473961  1
  Te2-  Te129  1  0.17030018  0.83645452  0.05723147  1
  Te2-  Te130  1  0.66667072  0.33179622  0.04970935  1
  Te2-  Te131  1  0.66701300  0.82931097  0.05460369  1
  Te2-  Te132  1  0.49820965  0.24659092  0.87764149  1
  Te2-  Te133  1  0.49858345  0.74600697  0.88266916  1
  Te2-  Te134  1  0.99721883  0.24979919  0.88180116  1
  Te2-  Te135  1  0.99546360  0.74281500  0.88641267  1
  Te2-  Te136  1  0.25199124  0.00023020  0.88114810  1
  Te2-  Te137  1  0.25793048  0.50836273  0.88544183  1
  Te2-  Te138  1  0.75822727  0.00588613  0.88478738  1
  Te2-  Te139  1  0.75681359  0.50704287  0.88168374  1
  Te2-  Te140  1  0.25399441  0.24816742  0.88168368  1
  Te2-  Te141  1  0.25736699  0.74415336  0.88736520  1
  Te2-  Te142  1  0.75937326  0.24774270  0.88104639  1
  Te2-  Te143  1  0.75731105  0.74391403  0.88435807  1
  Te2-  Te144  1  0.32292427  0.40839091  0.21701256  1
  Te2-  Te145  1  0.32700439  0.91554021  0.21764330  1
  Te2-  Te146  1  0.83193122  0.41972439  0.21336569  1
  Te2-  Te147  1  0.82325774  0.90614303  0.21879122  1
  Te2-  Te148  1  0.07984193  0.16593246  0.21399108  1
  Te2-  Te149  1  0.09143545  0.67993864  0.21747872  1
  Te2-  Te150  1  0.58629248  0.16649514  0.21336762  1
  Te2-  Te151  1  0.58159414  0.67009164  0.21884080  1
  Te2-  Te152  1  0.08548425  0.41274413  0.21524707  1
  Te2-  Te153  1  0.09010275  0.91628946  0.21762401  1
  Te2-  Te154  1  0.58396298  0.41478508  0.21550694  1
  Te2-  Te155  1  0.58470728  0.90716635  0.21952010  1
  Te2-  Te156  1  0.15810602  0.07988390  0.54881847  1
  Te2-  Te157  1  0.16315430  0.58355753  0.55487518  1
  Te2-  Te158  1  0.65840683  0.08177635  0.54957401  1
  Te2-  Te159  1  0.65760141  0.57939851  0.55172676  1
  Te2-  Te160  1  0.41677250  0.33843234  0.54670358  1
  Te2-  Te161  1  0.41871952  0.84199475  0.55395719  1
  Te2-  Te162  1  0.91709926  0.33721884  0.54657657  1
  Te2-  Te163  1  0.91875793  0.84126548  0.55328899  1
  Te2-  Te164  1  0.41791249  0.08117620  0.54800822  1
  Te2-  Te165  1  0.41643718  0.57915807  0.55033027  1
  Te2-  Te166  1  0.92040897  0.08153876  0.54829092  1
  Te2-  Te167  1  0.91560977  0.58322375  0.54922278  1
  Te2-  Te168  1  0.00131700  0.00122806  0.88297507  1
  Te2-  Te169  1  -0.00122398  0.49943969  0.88135006  1
  Te2-  Te170  1  0.50155266  0.00136514  0.88250838  1
  Te2-  Te171  1  0.49984000  0.49887091  0.88065621  1
  Te2-  Te172  1  0.33370409  0.16706681  0.21360083  1
  Te2-  Te173  1  0.33392690  0.66777207  0.21541989  1
  Te2-  Te174  1  0.83408575  0.16878369  0.21609696  1
  Te2-  Te175  1  0.83309665  0.66734999  0.21619114  1
  Te2-  Te176  1  0.16406055  0.33204952  0.54818900  1
  Te2-  Te177  1  0.16613807  0.83575551  0.55077962  1
  Te2-  Te178  1  0.66394981  0.33243294  0.54683186  1
  Te2-  Te179  1  0.66648301  0.83521185  0.55061984  1
  Te2-  Te180  1  0.32611938  0.41394763  0.71056244  1
  Te2-  Te181  1  0.32782889  0.91797909  0.71066198  1
  Te2-  Te182  1  0.82770839  0.41508982  0.70894419  1
  Te2-  Te183  1  0.82527666  0.91658294  0.71100945  1
  Te2-  Te184  1  0.08466981  0.17112199  0.71144834  1
  Te2-  Te185  1  0.08478524  0.67610009  0.71114981  1
  Te2-  Te186  1  0.58394131  0.17307922  0.70789447  1
  Te2-  Te187  1  0.58378623  0.67504670  0.70943061  1
  Te2-  Te188  1  0.08519344  0.41354482  0.71008614  1
  Te2-  Te189  1  0.08579549  0.91497351  0.71127483  1
  Te2-  Te190  1  0.58257822  0.41252279  0.70775524  1
  Te2-  Te191  1  0.58878673  0.91497003  0.70972428  1
  Te2-  Te192  1  0.16314110  0.08136032  0.04293319  1
  Te2-  Te193  1  0.15867358  0.57777970  0.04173310  1
  Te2-  Te194  1  0.66103000  0.08014559  0.04376903  1
  Te2-  Te195  1  0.66275295  0.58050244  0.04627444  1
  Te2-  Te196  1  0.42169944  0.33861143  0.04307619  1
  Te2-  Te197  1  0.42409665  0.84039126  0.04447671  1
  Te2-  Te198  1  0.91830143  0.33599446  0.04380895  1
  Te2-  Te199  1  0.92201022  0.84191974  0.04515042  1
  Te2-  Te200  1  0.42085458  0.08169886  0.04271890  1
  Te2-  Te201  1  0.42247370  0.58027789  0.04445843  1
  Te2-  Te202  1  0.92164100  0.08163150  0.04420711  1
  Te2-  Te203  1  0.91754204  0.57823640  0.04281756  1
  Te2-  Te204  1  0.49444144  0.24656965  0.37611646  1
  Te2-  Te205  1  0.49038371  0.74536675  0.37861450  1
  Te2-  Te206  1  0.99455690  0.24851299  0.37582752  1
  Te2-  Te207  1  0.99454316  0.74741012  0.38014379  1
  Te2-  Te208  1  0.25188326  0.00441246  0.37885017  1
  Te2-  Te209  1  0.25187737  0.50591411  0.37973903  1
  Te2-  Te210  1  0.75322963  0.00722730  0.37576345  1
  Te2-  Te211  1  0.75135019  0.50542143  0.37744426  1
  Te2-  Te212  1  0.24955924  0.24600595  0.37723342  1
  Te2-  Te213  1  0.25249995  0.74748978  0.38174822  1
  Te2-  Te214  1  0.75308862  0.24970867  0.37547120  1
  Te2-  Te215  1  0.75068530  0.74371265  0.37774380  1
