# generated using pymatgen
data_Ti(CuTe)4
_symmetry_space_group_name_H-M   'P 1'
_cell_length_a   16.88654384
_cell_length_b   16.88882564
_cell_length_c   20.70711990
_cell_angle_alpha   89.94190352
_cell_angle_beta   90.07621654
_cell_angle_gamma   120.02182828
_symmetry_Int_Tables_number   1
_chemical_formula_structural   Ti(CuTe)4
_chemical_formula_sum   'Ti24 Cu96 Te96'
_cell_volume   5113.22103238
_cell_formula_units_Z   24
loop_
 _symmetry_equiv_pos_site_id
 _symmetry_equiv_pos_as_xyz
  1  'x, y, z'
loop_
 _atom_type_symbol
 _atom_type_oxidation_number
  Ti4+  4.0
  Cu+  1.0
  Te2-  -2.0
loop_
 _atom_site_type_symbol
 _atom_site_label
 _atom_site_symmetry_multiplicity
 _atom_site_fract_x
 _atom_site_fract_y
 _atom_site_fract_z
 _atom_site_occupancy
  Ti4+  Ti0  1  -0.00032131  -0.00184508  0.25651881  1
  Ti4+  Ti1  1  0.00190214  0.50165427  0.25940703  1
  Ti4+  Ti2  1  0.50205348  -0.00384138  0.26029021  1
  Ti4+  Ti3  1  0.49794173  0.49698556  0.25606695  1
  Ti4+  Ti4  1  0.33391066  0.16716952  0.58812812  1
  Ti4+  Ti5  1  0.33476135  0.66988452  0.59292652  1
  Ti4+  Ti6  1  0.83625509  0.17117491  0.59068913  1
  Ti4+  Ti7  1  0.83547700  0.67032861  0.59283884  1
  Ti4+  Ti8  1  0.16365745  0.33249739  0.92333764  1
  Ti4+  Ti9  1  0.16323610  0.83064731  0.92503127  1
  Ti4+  Ti10  1  0.66485871  0.33254511  0.92337263  1
  Ti4+  Ti11  1  0.66305317  0.83312458  0.92329154  1
  Ti4+  Ti12  1  0.00037578  0.00225798  0.75594766  1
  Ti4+  Ti13  1  0.00145602  0.50270320  0.75494484  1
  Ti4+  Ti14  1  0.50106432  0.00049112  0.75568972  1
  Ti4+  Ti15  1  0.50076291  0.50029764  0.75312387  1
  Ti4+  Ti16  1  0.33161951  0.16670126  0.08794661  1
  Ti4+  Ti17  1  0.33287613  0.66540031  0.09061606  1
  Ti4+  Ti18  1  0.83083276  0.16327775  0.08997174  1
  Ti4+  Ti19  1  0.83491430  0.66666105  0.08889680  1
  Ti4+  Ti20  1  0.16677046  0.33349179  0.42246885  1
  Ti4+  Ti21  1  0.16810642  0.83465459  0.42227310  1
  Ti4+  Ti22  1  0.66815373  0.33216548  0.42020294  1
  Ti4+  Ti23  1  0.66819303  0.83201122  0.42394448  1
  Cu+  Cu24  1  0.35056059  0.92880037  0.47628286  1
  Cu+  Cu25  1  0.07483085  0.43175824  0.47532328  1
  Cu+  Cu26  1  0.58074940  0.92850411  0.47953320  1
  Cu+  Cu27  1  0.40176756  0.58610725  0.80715401  1
  Cu+  Cu28  1  0.02474803  0.75993424  0.14377265  1
  Cu+  Cu29  1  0.23659128  0.26160963  0.13922509  1
  Cu+  Cu30  1  0.07214248  0.92818620  0.47371841  1
  Cu+  Cu31  1  0.73632506  0.97176757  0.14107933  1
  Cu+  Cu32  1  0.40383870  0.81733668  0.81306810  1
  Cu+  Cu33  1  0.90543839  0.82016136  0.81216449  1
  Cu+  Cu34  1  0.90308373  0.09589129  0.80608392  1
  Cu+  Cu35  1  0.90245928  0.58770190  0.80823786  1
  Cu+  Cu36  1  0.16395680  0.08541941  0.16958793  1
  Cu+  Cu37  1  0.16425442  0.58023056  0.17367017  1
  Cu+  Cu38  1  0.66433455  0.07247993  0.17251058  1
  Cu+  Cu39  1  0.66406667  0.58055330  0.17129018  1
  Cu+  Cu40  1  0.41217270  0.33521880  0.16879287  1
  Cu+  Cu41  1  0.41960627  0.83468719  0.17401664  1
  Cu+  Cu42  1  0.91822419  0.33448080  0.17389171  1
  Cu+  Cu43  1  0.92407934  0.83514618  0.16971385  1
  Cu+  Cu44  1  0.41740157  0.08009418  0.17297473  1
  Cu+  Cu45  1  0.41910792  0.58010696  0.17076999  1
  Cu+  Cu46  1  0.91121391  0.07410641  0.16970865  1
  Cu+  Cu47  1  0.92449554  0.58680348  0.17170269  1
  Cu+  Cu48  1  0.49907936  0.24906629  0.50088120  1
  Cu+  Cu49  1  0.49994327  0.75326700  0.50650827  1
  Cu+  Cu50  1  1.00003589  0.25496212  0.50463364  1
  Cu+  Cu51  1  0.99769727  0.75464549  0.50580971  1
  Cu+  Cu52  1  0.25127230  0.00543282  0.50188851  1
  Cu+  Cu53  1  0.24846545  0.50264095  0.50610044  1
  Cu+  Cu54  1  0.75355888  0.00456908  0.50616219  1
  Cu+  Cu55  1  0.75416528  0.50192411  0.50465143  1
  Cu+  Cu56  1  0.25195369  0.24789372  0.50232450  1
  Cu+  Cu57  1  0.25918055  0.75441801  0.50411448  1
  Cu+  Cu58  1  0.75511075  0.25055695  0.50113563  1
  Cu+  Cu59  1  0.75580919  0.75078359  0.50587560  1
  Cu+  Cu60  1  0.32920001  0.41483823  0.83665690  1
  Cu+  Cu61  1  0.32874176  0.91258562  0.83934093  1
  Cu+  Cu62  1  0.82906487  0.41617441  0.83742229  1
  Cu+  Cu63  1  0.82924214  0.91963329  0.83722631  1
  Cu+  Cu64  1  0.07903842  0.16958766  0.83743656  1
  Cu+  Cu65  1  0.07916034  0.66945587  0.83673340  1
  Cu+  Cu66  1  0.58478747  0.17000612  0.83799699  1
  Cu+  Cu67  1  0.57801186  0.66754242  0.83405650  1
  Cu+  Cu68  1  0.08477728  0.41419064  0.83573752  1
  Cu+  Cu69  1  0.07976560  0.91043373  0.83794834  1
  Cu+  Cu70  1  0.58390310  0.41209430  0.83497044  1
  Cu+  Cu71  1  0.58161185  0.91240252  0.83607212  1
  Cu+  Cu72  1  0.17148867  0.08617465  0.67335004  1
  Cu+  Cu73  1  0.16960704  0.58630195  0.67636065  1
  Cu+  Cu74  1  0.67082076  0.08691998  0.67537944  1
  Cu+  Cu75  1  0.67031655  0.58391490  0.67454599  1
  Cu+  Cu76  1  0.41756339  0.33158815  0.67115562  1
  Cu+  Cu77  1  0.41874250  0.83368443  0.68267052  1
  Cu+  Cu78  1  0.91985735  0.33638632  0.67494156  1
  Cu+  Cu79  1  0.91822106  0.83428402  0.68135000  1
  Cu+  Cu80  1  0.41623225  0.08551399  0.67323632  1
  Cu+  Cu81  1  0.41582404  0.58579509  0.67838461  1
  Cu+  Cu82  1  0.91780388  0.09069515  0.67742108  1
  Cu+  Cu83  1  0.91761088  0.58914295  0.67915067  1
  Cu+  Cu84  1  -0.00143468  0.24917198  0.00852930  1
  Cu+  Cu85  1  0.00140156  0.74968682  0.01422417  1
  Cu+  Cu86  1  0.50134832  0.25028427  0.00699242  1
  Cu+  Cu87  1  0.49745973  0.74973315  0.01002894  1
  Cu+  Cu88  1  0.24925809  0.49792547  0.00937334  1
  Cu+  Cu89  1  0.24794509  0.99696128  0.00780878  1
  Cu+  Cu90  1  0.74924254  0.49640331  0.00803787  1
  Cu+  Cu91  1  0.74609321  0.99614408  0.01177056  1
  Cu+  Cu92  1  0.24626553  0.25161970  0.00970004  1
  Cu+  Cu93  1  0.24723997  0.74861436  0.01083697  1
  Cu+  Cu94  1  0.74618826  0.25082412  0.00782751  1
  Cu+  Cu95  1  0.74796596  0.75064012  0.00739420  1
  Cu+  Cu96  1  0.33472870  0.41562992  0.34039369  1
  Cu+  Cu97  1  0.33829071  0.91625682  0.34730658  1
  Cu+  Cu98  1  0.83617792  0.41777050  0.34059379  1
  Cu+  Cu99  1  0.83468874  0.91275406  0.34131746  1
  Cu+  Cu100  1  0.08246528  0.16384108  0.34035210  1
  Cu+  Cu101  1  0.08302507  0.66487841  0.34420513  1
  Cu+  Cu102  1  0.58517425  0.16254656  0.34098641  1
  Cu+  Cu103  1  0.58248538  0.65928771  0.34200788  1
  Cu+  Cu104  1  0.08194856  0.41904436  0.34716849  1
  Cu+  Cu105  1  0.08291962  0.91740908  0.34486361  1
  Cu+  Cu106  1  0.58196403  0.41607595  0.33781667  1
  Cu+  Cu107  1  0.58354814  0.91462412  0.34900329  1
  Cu+  Cu108  1  0.00010986  -0.00009196  0.11271184  1
  Cu+  Cu109  1  -0.00222739  0.49436169  0.11730122  1
  Cu+  Cu110  1  0.49872223  0.00145541  0.11749138  1
  Cu+  Cu111  1  0.50394027  0.49983095  0.11276708  1
  Cu+  Cu112  1  0.33739382  0.17159515  0.44330034  1
  Cu+  Cu113  1  0.33693511  0.66397397  0.44979992  1
  Cu+  Cu114  1  0.83602629  0.16522538  0.44727621  1
  Cu+  Cu115  1  0.83132849  0.66222404  0.44940766  1
  Cu+  Cu116  1  0.16815105  0.33291691  0.77909013  1
  Cu+  Cu117  1  0.16832771  0.83680510  0.78155366  1
  Cu+  Cu118  1  0.66635147  0.33069687  0.77918489  1
  Cu+  Cu119  1  0.66724603  0.83116579  0.77916536  1
  Te2-  Te120  1  -0.00124318  0.00019962  0.38682090  1
  Te2-  Te121  1  -0.00190455  0.50167583  0.39025580  1
  Te2-  Te122  1  0.50400452  0.00117623  0.39254498  1
  Te2-  Te123  1  0.49853392  0.49503194  0.38526076  1
  Te2-  Te124  1  0.33524040  0.16855101  0.71735174  1
  Te2-  Te125  1  0.33190308  0.66711837  0.72464485  1
  Te2-  Te126  1  0.83411112  0.17278913  0.72136962  1
  Te2-  Te127  1  0.83177453  0.66840331  0.72520547  1
  Te2-  Te128  1  0.16263527  0.33354593  0.05360997  1
  Te2-  Te129  1  0.16835184  0.83413885  0.05527661  1
  Te2-  Te130  1  0.66469958  0.33266276  0.05259599  1
  Te2-  Te131  1  0.66269650  0.82898513  0.05341666  1
  Te2-  Te132  1  0.49288956  0.24587190  0.88136958  1
  Te2-  Te133  1  0.48672721  0.74351114  0.88371461  1
  Te2-  Te134  1  0.98916430  0.24830408  0.88280522  1
  Te2-  Te135  1  0.98618721  0.74275393  0.88653044  1
  Te2-  Te136  1  0.24848980  0.00093081  0.88161390  1
  Te2-  Te137  1  0.25019172  0.50640583  0.88340488  1
  Te2-  Te138  1  0.74779449  0.00634263  0.88437100  1
  Te2-  Te139  1  0.74984404  0.50754105  0.88245425  1
  Te2-  Te140  1  0.24829102  0.24676036  0.88199438  1
  Te2-  Te141  1  0.24626045  0.74107996  0.88453533  1
  Te2-  Te142  1  0.75266474  0.24860600  0.88186394  1
  Te2-  Te143  1  0.74678723  0.74573063  0.88088994  1
  Te2-  Te144  1  0.32203179  0.41321016  0.21521263  1
  Te2-  Te145  1  0.33065907  0.91272479  0.21998930  1
  Te2-  Te146  1  0.83195248  0.41790520  0.21490802  1
  Te2-  Te147  1  0.82654121  0.90550734  0.21544477  1
  Te2-  Te148  1  0.08020208  0.17062535  0.21434382  1
  Te2-  Te149  1  0.09341639  0.67641967  0.21866160  1
  Te2-  Te150  1  0.58734656  0.16532303  0.21494382  1
  Te2-  Te151  1  0.58599129  0.66962717  0.21625537  1
  Te2-  Te152  1  0.08566666  0.41366837  0.22000333  1
  Te2-  Te153  1  0.09206791  0.91746336  0.21720332  1
  Te2-  Te154  1  0.58202900  0.41076849  0.21197176  1
  Te2-  Te155  1  0.58576479  0.90526812  0.22109240  1
  Te2-  Te156  1  0.15898047  0.08157486  0.54803700  1
  Te2-  Te157  1  0.16285275  0.58752147  0.55042680  1
  Te2-  Te158  1  0.66276265  0.08525418  0.54966586  1
  Te2-  Te159  1  0.66552087  0.58234025  0.54868901  1
  Te2-  Te160  1  0.42025240  0.33823978  0.54533174  1
  Te2-  Te161  1  0.42507080  0.84692566  0.55463640  1
  Te2-  Te162  1  0.92060907  0.34481057  0.54941011  1
  Te2-  Te163  1  0.92109430  0.84540805  0.55382721  1
  Te2-  Te164  1  0.42280906  0.08240926  0.54769243  1
  Te2-  Te165  1  0.41799424  0.58406967  0.55068951  1
  Te2-  Te166  1  0.92207218  0.08623708  0.55014396  1
  Te2-  Te167  1  0.92202896  0.58644465  0.55151732  1
  Te2-  Te168  1  -0.00063264  -0.00015132  0.88348465  1
  Te2-  Te169  1  -0.00026440  0.49902429  0.88170408  1
  Te2-  Te170  1  0.49976133  0.00025171  0.88255975  1
  Te2-  Te171  1  0.49969342  0.49805268  0.88001149  1
  Te2-  Te172  1  0.33341043  0.16596442  0.21474582  1
  Te2-  Te173  1  0.33443096  0.66430454  0.21649281  1
  Te2-  Te174  1  0.83411807  0.16500352  0.21679481  1
  Te2-  Te175  1  0.83353489  0.66590218  0.21562973  1
  Te2-  Te176  1  0.16906799  0.33328721  0.54930370  1
  Te2-  Te177  1  0.16907756  0.83545930  0.54959766  1
  Te2-  Te178  1  0.66802832  0.33278633  0.54634773  1
  Te2-  Te179  1  0.67006843  0.83462017  0.55090170  1
  Te2-  Te180  1  0.32825739  0.41260077  0.70859405  1
  Te2-  Te181  1  0.32819002  0.91631483  0.71139722  1
  Te2-  Te182  1  0.82859206  0.41578687  0.70982160  1
  Te2-  Te183  1  0.82770815  0.91755405  0.70925055  1
  Te2-  Te184  1  0.08959764  0.17428271  0.71024601  1
  Te2-  Te185  1  0.08992661  0.67683359  0.71053983  1
  Te2-  Te186  1  0.58593645  0.17196162  0.71108735  1
  Te2-  Te187  1  0.58912523  0.67373673  0.70752818  1
  Te2-  Te188  1  0.08883405  0.41648275  0.71047567  1
  Te2-  Te189  1  0.08989768  0.91781323  0.71136993  1
  Te2-  Te190  1  0.58689520  0.41388537  0.70917533  1
  Te2-  Te191  1  0.59151873  0.91738517  0.71018063  1
  Te2-  Te192  1  0.15925222  0.07887557  0.04232878  1
  Te2-  Te193  1  0.16012260  0.57849488  0.04738450  1
  Te2-  Te194  1  0.65848796  0.08042615  0.04516162  1
  Te2-  Te195  1  0.66316212  0.58065116  0.04421593  1
  Te2-  Te196  1  0.41891446  0.33847976  0.04172748  1
  Te2-  Te197  1  0.41741204  0.83857983  0.04761598  1
  Te2-  Te198  1  0.91571658  0.33539619  0.04666336  1
  Te2-  Te199  1  0.91794582  0.83941340  0.04286087  1
  Te2-  Te200  1  0.41777420  0.08051184  0.04556520  1
  Te2-  Te201  1  0.41896407  0.57956351  0.04492619  1
  Te2-  Te202  1  0.91850073  0.07907189  0.04285721  1
  Te2-  Te203  1  0.91868590  0.57728576  0.04479742  1
  Te2-  Te204  1  0.49697729  0.24578409  0.37435825  1
  Te2-  Te205  1  0.49536584  0.74227407  0.37951318  1
  Te2-  Te206  1  0.99454177  0.24558356  0.37724457  1
  Te2-  Te207  1  0.99374123  0.74583329  0.37890050  1
  Te2-  Te208  1  0.25585759  0.00758018  0.37461759  1
  Te2-  Te209  1  0.25509874  0.50581173  0.37836235  1
  Te2-  Te210  1  0.75660116  0.00439134  0.37821042  1
  Te2-  Te211  1  0.75209394  0.50388703  0.37705860  1
  Te2-  Te212  1  0.25144883  0.24655009  0.37629213  1
  Te2-  Te213  1  0.25315907  0.74441228  0.37862687  1
  Te2-  Te214  1  0.75554807  0.24717207  0.37562506  1
  Te2-  Te215  1  0.75238904  0.74428017  0.37977617  1
