# generated using pymatgen
data_Ti(CuTe)4
_symmetry_space_group_name_H-M   'P 1'
_cell_length_a   16.87392022
_cell_length_b   16.86996311
_cell_length_c   20.68566436
_cell_angle_alpha   90.02388732
_cell_angle_beta   89.94702845
_cell_angle_gamma   119.99291333
_symmetry_Int_Tables_number   1
_chemical_formula_structural   Ti(CuTe)4
_chemical_formula_sum   'Ti24 Cu96 Te96'
_cell_volume   5099.89285668
_cell_formula_units_Z   24
loop_
 _symmetry_equiv_pos_site_id
 _symmetry_equiv_pos_as_xyz
  1  'x, y, z'
loop_
 _atom_type_symbol
 _atom_type_oxidation_number
  Ti4+  4.0
  Cu+  1.0
  Te2-  -2.0
loop_
 _atom_site_type_symbol
 _atom_site_label
 _atom_site_symmetry_multiplicity
 _atom_site_fract_x
 _atom_site_fract_y
 _atom_site_fract_z
 _atom_site_occupancy
  Ti4+  Ti0  1  -0.00210094  0.00044933  0.25560451  1
  Ti4+  Ti1  1  -0.00078822  0.50392847  0.25843631  1
  Ti4+  Ti2  1  0.49910784  -0.00186789  0.26015980  1
  Ti4+  Ti3  1  0.49903031  0.49755732  0.25720566  1
  Ti4+  Ti4  1  0.33231010  0.16140858  0.59363632  1
  Ti4+  Ti5  1  0.33426692  0.66533866  0.59045356  1
  Ti4+  Ti6  1  0.83276554  0.16609368  0.59130643  1
  Ti4+  Ti7  1  0.83040091  0.66166012  0.58877642  1
  Ti4+  Ti8  1  0.17070040  0.33774937  0.92251383  1
  Ti4+  Ti9  1  0.17008334  0.83604224  0.92609514  1
  Ti4+  Ti10  1  0.66830274  0.33400487  0.92638722  1
  Ti4+  Ti11  1  0.66881643  0.83727401  0.92353389  1
  Ti4+  Ti12  1  -0.00066872  -0.00138664  0.75387558  1
  Ti4+  Ti13  1  0.00181577  0.50142576  0.75820666  1
  Ti4+  Ti14  1  0.50122829  -0.00042121  0.75553461  1
  Ti4+  Ti15  1  0.49784952  0.49771469  0.75480076  1
  Ti4+  Ti16  1  0.33349136  0.16798807  0.08905552  1
  Ti4+  Ti17  1  0.33393818  0.67083494  0.09004709  1
  Ti4+  Ti18  1  0.83290909  0.16553068  0.08935373  1
  Ti4+  Ti19  1  0.83361174  0.66597549  0.08718464  1
  Ti4+  Ti20  1  0.16378355  0.33289671  0.42153080  1
  Ti4+  Ti21  1  0.16739903  0.83466754  0.42324787  1
  Ti4+  Ti22  1  0.66698631  0.33365212  0.42164727  1
  Ti4+  Ti23  1  0.66366500  0.82972742  0.42219012  1
  Cu+  Cu24  1  0.18388312  0.09533310  0.80878356  1
  Cu+  Cu25  1  0.19634867  0.60144904  0.80755251  1
  Cu+  Cu26  1  0.01348360  0.76057422  0.14421207  1
  Cu+  Cu27  1  0.84960118  0.41968231  0.47632790  1
  Cu+  Cu28  1  0.73879498  0.47783641  0.14246497  1
  Cu+  Cu29  1  0.24408869  0.76529013  0.14484214  1
  Cu+  Cu30  1  0.73457933  0.97274881  0.13935576  1
  Cu+  Cu31  1  0.35698320  0.92765218  0.47732062  1
  Cu+  Cu32  1  0.69291468  0.09947620  0.80676622  1
  Cu+  Cu33  1  0.08082898  0.65348045  0.47888235  1
  Cu+  Cu34  1  0.41613115  0.09320170  0.81375931  1
  Cu+  Cu35  1  0.56814635  0.63629418  0.47107329  1
  Cu+  Cu36  1  0.16302731  0.08440310  0.16955735  1
  Cu+  Cu37  1  0.16513423  0.58925292  0.17095737  1
  Cu+  Cu38  1  0.66460467  0.07636390  0.17271506  1
  Cu+  Cu39  1  0.66164140  0.57592309  0.16990683  1
  Cu+  Cu40  1  0.41663289  0.33658615  0.17078730  1
  Cu+  Cu41  1  0.41551394  0.83870726  0.17238452  1
  Cu+  Cu42  1  0.91664627  0.33734423  0.17154466  1
  Cu+  Cu43  1  0.92106256  0.84123163  0.16700673  1
  Cu+  Cu44  1  0.41655694  0.08280974  0.17331460  1
  Cu+  Cu45  1  0.41886621  0.58315935  0.17266138  1
  Cu+  Cu46  1  0.91156975  0.07766072  0.16930163  1
  Cu+  Cu47  1  0.91678857  0.58109722  0.16905896  1
  Cu+  Cu48  1  0.49619273  0.24333626  0.50568758  1
  Cu+  Cu49  1  0.49690311  0.74083207  0.50275583  1
  Cu+  Cu50  1  0.99469615  0.24683124  0.50334516  1
  Cu+  Cu51  1  0.99463475  0.74348581  0.50245579  1
  Cu+  Cu52  1  0.25635816  0.00303823  0.50606047  1
  Cu+  Cu53  1  0.24913148  0.50105352  0.50262906  1
  Cu+  Cu54  1  0.74902451  0.00226535  0.50631723  1
  Cu+  Cu55  1  0.75487214  0.50265728  0.50039225  1
  Cu+  Cu56  1  0.24611934  0.24490807  0.50652690  1
  Cu+  Cu57  1  0.25475071  0.75074158  0.50491346  1
  Cu+  Cu58  1  0.75210869  0.24779136  0.50485524  1
  Cu+  Cu59  1  0.74365663  0.74082825  0.50292796  1
  Cu+  Cu60  1  0.32872308  0.41591207  0.83475770  1
  Cu+  Cu61  1  0.32926046  0.91606959  0.83584764  1
  Cu+  Cu62  1  0.83053718  0.41766452  0.84107900  1
  Cu+  Cu63  1  0.82849887  0.91674514  0.83579167  1
  Cu+  Cu64  1  0.08686624  0.17111178  0.83574377  1
  Cu+  Cu65  1  0.09079462  0.67021287  0.84111903  1
  Cu+  Cu66  1  0.58986437  0.17120141  0.83796231  1
  Cu+  Cu67  1  0.58371490  0.66915852  0.83795496  1
  Cu+  Cu68  1  0.09273785  0.42445003  0.83779497  1
  Cu+  Cu69  1  0.08616658  0.91866099  0.83713372  1
  Cu+  Cu70  1  0.58604619  0.41798264  0.83894941  1
  Cu+  Cu71  1  0.59237550  0.92228702  0.83647804  1
  Cu+  Cu72  1  0.16888066  0.07918782  0.67931778  1
  Cu+  Cu73  1  0.17081597  0.58775163  0.67996052  1
  Cu+  Cu74  1  0.67184490  0.08539545  0.67815258  1
  Cu+  Cu75  1  0.66553089  0.58064519  0.67298057  1
  Cu+  Cu76  1  0.41410717  0.32805104  0.67520756  1
  Cu+  Cu77  1  0.41802880  0.83120225  0.67397303  1
  Cu+  Cu78  1  0.91389232  0.33179977  0.67662104  1
  Cu+  Cu79  1  0.91045022  0.82643238  0.67113433  1
  Cu+  Cu80  1  0.41365477  0.07895397  0.68313326  1
  Cu+  Cu81  1  0.41476365  0.58034719  0.67473872  1
  Cu+  Cu82  1  0.91385793  0.08163203  0.67302456  1
  Cu+  Cu83  1  0.91465018  0.58211583  0.67654688  1
  Cu+  Cu84  1  0.00608840  0.25548464  0.00482039  1
  Cu+  Cu85  1  0.00394163  0.75123394  0.01308767  1
  Cu+  Cu86  1  0.50274024  0.25110518  0.01034834  1
  Cu+  Cu87  1  0.50353739  0.75531424  0.00651542  1
  Cu+  Cu88  1  0.25102872  0.50138348  0.00830948  1
  Cu+  Cu89  1  0.25167128  1.00263875  0.01031797  1
  Cu+  Cu90  1  0.74760756  0.49590504  0.01382314  1
  Cu+  Cu91  1  0.74919884  0.99756972  0.01164510  1
  Cu+  Cu92  1  0.25045524  0.25330317  0.00703258  1
  Cu+  Cu93  1  0.25103485  0.75365066  0.01533783  1
  Cu+  Cu94  1  0.75006978  0.25029955  0.00986491  1
  Cu+  Cu95  1  0.74940328  0.75140697  0.00559022  1
  Cu+  Cu96  1  0.33115994  0.41557730  0.34031437  1
  Cu+  Cu97  1  0.33635583  0.91985403  0.34983392  1
  Cu+  Cu98  1  0.83417337  0.41968014  0.34745177  1
  Cu+  Cu99  1  0.83396629  0.91874406  0.34008387  1
  Cu+  Cu100  1  0.07849554  0.16507464  0.33824541  1
  Cu+  Cu101  1  0.08066751  0.66775000  0.34942712  1
  Cu+  Cu102  1  0.58218696  0.16363543  0.34174166  1
  Cu+  Cu103  1  0.57907882  0.65876370  0.34287579  1
  Cu+  Cu104  1  0.08111447  0.41879559  0.34034522  1
  Cu+  Cu105  1  0.08289228  0.92242144  0.34065497  1
  Cu+  Cu106  1  0.57983591  0.41393227  0.34182811  1
  Cu+  Cu107  1  0.58056461  0.91539061  0.34360279  1
  Cu+  Cu108  1  0.00293026  0.00735904  0.11120702  1
  Cu+  Cu109  1  0.00243511  0.49732398  0.11406232  1
  Cu+  Cu110  1  0.50311517  0.00722975  0.11712669  1
  Cu+  Cu111  1  0.49628560  0.50121159  0.11413937  1
  Cu+  Cu112  1  0.33279565  0.17200891  0.45114486  1
  Cu+  Cu113  1  0.33267840  0.66475763  0.44575279  1
  Cu+  Cu114  1  0.83241264  0.16315649  0.44719430  1
  Cu+  Cu115  1  0.83379811  0.67130905  0.44413614  1
  Cu+  Cu116  1  0.16089107  0.33071892  0.77747877  1
  Cu+  Cu117  1  0.15941988  0.82969710  0.78271253  1
  Cu+  Cu118  1  0.66720076  0.33703247  0.78286466  1
  Cu+  Cu119  1  0.66423405  0.82809756  0.77997301  1
  Te2-  Te120  1  -0.00222916  0.00157584  0.38471657  1
  Te2-  Te121  1  0.00065867  0.50105922  0.39029916  1
  Te2-  Te122  1  0.50316924  0.00101210  0.39075488  1
  Te2-  Te123  1  0.49459231  0.49275803  0.38759056  1
  Te2-  Te124  1  0.33415329  0.16554422  0.72579258  1
  Te2-  Te125  1  0.33802804  0.66783248  0.72063119  1
  Te2-  Te126  1  0.83764681  0.16801395  0.72197454  1
  Te2-  Te127  1  0.82993396  0.66314120  0.71760996  1
  Te2-  Te128  1  0.16907311  0.33647430  0.05151761  1
  Te2-  Te129  1  0.16927850  0.83844025  0.05807380  1
  Te2-  Te130  1  0.66633369  0.32988610  0.05696255  1
  Te2-  Te131  1  0.66617826  0.83097199  0.05403570  1
  Te2-  Te132  1  0.49604033  0.24965500  0.88397988  1
  Te2-  Te133  1  0.49843619  0.75340464  0.88061691  1
  Te2-  Te134  1  1.00082461  0.25391633  0.87874798  1
  Te2-  Te135  1  1.00103159  0.75068969  0.88451356  1
  Te2-  Te136  1  0.25590299  0.01058548  0.88416550  1
  Te2-  Te137  1  0.26111445  0.51276356  0.88251260  1
  Te2-  Te138  1  0.75927939  0.01213118  0.88429951  1
  Te2-  Te139  1  0.75184500  0.50534609  0.88628560  1
  Te2-  Te140  1  0.25740838  0.25062844  0.88137878  1
  Te2-  Te141  1  0.26041393  0.75222897  0.88704201  1
  Te2-  Te142  1  0.75807720  0.25002167  0.88428197  1
  Te2-  Te143  1  0.75234891  0.74971502  0.88016875  1
  Te2-  Te144  1  0.32765776  0.41470676  0.21469826  1
  Te2-  Te145  1  0.32517090  0.91687781  0.22148324  1
  Te2-  Te146  1  0.82562864  0.41253202  0.21914420  1
  Te2-  Te147  1  0.82373897  0.90903587  0.21443563  1
  Te2-  Te148  1  0.08090747  0.17057845  0.21229343  1
  Te2-  Te149  1  0.08619356  0.67875814  0.21974304  1
  Te2-  Te150  1  0.58558598  0.16708654  0.21577310  1
  Te2-  Te151  1  0.58703314  0.66883716  0.21573520  1
  Te2-  Te152  1  0.08479148  0.42050190  0.21470379  1
  Te2-  Te153  1  0.08956581  0.91781099  0.21489097  1
  Te2-  Te154  1  0.58306183  0.40718371  0.21609461  1
  Te2-  Te155  1  0.58198039  0.90758870  0.21781803  1
  Te2-  Te156  1  0.16222161  0.07646481  0.55176033  1
  Te2-  Te157  1  0.16132148  0.57906105  0.55173007  1
  Te2-  Te158  1  0.66107662  0.08128978  0.55106932  1
  Te2-  Te159  1  0.65713657  0.57144283  0.54729602  1
  Te2-  Te160  1  0.41564503  0.33106450  0.54923842  1
  Te2-  Te161  1  0.42522367  0.83791962  0.54820824  1
  Te2-  Te162  1  0.92224077  0.33993746  0.55067549  1
  Te2-  Te163  1  0.91379773  0.83154705  0.54514525  1
  Te2-  Te164  1  0.42362350  0.07858547  0.55490056  1
  Te2-  Te165  1  0.41533121  0.57309902  0.54884173  1
  Te2-  Te166  1  0.91736645  0.07976472  0.54755090  1
  Te2-  Te167  1  0.92178382  0.57537316  0.55008160  1
  Te2-  Te168  1  -0.00121690  0.00153560  0.88109225  1
  Te2-  Te169  1  0.00072419  0.50099553  0.88515033  1
  Te2-  Te170  1  0.50007680  0.00000535  0.88318439  1
  Te2-  Te171  1  0.49852944  0.50053263  0.88145604  1
  Te2-  Te172  1  0.33112379  0.16772827  0.21580660  1
  Te2-  Te173  1  0.33383373  0.66742870  0.21723944  1
  Te2-  Te174  1  0.83382032  0.16791859  0.21647242  1
  Te2-  Te175  1  0.83317365  0.66902961  0.21457490  1
  Te2-  Te176  1  0.16357725  0.33166669  0.54839215  1
  Te2-  Te177  1  0.16420594  0.83142953  0.55077512  1
  Te2-  Te178  1  0.66671528  0.33309218  0.54875235  1
  Te2-  Te179  1  0.66592179  0.83160635  0.54913387  1
  Te2-  Te180  1  0.32496072  0.41008341  0.70948734  1
  Te2-  Te181  1  0.32580608  0.90722778  0.71104201  1
  Te2-  Te182  1  0.82804377  0.41403943  0.71514561  1
  Te2-  Te183  1  0.82685097  0.91213307  0.70964399  1
  Te2-  Te184  1  0.08510634  0.17043783  0.70748963  1
  Te2-  Te185  1  0.08480795  0.67339527  0.71257710  1
  Te2-  Te186  1  0.58802978  0.17397018  0.71026877  1
  Te2-  Te187  1  0.58484308  0.66947458  0.71020588  1
  Te2-  Te188  1  0.08546957  0.41422523  0.71013870  1
  Te2-  Te189  1  0.08048441  0.90679897  0.70971269  1
  Te2-  Te190  1  0.58434608  0.41151170  0.71189528  1
  Te2-  Te191  1  0.58756619  0.91319140  0.70968934  1
  Te2-  Te192  1  0.16172447  0.08328977  0.04297607  1
  Te2-  Te193  1  0.16097787  0.58091397  0.04393887  1
  Te2-  Te194  1  0.65985134  0.08034531  0.04472299  1
  Te2-  Te195  1  0.66033513  0.58183241  0.04289006  1
  Te2-  Te196  1  0.42046359  0.34010550  0.04463860  1
  Te2-  Te197  1  0.42398794  0.84457783  0.04557700  1
  Te2-  Te198  1  0.92010151  0.33823954  0.04493609  1
  Te2-  Te199  1  0.91902890  0.83975494  0.04109870  1
  Te2-  Te200  1  0.42065744  0.08145807  0.04632523  1
  Te2-  Te201  1  0.42045198  0.58569387  0.04541203  1
  Te2-  Te202  1  0.92281780  0.08472624  0.04150765  1
  Te2-  Te203  1  0.92116824  0.57852161  0.04220691  1
  Te2-  Te204  1  0.49366537  0.24442397  0.37925407  1
  Te2-  Te205  1  0.49133827  0.74383586  0.37588528  1
  Te2-  Te206  1  0.99202712  0.24828688  0.37637816  1
  Te2-  Te207  1  0.99406189  0.75283477  0.37640844  1
  Te2-  Te208  1  0.25169760  0.00821769  0.37954814  1
  Te2-  Te209  1  0.25096918  0.50543602  0.37644153  1
  Te2-  Te210  1  0.75021135  0.00323974  0.37916694  1
  Te2-  Te211  1  0.74988814  0.50771072  0.37518928  1
  Te2-  Te212  1  0.24821172  0.24563235  0.37826570  1
  Te2-  Te213  1  0.25343179  0.74619662  0.37680255  1
  Te2-  Te214  1  0.75248478  0.24573992  0.37701687  1
  Te2-  Te215  1  0.75191202  0.74732564  0.37502173  1
