# generated using pymatgen
data_Ti(CuTe)4
_symmetry_space_group_name_H-M   'P 1'
_cell_length_a   16.89404764
_cell_length_b   16.89416546
_cell_length_c   20.71922073
_cell_angle_alpha   89.99951240
_cell_angle_beta   89.99814723
_cell_angle_gamma   120.00021327
_symmetry_Int_Tables_number   1
_chemical_formula_structural   Ti(CuTe)4
_chemical_formula_sum   'Ti24 Cu96 Te96'
_cell_volume   5121.22165490
_cell_formula_units_Z   24
loop_
 _symmetry_equiv_pos_site_id
 _symmetry_equiv_pos_as_xyz
  1  'x, y, z'
loop_
 _atom_type_symbol
 _atom_type_oxidation_number
  Ti4+  4.0
  Cu+  1.0
  Te2-  -2.0
loop_
 _atom_site_type_symbol
 _atom_site_label
 _atom_site_symmetry_multiplicity
 _atom_site_fract_x
 _atom_site_fract_y
 _atom_site_fract_z
 _atom_site_occupancy
  Ti4+  Ti0  1  0.00012962  0.00045127  0.25890700  1
  Ti4+  Ti1  1  0.00177047  0.50255048  0.25925206  1
  Ti4+  Ti2  1  0.50087316  -0.00012275  0.25548356  1
  Ti4+  Ti3  1  0.50524565  0.50192753  0.25522935  1
  Ti4+  Ti4  1  0.33056458  0.16481079  0.59058508  1
  Ti4+  Ti5  1  0.33079118  0.66484600  0.59285876  1
  Ti4+  Ti6  1  0.83191529  0.16636525  0.59126880  1
  Ti4+  Ti7  1  0.83487871  0.66711281  0.59433987  1
  Ti4+  Ti8  1  0.16688826  0.33086464  0.92212486  1
  Ti4+  Ti9  1  0.16533969  0.83174840  0.92562739  1
  Ti4+  Ti10  1  0.66756503  0.33528719  0.92367839  1
  Ti4+  Ti11  1  0.66365034  0.83377850  0.92173650  1
  Ti4+  Ti12  1  -0.00088059  -0.00022153  0.75449584  1
  Ti4+  Ti13  1  -0.00068398  0.50123230  0.75573722  1
  Ti4+  Ti14  1  0.50016590  -0.00039943  0.75525608  1
  Ti4+  Ti15  1  0.49800894  0.49755807  0.75293714  1
  Ti4+  Ti16  1  0.33401534  0.16663184  0.08729829  1
  Ti4+  Ti17  1  0.33400957  0.66798095  0.08874520  1
  Ti4+  Ti18  1  0.83363591  0.16686388  0.08816417  1
  Ti4+  Ti19  1  0.83179682  0.66629548  0.08902954  1
  Ti4+  Ti20  1  0.16924484  0.33472360  0.42101510  1
  Ti4+  Ti21  1  0.16653061  0.83362572  0.42323971  1
  Ti4+  Ti22  1  0.66763502  0.33332322  0.42444286  1
  Ti4+  Ti23  1  0.66679129  0.83378274  0.42418111  1
  Cu+  Cu24  1  0.52433724  0.76199478  0.13997885  1
  Cu+  Cu25  1  0.07251873  0.64569059  0.47708248  1
  Cu+  Cu26  1  0.07025688  0.92612954  0.47424541  1
  Cu+  Cu27  1  0.51993562  0.25658984  0.14105337  1
  Cu+  Cu28  1  0.40595940  0.31061723  0.80639198  1
  Cu+  Cu29  1  0.40274443  0.81478997  0.80762022  1
  Cu+  Cu30  1  0.74817423  0.48646940  0.14755884  1
  Cu+  Cu31  1  0.40581507  0.58346132  0.81076011  1
  Cu+  Cu32  1  0.23992330  0.76219427  0.14223703  1
  Cu+  Cu33  1  0.67566385  0.59010527  0.81373475  1
  Cu+  Cu34  1  0.91096194  0.59712395  0.81140687  1
  Cu+  Cu35  1  0.68863750  0.09612222  0.80655621  1
  Cu+  Cu36  1  0.16294667  0.08013557  0.17211522  1
  Cu+  Cu37  1  0.16554883  0.58882563  0.17215210  1
  Cu+  Cu38  1  0.66462359  0.08139032  0.16841220  1
  Cu+  Cu39  1  0.66284098  0.57829847  0.16857239  1
  Cu+  Cu40  1  0.42405709  0.33584050  0.16804167  1
  Cu+  Cu41  1  0.41864645  0.83591782  0.16866844  1
  Cu+  Cu42  1  0.91951788  0.33550492  0.17143387  1
  Cu+  Cu43  1  0.91848628  0.83752046  0.17307237  1
  Cu+  Cu44  1  0.42176630  0.08375535  0.16865134  1
  Cu+  Cu45  1  0.42536874  0.58787973  0.16938962  1
  Cu+  Cu46  1  0.91759555  0.08145168  0.17171390  1
  Cu+  Cu47  1  0.92025808  0.58121111  0.17255729  1
  Cu+  Cu48  1  0.49707006  0.24810254  0.50674309  1
  Cu+  Cu49  1  0.49655611  0.74921544  0.50766791  1
  Cu+  Cu50  1  0.99837316  0.25003950  0.50404382  1
  Cu+  Cu51  1  0.99771314  0.74790206  0.50556669  1
  Cu+  Cu52  1  0.24613578  0.00330457  0.50358567  1
  Cu+  Cu53  1  0.25278147  0.50266215  0.50415685  1
  Cu+  Cu54  1  0.74880067  0.00307114  0.50613010  1
  Cu+  Cu55  1  0.75278271  0.50185236  0.50889338  1
  Cu+  Cu56  1  0.25224183  0.24885530  0.50278139  1
  Cu+  Cu57  1  0.24802277  0.74432817  0.50572749  1
  Cu+  Cu58  1  0.74967196  0.24604642  0.50655217  1
  Cu+  Cu59  1  0.74919799  0.74798841  0.50784881  1
  Cu+  Cu60  1  0.32531732  0.40819356  0.83404450  1
  Cu+  Cu61  1  0.32930171  0.91102184  0.83926507  1
  Cu+  Cu62  1  0.83046537  0.42178116  0.83587131  1
  Cu+  Cu63  1  0.82970525  0.91624146  0.83448936  1
  Cu+  Cu64  1  0.08427133  0.16823566  0.83532517  1
  Cu+  Cu65  1  0.08388727  0.67170364  0.83885090  1
  Cu+  Cu66  1  0.58831065  0.17055431  0.83634137  1
  Cu+  Cu67  1  0.58218118  0.67276055  0.83392787  1
  Cu+  Cu68  1  0.08328330  0.41416705  0.83666367  1
  Cu+  Cu69  1  0.08384478  0.91607050  0.83831227  1
  Cu+  Cu70  1  0.58420112  0.41282398  0.83488666  1
  Cu+  Cu71  1  0.58265571  0.91520331  0.83450384  1
  Cu+  Cu72  1  0.16671486  0.08351612  0.67458467  1
  Cu+  Cu73  1  0.16643794  0.58338217  0.67587076  1
  Cu+  Cu74  1  0.66972158  0.08548219  0.67863178  1
  Cu+  Cu75  1  0.67009259  0.58277729  0.68220425  1
  Cu+  Cu76  1  0.41241887  0.32701450  0.67761073  1
  Cu+  Cu77  1  0.41281264  0.82799874  0.67919904  1
  Cu+  Cu78  1  0.91345583  0.32998730  0.67410943  1
  Cu+  Cu79  1  0.91720684  0.83211946  0.67681084  1
  Cu+  Cu80  1  0.41377027  0.08364536  0.67303623  1
  Cu+  Cu81  1  0.41379668  0.58377608  0.67966176  1
  Cu+  Cu82  1  0.91393888  0.08418106  0.67315133  1
  Cu+  Cu83  1  0.91720034  0.58680027  0.68213953  1
  Cu+  Cu84  1  0.00261547  0.24956814  0.00697013  1
  Cu+  Cu85  1  -0.00016824  0.75014560  0.01098751  1
  Cu+  Cu86  1  0.50279422  0.25189518  0.01166806  1
  Cu+  Cu87  1  0.50104544  0.75090744  0.01064949  1
  Cu+  Cu88  1  0.24726991  0.49459097  0.00705304  1
  Cu+  Cu89  1  0.24755551  0.99643061  0.00792174  1
  Cu+  Cu90  1  0.74799500  0.49976888  0.01544697  1
  Cu+  Cu91  1  0.74896550  1.00059892  0.00671470  1
  Cu+  Cu92  1  0.24774907  0.24851403  0.00617919  1
  Cu+  Cu93  1  0.24582494  0.74998778  0.01332264  1
  Cu+  Cu94  1  0.75219455  0.25271873  0.00773270  1
  Cu+  Cu95  1  0.74828071  0.75168725  0.00807563  1
  Cu+  Cu96  1  0.33983488  0.41966319  0.33833892  1
  Cu+  Cu97  1  0.33683667  0.91809831  0.34034929  1
  Cu+  Cu98  1  0.83638676  0.41837787  0.34487965  1
  Cu+  Cu99  1  0.83616131  0.91844846  0.34357827  1
  Cu+  Cu100  1  0.08488717  0.16617507  0.34109926  1
  Cu+  Cu101  1  0.08362585  0.66517476  0.34758839  1
  Cu+  Cu102  1  0.58297359  0.16517323  0.34175518  1
  Cu+  Cu103  1  0.58443441  0.66629384  0.34123353  1
  Cu+  Cu104  1  0.08651357  0.42127688  0.34171127  1
  Cu+  Cu105  1  0.08194990  0.91953451  0.34596675  1
  Cu+  Cu106  1  0.58602427  0.41816852  0.34280525  1
  Cu+  Cu107  1  0.58194722  0.91621327  0.34077382  1
  Cu+  Cu108  1  -0.00066275  0.00020702  0.11629454  1
  Cu+  Cu109  1  0.00312371  0.49706193  0.11647092  1
  Cu+  Cu110  1  0.50218310  0.00119780  0.11133087  1
  Cu+  Cu111  1  0.49498032  0.49759867  0.11140968  1
  Cu+  Cu112  1  0.33612019  0.16832016  0.44737444  1
  Cu+  Cu113  1  0.33610957  0.66718960  0.44937700  1
  Cu+  Cu114  1  0.83625665  0.16741660  0.44885340  1
  Cu+  Cu115  1  0.82863311  0.66497066  0.45239627  1
  Cu+  Cu116  1  0.15886111  0.32981065  0.77799037  1
  Cu+  Cu117  1  0.16864910  0.83846918  0.78276449  1
  Cu+  Cu118  1  0.66739465  0.33107373  0.77816979  1
  Cu+  Cu119  1  0.66812769  0.83569663  0.77664296  1
  Te2-  Te120  1  -0.00025317  0.00354472  0.38973843  1
  Te2-  Te121  1  0.00078520  0.49854621  0.38955651  1
  Te2-  Te122  1  0.50102752  -0.00003956  0.38411908  1
  Te2-  Te123  1  0.50338928  0.50119543  0.38371510  1
  Te2-  Te124  1  0.32981545  0.16143837  0.72168707  1
  Te2-  Te125  1  0.32840927  0.66308595  0.72567005  1
  Te2-  Te126  1  0.83577090  0.16791686  0.72262768  1
  Te2-  Te127  1  0.83488912  0.67026233  0.72697747  1
  Te2-  Te128  1  0.16657901  0.33084603  0.05121694  1
  Te2-  Te129  1  0.16379358  0.83409684  0.05619624  1
  Te2-  Te130  1  0.66924493  0.33272029  0.05520399  1
  Te2-  Te131  1  0.66834896  0.83635587  0.05156098  1
  Te2-  Te132  1  0.49532105  0.24533210  0.88373370  1
  Te2-  Te133  1  0.48777514  0.74529158  0.88322461  1
  Te2-  Te134  1  0.99548978  0.24666588  0.88107548  1
  Te2-  Te135  1  0.99183012  0.74947228  0.88534515  1
  Te2-  Te136  1  0.25223981  0.00190368  0.88204601  1
  Te2-  Te137  1  0.25085114  0.50462500  0.88160808  1
  Te2-  Te138  1  0.75253588  0.00610858  0.88069697  1
  Te2-  Te139  1  0.75313807  0.51147911  0.88651118  1
  Te2-  Te140  1  0.25146329  0.24111921  0.88081479  1
  Te2-  Te141  1  0.24929896  0.74174446  0.88626138  1
  Te2-  Te142  1  0.75773482  0.25380259  0.88151546  1
  Te2-  Te143  1  0.75209211  0.74946417  0.88196766  1
  Te2-  Te144  1  0.33600046  0.41751324  0.21155117  1
  Te2-  Te145  1  0.32789009  0.91642526  0.21443977  1
  Te2-  Te146  1  0.82839746  0.41098964  0.21866558  1
  Te2-  Te147  1  0.82824217  0.91443893  0.21770570  1
  Te2-  Te148  1  0.08607860  0.17124574  0.21537482  1
  Te2-  Te149  1  0.08556766  0.67683579  0.22014140  1
  Te2-  Te150  1  0.59085315  0.17365750  0.21575264  1
  Te2-  Te151  1  0.59403963  0.67584596  0.21538423  1
  Te2-  Te152  1  0.08843260  0.41985699  0.21536092  1
  Te2-  Te153  1  0.08555888  0.91348470  0.21925183  1
  Te2-  Te154  1  0.59190316  0.41035984  0.21687289  1
  Te2-  Te155  1  0.58858609  0.91436076  0.21463087  1
  Te2-  Te156  1  0.15687009  0.08205158  0.54903660  1
  Te2-  Te157  1  0.15800590  0.57519448  0.55027328  1
  Te2-  Te158  1  0.65906018  0.07968431  0.55248414  1
  Te2-  Te159  1  0.66425488  0.58082788  0.55435521  1
  Te2-  Te160  1  0.41794816  0.33682721  0.55098278  1
  Te2-  Te161  1  0.41493529  0.83579267  0.55223621  1
  Te2-  Te162  1  0.91806395  0.33764997  0.54871428  1
  Te2-  Te163  1  0.91843696  0.83864331  0.55079875  1
  Te2-  Te164  1  0.41457048  0.07806624  0.54740610  1
  Te2-  Te165  1  0.41839409  0.58130183  0.55238943  1
  Te2-  Te166  1  0.91773590  0.08157252  0.54759617  1
  Te2-  Te167  1  0.92041747  0.57957454  0.55456337  1
  Te2-  Te168  1  -0.00195596  -0.00011359  0.88054111  1
  Te2-  Te169  1  0.00000503  0.50019118  0.88258778  1
  Te2-  Te170  1  0.50014486  0.00147821  0.88268793  1
  Te2-  Te171  1  0.49848877  0.50007257  0.88125377  1
  Te2-  Te172  1  0.33427344  0.16638005  0.21407754  1
  Te2-  Te173  1  0.33553266  0.66684700  0.21596234  1
  Te2-  Te174  1  0.83324735  0.16640519  0.21423534  1
  Te2-  Te175  1  0.83324196  0.66663199  0.21579263  1
  Te2-  Te176  1  0.16753681  0.33327328  0.54708939  1
  Te2-  Te177  1  0.16806162  0.83432261  0.55048929  1
  Te2-  Te178  1  0.66592607  0.33160071  0.55061629  1
  Te2-  Te179  1  0.66555264  0.83382047  0.55036925  1
  Te2-  Te180  1  0.32331546  0.41076561  0.70740983  1
  Te2-  Te181  1  0.32685358  0.91429520  0.71137598  1
  Te2-  Te182  1  0.82681468  0.41300735  0.70943031  1
  Te2-  Te183  1  0.82774576  0.91413593  0.70843739  1
  Te2-  Te184  1  0.08394682  0.17101623  0.70897474  1
  Te2-  Te185  1  0.08971971  0.67552309  0.71223316  1
  Te2-  Te186  1  0.58332822  0.17195613  0.70940208  1
  Te2-  Te187  1  0.58656934  0.67315068  0.70737915  1
  Te2-  Te188  1  0.08318651  0.41329840  0.71026844  1
  Te2-  Te189  1  0.08656004  0.91430071  0.71174595  1
  Te2-  Te190  1  0.58519230  0.40963076  0.70825638  1
  Te2-  Te191  1  0.58559799  0.91217435  0.70764798  1
  Te2-  Te192  1  0.16116407  0.07946053  0.04532408  1
  Te2-  Te193  1  0.16076530  0.57779981  0.04473396  1
  Te2-  Te194  1  0.66178943  0.08265027  0.04210257  1
  Te2-  Te195  1  0.65807259  0.58238621  0.04256029  1
  Te2-  Te196  1  0.41775604  0.33907712  0.04102672  1
  Te2-  Te197  1  0.41910086  0.84099998  0.04139369  1
  Te2-  Te198  1  0.92173791  0.33879768  0.04438444  1
  Te2-  Te199  1  0.91800537  0.83892548  0.04617909  1
  Te2-  Te200  1  0.41851327  0.07859508  0.04158811  1
  Te2-  Te201  1  0.41709376  0.57892441  0.04208131  1
  Te2-  Te202  1  0.91851142  0.08001305  0.04463806  1
  Te2-  Te203  1  0.92067969  0.58053281  0.04581140  1
  Te2-  Te204  1  0.49669753  0.24826249  0.37941872  1
  Te2-  Te205  1  0.49579501  0.74726176  0.37989101  1
  Te2-  Te206  1  0.99746651  0.24981891  0.37703578  1
  Te2-  Te207  1  0.99244348  0.74685176  0.37840694  1
  Te2-  Te208  1  0.25494449  0.00601572  0.37687767  1
  Te2-  Te209  1  0.25690471  0.50679698  0.37738629  1
  Te2-  Te210  1  0.75179076  0.00486384  0.37936098  1
  Te2-  Te211  1  0.75465404  0.50600581  0.38190172  1
  Te2-  Te212  1  0.25560836  0.24945543  0.37629185  1
  Te2-  Te213  1  0.25602955  0.74958091  0.37876626  1
  Te2-  Te214  1  0.75284243  0.24722389  0.37990970  1
  Te2-  Te215  1  0.75332051  0.74842380  0.38086759  1
