# generated using pymatgen
data_Ti(CuTe)4
_symmetry_space_group_name_H-M   'P 1'
_cell_length_a   16.84829327
_cell_length_b   16.84432156
_cell_length_c   20.64705800
_cell_angle_alpha   89.98781615
_cell_angle_beta   89.99022229
_cell_angle_gamma   120.00365711
_symmetry_Int_Tables_number   1
_chemical_formula_structural   Ti(CuTe)4
_chemical_formula_sum   'Ti24 Cu96 Te96'
_cell_volume   5074.37091085
_cell_formula_units_Z   24
loop_
 _symmetry_equiv_pos_site_id
 _symmetry_equiv_pos_as_xyz
  1  'x, y, z'
loop_
 _atom_type_symbol
 _atom_type_oxidation_number
  Ti4+  4.0
  Cu+  1.0
  Te2-  -2.0
loop_
 _atom_site_type_symbol
 _atom_site_label
 _atom_site_symmetry_multiplicity
 _atom_site_fract_x
 _atom_site_fract_y
 _atom_site_fract_z
 _atom_site_occupancy
  Ti4+  Ti0  1  -0.00218373  -0.00027912  0.25886814  1
  Ti4+  Ti1  1  -0.00071418  0.50243776  0.25715898  1
  Ti4+  Ti2  1  0.49909187  -0.00243354  0.25905198  1
  Ti4+  Ti3  1  0.49948392  0.49991893  0.25985143  1
  Ti4+  Ti4  1  0.33536360  0.16899162  0.58844722  1
  Ti4+  Ti5  1  0.33546599  0.66967013  0.59140538  1
  Ti4+  Ti6  1  0.83936406  0.16999444  0.59100398  1
  Ti4+  Ti7  1  0.83541755  0.66426537  0.59137776  1
  Ti4+  Ti8  1  0.16646085  0.33203788  0.92514898  1
  Ti4+  Ti9  1  0.16603388  0.83267002  0.92514815  1
  Ti4+  Ti10  1  0.66148911  0.32904523  0.92388085  1
  Ti4+  Ti11  1  0.66713089  0.83446583  0.92034514  1
  Ti4+  Ti12  1  -0.00033192  -0.00123377  0.75464030  1
  Ti4+  Ti13  1  0.00157181  0.49979196  0.75557351  1
  Ti4+  Ti14  1  0.49976027  0.00047548  0.75334169  1
  Ti4+  Ti15  1  0.50026768  0.49962267  0.75517244  1
  Ti4+  Ti16  1  0.33179591  0.16529068  0.09045937  1
  Ti4+  Ti17  1  0.33219717  0.66683529  0.08914369  1
  Ti4+  Ti18  1  0.83227929  0.16561976  0.09100239  1
  Ti4+  Ti19  1  0.83305249  0.66553803  0.08924873  1
  Ti4+  Ti20  1  0.16438208  0.33069291  0.42089517  1
  Ti4+  Ti21  1  0.16867517  0.83451176  0.42519869  1
  Ti4+  Ti22  1  0.66755764  0.33427443  0.42158476  1
  Ti4+  Ti23  1  0.66498697  0.83275173  0.42338477  1
  Cu+  Cu24  1  0.40341203  0.81147811  0.80822329  1
  Cu+  Cu25  1  0.01642628  0.76224509  0.14501502  1
  Cu+  Cu26  1  0.67945533  0.09417105  0.80869172  1
  Cu+  Cu27  1  0.58116732  0.42979390  0.47624316  1
  Cu+  Cu28  1  0.91127711  0.09340829  0.81059863  1
  Cu+  Cu29  1  0.85970621  0.42974431  0.47212933  1
  Cu+  Cu30  1  0.24392866  0.76504065  0.14337694  1
  Cu+  Cu31  1  0.40305802  0.09117192  0.80710643  1
  Cu+  Cu32  1  0.36458096  0.93328371  0.47641681  1
  Cu+  Cu33  1  0.90362115  0.80522192  0.80684761  1
  Cu+  Cu34  1  0.34858806  0.42766286  0.47518816  1
  Cu+  Cu35  1  0.07040198  0.13845902  0.47356159  1
  Cu+  Cu36  1  0.16357389  0.08481429  0.17250358  1
  Cu+  Cu37  1  0.16338913  0.58742736  0.16940469  1
  Cu+  Cu38  1  0.66470955  0.08070955  0.17328137  1
  Cu+  Cu39  1  0.66259265  0.58033801  0.17247522  1
  Cu+  Cu40  1  0.41708647  0.33506942  0.17473319  1
  Cu+  Cu41  1  0.41729255  0.83702387  0.17201590  1
  Cu+  Cu42  1  0.91417207  0.33499614  0.17372790  1
  Cu+  Cu43  1  0.91800275  0.83730160  0.17167552  1
  Cu+  Cu44  1  0.41509164  0.07983300  0.17224813  1
  Cu+  Cu45  1  0.41762793  0.58145182  0.17247087  1
  Cu+  Cu46  1  0.91749552  0.08317299  0.17356932  1
  Cu+  Cu47  1  0.92005838  0.58389540  0.17058661  1
  Cu+  Cu48  1  0.49678646  0.25165946  0.50106945  1
  Cu+  Cu49  1  0.49712440  0.75045715  0.50462639  1
  Cu+  Cu50  1  0.99628789  0.24202922  0.50084743  1
  Cu+  Cu51  1  0.99780293  0.74885205  0.50636001  1
  Cu+  Cu52  1  0.25825468  0.00189756  0.50472606  1
  Cu+  Cu53  1  0.25257285  0.50420596  0.50355448  1
  Cu+  Cu54  1  0.75329800  0.00243502  0.50583975  1
  Cu+  Cu55  1  0.75657290  0.50366144  0.50285559  1
  Cu+  Cu56  1  0.25014956  0.24891383  0.50061178  1
  Cu+  Cu57  1  0.25823179  0.75706701  0.50627374  1
  Cu+  Cu58  1  0.75860792  0.25555472  0.50323950  1
  Cu+  Cu59  1  0.75268804  0.75228131  0.50549976  1
  Cu+  Cu60  1  0.33206798  0.41490038  0.83868350  1
  Cu+  Cu61  1  0.32835106  0.91366225  0.83552083  1
  Cu+  Cu62  1  0.83230643  0.41511655  0.83708219  1
  Cu+  Cu63  1  0.83117305  0.91380825  0.83377092  1
  Cu+  Cu64  1  0.08575751  0.17306773  0.83606001  1
  Cu+  Cu65  1  0.08430567  0.66874896  0.83898489  1
  Cu+  Cu66  1  0.58184978  0.17304281  0.83390202  1
  Cu+  Cu67  1  0.58428223  0.66906689  0.83548367  1
  Cu+  Cu68  1  0.08508933  0.41562230  0.83739473  1
  Cu+  Cu69  1  0.07826177  0.90856700  0.83613095  1
  Cu+  Cu70  1  0.58113047  0.41239213  0.83718992  1
  Cu+  Cu71  1  0.58384016  0.91348001  0.83172015  1
  Cu+  Cu72  1  0.16856590  0.08295959  0.67270301  1
  Cu+  Cu73  1  0.17000625  0.58689273  0.67378204  1
  Cu+  Cu74  1  0.67306222  0.08729074  0.67829573  1
  Cu+  Cu75  1  0.66882112  0.58243071  0.67485806  1
  Cu+  Cu76  1  0.41572224  0.33234747  0.67376512  1
  Cu+  Cu77  1  0.41492775  0.83098903  0.68013246  1
  Cu+  Cu78  1  0.92026199  0.33377705  0.67303140  1
  Cu+  Cu79  1  0.91585812  0.82619346  0.67898388  1
  Cu+  Cu80  1  0.41541750  0.08605563  0.67827212  1
  Cu+  Cu81  1  0.41638181  0.58507835  0.67522701  1
  Cu+  Cu82  1  0.91807578  0.08567271  0.67990795  1
  Cu+  Cu83  1  0.91812811  0.58286399  0.67521758  1
  Cu+  Cu84  1  0.00144167  0.25060006  0.00992594  1
  Cu+  Cu85  1  0.00134145  0.74834594  0.01521102  1
  Cu+  Cu86  1  0.49918565  0.24780206  0.00943783  1
  Cu+  Cu87  1  0.50166057  0.75020634  0.00694758  1
  Cu+  Cu88  1  0.24941095  0.49608479  0.00846898  1
  Cu+  Cu89  1  0.24799622  0.99882341  0.00831399  1
  Cu+  Cu90  1  0.74506133  0.49467996  0.00742233  1
  Cu+  Cu91  1  0.75031192  0.99868556  0.00699865  1
  Cu+  Cu92  1  0.24833356  0.25073144  0.00873085  1
  Cu+  Cu93  1  0.24895059  0.75146293  0.01422324  1
  Cu+  Cu94  1  0.74576014  0.24825193  0.00857857  1
  Cu+  Cu95  1  0.74793495  0.74911403  0.00725804  1
  Cu+  Cu96  1  0.33563757  0.41745508  0.34606243  1
  Cu+  Cu97  1  0.33787644  0.91816474  0.34793965  1
  Cu+  Cu98  1  0.83800325  0.41894038  0.34428181  1
  Cu+  Cu99  1  0.83260831  0.91744420  0.34125832  1
  Cu+  Cu100  1  0.07596610  0.15943262  0.34581444  1
  Cu+  Cu101  1  0.08179396  0.66719301  0.34457227  1
  Cu+  Cu102  1  0.58188193  0.16383054  0.34114809  1
  Cu+  Cu103  1  0.58153199  0.66571566  0.34185499  1
  Cu+  Cu104  1  0.08013739  0.41605355  0.33914504  1
  Cu+  Cu105  1  0.08177858  0.91677162  0.34330600  1
  Cu+  Cu106  1  0.57862198  0.41564202  0.34688612  1
  Cu+  Cu107  1  0.58029105  0.91509445  0.34230034  1
  Cu+  Cu108  1  -0.00033366  0.00236060  0.11591284  1
  Cu+  Cu109  1  -0.00122925  0.49487239  0.11439393  1
  Cu+  Cu110  1  0.50402490  0.00436889  0.11617449  1
  Cu+  Cu111  1  0.49842918  0.49766464  0.11776846  1
  Cu+  Cu112  1  0.32920049  0.16457705  0.44481713  1
  Cu+  Cu113  1  0.32997697  0.66533193  0.44732323  1
  Cu+  Cu114  1  0.82726953  0.16298852  0.44750201  1
  Cu+  Cu115  1  0.83173084  0.66940051  0.44804924  1
  Cu+  Cu116  1  0.17175128  0.34031974  0.78062537  1
  Cu+  Cu117  1  0.16575762  0.83200499  0.78069539  1
  Cu+  Cu118  1  0.67311328  0.34366699  0.77972063  1
  Cu+  Cu119  1  0.66723723  0.83108320  0.77519383  1
  Te2-  Te120  1  -0.00510700  -0.00675649  0.39013303  1
  Te2-  Te121  1  0.00481076  0.50245826  0.38797245  1
  Te2-  Te122  1  0.50530906  0.00243733  0.39045602  1
  Te2-  Te123  1  0.50117708  0.50377613  0.39292061  1
  Te2-  Te124  1  0.33123095  0.16878852  0.71906678  1
  Te2-  Te125  1  0.33222999  0.66412944  0.72231343  1
  Te2-  Te126  1  0.83823649  0.17201471  0.72325637  1
  Te2-  Te127  1  0.83180048  0.65959161  0.72226951  1
  Te2-  Te128  1  0.16603094  0.33253356  0.05459336  1
  Te2-  Te129  1  0.16778483  0.83689286  0.05738332  1
  Te2-  Te130  1  0.66399890  0.33097078  0.05295440  1
  Te2-  Te131  1  0.66683740  0.83325972  0.04898927  1
  Te2-  Te132  1  0.48681410  0.24420655  0.88292499  1
  Te2-  Te133  1  0.49309099  0.74584691  0.88102895  1
  Te2-  Te134  1  0.99158142  0.24810007  0.88355218  1
  Te2-  Te135  1  0.99160549  0.74267207  0.88725465  1
  Te2-  Te136  1  0.24764896  0.00407365  0.88123211  1
  Te2-  Te137  1  0.25260605  0.50377012  0.88256171  1
  Te2-  Te138  1  0.75408256  0.00999749  0.88020478  1
  Te2-  Te139  1  0.74930307  0.50052212  0.88146601  1
  Te2-  Te140  1  0.25136900  0.24550837  0.88224627  1
  Te2-  Te141  1  0.25255000  0.74584768  0.88600458  1
  Te2-  Te142  1  0.75183084  0.24611077  0.88216691  1
  Te2-  Te143  1  0.75173172  0.74500956  0.88137672  1
  Te2-  Te144  1  0.32754834  0.41440719  0.21911392  1
  Te2-  Te145  1  0.32443241  0.91389216  0.22063919  1
  Te2-  Te146  1  0.82725542  0.41693809  0.21791186  1
  Te2-  Te147  1  0.82690629  0.91325559  0.21519835  1
  Te2-  Te148  1  0.08453140  0.17248447  0.21947592  1
  Te2-  Te149  1  0.08868385  0.68022953  0.21840179  1
  Te2-  Te150  1  0.58369380  0.16861871  0.21555981  1
  Te2-  Te151  1  0.58540858  0.67124003  0.21605537  1
  Te2-  Te152  1  0.08534948  0.41850917  0.21333207  1
  Te2-  Te153  1  0.08861437  0.91667078  0.21744577  1
  Te2-  Te154  1  0.58542650  0.41356473  0.21985277  1
  Te2-  Te155  1  0.58424960  0.91131649  0.21614849  1
  Te2-  Te156  1  0.16350703  0.07809734  0.54685405  1
  Te2-  Te157  1  0.16530985  0.58526959  0.54706466  1
  Te2-  Te158  1  0.66822353  0.08752435  0.55045864  1
  Te2-  Te159  1  0.66340211  0.58233011  0.54880074  1
  Te2-  Te160  1  0.42118553  0.34483440  0.54804799  1
  Te2-  Te161  1  0.42632807  0.84505446  0.55362182  1
  Te2-  Te162  1  0.92917301  0.34239984  0.54698788  1
  Te2-  Te163  1  0.91978064  0.83717046  0.55270119  1
  Te2-  Te164  1  0.42746662  0.08658570  0.55155206  1
  Te2-  Te165  1  0.42227272  0.58302045  0.54969495  1
  Te2-  Te166  1  0.92102027  0.07700622  0.55261306  1
  Te2-  Te167  1  0.92502863  0.58042335  0.54937168  1
  Te2-  Te168  1  0.00016468  0.00099548  0.88232060  1
  Te2-  Te169  1  -0.00009451  0.49895088  0.88242301  1
  Te2-  Te170  1  0.49977954  -0.00014500  0.88173845  1
  Te2-  Te171  1  0.50075779  0.50055142  0.88192874  1
  Te2-  Te172  1  0.33218521  0.16562740  0.21722587  1
  Te2-  Te173  1  0.33235513  0.66584178  0.21634730  1
  Te2-  Te174  1  0.83237563  0.16667458  0.21781585  1
  Te2-  Te175  1  0.83230904  0.66653050  0.21651547  1
  Te2-  Te176  1  0.16614485  0.33342912  0.54890635  1
  Te2-  Te177  1  0.16654496  0.83389903  0.55240347  1
  Te2-  Te178  1  0.66675010  0.33335539  0.54953998  1
  Te2-  Te179  1  0.66635747  0.83403463  0.55031292  1
  Te2-  Te180  1  0.32853238  0.41471232  0.71052183  1
  Te2-  Te181  1  0.32447032  0.91343065  0.70826203  1
  Te2-  Te182  1  0.82976534  0.41276740  0.70964077  1
  Te2-  Te183  1  0.82678022  0.91147754  0.70633422  1
  Te2-  Te184  1  0.09046757  0.17350755  0.70964972  1
  Te2-  Te185  1  0.08720030  0.67262197  0.71203506  1
  Te2-  Te186  1  0.58858695  0.17575892  0.70750103  1
  Te2-  Te187  1  0.58685787  0.67115392  0.70862476  1
  Te2-  Te188  1  0.08958644  0.41619777  0.70982796  1
  Te2-  Te189  1  0.08851265  0.91387538  0.70936390  1
  Te2-  Te190  1  0.58512686  0.41245418  0.70973717  1
  Te2-  Te191  1  0.58877789  0.91445903  0.70536888  1
  Te2-  Te192  1  0.15973471  0.08047234  0.04528231  1
  Te2-  Te193  1  0.15949436  0.57749102  0.04240300  1
  Te2-  Te194  1  0.66122330  0.07888141  0.04538238  1
  Te2-  Te195  1  0.66060570  0.57951105  0.04556220  1
  Te2-  Te196  1  0.41828037  0.33737817  0.04709888  1
  Te2-  Te197  1  0.42226389  0.84045883  0.04461940  1
  Te2-  Te198  1  0.91621405  0.33634484  0.04553991  1
  Te2-  Te199  1  0.91769675  0.83892408  0.04415641  1
  Te2-  Te200  1  0.41717884  0.07795375  0.04549510  1
  Te2-  Te201  1  0.41898366  0.58083124  0.04572341  1
  Te2-  Te202  1  0.91897700  0.08070560  0.04602035  1
  Te2-  Te203  1  0.91547595  0.57468534  0.04360250  1
  Te2-  Te204  1  0.49256494  0.24318963  0.37547986  1
  Te2-  Te205  1  0.49229838  0.74596574  0.37846605  1
  Te2-  Te206  1  0.99050106  0.24687720  0.37504864  1
  Te2-  Te207  1  0.99494512  0.74860599  0.38038674  1
  Te2-  Te208  1  0.25203897  0.00586111  0.37711193  1
  Te2-  Te209  1  0.24947697  0.50451942  0.37618017  1
  Te2-  Te210  1  0.75064306  0.00441996  0.37861410  1
  Te2-  Te211  1  0.75329269  0.50788189  0.37547237  1
  Te2-  Te212  1  0.25043441  0.24355938  0.37334103  1
  Te2-  Te213  1  0.25206568  0.74573015  0.37865719  1
  Te2-  Te214  1  0.75187318  0.24576497  0.37590938  1
  Te2-  Te215  1  0.75160850  0.74764296  0.37825730  1
