# generated using pymatgen
data_Ti(CuTe)4
_symmetry_space_group_name_H-M   'P 1'
_cell_length_a   16.87452999
_cell_length_b   16.87189181
_cell_length_c   20.68531057
_cell_angle_alpha   89.98495434
_cell_angle_beta   89.98254530
_cell_angle_gamma   120.00204091
_symmetry_Int_Tables_number   1
_chemical_formula_structural   Ti(CuTe)4
_chemical_formula_sum   'Ti24 Cu96 Te96'
_cell_volume   5100.10529873
_cell_formula_units_Z   24
loop_
 _symmetry_equiv_pos_site_id
 _symmetry_equiv_pos_as_xyz
  1  'x, y, z'
loop_
 _atom_type_symbol
 _atom_type_oxidation_number
  Ti4+  4.0
  Cu+  1.0
  Te2-  -2.0
loop_
 _atom_site_type_symbol
 _atom_site_label
 _atom_site_symmetry_multiplicity
 _atom_site_fract_x
 _atom_site_fract_y
 _atom_site_fract_z
 _atom_site_occupancy
  Ti4+  Ti0  1  0.00098774  0.00104130  0.25726590  1
  Ti4+  Ti1  1  0.00410338  0.50411988  0.25761649  1
  Ti4+  Ti2  1  0.50115021  0.00047985  0.25748649  1
  Ti4+  Ti3  1  0.50330636  0.50165440  0.26064655  1
  Ti4+  Ti4  1  0.33251149  0.16994454  0.58918761  1
  Ti4+  Ti5  1  0.33221995  0.66759172  0.59540067  1
  Ti4+  Ti6  1  0.82965224  0.16265339  0.58757927  1
  Ti4+  Ti7  1  0.83367568  0.66367759  0.59004188  1
  Ti4+  Ti8  1  0.16721625  0.33196399  0.92285637  1
  Ti4+  Ti9  1  0.16770180  0.83492856  0.92405949  1
  Ti4+  Ti10  1  0.66648797  0.33268931  0.92572028  1
  Ti4+  Ti11  1  0.66513143  0.83126679  0.92559648  1
  Ti4+  Ti12  1  0.00101668  0.00038097  0.75468789  1
  Ti4+  Ti13  1  -0.00149771  0.49851074  0.75438308  1
  Ti4+  Ti14  1  0.49770593  -0.00115578  0.75524094  1
  Ti4+  Ti15  1  0.49837270  0.49949048  0.75504924  1
  Ti4+  Ti16  1  0.33481843  0.16749450  0.09088927  1
  Ti4+  Ti17  1  0.33251009  0.66713078  0.09121328  1
  Ti4+  Ti18  1  0.83350150  0.16509980  0.08791152  1
  Ti4+  Ti19  1  0.83334939  0.66615146  0.08842097  1
  Ti4+  Ti20  1  0.16721267  0.33147880  0.42118350  1
  Ti4+  Ti21  1  0.16640965  0.83143452  0.42380587  1
  Ti4+  Ti22  1  0.66757779  0.33554982  0.41960329  1
  Ti4+  Ti23  1  0.66590214  0.83574968  0.42296351  1
  Cu+  Cu24  1  0.41149146  0.58793539  0.81689166  1
  Cu+  Cu25  1  0.52715886  0.26518857  0.14213106  1
  Cu+  Cu26  1  0.19407932  0.09655322  0.80515904  1
  Cu+  Cu27  1  0.07051154  0.14106437  0.47202173  1
  Cu+  Cu28  1  0.57855385  0.42912743  0.47688210  1
  Cu+  Cu29  1  0.56541979  0.92738088  0.47487760  1
  Cu+  Cu30  1  0.34882012  0.43072271  0.47736111  1
  Cu+  Cu31  1  0.52131322  0.75987355  0.14435967  1
  Cu+  Cu32  1  0.24051653  0.76551644  0.14175451  1
  Cu+  Cu33  1  0.07224804  0.63917025  0.47510803  1
  Cu+  Cu34  1  0.17522304  0.58761305  0.81577233  1
  Cu+  Cu35  1  0.41131482  0.82240629  0.81697732  1
  Cu+  Cu36  1  0.16243222  0.08304244  0.17282498  1
  Cu+  Cu37  1  0.16354132  0.58897078  0.17139773  1
  Cu+  Cu38  1  0.66449902  0.07844199  0.16985349  1
  Cu+  Cu39  1  0.66493975  0.58087690  0.17152862  1
  Cu+  Cu40  1  0.42245253  0.33603893  0.17493418  1
  Cu+  Cu41  1  0.41804871  0.83592057  0.17191669  1
  Cu+  Cu42  1  0.92091935  0.33559811  0.17120531  1
  Cu+  Cu43  1  0.91893277  0.83635616  0.17107333  1
  Cu+  Cu44  1  0.42303299  0.08809047  0.17110793  1
  Cu+  Cu45  1  0.42175470  0.58516685  0.17471393  1
  Cu+  Cu46  1  0.92124650  0.08375592  0.17104721  1
  Cu+  Cu47  1  0.92367592  0.58746754  0.17032938  1
  Cu+  Cu48  1  0.49791591  0.25341337  0.50141973  1
  Cu+  Cu49  1  0.49779157  0.75390887  0.50726440  1
  Cu+  Cu50  1  0.99562714  0.24081672  0.50121829  1
  Cu+  Cu51  1  0.99811139  0.74121267  0.50413039  1
  Cu+  Cu52  1  0.24924431  0.00333156  0.50459081  1
  Cu+  Cu53  1  0.25210966  0.50442412  0.50647879  1
  Cu+  Cu54  1  0.74358692  0.00302079  0.50115339  1
  Cu+  Cu55  1  0.75132683  0.50554425  0.50156156  1
  Cu+  Cu56  1  0.25015245  0.24789891  0.50085414  1
  Cu+  Cu57  1  0.24706423  0.74541928  0.50741058  1
  Cu+  Cu58  1  0.75072199  0.24721241  0.50084741  1
  Cu+  Cu59  1  0.75240010  0.74974160  0.50437305  1
  Cu+  Cu60  1  0.32668430  0.41348261  0.83490653  1
  Cu+  Cu61  1  0.32721861  0.91289671  0.83576176  1
  Cu+  Cu62  1  0.82790299  0.41266309  0.83798742  1
  Cu+  Cu63  1  0.82999192  0.91311472  0.83847465  1
  Cu+  Cu64  1  0.08980053  0.16829971  0.83559334  1
  Cu+  Cu65  1  0.08410177  0.66952168  0.83671592  1
  Cu+  Cu66  1  0.58279524  0.16991024  0.83925649  1
  Cu+  Cu67  1  0.58448007  0.66991113  0.83762643  1
  Cu+  Cu68  1  0.08359049  0.41360088  0.83522603  1
  Cu+  Cu69  1  0.08989212  0.92155968  0.83648202  1
  Cu+  Cu70  1  0.58392293  0.41294152  0.83928954  1
  Cu+  Cu71  1  0.58386980  0.91278199  0.83769625  1
  Cu+  Cu72  1  0.16940753  0.08664973  0.67748715  1
  Cu+  Cu73  1  0.16703829  0.58324698  0.68356026  1
  Cu+  Cu74  1  0.66591177  0.08281496  0.67378033  1
  Cu+  Cu75  1  0.66891829  0.58250713  0.67579807  1
  Cu+  Cu76  1  0.41582877  0.33501101  0.67460183  1
  Cu+  Cu77  1  0.41381482  0.83266863  0.68355813  1
  Cu+  Cu78  1  0.91177624  0.32666402  0.67032580  1
  Cu+  Cu79  1  0.91469163  0.82787102  0.67238791  1
  Cu+  Cu80  1  0.41546090  0.08564327  0.67285238  1
  Cu+  Cu81  1  0.41628974  0.58542404  0.68363965  1
  Cu+  Cu82  1  0.91204411  0.08060523  0.67105682  1
  Cu+  Cu83  1  0.91316870  0.58065980  0.67395919  1
  Cu+  Cu84  1  0.00256445  0.24926798  0.00468732  1
  Cu+  Cu85  1  0.00151875  0.75140751  0.00584973  1
  Cu+  Cu86  1  0.50521935  0.25322089  0.01357418  1
  Cu+  Cu87  1  0.50104989  0.74860053  0.01619008  1
  Cu+  Cu88  1  0.24702669  0.49657070  0.01080391  1
  Cu+  Cu89  1  0.24919355  0.99974396  0.00937290  1
  Cu+  Cu90  1  0.74931114  0.49765814  0.00803264  1
  Cu+  Cu91  1  0.74868705  0.99615609  0.00780656  1
  Cu+  Cu92  1  0.24983384  0.25040381  0.00824107  1
  Cu+  Cu93  1  0.24729550  0.75010862  0.01477088  1
  Cu+  Cu94  1  0.74810463  0.24911520  0.00819784  1
  Cu+  Cu95  1  0.74650287  0.74799810  0.00931381  1
  Cu+  Cu96  1  0.33808278  0.41812375  0.34714641  1
  Cu+  Cu97  1  0.33438229  0.91666628  0.34180645  1
  Cu+  Cu98  1  0.83856046  0.42101709  0.33929713  1
  Cu+  Cu99  1  0.83619357  0.92012938  0.33977120  1
  Cu+  Cu100  1  0.08135040  0.16159179  0.34417647  1
  Cu+  Cu101  1  0.08524282  0.66388861  0.34717465  1
  Cu+  Cu102  1  0.58424785  0.16607627  0.34067791  1
  Cu+  Cu103  1  0.58337753  0.66771823  0.34375425  1
  Cu+  Cu104  1  0.08577391  0.41999457  0.33937136  1
  Cu+  Cu105  1  0.08247581  0.91759166  0.33991426  1
  Cu+  Cu106  1  0.58282229  0.41857587  0.34818575  1
  Cu+  Cu107  1  0.57964286  0.91689913  0.34670020  1
  Cu+  Cu108  1  -0.00239512  -0.00260051  0.11409530  1
  Cu+  Cu109  1  -0.00704662  0.49475776  0.11451688  1
  Cu+  Cu110  1  0.50042117  0.00174893  0.11359523  1
  Cu+  Cu111  1  0.49808513  0.49883595  0.11769483  1
  Cu+  Cu112  1  0.33489802  0.16317674  0.44520475  1
  Cu+  Cu113  1  0.33412812  0.66782740  0.45139016  1
  Cu+  Cu114  1  0.83495408  0.17020724  0.44265419  1
  Cu+  Cu115  1  0.83645863  0.67368920  0.44597585  1
  Cu+  Cu116  1  0.15957866  0.32851936  0.77735356  1
  Cu+  Cu117  1  0.16067564  0.83178400  0.77897225  1
  Cu+  Cu118  1  0.66581435  0.33209756  0.78219237  1
  Cu+  Cu119  1  0.67111863  0.83594556  0.78083572  1
  Te2-  Te120  1  -0.00170003  -0.00424147  0.38818105  1
  Te2-  Te121  1  0.00074754  0.49689664  0.38847197  1
  Te2-  Te122  1  0.49790998  0.00246538  0.38783191  1
  Te2-  Te123  1  0.50292290  0.50476901  0.39269570  1
  Te2-  Te124  1  0.33642968  0.17041070  0.71942710  1
  Te2-  Te125  1  0.33238017  0.66712405  0.72860632  1
  Te2-  Te126  1  0.83094632  0.16321484  0.71645602  1
  Te2-  Te127  1  0.83355939  0.66471475  0.71901649  1
  Te2-  Te128  1  0.16575793  0.33106664  0.05164333  1
  Te2-  Te129  1  0.16463945  0.83521225  0.05431888  1
  Te2-  Te130  1  0.67157034  0.33516983  0.05661489  1
  Te2-  Te131  1  0.66799482  0.83307702  0.05628952  1
  Te2-  Te132  1  0.49388813  0.24710306  0.88611630  1
  Te2-  Te133  1  0.48861977  0.74337679  0.88797508  1
  Te2-  Te134  1  0.99764948  0.24576943  0.87848329  1
  Te2-  Te135  1  0.99847525  0.75180700  0.87973434  1
  Te2-  Te136  1  0.25797350  0.00862038  0.88331774  1
  Te2-  Te137  1  0.25344595  0.50872038  0.88458734  1
  Te2-  Te138  1  0.75051447  0.00154443  0.88183255  1
  Te2-  Te139  1  0.75198449  0.50416249  0.88219295  1
  Te2-  Te140  1  0.25817601  0.24865584  0.88218476  1
  Te2-  Te141  1  0.25366123  0.74465503  0.88668445  1
  Te2-  Te142  1  0.75070331  0.24541996  0.88237056  1
  Te2-  Te143  1  0.75031783  0.74577211  0.88331159  1
  Te2-  Te144  1  0.33319957  0.41637539  0.21909722  1
  Te2-  Te145  1  0.32884694  0.91864630  0.21574344  1
  Te2-  Te146  1  0.83431942  0.41869649  0.21314078  1
  Te2-  Te147  1  0.82991064  0.91563350  0.21408924  1
  Te2-  Te148  1  0.08714321  0.17387510  0.21735528  1
  Te2-  Te149  1  0.08816148  0.67980753  0.21964775  1
  Te2-  Te150  1  0.59243372  0.17350832  0.21496847  1
  Te2-  Te151  1  0.59233348  0.67481861  0.21802538  1
  Te2-  Te152  1  0.09008906  0.41984926  0.21381827  1
  Te2-  Te153  1  0.08667700  0.91501701  0.21457455  1
  Te2-  Te154  1  0.59184613  0.41644248  0.22046625  1
  Te2-  Te155  1  0.58798995  0.91358766  0.21882078  1
  Te2-  Te156  1  0.15882279  0.07950164  0.54996182  1
  Te2-  Te157  1  0.15958698  0.57673435  0.55496487  1
  Te2-  Te158  1  0.65446147  0.08170259  0.54799168  1
  Te2-  Te159  1  0.65963434  0.58272775  0.54979928  1
  Te2-  Te160  1  0.42045215  0.34569945  0.54875777  1
  Te2-  Te161  1  0.41426968  0.83967593  0.55464749  1
  Te2-  Te162  1  0.91856483  0.33324018  0.54427903  1
  Te2-  Te163  1  0.92084527  0.83394362  0.54628002  1
  Te2-  Te164  1  0.41825251  0.08540722  0.54666936  1
  Te2-  Te165  1  0.42245749  0.58606364  0.55447681  1
  Te2-  Te166  1  0.91218868  0.07141214  0.54545977  1
  Te2-  Te167  1  0.91640854  0.57205085  0.54854788  1
  Te2-  Te168  1  -0.00057580  -0.00027651  0.88175123  1
  Te2-  Te169  1  -0.00197644  0.49818386  0.88184455  1
  Te2-  Te170  1  0.49853273  -0.00085367  0.88256593  1
  Te2-  Te171  1  0.49806744  0.49809990  0.88223750  1
  Te2-  Te172  1  0.33226172  0.16594047  0.21778198  1
  Te2-  Te173  1  0.33304941  0.66636794  0.21871385  1
  Te2-  Te174  1  0.83467354  0.16657699  0.21440469  1
  Te2-  Te175  1  0.83531937  0.66789274  0.21495119  1
  Te2-  Te176  1  0.16448253  0.33204263  0.54892729  1
  Te2-  Te177  1  0.16619753  0.83469647  0.55081193  1
  Te2-  Te178  1  0.66760367  0.33407366  0.54661500  1
  Te2-  Te179  1  0.66828806  0.83470382  0.54991157  1
  Te2-  Te180  1  0.32364410  0.41207700  0.70909385  1
  Te2-  Te181  1  0.32378667  0.91608786  0.70957643  1
  Te2-  Te182  1  0.82671025  0.41062260  0.71079852  1
  Te2-  Te183  1  0.82900920  0.91187104  0.71074579  1
  Te2-  Te184  1  0.08213053  0.17182683  0.70753139  1
  Te2-  Te185  1  0.08317762  0.67253558  0.70940969  1
  Te2-  Te186  1  0.58436888  0.17094302  0.71187621  1
  Te2-  Te187  1  0.58942747  0.67365066  0.71086894  1
  Te2-  Te188  1  0.08162208  0.40916534  0.70790094  1
  Te2-  Te189  1  0.08532580  0.91313525  0.70829674  1
  Te2-  Te190  1  0.58486194  0.41303105  0.71224137  1
  Te2-  Te191  1  0.58672139  0.91358624  0.71064197  1
  Te2-  Te192  1  0.16213150  0.08165973  0.04623412  1
  Te2-  Te193  1  0.15873863  0.57811758  0.04528350  1
  Te2-  Te194  1  0.66082427  0.07859971  0.04372583  1
  Te2-  Te195  1  0.65997732  0.57820550  0.04562105  1
  Te2-  Te196  1  0.41938964  0.33985774  0.04661520  1
  Te2-  Te197  1  0.41996579  0.84068823  0.04418058  1
  Te2-  Te198  1  0.91945800  0.33626044  0.04311042  1
  Te2-  Te199  1  0.91803631  0.83764037  0.04337777  1
  Te2-  Te200  1  0.41940464  0.07999229  0.04414417  1
  Te2-  Te201  1  0.41643400  0.57693735  0.04722341  1
  Te2-  Te202  1  0.91961446  0.07967218  0.04335020  1
  Te2-  Te203  1  0.92052300  0.58168943  0.04318580  1
  Te2-  Te204  1  0.49344451  0.24521345  0.37456938  1
  Te2-  Te205  1  0.49173188  0.74529357  0.37952282  1
  Te2-  Te206  1  0.99582855  0.24912768  0.37374650  1
  Te2-  Te207  1  0.99526356  0.74779970  0.37650629  1
  Te2-  Te208  1  0.25116204  0.00330326  0.37794585  1
  Te2-  Te209  1  0.25395805  0.50667197  0.37887111  1
  Te2-  Te210  1  0.75353072  0.00745950  0.37482192  1
  Te2-  Te211  1  0.75717215  0.50966157  0.37523058  1
  Te2-  Te212  1  0.25419936  0.24469561  0.37424243  1
  Te2-  Te213  1  0.25681730  0.74808390  0.37989067  1
  Te2-  Te214  1  0.75445568  0.25015424  0.37458351  1
  Te2-  Te215  1  0.75344400  0.75078385  0.37794114  1
