# generated using pymatgen
data_Ti(CuTe)4
_symmetry_space_group_name_H-M   'P 1'
_cell_length_a   16.85225758
_cell_length_b   16.85068672
_cell_length_c   20.65746999
_cell_angle_alpha   90.03410685
_cell_angle_beta   89.93430861
_cell_angle_gamma   119.97734737
_symmetry_Int_Tables_number   1
_chemical_formula_structural   Ti(CuTe)4
_chemical_formula_sum   'Ti24 Cu96 Te96'
_cell_volume   5081.38683337
_cell_formula_units_Z   24
loop_
 _symmetry_equiv_pos_site_id
 _symmetry_equiv_pos_as_xyz
  1  'x, y, z'
loop_
 _atom_type_symbol
 _atom_type_oxidation_number
  Ti4+  4.0
  Cu+  1.0
  Te2-  -2.0
loop_
 _atom_site_type_symbol
 _atom_site_label
 _atom_site_symmetry_multiplicity
 _atom_site_fract_x
 _atom_site_fract_y
 _atom_site_fract_z
 _atom_site_occupancy
  Ti4+  Ti0  1  0.00239654  -0.00097528  0.25748352  1
  Ti4+  Ti1  1  0.00327072  0.49928596  0.25777902  1
  Ti4+  Ti2  1  0.50253759  0.00277285  0.25946932  1
  Ti4+  Ti3  1  0.50029223  0.49709982  0.25485352  1
  Ti4+  Ti4  1  0.33115779  0.16709105  0.59456262  1
  Ti4+  Ti5  1  0.33065048  0.66797031  0.59128535  1
  Ti4+  Ti6  1  0.82994576  0.16324518  0.59277293  1
  Ti4+  Ti7  1  0.83402583  0.66810725  0.58781859  1
  Ti4+  Ti8  1  0.16779009  0.33661053  0.92451790  1
  Ti4+  Ti9  1  0.16928212  0.83628381  0.92635274  1
  Ti4+  Ti10  1  0.66828006  0.33151214  0.92329990  1
  Ti4+  Ti11  1  0.66600232  0.83283139  0.92298927  1
  Ti4+  Ti12  1  -0.00032226  0.00057831  0.75694024  1
  Ti4+  Ti13  1  -0.00140341  0.49969593  0.75707661  1
  Ti4+  Ti14  1  0.49886789  0.00015551  0.75499435  1
  Ti4+  Ti15  1  0.49806993  0.50055301  0.75456370  1
  Ti4+  Ti16  1  0.33407805  0.16828358  0.08691402  1
  Ti4+  Ti17  1  0.33072995  0.66548585  0.08923094  1
  Ti4+  Ti18  1  0.83327542  0.16706302  0.09053767  1
  Ti4+  Ti19  1  0.83451627  0.66811447  0.08760565  1
  Ti4+  Ti20  1  0.16673146  0.33254508  0.42488827  1
  Ti4+  Ti21  1  0.16453576  0.83015514  0.42312532  1
  Ti4+  Ti22  1  0.66616555  0.33297111  0.42287731  1
  Ti4+  Ti23  1  0.66719531  0.83584156  0.42146130  1
  Cu+  Cu24  1  0.24355311  0.48081427  0.14288594  1
  Cu+  Cu25  1  0.57051132  0.93116695  0.47526914  1
  Cu+  Cu26  1  0.01950573  0.25295587  0.14186622  1
  Cu+  Cu27  1  0.19102985  0.09520394  0.81006801  1
  Cu+  Cu28  1  0.52580617  0.26032215  0.13765332  1
  Cu+  Cu29  1  0.68277452  0.08807990  0.80939082  1
  Cu+  Cu30  1  0.91542580  0.31610829  0.80996445  1
  Cu+  Cu31  1  0.18976632  0.59612205  0.80912142  1
  Cu+  Cu32  1  0.06898933  0.63763795  0.47423305  1
  Cu+  Cu33  1  0.85777791  0.93147250  0.47174854  1
  Cu+  Cu34  1  0.02058593  0.75582840  0.14213561  1
  Cu+  Cu35  1  0.25080962  0.98833925  0.14553437  1
  Cu+  Cu36  1  0.16158475  0.07725259  0.16681738  1
  Cu+  Cu37  1  0.16248113  0.57692210  0.16955259  1
  Cu+  Cu38  1  0.66316878  0.08006483  0.17306934  1
  Cu+  Cu39  1  0.66258546  0.57880701  0.16759407  1
  Cu+  Cu40  1  0.42510540  0.33789137  0.16554467  1
  Cu+  Cu41  1  0.42064935  0.83575819  0.17274108  1
  Cu+  Cu42  1  0.92358285  0.33433890  0.17016284  1
  Cu+  Cu43  1  0.92253076  0.83490992  0.16947926  1
  Cu+  Cu44  1  0.42359251  0.08645773  0.17100515  1
  Cu+  Cu45  1  0.41573511  0.57894407  0.16981885  1
  Cu+  Cu46  1  0.91912367  0.08205437  0.17340744  1
  Cu+  Cu47  1  0.92035119  0.58382664  0.17135853  1
  Cu+  Cu48  1  0.49618192  0.24948224  0.50734654  1
  Cu+  Cu49  1  0.49684033  0.75557374  0.50313857  1
  Cu+  Cu50  1  0.99698066  0.24966706  0.50744108  1
  Cu+  Cu51  1  0.99515425  0.74237497  0.50152637  1
  Cu+  Cu52  1  0.24770366  0.00286136  0.50822808  1
  Cu+  Cu53  1  0.24939432  0.50224828  0.50606233  1
  Cu+  Cu54  1  0.74927052  0.00272511  0.50369195  1
  Cu+  Cu55  1  0.74964401  0.50246433  0.50224221  1
  Cu+  Cu56  1  0.24845287  0.24707053  0.50878674  1
  Cu+  Cu57  1  0.24451578  0.74244844  0.50431200  1
  Cu+  Cu58  1  0.74910614  0.24824800  0.50696017  1
  Cu+  Cu59  1  0.75658718  0.75420684  0.50075466  1
  Cu+  Cu60  1  0.32992991  0.41966823  0.83689311  1
  Cu+  Cu61  1  0.32929180  0.91790249  0.83816717  1
  Cu+  Cu62  1  0.82938819  0.40908001  0.83543399  1
  Cu+  Cu63  1  0.82733748  0.91261400  0.83643212  1
  Cu+  Cu64  1  0.08712550  0.16754268  0.83808130  1
  Cu+  Cu65  1  0.08918641  0.67052133  0.83914093  1
  Cu+  Cu66  1  0.58813353  0.16979201  0.83627141  1
  Cu+  Cu67  1  0.58415472  0.66862228  0.83622938  1
  Cu+  Cu68  1  0.08768963  0.41882970  0.83955462  1
  Cu+  Cu69  1  0.08770790  0.92075318  0.84097630  1
  Cu+  Cu70  1  0.58329160  0.41549818  0.83787408  1
  Cu+  Cu71  1  0.58576605  0.91522969  0.83597007  1
  Cu+  Cu72  1  0.17048932  0.08689872  0.68170001  1
  Cu+  Cu73  1  0.16718316  0.58578850  0.68089771  1
  Cu+  Cu74  1  0.66656394  0.08317984  0.68044252  1
  Cu+  Cu75  1  0.66914723  0.58525471  0.67012017  1
  Cu+  Cu76  1  0.41247545  0.33225126  0.67626901  1
  Cu+  Cu77  1  0.41069201  0.83195099  0.67536154  1
  Cu+  Cu78  1  0.91120512  0.32864810  0.68117854  1
  Cu+  Cu79  1  0.91588303  0.83226519  0.67201916  1
  Cu+  Cu80  1  0.41223442  0.08362518  0.67612672  1
  Cu+  Cu81  1  0.41353040  0.58535422  0.67266967  1
  Cu+  Cu82  1  0.91319036  0.08065944  0.67586529  1
  Cu+  Cu83  1  0.91426250  0.58463122  0.67392153  1
  Cu+  Cu84  1  0.00134150  0.25174164  0.01328893  1
  Cu+  Cu85  1  0.00500251  0.75527134  0.01231587  1
  Cu+  Cu86  1  0.50534485  0.25365682  0.00928741  1
  Cu+  Cu87  1  0.50214578  0.75322723  0.00553881  1
  Cu+  Cu88  1  0.24438803  0.49892125  0.01434744  1
  Cu+  Cu89  1  0.24680924  1.00030039  0.01533054  1
  Cu+  Cu90  1  0.74968535  0.49859719  0.00464350  1
  Cu+  Cu91  1  0.74585755  0.99719924  0.00795526  1
  Cu+  Cu92  1  0.25001335  0.25238298  0.00727078  1
  Cu+  Cu93  1  0.25050014  0.75216132  0.00961763  1
  Cu+  Cu94  1  0.74735367  0.24741869  0.01024667  1
  Cu+  Cu95  1  0.74676818  0.75113985  0.00548317  1
  Cu+  Cu96  1  0.33507837  0.41543562  0.34043582  1
  Cu+  Cu97  1  0.33486373  0.91886460  0.34448294  1
  Cu+  Cu98  1  0.83616956  0.41625831  0.34074594  1
  Cu+  Cu99  1  0.83875832  0.91927352  0.34336867  1
  Cu+  Cu100  1  0.08330722  0.16623605  0.34288135  1
  Cu+  Cu101  1  0.08275192  0.66247567  0.34584093  1
  Cu+  Cu102  1  0.58415630  0.16749316  0.34331990  1
  Cu+  Cu103  1  0.58035194  0.66291395  0.33775584  1
  Cu+  Cu104  1  0.08531938  0.41572937  0.34485491  1
  Cu+  Cu105  1  0.08365629  0.91586349  0.34357863  1
  Cu+  Cu106  1  0.58156528  0.41546413  0.33969538  1
  Cu+  Cu107  1  0.58103264  0.91955034  0.34668479  1
  Cu+  Cu108  1  -0.00702618  -0.00295357  0.11315090  1
  Cu+  Cu109  1  -0.00721570  0.49747433  0.11303236  1
  Cu+  Cu110  1  0.49876576  -0.00232215  0.11563021  1
  Cu+  Cu111  1  0.50191643  0.50562556  0.10898319  1
  Cu+  Cu112  1  0.33452675  0.16845273  0.45249135  1
  Cu+  Cu113  1  0.33550344  0.66431296  0.44768740  1
  Cu+  Cu114  1  0.83534482  0.16998572  0.44997796  1
  Cu+  Cu115  1  0.82805964  0.66349191  0.44289116  1
  Cu+  Cu116  1  0.16579685  0.33142666  0.78103940  1
  Cu+  Cu117  1  0.16042492  0.83184965  0.78388677  1
  Cu+  Cu118  1  0.66180490  0.33520320  0.78003766  1
  Cu+  Cu119  1  0.66301658  0.82862716  0.77795200  1
  Te2-  Te120  1  0.00484895  0.00186257  0.38777268  1
  Te2-  Te121  1  -0.00064052  0.49486253  0.38794087  1
  Te2-  Te122  1  0.49894875  0.00398631  0.39008923  1
  Te2-  Te123  1  0.50047913  0.49931265  0.38396278  1
  Te2-  Te124  1  0.33684446  0.17022568  0.72583016  1
  Te2-  Te125  1  0.33454562  0.66848588  0.72213423  1
  Te2-  Te126  1  0.83292871  0.16276006  0.72512274  1
  Te2-  Te127  1  0.83250191  0.66776263  0.71707106  1
  Te2-  Te128  1  0.16800709  0.33222327  0.05674141  1
  Te2-  Te129  1  0.17024539  0.83437760  0.05902812  1
  Te2-  Te130  1  0.67166328  0.33628371  0.05358129  1
  Te2-  Te131  1  0.66535069  0.83280871  0.05259454  1
  Te2-  Te132  1  0.49692340  0.24615260  0.88244260  1
  Te2-  Te133  1  0.49469545  0.74834622  0.87963711  1
  Te2-  Te134  1  0.99591133  0.24512919  0.88520373  1
  Te2-  Te135  1  0.99970828  0.75047216  0.88421417  1
  Te2-  Te136  1  0.25739653  0.01064799  0.88789154  1
  Te2-  Te137  1  0.25543639  0.51078123  0.88668614  1
  Te2-  Te138  1  0.75591246  0.00719994  0.88246267  1
  Te2-  Te139  1  0.75385534  0.50187561  0.87898426  1
  Te2-  Te140  1  0.25643454  0.25252632  0.88230755  1
  Te2-  Te141  1  0.25821641  0.75166121  0.88423276  1
  Te2-  Te142  1  0.75701847  0.24260239  0.88409234  1
  Te2-  Te143  1  0.75168111  0.74605070  0.88018231  1
  Te2-  Te144  1  0.32720002  0.40670222  0.21383219  1
  Te2-  Te145  1  0.33034178  0.91435697  0.21780049  1
  Te2-  Te146  1  0.83396906  0.41435673  0.21389870  1
  Te2-  Te147  1  0.83209469  0.91342861  0.21601816  1
  Te2-  Te148  1  0.09170413  0.17228205  0.21671147  1
  Te2-  Te149  1  0.09155891  0.67251503  0.21810982  1
  Te2-  Te150  1  0.59149169  0.17618850  0.21722691  1
  Te2-  Te151  1  0.58388103  0.66847199  0.21181524  1
  Te2-  Te152  1  0.09068314  0.40919583  0.21843334  1
  Te2-  Te153  1  0.09135920  0.91098287  0.21723775  1
  Te2-  Te154  1  0.59125623  0.41299638  0.21415141  1
  Te2-  Te155  1  0.58665451  0.91432440  0.22019249  1
  Te2-  Te156  1  0.15846785  0.08008673  0.55485556  1
  Te2-  Te157  1  0.15584001  0.57528197  0.55361050  1
  Te2-  Te158  1  0.65711832  0.08008034  0.55271279  1
  Te2-  Te159  1  0.66330528  0.58530681  0.54410124  1
  Te2-  Te160  1  0.41687515  0.33837205  0.55053672  1
  Te2-  Te161  1  0.41280496  0.84102068  0.54907446  1
  Te2-  Te162  1  0.91568272  0.33501301  0.55434453  1
  Te2-  Te163  1  0.92563124  0.84174997  0.54605917  1
  Te2-  Te164  1  0.41620622  0.08090211  0.55049693  1
  Te2-  Te165  1  0.41937262  0.58668116  0.54677113  1
  Te2-  Te166  1  0.91915281  0.08017967  0.54995714  1
  Te2-  Te167  1  0.91599320  0.57479498  0.54854755  1
  Te2-  Te168  1  -0.00416369  -0.00125054  0.88413526  1
  Te2-  Te169  1  -0.00185029  0.50064730  0.88466934  1
  Te2-  Te170  1  0.50004520  -0.00019573  0.88217655  1
  Te2-  Te171  1  0.49940168  0.50055451  0.88132284  1
  Te2-  Te172  1  0.33238496  0.16721455  0.21442630  1
  Te2-  Te173  1  0.33322843  0.66559263  0.21648373  1
  Te2-  Te174  1  0.83286815  0.16582013  0.21781806  1
  Te2-  Te175  1  0.83127624  0.66501856  0.21484034  1
  Te2-  Te176  1  0.16552988  0.33389264  0.55174292  1
  Te2-  Te177  1  0.16360603  0.83192822  0.55006705  1
  Te2-  Te178  1  0.66528881  0.33476428  0.54960594  1
  Te2-  Te179  1  0.66591076  0.83255700  0.54885994  1
  Te2-  Te180  1  0.32543635  0.41607491  0.71038927  1
  Te2-  Te181  1  0.32455095  0.91463875  0.71255974  1
  Te2-  Te182  1  0.82547654  0.41531605  0.70963882  1
  Te2-  Te183  1  0.82715601  0.91193672  0.71053747  1
  Te2-  Te184  1  0.08306672  0.17331977  0.71076312  1
  Te2-  Te185  1  0.08229869  0.67302419  0.71205623  1
  Te2-  Te186  1  0.58334828  0.17365052  0.70936081  1
  Te2-  Te187  1  0.58446745  0.67088616  0.70826302  1
  Te2-  Te188  1  0.08466996  0.41177220  0.71152358  1
  Te2-  Te189  1  0.08456425  0.91316893  0.71257724  1
  Te2-  Te190  1  0.58442411  0.41566136  0.70985074  1
  Te2-  Te191  1  0.58174067  0.90963629  0.70871899  1
  Te2-  Te192  1  0.15788262  0.08379089  0.04164961  1
  Te2-  Te193  1  0.15622445  0.58267329  0.04359728  1
  Te2-  Te194  1  0.65986790  0.07904735  0.04676549  1
  Te2-  Te195  1  0.66303125  0.58132698  0.04117780  1
  Te2-  Te196  1  0.42003887  0.34150022  0.03953081  1
  Te2-  Te197  1  0.41963058  0.83862833  0.04589651  1
  Te2-  Te198  1  0.91765736  0.33988633  0.04312567  1
  Te2-  Te199  1  0.91701287  0.84040237  0.04187627  1
  Te2-  Te200  1  0.42166044  0.08086649  0.04276355  1
  Te2-  Te201  1  0.41925204  0.58272533  0.04153029  1
  Te2-  Te202  1  0.91628838  0.07846684  0.04429213  1
  Te2-  Te203  1  0.91950905  0.58106734  0.04223941  1
  Te2-  Te204  1  0.49369050  0.24711383  0.37968035  1
  Te2-  Te205  1  0.49447993  0.74609600  0.37576604  1
  Te2-  Te206  1  0.99429070  0.24620778  0.38011758  1
  Te2-  Te207  1  0.99192949  0.74521775  0.37491087  1
  Te2-  Te208  1  0.25184650  0.00483584  0.38150193  1
  Te2-  Te209  1  0.25461284  0.50431456  0.37903543  1
  Te2-  Te210  1  0.75523463  0.00929033  0.37604523  1
  Te2-  Te211  1  0.75236785  0.50330565  0.37513931  1
  Te2-  Te212  1  0.25264741  0.24649636  0.38096282  1
  Te2-  Te213  1  0.25547870  0.74764186  0.37751955  1
  Te2-  Te214  1  0.75379815  0.24749110  0.37971931  1
  Te2-  Te215  1  0.74992150  0.74640374  0.37377349  1
