# generated using pymatgen
data_Ti(CuTe)4
_symmetry_space_group_name_H-M   'P 1'
_cell_length_a   16.88246342
_cell_length_b   16.88661484
_cell_length_c   20.70239387
_cell_angle_alpha   89.99415655
_cell_angle_beta   90.05161786
_cell_angle_gamma   120.01621098
_symmetry_Int_Tables_number   1
_chemical_formula_structural   Ti(CuTe)4
_chemical_formula_sum   'Ti24 Cu96 Te96'
_cell_volume   5110.44167443
_cell_formula_units_Z   24
loop_
 _symmetry_equiv_pos_site_id
 _symmetry_equiv_pos_as_xyz
  1  'x, y, z'
loop_
 _atom_type_symbol
 _atom_type_oxidation_number
  Ti4+  4.0
  Cu+  1.0
  Te2-  -2.0
loop_
 _atom_site_type_symbol
 _atom_site_label
 _atom_site_symmetry_multiplicity
 _atom_site_fract_x
 _atom_site_fract_y
 _atom_site_fract_z
 _atom_site_occupancy
  Ti4+  Ti0  1  -0.00248991  -0.00242799  0.25678687  1
  Ti4+  Ti1  1  -0.00125273  0.50247471  0.25644772  1
  Ti4+  Ti2  1  0.49888209  -0.00129703  0.25826751  1
  Ti4+  Ti3  1  0.49972199  0.49895531  0.25948207  1
  Ti4+  Ti4  1  0.33354761  0.16506534  0.59009910  1
  Ti4+  Ti5  1  0.33129268  0.66408814  0.58942547  1
  Ti4+  Ti6  1  0.83238268  0.16678179  0.58666226  1
  Ti4+  Ti7  1  0.83206469  0.66831647  0.59465602  1
  Ti4+  Ti8  1  0.16816271  0.33291183  0.92239714  1
  Ti4+  Ti9  1  0.16962833  0.83304819  0.92443153  1
  Ti4+  Ti10  1  0.67127261  0.33866484  0.92730588  1
  Ti4+  Ti11  1  0.66498863  0.83252098  0.92565482  1
  Ti4+  Ti12  1  0.00070091  0.00190994  0.75435157  1
  Ti4+  Ti13  1  -0.00039844  0.50021938  0.75537967  1
  Ti4+  Ti14  1  0.50040810  -0.00156556  0.75800427  1
  Ti4+  Ti15  1  0.50102212  0.50089850  0.75477675  1
  Ti4+  Ti16  1  0.33558948  0.16806230  0.08784172  1
  Ti4+  Ti17  1  0.33333479  0.66787157  0.09042860  1
  Ti4+  Ti18  1  0.83375316  0.16500265  0.08862268  1
  Ti4+  Ti19  1  0.83496485  0.66728395  0.08899509  1
  Ti4+  Ti20  1  0.16461258  0.33428057  0.41884876  1
  Ti4+  Ti21  1  0.16734889  0.83432888  0.42294505  1
  Ti4+  Ti22  1  0.66594747  0.33206066  0.42293347  1
  Ti4+  Ti23  1  0.66698560  0.83179266  0.42092051  1
  Cu+  Cu24  1  0.91313760  0.59465516  0.81444919  1
  Cu+  Cu25  1  0.73700616  0.97538330  0.14229674  1
  Cu+  Cu26  1  0.40393994  0.80503771  0.80650171  1
  Cu+  Cu27  1  0.23754340  0.76256218  0.14169109  1
  Cu+  Cu28  1  0.73999486  0.25322130  0.14490922  1
  Cu+  Cu29  1  0.06949575  0.42968081  0.47083917  1
  Cu+  Cu30  1  0.85359614  0.92442374  0.47416804  1
  Cu+  Cu31  1  0.57366603  0.91872833  0.47672779  1
  Cu+  Cu32  1  0.57335554  0.64453131  0.47581080  1
  Cu+  Cu33  1  0.73897403  0.48611610  0.14714774  1
  Cu+  Cu34  1  0.56900903  0.14677715  0.47580393  1
  Cu+  Cu35  1  0.68410823  0.59614482  0.81223048  1
  Cu+  Cu36  1  0.16508672  0.08099650  0.17010857  1
  Cu+  Cu37  1  0.16430767  0.58789187  0.17132632  1
  Cu+  Cu38  1  0.66325273  0.07842718  0.17169694  1
  Cu+  Cu39  1  0.66195236  0.58043005  0.17333532  1
  Cu+  Cu40  1  0.41817576  0.33615131  0.17075930  1
  Cu+  Cu41  1  0.41341670  0.83577378  0.17148982  1
  Cu+  Cu42  1  0.91542970  0.33628470  0.16989357  1
  Cu+  Cu43  1  0.91791372  0.83684747  0.17062813  1
  Cu+  Cu44  1  0.41959950  0.08402106  0.16941079  1
  Cu+  Cu45  1  0.41906837  0.58331020  0.17426162  1
  Cu+  Cu46  1  0.91139569  0.07309634  0.16959106  1
  Cu+  Cu47  1  0.91656883  0.57923014  0.16889755  1
  Cu+  Cu48  1  0.49502807  0.24366841  0.50483311  1
  Cu+  Cu49  1  0.49549786  0.74453386  0.50289433  1
  Cu+  Cu50  1  0.99640072  0.25398801  0.49884122  1
  Cu+  Cu51  1  0.99896987  0.74933865  0.50779085  1
  Cu+  Cu52  1  0.25250414  0.00338079  0.50378405  1
  Cu+  Cu53  1  0.24517357  0.50159889  0.50071396  1
  Cu+  Cu54  1  0.75257342  0.00350801  0.49901313  1
  Cu+  Cu55  1  0.75004917  0.50268362  0.50821831  1
  Cu+  Cu56  1  0.25114965  0.24879240  0.50296278  1
  Cu+  Cu57  1  0.25310906  0.74997737  0.50338658  1
  Cu+  Cu58  1  0.74646653  0.24344242  0.50115249  1
  Cu+  Cu59  1  0.75082038  0.74656793  0.50429635  1
  Cu+  Cu60  1  0.33004684  0.41472771  0.83656346  1
  Cu+  Cu61  1  0.33384791  0.90927168  0.83896207  1
  Cu+  Cu62  1  0.83167417  0.41990912  0.83936251  1
  Cu+  Cu63  1  0.83224644  0.92018364  0.83843471  1
  Cu+  Cu64  1  0.08719459  0.17146902  0.83569049  1
  Cu+  Cu65  1  0.08694998  0.67216479  0.83790023  1
  Cu+  Cu66  1  0.58846818  0.17071487  0.84181514  1
  Cu+  Cu67  1  0.58720824  0.67248144  0.83733329  1
  Cu+  Cu68  1  0.08672554  0.41434954  0.83715651  1
  Cu+  Cu69  1  0.08736553  0.91894521  0.83695993  1
  Cu+  Cu70  1  0.59171659  0.42237215  0.83728106  1
  Cu+  Cu71  1  0.57926779  0.91054531  0.84007677  1
  Cu+  Cu72  1  0.16999343  0.08541057  0.67312652  1
  Cu+  Cu73  1  0.16564637  0.58250452  0.67417397  1
  Cu+  Cu74  1  0.66720630  0.08325130  0.67462367  1
  Cu+  Cu75  1  0.66871181  0.58613647  0.68195740  1
  Cu+  Cu76  1  0.41590866  0.32858088  0.67320010  1
  Cu+  Cu77  1  0.41608291  0.82800231  0.67900646  1
  Cu+  Cu78  1  0.91475272  0.33168913  0.67279216  1
  Cu+  Cu79  1  0.91482253  0.83385107  0.67704019  1
  Cu+  Cu80  1  0.41691123  0.08449257  0.67652728  1
  Cu+  Cu81  1  0.41543270  0.58245630  0.67306329  1
  Cu+  Cu82  1  0.91642036  0.08574612  0.67080808  1
  Cu+  Cu83  1  0.91331240  0.58476023  0.68379204  1
  Cu+  Cu84  1  0.00597200  0.24963372  0.00547840  1
  Cu+  Cu85  1  0.00471321  0.75305754  0.00974508  1
  Cu+  Cu86  1  0.50498576  0.25515038  0.00892295  1
  Cu+  Cu87  1  0.50115052  0.74995983  0.01006974  1
  Cu+  Cu88  1  0.24944873  0.49531101  0.00680822  1
  Cu+  Cu89  1  0.25366966  0.99976725  0.00638333  1
  Cu+  Cu90  1  0.75191371  0.50074722  0.01641414  1
  Cu+  Cu91  1  0.74749000  0.99542469  0.01250048  1
  Cu+  Cu92  1  0.25090447  0.25145992  0.00568044  1
  Cu+  Cu93  1  0.24991227  0.75157981  0.01275422  1
  Cu+  Cu94  1  0.75225813  0.25460617  0.01460484  1
  Cu+  Cu95  1  0.75055357  0.75208359  0.00989247  1
  Cu+  Cu96  1  0.33492325  0.41809734  0.34142498  1
  Cu+  Cu97  1  0.33340440  0.91777388  0.34262501  1
  Cu+  Cu98  1  0.83351646  0.41966550  0.34306844  1
  Cu+  Cu99  1  0.83605550  0.91577100  0.34510475  1
  Cu+  Cu100  1  0.08033866  0.16355884  0.33746601  1
  Cu+  Cu101  1  0.08322315  0.66800220  0.34179668  1
  Cu+  Cu102  1  0.58315651  0.16367570  0.34654332  1
  Cu+  Cu103  1  0.58211844  0.66057798  0.34654002  1
  Cu+  Cu104  1  0.08037109  0.42092387  0.34207098  1
  Cu+  Cu105  1  0.08126622  0.91754842  0.34194637  1
  Cu+  Cu106  1  0.58251953  0.41793133  0.34418974  1
  Cu+  Cu107  1  0.58169023  0.91660135  0.34570608  1
  Cu+  Cu108  1  0.00512310  0.00283950  0.11316551  1
  Cu+  Cu109  1  0.00352377  0.49792773  0.11263913  1
  Cu+  Cu110  1  0.49948735  0.00093090  0.11405377  1
  Cu+  Cu111  1  0.49689826  0.50040752  0.11644095  1
  Cu+  Cu112  1  0.33007329  0.16804931  0.44653563  1
  Cu+  Cu113  1  0.33151536  0.66601696  0.44506803  1
  Cu+  Cu114  1  0.83505993  0.16693768  0.44138497  1
  Cu+  Cu115  1  0.83755758  0.66392922  0.45202255  1
  Cu+  Cu116  1  0.16772601  0.33423363  0.77814673  1
  Cu+  Cu117  1  0.17012761  0.83923502  0.78185190  1
  Cu+  Cu118  1  0.66422077  0.32966666  0.78394376  1
  Cu+  Cu119  1  0.67007456  0.83808500  0.78289456  1
  Te2-  Te120  1  0.00232356  0.00214669  0.38763394  1
  Te2-  Te121  1  -0.00208595  0.50417997  0.38678881  1
  Te2-  Te122  1  0.49662978  -0.00300010  0.39025633  1
  Te2-  Te123  1  0.49678298  0.49519384  0.39068192  1
  Te2-  Te124  1  0.33336959  0.16564407  0.71934511  1
  Te2-  Te125  1  0.32987923  0.66027853  0.71985458  1
  Te2-  Te126  1  0.83317017  0.16663765  0.71520967  1
  Te2-  Te127  1  0.83433131  0.67168068  0.72688328  1
  Te2-  Te128  1  0.16844090  0.33190157  0.05225212  1
  Te2-  Te129  1  0.16873909  0.83728194  0.05488439  1
  Te2-  Te130  1  0.66651309  0.33435013  0.05925766  1
  Te2-  Te131  1  0.66450496  0.82951075  0.05644177  1
  Te2-  Te132  1  0.50195606  0.25461817  0.88254391  1
  Te2-  Te133  1  0.49084897  0.74122069  0.88433454  1
  Te2-  Te134  1  0.99520259  0.24659934  0.88037485  1
  Te2-  Te135  1  0.99626016  0.75178550  0.88392988  1
  Te2-  Te136  1  0.25636204  0.00236899  0.88028078  1
  Te2-  Te137  1  0.25433150  0.50606715  0.88139874  1
  Te2-  Te138  1  0.74810715  0.00289241  0.88494056  1
  Te2-  Te139  1  0.75866490  0.51534920  0.88829348  1
  Te2-  Te140  1  0.25486160  0.24722345  0.88026476  1
  Te2-  Te141  1  0.25222428  0.74126055  0.88565415  1
  Te2-  Te142  1  0.75665453  0.25322636  0.88683326  1
  Te2-  Te143  1  0.75721339  0.75195663  0.88399586  1
  Te2-  Te144  1  0.32891598  0.41435952  0.21577472  1
  Te2-  Te145  1  0.32596013  0.91722240  0.21645410  1
  Te2-  Te146  1  0.82161466  0.41128429  0.21734396  1
  Te2-  Te147  1  0.82190264  0.90594720  0.21845143  1
  Te2-  Te148  1  0.08113352  0.16723805  0.21152053  1
  Te2-  Te149  1  0.08258659  0.67586936  0.21610961  1
  Te2-  Te150  1  0.58523420  0.17133688  0.21874045  1
  Te2-  Te151  1  0.58675859  0.67121022  0.21960340  1
  Te2-  Te152  1  0.08370380  0.41803265  0.21461508  1
  Te2-  Te153  1  0.08467990  0.91305976  0.21596547  1
  Te2-  Te154  1  0.58397950  0.40964801  0.21865882  1
  Te2-  Te155  1  0.58176890  0.90907786  0.21784196  1
  Te2-  Te156  1  0.16211493  0.08084962  0.54743576  1
  Te2-  Te157  1  0.15787878  0.58232099  0.54822889  1
  Te2-  Te158  1  0.65489196  0.07520303  0.54857880  1
  Te2-  Te159  1  0.65851643  0.57864299  0.55427788  1
  Te2-  Te160  1  0.41983729  0.33642455  0.54727161  1
  Te2-  Te161  1  0.41899486  0.83778156  0.55153118  1
  Te2-  Te162  1  0.91432597  0.34009410  0.54672301  1
  Te2-  Te163  1  0.92072702  0.84048574  0.55079599  1
  Te2-  Te164  1  0.41814429  0.07390946  0.55095722  1
  Te2-  Te165  1  0.41434979  0.57482565  0.54711016  1
  Te2-  Te166  1  0.92218550  0.08473065  0.54458763  1
  Te2-  Te167  1  0.91696806  0.58228065  0.55536421  1
  Te2-  Te168  1  0.00230600  0.00299015  0.88083451  1
  Te2-  Te169  1  0.00332426  0.50090855  0.88221856  1
  Te2-  Te170  1  0.50236853  0.00213115  0.88481488  1
  Te2-  Te171  1  0.50031349  0.50157954  0.88164959  1
  Te2-  Te172  1  0.33363245  0.16677569  0.21427512  1
  Te2-  Te173  1  0.33286265  0.66662308  0.21727160  1
  Te2-  Te174  1  0.83463348  0.16636951  0.21607069  1
  Te2-  Te175  1  0.83407429  0.66670988  0.21591465  1
  Te2-  Te176  1  0.16492422  0.33232738  0.54574742  1
  Te2-  Te177  1  0.16882657  0.83435762  0.54939278  1
  Te2-  Te178  1  0.66602556  0.33165538  0.54979559  1
  Te2-  Te179  1  0.66686363  0.83439819  0.54926959  1
  Te2-  Te180  1  0.32933466  0.41253962  0.70997209  1
  Te2-  Te181  1  0.32889926  0.91353666  0.71168037  1
  Te2-  Te182  1  0.82544720  0.41128828  0.71235863  1
  Te2-  Te183  1  0.82807388  0.91723951  0.71130245  1
  Te2-  Te184  1  0.08645009  0.17242340  0.70890701  1
  Te2-  Te185  1  0.08771427  0.67408178  0.71118785  1
  Te2-  Te186  1  0.58604549  0.17034549  0.71437312  1
  Te2-  Te187  1  0.58449999  0.67495680  0.71046246  1
  Te2-  Te188  1  0.08421498  0.41304408  0.71047350  1
  Te2-  Te189  1  0.08631457  0.91553967  0.71058340  1
  Te2-  Te190  1  0.58587772  0.41234868  0.71058523  1
  Te2-  Te191  1  0.58783894  0.91411996  0.71222775  1
  Te2-  Te192  1  0.16475164  0.08129443  0.04281837  1
  Te2-  Te193  1  0.16251493  0.57874763  0.04380655  1
  Te2-  Te194  1  0.65988187  0.08082080  0.04340618  1
  Te2-  Te195  1  0.66032180  0.58211960  0.04588597  1
  Te2-  Te196  1  0.42026342  0.34023398  0.04442948  1
  Te2-  Te197  1  0.42209763  0.84045691  0.04481799  1
  Te2-  Te198  1  0.92483391  0.33809198  0.04326498  1
  Te2-  Te199  1  0.92106373  0.84000224  0.04491995  1
  Te2-  Te200  1  0.42341339  0.08403692  0.04313594  1
  Te2-  Te201  1  0.41810342  0.58068730  0.04721861  1
  Te2-  Te202  1  0.92081636  0.07989010  0.04265388  1
  Te2-  Te203  1  0.92501600  0.58317615  0.04324950  1
  Te2-  Te204  1  0.49300803  0.24656787  0.37760072  1
  Te2-  Te205  1  0.49244315  0.74433523  0.37552214  1
  Te2-  Te206  1  0.99325715  0.24722766  0.37157664  1
  Te2-  Te207  1  0.99493487  0.74845677  0.38067798  1
  Te2-  Te208  1  0.25170603  0.00592003  0.37777336  1
  Te2-  Te209  1  0.25301654  0.50705900  0.37400588  1
  Te2-  Te210  1  0.75378024  0.00624243  0.37255217  1
  Te2-  Te211  1  0.75151117  0.50587059  0.38153678  1
  Te2-  Te212  1  0.25011229  0.24741558  0.37589637  1
  Te2-  Te213  1  0.25290826  0.74814129  0.37725789  1
  Te2-  Te214  1  0.75549269  0.24917153  0.37502421  1
  Te2-  Te215  1  0.75442879  0.74393334  0.37761195  1
