# generated using pymatgen
data_Ti(CuTe)4
_symmetry_space_group_name_H-M   'P 1'
_cell_length_a   16.90783309
_cell_length_b   16.90468880
_cell_length_c   20.73635922
_cell_angle_alpha   90.00592675
_cell_angle_beta   89.94434148
_cell_angle_gamma   119.98335606
_symmetry_Int_Tables_number   1
_chemical_formula_structural   Ti(CuTe)4
_chemical_formula_sum   'Ti24 Cu96 Te96'
_cell_volume   5133.70415760
_cell_formula_units_Z   24
loop_
 _symmetry_equiv_pos_site_id
 _symmetry_equiv_pos_as_xyz
  1  'x, y, z'
loop_
 _atom_type_symbol
 _atom_type_oxidation_number
  Ti4+  4.0
  Cu+  1.0
  Te2-  -2.0
loop_
 _atom_site_type_symbol
 _atom_site_label
 _atom_site_symmetry_multiplicity
 _atom_site_fract_x
 _atom_site_fract_y
 _atom_site_fract_z
 _atom_site_occupancy
  Ti4+  Ti0  1  0.00284263  0.00161203  0.25362923  1
  Ti4+  Ti1  1  0.00474011  0.50178459  0.25730621  1
  Ti4+  Ti2  1  0.50465053  0.00119548  0.26111388  1
  Ti4+  Ti3  1  0.50360392  0.50028511  0.25776755  1
  Ti4+  Ti4  1  0.33377806  0.16677172  0.58849225  1
  Ti4+  Ti5  1  0.33084154  0.66631724  0.59155808  1
  Ti4+  Ti6  1  0.83195685  0.16468234  0.59040028  1
  Ti4+  Ti7  1  0.83154443  0.66349666  0.59081144  1
  Ti4+  Ti8  1  0.16623327  0.33535223  0.92288531  1
  Ti4+  Ti9  1  0.16361881  0.83166854  0.92368097  1
  Ti4+  Ti10  1  0.66608769  0.33548698  0.92582838  1
  Ti4+  Ti11  1  0.66407464  0.83385065  0.92821608  1
  Ti4+  Ti12  1  -0.00221621  -0.00101599  0.75544644  1
  Ti4+  Ti13  1  -0.00187396  0.50002334  0.75505497  1
  Ti4+  Ti14  1  0.49824290  -0.00066708  0.75749239  1
  Ti4+  Ti15  1  0.49749922  0.49855459  0.75653243  1
  Ti4+  Ti16  1  0.33471589  0.16777630  0.08907347  1
  Ti4+  Ti17  1  0.33247049  0.66683468  0.09040313  1
  Ti4+  Ti18  1  0.83401471  0.16744909  0.08777679  1
  Ti4+  Ti19  1  0.83390443  0.66811708  0.08823812  1
  Ti4+  Ti20  1  0.16802770  0.33270416  0.42164031  1
  Ti4+  Ti21  1  0.16672529  0.83101357  0.42156137  1
  Ti4+  Ti22  1  0.66769156  0.33481984  0.42035213  1
  Ti4+  Ti23  1  0.66895901  0.83431589  0.42214031  1
  Cu+  Cu24  1  0.57965102  0.15905587  0.48161913  1
  Cu+  Cu25  1  0.34134248  0.91891232  0.48280482  1
  Cu+  Cu26  1  0.74614582  0.98652783  0.14461423  1
  Cu+  Cu27  1  0.57755990  0.92096948  0.48275709  1
  Cu+  Cu28  1  0.02397971  0.26239619  0.13691596  1
  Cu+  Cu29  1  0.90378252  0.59372351  0.80821009  1
  Cu+  Cu30  1  0.57306438  0.42789185  0.47458100  1
  Cu+  Cu31  1  0.02394505  0.76030368  0.14026548  1
  Cu+  Cu32  1  0.18417395  0.59377835  0.80949927  1
  Cu+  Cu33  1  0.07011860  0.64233040  0.47509484  1
  Cu+  Cu34  1  0.51732377  0.75631557  0.14487094  1
  Cu+  Cu35  1  0.52437428  0.26030701  0.14284461  1
  Cu+  Cu36  1  0.16433249  0.08246858  0.16724036  1
  Cu+  Cu37  1  0.16249532  0.58189764  0.17064562  1
  Cu+  Cu38  1  0.66168661  0.07790089  0.17058584  1
  Cu+  Cu39  1  0.66328750  0.58043932  0.17018252  1
  Cu+  Cu40  1  0.42444713  0.33537346  0.17138050  1
  Cu+  Cu41  1  0.42258218  0.83580987  0.17370325  1
  Cu+  Cu42  1  0.92460909  0.33663906  0.16925956  1
  Cu+  Cu43  1  0.92373621  0.83701386  0.16748067  1
  Cu+  Cu44  1  0.42261870  0.08582947  0.17397551  1
  Cu+  Cu45  1  0.42127797  0.58395916  0.17249256  1
  Cu+  Cu46  1  0.92173059  0.08442543  0.16728668  1
  Cu+  Cu47  1  0.92386574  0.58754410  0.17133932  1
  Cu+  Cu48  1  0.49521165  0.25002293  0.50026995  1
  Cu+  Cu49  1  0.49668966  0.74889175  0.50471626  1
  Cu+  Cu50  1  0.99826318  0.24767790  0.50457306  1
  Cu+  Cu51  1  0.99498635  0.74151439  0.50342276  1
  Cu+  Cu52  1  0.25312503  0.00380883  0.50164396  1
  Cu+  Cu53  1  0.24972401  0.50084836  0.50482379  1
  Cu+  Cu54  1  0.75108664  0.00418647  0.50321993  1
  Cu+  Cu55  1  0.74920886  0.50571789  0.50151130  1
  Cu+  Cu56  1  0.25131754  0.24789184  0.50204283  1
  Cu+  Cu57  1  0.24831463  0.74358998  0.50304628  1
  Cu+  Cu58  1  0.75195191  0.24591931  0.50236661  1
  Cu+  Cu59  1  0.75198145  0.74731292  0.50329472  1
  Cu+  Cu60  1  0.32825598  0.41556826  0.83643829  1
  Cu+  Cu61  1  0.32907462  0.91501488  0.83795944  1
  Cu+  Cu62  1  0.82749472  0.41890508  0.83722271  1
  Cu+  Cu63  1  0.82861515  0.91655449  0.84018078  1
  Cu+  Cu64  1  0.08225307  0.16916495  0.83735044  1
  Cu+  Cu65  1  0.08217793  0.66963513  0.83609563  1
  Cu+  Cu66  1  0.58222752  0.16917063  0.84059399  1
  Cu+  Cu67  1  0.57987724  0.66836567  0.84129478  1
  Cu+  Cu68  1  0.08755965  0.41821074  0.83618836  1
  Cu+  Cu69  1  0.08232702  0.91507438  0.83765094  1
  Cu+  Cu70  1  0.58167417  0.41386017  0.83951315  1
  Cu+  Cu71  1  0.58258799  0.91442578  0.84210801  1
  Cu+  Cu72  1  0.16797160  0.08383252  0.67210949  1
  Cu+  Cu73  1  0.16728454  0.58371798  0.67944496  1
  Cu+  Cu74  1  0.66589413  0.08200188  0.67764320  1
  Cu+  Cu75  1  0.66503132  0.58133645  0.67646965  1
  Cu+  Cu76  1  0.41540862  0.33086465  0.67379649  1
  Cu+  Cu77  1  0.41446882  0.83187897  0.67777422  1
  Cu+  Cu78  1  0.91243748  0.32788411  0.67357369  1
  Cu+  Cu79  1  0.91413780  0.82989137  0.67459254  1
  Cu+  Cu80  1  0.41581825  0.08422912  0.67529744  1
  Cu+  Cu81  1  0.41359849  0.58337560  0.67557902  1
  Cu+  Cu82  1  0.91275299  0.08141504  0.67365000  1
  Cu+  Cu83  1  0.91143268  0.58165176  0.67890071  1
  Cu+  Cu84  1  0.00390607  0.25456757  0.00911688  1
  Cu+  Cu85  1  0.00204398  0.75112428  0.01124298  1
  Cu+  Cu86  1  0.50389825  0.25192567  0.01415394  1
  Cu+  Cu87  1  0.50119193  0.75296531  0.01568613  1
  Cu+  Cu88  1  0.24638352  0.49985404  0.00818770  1
  Cu+  Cu89  1  0.24833378  0.99820375  0.00749123  1
  Cu+  Cu90  1  0.74714828  0.49965699  0.00916137  1
  Cu+  Cu91  1  0.74500197  0.99788030  0.01433723  1
  Cu+  Cu92  1  0.24825445  0.25137935  0.00591302  1
  Cu+  Cu93  1  0.24534121  0.74847643  0.00870339  1
  Cu+  Cu94  1  0.74751533  0.25207270  0.00775645  1
  Cu+  Cu95  1  0.74591904  0.75051078  0.00930688  1
  Cu+  Cu96  1  0.33814706  0.41720619  0.34026048  1
  Cu+  Cu97  1  0.33849802  0.91824312  0.34882558  1
  Cu+  Cu98  1  0.83963303  0.42109597  0.33926957  1
  Cu+  Cu99  1  0.83876403  0.91816944  0.33897060  1
  Cu+  Cu100  1  0.08332403  0.16538818  0.33861194  1
  Cu+  Cu101  1  0.08187953  0.66340284  0.34621290  1
  Cu+  Cu102  1  0.58603036  0.16551767  0.34838565  1
  Cu+  Cu103  1  0.58640718  0.66571010  0.34267392  1
  Cu+  Cu104  1  0.08563792  0.41745970  0.34149104  1
  Cu+  Cu105  1  0.08215566  0.91599040  0.33859733  1
  Cu+  Cu106  1  0.58492172  0.41996064  0.34575880  1
  Cu+  Cu107  1  0.58571563  0.91813554  0.35011497  1
  Cu+  Cu108  1  0.00174870  0.00072489  0.10896646  1
  Cu+  Cu109  1  -0.00368170  0.49889507  0.11366206  1
  Cu+  Cu110  1  0.49522361  -0.00210612  0.11728285  1
  Cu+  Cu111  1  0.49629796  0.49736581  0.11446295  1
  Cu+  Cu112  1  0.32903305  0.16501918  0.44372248  1
  Cu+  Cu113  1  0.33409509  0.66135563  0.44817942  1
  Cu+  Cu114  1  0.83884597  0.16907271  0.44636232  1
  Cu+  Cu115  1  0.83518289  0.67007957  0.44587551  1
  Cu+  Cu116  1  0.16394649  0.32934521  0.77939701  1
  Cu+  Cu117  1  0.16597653  0.83717951  0.78078247  1
  Cu+  Cu118  1  0.66223954  0.33022826  0.78303286  1
  Cu+  Cu119  1  0.66491462  0.83133790  0.78599393  1
  Te2-  Te120  1  0.00295105  0.00087665  0.38219097  1
  Te2-  Te121  1  0.00149822  0.49721047  0.38771781  1
  Te2-  Te122  1  0.50300945  0.00071896  0.39391677  1
  Te2-  Te123  1  0.50086229  0.50203175  0.38797892  1
  Te2-  Te124  1  0.33208019  0.16597287  0.71670652  1
  Te2-  Te125  1  0.33333105  0.66708510  0.72143945  1
  Te2-  Te126  1  0.83138716  0.16420851  0.71883491  1
  Te2-  Te127  1  0.82955853  0.66616664  0.72094857  1
  Te2-  Te128  1  0.16976128  0.33592202  0.05324195  1
  Te2-  Te129  1  0.16808104  0.83479592  0.05400074  1
  Te2-  Te130  1  0.66995675  0.33651012  0.05650385  1
  Te2-  Te131  1  0.66685960  0.83312922  0.06039873  1
  Te2-  Te132  1  0.49451671  0.24804132  0.88700930  1
  Te2-  Te133  1  0.49275157  0.74779694  0.88844121  1
  Te2-  Te134  1  0.99551492  0.25111069  0.88200365  1
  Te2-  Te135  1  0.99086459  0.74728952  0.88352965  1
  Te2-  Te136  1  0.24976865  0.00266338  0.88201732  1
  Te2-  Te137  1  0.25577966  0.50963121  0.88248459  1
  Te2-  Te138  1  0.74990587  0.00472292  0.88699798  1
  Te2-  Te139  1  0.74942149  0.50907491  0.88344320  1
  Te2-  Te140  1  0.25041372  0.24868204  0.88047091  1
  Te2-  Te141  1  0.25224370  0.74738025  0.88271902  1
  Te2-  Te142  1  0.75196977  0.25131884  0.88203567  1
  Te2-  Te143  1  0.74838787  0.74835003  0.88367996  1
  Te2-  Te144  1  0.33429898  0.41500784  0.21413702  1
  Te2-  Te145  1  0.33625280  0.91716019  0.22018779  1
  Te2-  Te146  1  0.83558983  0.41716892  0.21315079  1
  Te2-  Te147  1  0.83056387  0.91244215  0.21307389  1
  Te2-  Te148  1  0.09019001  0.17510767  0.21282820  1
  Te2-  Te149  1  0.09205266  0.67622378  0.21894904  1
  Te2-  Te150  1  0.59232099  0.17344056  0.22012970  1
  Te2-  Te151  1  0.59130598  0.67401232  0.21726815  1
  Te2-  Te152  1  0.09224090  0.41559322  0.21586304  1
  Te2-  Te153  1  0.09164451  0.91615291  0.21335226  1
  Te2-  Te154  1  0.59289895  0.41547575  0.21846976  1
  Te2-  Te155  1  0.59130909  0.91169761  0.22155816  1
  Te2-  Te156  1  0.16334810  0.08019078  0.54625663  1
  Te2-  Te157  1  0.15810917  0.57703519  0.55156595  1
  Te2-  Te158  1  0.65484055  0.07719481  0.55151680  1
  Te2-  Te159  1  0.65784033  0.58133537  0.55029316  1
  Te2-  Te160  1  0.41837452  0.34014894  0.54789407  1
  Te2-  Te161  1  0.41948099  0.84194171  0.55178203  1
  Te2-  Te162  1  0.91726138  0.33557736  0.54799976  1
  Te2-  Te163  1  0.91912298  0.83378232  0.54837061  1
  Te2-  Te164  1  0.42254550  0.07919434  0.54928362  1
  Te2-  Te165  1  0.41753294  0.58277923  0.54972219  1
  Te2-  Te166  1  0.91698824  0.07919810  0.54794104  1
  Te2-  Te167  1  0.91471698  0.57298782  0.55087483  1
  Te2-  Te168  1  -0.00132168  0.00057734  0.88157417  1
  Te2-  Te169  1  -0.00187929  0.49935603  0.88199662  1
  Te2-  Te170  1  0.49740024  -0.00016450  0.88375406  1
  Te2-  Te171  1  0.49640137  0.49848959  0.88258934  1
  Te2-  Te172  1  0.33221578  0.16586761  0.21584470  1
  Te2-  Te173  1  0.33251707  0.66517761  0.21711760  1
  Te2-  Te174  1  0.83370646  0.16628094  0.21498289  1
  Te2-  Te175  1  0.83388058  0.66785619  0.21477536  1
  Te2-  Te176  1  0.16690690  0.33167722  0.54780285  1
  Te2-  Te177  1  0.16555685  0.83310650  0.54893696  1
  Te2-  Te178  1  0.66674062  0.33357755  0.54757560  1
  Te2-  Te179  1  0.66773383  0.83302965  0.54900556  1
  Te2-  Te180  1  0.32677781  0.41290884  0.71018941  1
  Te2-  Te181  1  0.32686156  0.91452330  0.71176378  1
  Te2-  Te182  1  0.82498198  0.40969390  0.71073472  1
  Te2-  Te183  1  0.82586302  0.91206006  0.71277494  1
  Te2-  Te184  1  0.08345544  0.16942692  0.70987042  1
  Te2-  Te185  1  0.08426882  0.67349512  0.70909902  1
  Te2-  Te186  1  0.58442308  0.17090710  0.71338028  1
  Te2-  Te187  1  0.58332158  0.67068186  0.71369323  1
  Te2-  Te188  1  0.08205305  0.41094252  0.70959001  1
  Te2-  Te189  1  0.08434772  0.91418148  0.71059857  1
  Te2-  Te190  1  0.58354440  0.41203991  0.71302500  1
  Te2-  Te191  1  0.58399400  0.91232085  0.71506878  1
  Te2-  Te192  1  0.16299259  0.08233989  0.04204838  1
  Te2-  Te193  1  0.15928654  0.58060322  0.04563066  1
  Te2-  Te194  1  0.65878327  0.08337454  0.04500688  1
  Te2-  Te195  1  0.65982373  0.58131801  0.04522647  1
  Te2-  Te196  1  0.41782431  0.33939031  0.04373212  1
  Te2-  Te197  1  0.41524015  0.83959003  0.04629186  1
  Te2-  Te198  1  0.91769915  0.33991352  0.04240084  1
  Te2-  Te199  1  0.91728761  0.83969259  0.04098997  1
  Te2-  Te200  1  0.41792692  0.07855335  0.04576191  1
  Te2-  Te201  1  0.41663588  0.57920602  0.04487936  1
  Te2-  Te202  1  0.91988442  0.08139979  0.03992478  1
  Te2-  Te203  1  0.91762275  0.57943959  0.04370648  1
  Te2-  Te204  1  0.49363617  0.24643442  0.37387518  1
  Te2-  Te205  1  0.49547235  0.74496113  0.37773994  1
  Te2-  Te206  1  0.99675311  0.24748873  0.37713221  1
  Te2-  Te207  1  0.99427916  0.74792895  0.37630691  1
  Te2-  Te208  1  0.25140339  0.00403533  0.37519047  1
  Te2-  Te209  1  0.25531297  0.50458860  0.37766252  1
  Te2-  Te210  1  0.75864048  0.00724914  0.37662312  1
  Te2-  Te211  1  0.75766778  0.50818949  0.37547167  1
  Te2-  Te212  1  0.25322337  0.24710086  0.37528068  1
  Te2-  Te213  1  0.25526205  0.74527700  0.37639801  1
  Te2-  Te214  1  0.75837198  0.25131867  0.37595806  1
  Te2-  Te215  1  0.75575136  0.74930536  0.37715641  1
