# generated using pymatgen
data_Ti(CuTe)4
_symmetry_space_group_name_H-M   'P 1'
_cell_length_a   16.89509293
_cell_length_b   16.89472568
_cell_length_c   20.71502131
_cell_angle_alpha   90.00243297
_cell_angle_beta   89.99928190
_cell_angle_gamma   119.99263595
_symmetry_Int_Tables_number   1
_chemical_formula_structural   Ti(CuTe)4
_chemical_formula_sum   'Ti24 Cu96 Te96'
_cell_volume   5121.06121572
_cell_formula_units_Z   24
loop_
 _symmetry_equiv_pos_site_id
 _symmetry_equiv_pos_as_xyz
  1  'x, y, z'
loop_
 _atom_type_symbol
 _atom_type_oxidation_number
  Ti4+  4.0
  Cu+  1.0
  Te2-  -2.0
loop_
 _atom_site_type_symbol
 _atom_site_label
 _atom_site_symmetry_multiplicity
 _atom_site_fract_x
 _atom_site_fract_y
 _atom_site_fract_z
 _atom_site_occupancy
  Ti4+  Ti0  1  0.00486227  0.00211472  0.25918598  1
  Ti4+  Ti1  1  0.00102368  0.50029670  0.25600865  1
  Ti4+  Ti2  1  0.50272828  0.00341417  0.25495658  1
  Ti4+  Ti3  1  0.50158404  0.50089891  0.25629732  1
  Ti4+  Ti4  1  0.33021793  0.16798371  0.59222247  1
  Ti4+  Ti5  1  0.33170279  0.66823636  0.58962142  1
  Ti4+  Ti6  1  0.83387780  0.16737144  0.59441912  1
  Ti4+  Ti7  1  0.83038224  0.66717233  0.58889445  1
  Ti4+  Ti8  1  0.16634566  0.32990711  0.92718224  1
  Ti4+  Ti9  1  0.16460269  0.83113181  0.92601569  1
  Ti4+  Ti10  1  0.66497105  0.32862006  0.92434087  1
  Ti4+  Ti11  1  0.66564725  0.83088504  0.92227729  1
  Ti4+  Ti12  1  -0.00147030  -0.00043900  0.75760850  1
  Ti4+  Ti13  1  -0.00139040  0.50023502  0.75610622  1
  Ti4+  Ti14  1  0.49951252  0.00097484  0.75409769  1
  Ti4+  Ti15  1  0.49773278  0.49794986  0.75594204  1
  Ti4+  Ti16  1  0.33375571  0.16563239  0.08639345  1
  Ti4+  Ti17  1  0.33336589  0.66565034  0.08599015  1
  Ti4+  Ti18  1  0.83410755  0.16642006  0.08888857  1
  Ti4+  Ti19  1  0.83408912  0.66536049  0.08780193  1
  Ti4+  Ti20  1  0.16810138  0.33443337  0.42293259  1
  Ti4+  Ti21  1  0.16789855  0.83416352  0.42088348  1
  Ti4+  Ti22  1  0.66647091  0.33517222  0.42421220  1
  Ti4+  Ti23  1  0.66841197  0.83512123  0.41989997  1
  Cu+  Cu24  1  0.07259996  0.92227422  0.47842550  1
  Cu+  Cu25  1  0.40319319  0.30701816  0.81003672  1
  Cu+  Cu26  1  0.74609366  0.26230220  0.14282649  1
  Cu+  Cu27  1  0.24787934  0.98953449  0.14626718  1
  Cu+  Cu28  1  0.51409740  0.25996297  0.14355520  1
  Cu+  Cu29  1  0.01847132  0.75699372  0.14246122  1
  Cu+  Cu30  1  0.91203565  0.31489597  0.81052364  1
  Cu+  Cu31  1  0.56838647  0.42963383  0.47450036  1
  Cu+  Cu32  1  0.07313607  0.15452351  0.48321193  1
  Cu+  Cu33  1  0.01826106  0.26115179  0.14393649  1
  Cu+  Cu34  1  0.24852499  0.25676423  0.14927423  1
  Cu+  Cu35  1  0.68123828  0.08637462  0.81123915  1
  Cu+  Cu36  1  0.16036947  0.07969635  0.16888577  1
  Cu+  Cu37  1  0.16507778  0.58090416  0.16707980  1
  Cu+  Cu38  1  0.66480427  0.08735401  0.16861816  1
  Cu+  Cu39  1  0.66566930  0.58039976  0.16950965  1
  Cu+  Cu40  1  0.42397171  0.34360412  0.16808857  1
  Cu+  Cu41  1  0.41949334  0.83577784  0.16738087  1
  Cu+  Cu42  1  0.92007472  0.33820463  0.16979419  1
  Cu+  Cu43  1  0.92253060  0.83486762  0.17085999  1
  Cu+  Cu44  1  0.42452042  0.08268051  0.16670238  1
  Cu+  Cu45  1  0.41810470  0.58265218  0.16852618  1
  Cu+  Cu46  1  0.92453938  0.08780840  0.17105338  1
  Cu+  Cu47  1  0.92109880  0.58269403  0.16873551  1
  Cu+  Cu48  1  0.49771049  0.25628699  0.50660971  1
  Cu+  Cu49  1  0.49700385  0.75030533  0.50241862  1
  Cu+  Cu50  1  0.99523727  0.24864417  0.50704847  1
  Cu+  Cu51  1  0.99532394  0.74989651  0.50284319  1
  Cu+  Cu52  1  0.24700327  0.00242831  0.50404076  1
  Cu+  Cu53  1  0.25029099  0.50597572  0.50453884  1
  Cu+  Cu54  1  0.75025077  0.00325018  0.50464080  1
  Cu+  Cu55  1  0.74499467  0.50321807  0.50404326  1
  Cu+  Cu56  1  0.24892180  0.24646726  0.50459580  1
  Cu+  Cu57  1  0.25143337  0.74776657  0.50306589  1
  Cu+  Cu58  1  0.75204829  0.25039100  0.50896997  1
  Cu+  Cu59  1  0.75132826  0.74911547  0.50065660  1
  Cu+  Cu60  1  0.33118498  0.40796388  0.83947466  1
  Cu+  Cu61  1  0.32864337  0.91569451  0.83844709  1
  Cu+  Cu62  1  0.83079907  0.40953855  0.83684487  1
  Cu+  Cu63  1  0.82837445  0.91153498  0.83742234  1
  Cu+  Cu64  1  0.08447253  0.16813227  0.84120231  1
  Cu+  Cu65  1  0.08153334  0.67011224  0.83864487  1
  Cu+  Cu66  1  0.58797874  0.16942996  0.83607485  1
  Cu+  Cu67  1  0.58385907  0.66821630  0.83710361  1
  Cu+  Cu68  1  0.08212957  0.41253904  0.84051262  1
  Cu+  Cu69  1  0.08250795  0.91303794  0.84130555  1
  Cu+  Cu70  1  0.57723472  0.40797267  0.83777076  1
  Cu+  Cu71  1  0.58647897  0.91455387  0.83601594  1
  Cu+  Cu72  1  0.16455945  0.08354175  0.67880432  1
  Cu+  Cu73  1  0.16831969  0.58737091  0.67443243  1
  Cu+  Cu74  1  0.66913613  0.08657373  0.68088489  1
  Cu+  Cu75  1  0.66647058  0.58426975  0.67372356  1
  Cu+  Cu76  1  0.41233840  0.33017669  0.68035875  1
  Cu+  Cu77  1  0.41318400  0.83153057  0.67234104  1
  Cu+  Cu78  1  0.91515299  0.33086651  0.68119872  1
  Cu+  Cu79  1  0.91529634  0.83107602  0.67493537  1
  Cu+  Cu80  1  0.41380316  0.08525170  0.67465512  1
  Cu+  Cu81  1  0.41259164  0.58589532  0.67331999  1
  Cu+  Cu82  1  0.91611524  0.08453020  0.67806109  1
  Cu+  Cu83  1  0.91407632  0.58641065  0.67239755  1
  Cu+  Cu84  1  0.00288815  0.24916777  0.01525115  1
  Cu+  Cu85  1  0.00246370  0.75051823  0.01336781  1
  Cu+  Cu86  1  0.50135895  0.24776313  0.01239277  1
  Cu+  Cu87  1  0.50227238  0.74988256  0.00425603  1
  Cu+  Cu88  1  0.24931923  0.49579066  0.00775372  1
  Cu+  Cu89  1  0.24558066  0.99380024  0.01410994  1
  Cu+  Cu90  1  0.74743116  0.49489526  0.00571621  1
  Cu+  Cu91  1  0.74736593  0.99297501  0.00751465  1
  Cu+  Cu92  1  0.24898080  0.24941426  0.01653241  1
  Cu+  Cu93  1  0.24815341  0.74900194  0.00656208  1
  Cu+  Cu94  1  0.74776294  0.24768344  0.01363881  1
  Cu+  Cu95  1  0.74736018  0.74914567  0.00626529  1
  Cu+  Cu96  1  0.33646480  0.41912244  0.34137924  1
  Cu+  Cu97  1  0.33877159  0.91891328  0.34006759  1
  Cu+  Cu98  1  0.83731128  0.41763535  0.34174783  1
  Cu+  Cu99  1  0.83814838  0.92070251  0.34192813  1
  Cu+  Cu100  1  0.08614556  0.16717493  0.35076329  1
  Cu+  Cu101  1  0.08473280  0.66496674  0.34026774  1
  Cu+  Cu102  1  0.58498894  0.16707812  0.34254468  1
  Cu+  Cu103  1  0.58518300  0.66763677  0.33884332  1
  Cu+  Cu104  1  0.08288628  0.41769950  0.34155776  1
  Cu+  Cu105  1  0.08592927  0.91947462  0.34787277  1
  Cu+  Cu106  1  0.58139252  0.41845828  0.34571011  1
  Cu+  Cu107  1  0.58563737  0.92075957  0.33833367  1
  Cu+  Cu108  1  -0.00810078  -0.00528501  0.11489040  1
  Cu+  Cu109  1  0.00194587  0.50176366  0.11129078  1
  Cu+  Cu110  1  0.50225200  -0.00526987  0.11020698  1
  Cu+  Cu111  1  0.50631841  0.51000930  0.11219389  1
  Cu+  Cu112  1  0.33705055  0.16558675  0.44973670  1
  Cu+  Cu113  1  0.33583565  0.66791506  0.44570194  1
  Cu+  Cu114  1  0.83030154  0.16733489  0.45114204  1
  Cu+  Cu115  1  0.83374659  0.66602315  0.44515695  1
  Cu+  Cu116  1  0.16832067  0.33772809  0.78487795  1
  Cu+  Cu117  1  0.16632677  0.83334977  0.78301652  1
  Cu+  Cu118  1  0.66854132  0.33841322  0.78079956  1
  Cu+  Cu119  1  0.66381673  0.82933838  0.77847118  1
  Te2-  Te120  1  0.00026553  0.00019845  0.39059090  1
  Te2-  Te121  1  0.00173222  0.50104983  0.38482045  1
  Te2-  Te122  1  0.50306779  0.00177233  0.38360851  1
  Te2-  Te123  1  0.50013124  0.50457957  0.38658933  1
  Te2-  Te124  1  0.32948808  0.16350093  0.72253104  1
  Te2-  Te125  1  0.33214145  0.66868261  0.71913389  1
  Te2-  Te126  1  0.83424533  0.16545503  0.72674884  1
  Te2-  Te127  1  0.83065019  0.66627935  0.71783388  1
  Te2-  Te128  1  0.16890557  0.33490305  0.05941758  1
  Te2-  Te129  1  0.16765805  0.82936987  0.05902530  1
  Te2-  Te130  1  0.66721221  0.33389959  0.05625167  1
  Te2-  Te131  1  0.66457532  0.82950754  0.05169380  1
  Te2-  Te132  1  0.49187563  0.23921838  0.88481873  1
  Te2-  Te133  1  0.49432076  0.74741988  0.87890947  1
  Te2-  Te134  1  0.99272250  0.24270857  0.88798882  1
  Te2-  Te135  1  0.99242245  0.74617463  0.88684908  1
  Te2-  Te136  1  0.24999768  0.00305826  0.88664466  1
  Te2-  Te137  1  0.25141986  0.49825544  0.88164294  1
  Te2-  Te138  1  0.75643152  0.00605329  0.88254496  1
  Te2-  Te139  1  0.74788592  0.49647098  0.87946038  1
  Te2-  Te140  1  0.25079787  0.24020023  0.88819836  1
  Te2-  Te141  1  0.25023146  0.74691252  0.88100674  1
  Te2-  Te142  1  0.75493286  0.24204213  0.88593618  1
  Te2-  Te143  1  0.75133511  0.74429376  0.88098630  1
  Te2-  Te144  1  0.32786591  0.41609669  0.21570791  1
  Te2-  Te145  1  0.32976701  0.91346739  0.21427807  1
  Te2-  Te146  1  0.82778820  0.41623528  0.21570046  1
  Te2-  Te147  1  0.83673652  0.91887995  0.21498375  1
  Te2-  Te148  1  0.09207612  0.17823645  0.22156032  1
  Te2-  Te149  1  0.09106364  0.67329262  0.21448040  1
  Te2-  Te150  1  0.59077051  0.18134254  0.21684377  1
  Te2-  Te151  1  0.58676083  0.67051186  0.21261535  1
  Te2-  Te152  1  0.08962167  0.41533606  0.21580512  1
  Te2-  Te153  1  0.09152727  0.91326724  0.21972211  1
  Te2-  Te154  1  0.59015333  0.41498953  0.21835317  1
  Te2-  Te155  1  0.58825297  0.91915062  0.21205027  1
  Te2-  Te156  1  0.15365225  0.07782190  0.55258676  1
  Te2-  Te157  1  0.15855488  0.58139615  0.54898796  1
  Te2-  Te158  1  0.66316321  0.08243148  0.55321329  1
  Te2-  Te159  1  0.65581238  0.58324611  0.54818826  1
  Te2-  Te160  1  0.41430906  0.34150608  0.55293243  1
  Te2-  Te161  1  0.41879885  0.84021059  0.54690200  1
  Te2-  Te162  1  0.91973634  0.33870859  0.55401477  1
  Te2-  Te163  1  0.91670151  0.84147319  0.54922198  1
  Te2-  Te164  1  0.41596739  0.08510154  0.54811306  1
  Te2-  Te165  1  0.41805273  0.58246566  0.54763017  1
  Te2-  Te166  1  0.91673794  0.07749517  0.55212578  1
  Te2-  Te167  1  0.91529218  0.58179648  0.54618765  1
  Te2-  Te168  1  -0.00302734  -0.00288860  0.88392395  1
  Te2-  Te169  1  -0.00069999  0.50045616  0.88310664  1
  Te2-  Te170  1  0.49946899  -0.00144491  0.88095174  1
  Te2-  Te171  1  0.50053738  0.49976687  0.88280672  1
  Te2-  Te172  1  0.33570530  0.16792868  0.21455506  1
  Te2-  Te173  1  0.33433741  0.66759752  0.21227154  1
  Te2-  Te174  1  0.83437622  0.16747664  0.21635618  1
  Te2-  Te175  1  0.83429117  0.66530140  0.21489713  1
  Te2-  Te176  1  0.16708376  0.33593771  0.54967941  1
  Te2-  Te177  1  0.16566469  0.83213597  0.54771991  1
  Te2-  Te178  1  0.66658122  0.33499527  0.55092154  1
  Te2-  Te179  1  0.66595298  0.83320254  0.54610287  1
  Te2-  Te180  1  0.32568946  0.41597952  0.71189131  1
  Te2-  Te181  1  0.32715903  0.91498521  0.71147792  1
  Te2-  Te182  1  0.82706838  0.41628554  0.70976919  1
  Te2-  Te183  1  0.82744528  0.91336861  0.71153340  1
  Te2-  Te184  1  0.08515731  0.17339228  0.71546122  1
  Te2-  Te185  1  0.08302995  0.67185435  0.71210730  1
  Te2-  Te186  1  0.58415045  0.17486163  0.71001165  1
  Te2-  Te187  1  0.58211254  0.66921452  0.71065347  1
  Te2-  Te188  1  0.08788267  0.41694052  0.71251361  1
  Te2-  Te189  1  0.08405392  0.91307894  0.71436191  1
  Te2-  Te190  1  0.58548520  0.41421581  0.71009191  1
  Te2-  Te191  1  0.58350971  0.91260181  0.70879980  1
  Te2-  Te192  1  0.15649445  0.07673349  0.04321392  1
  Te2-  Te193  1  0.16132460  0.57860647  0.04116145  1
  Te2-  Te194  1  0.66107397  0.07596911  0.04233617  1
  Te2-  Te195  1  0.66267283  0.57931330  0.04269935  1
  Te2-  Te196  1  0.42260769  0.34137456  0.04159906  1
  Te2-  Te197  1  0.41892463  0.83648426  0.04073694  1
  Te2-  Te198  1  0.92052363  0.34033311  0.04222710  1
  Te2-  Te199  1  0.91707359  0.83781028  0.04366187  1
  Te2-  Te200  1  0.41908629  0.07561391  0.04064519  1
  Te2-  Te201  1  0.41967280  0.58031360  0.04189287  1
  Te2-  Te202  1  0.91717281  0.07629668  0.04415057  1
  Te2-  Te203  1  0.91733867  0.57657762  0.04163149  1
  Te2-  Te204  1  0.49473751  0.24685334  0.37874710  1
  Te2-  Te205  1  0.49735314  0.75028998  0.37527157  1
  Te2-  Te206  1  0.99426819  0.24869370  0.37957014  1
  Te2-  Te207  1  0.99527118  0.74591439  0.37542035  1
  Te2-  Te208  1  0.25818695  0.00780330  0.37698877  1
  Te2-  Te209  1  0.25297853  0.50588212  0.37791814  1
  Te2-  Te210  1  0.75483549  0.00798767  0.37778412  1
  Te2-  Te211  1  0.75450703  0.50573600  0.37684499  1
  Te2-  Te212  1  0.25858462  0.25046242  0.37856277  1
  Te2-  Te213  1  0.25456932  0.74883106  0.37675837  1
  Te2-  Te214  1  0.75354361  0.24958964  0.38169156  1
  Te2-  Te215  1  0.75519795  0.74950735  0.37482659  1
