# generated using pymatgen
data_Ti(CuTe)4
_symmetry_space_group_name_H-M   'P 1'
_cell_length_a   16.86480107
_cell_length_b   16.86604905
_cell_length_c   20.67410104
_cell_angle_alpha   89.97597730
_cell_angle_beta   90.01516134
_cell_angle_gamma   120.00984766
_symmetry_Int_Tables_number   1
_chemical_formula_structural   Ti(CuTe)4
_chemical_formula_sum   'Ti24 Cu96 Te96'
_cell_volume   5092.23813203
_cell_formula_units_Z   24
loop_
 _symmetry_equiv_pos_site_id
 _symmetry_equiv_pos_as_xyz
  1  'x, y, z'
loop_
 _atom_type_symbol
 _atom_type_oxidation_number
  Ti4+  4.0
  Cu+  1.0
  Te2-  -2.0
loop_
 _atom_site_type_symbol
 _atom_site_label
 _atom_site_symmetry_multiplicity
 _atom_site_fract_x
 _atom_site_fract_y
 _atom_site_fract_z
 _atom_site_occupancy
  Ti4+  Ti0  1  0.00556537  0.00322750  0.25523858  1
  Ti4+  Ti1  1  -0.00050953  0.50041420  0.25618353  1
  Ti4+  Ti2  1  0.50383288  0.00101795  0.25581004  1
  Ti4+  Ti3  1  0.50405389  0.50366745  0.26211422  1
  Ti4+  Ti4  1  0.33301560  0.16473670  0.59177471  1
  Ti4+  Ti5  1  0.32971557  0.66283432  0.59098141  1
  Ti4+  Ti6  1  0.83317482  0.16412188  0.59065785  1
  Ti4+  Ti7  1  0.83061774  0.66112106  0.59344103  1
  Ti4+  Ti8  1  0.16668419  0.33601603  0.92458135  1
  Ti4+  Ti9  1  0.16604822  0.83641938  0.92323830  1
  Ti4+  Ti10  1  0.66489628  0.33648234  0.92672186  1
  Ti4+  Ti11  1  0.66336225  0.83176416  0.92379429  1
  Ti4+  Ti12  1  -0.00045337  -0.00295381  0.75416223  1
  Ti4+  Ti13  1  -0.00145856  0.49827439  0.75731028  1
  Ti4+  Ti14  1  0.49810640  -0.00078342  0.75557446  1
  Ti4+  Ti15  1  0.49914524  0.49996224  0.75597681  1
  Ti4+  Ti16  1  0.33237218  0.16705956  0.08843487  1
  Ti4+  Ti17  1  0.33495345  0.66868932  0.09015086  1
  Ti4+  Ti18  1  0.83330566  0.16772551  0.08504142  1
  Ti4+  Ti19  1  0.83374240  0.66707092  0.08996520  1
  Ti4+  Ti20  1  0.16834918  0.33449591  0.42112400  1
  Ti4+  Ti21  1  0.16677440  0.83091932  0.42362394  1
  Ti4+  Ti22  1  0.66806287  0.33447032  0.42299320  1
  Ti4+  Ti23  1  0.66787921  0.83318208  0.42223059  1
  Cu+  Cu24  1  0.40299035  0.59532455  0.80692071  1
  Cu+  Cu25  1  0.57069000  0.64812503  0.47920241  1
  Cu+  Cu26  1  0.90898097  0.59506108  0.81156239  1
  Cu+  Cu27  1  0.06652815  0.63588646  0.47435422  1
  Cu+  Cu28  1  0.40546539  0.09896740  0.80686763  1
  Cu+  Cu29  1  0.74139480  0.49006899  0.15093694  1
  Cu+  Cu30  1  0.73999965  0.25568378  0.14132058  1
  Cu+  Cu31  1  0.52888349  0.76307505  0.14072313  1
  Cu+  Cu32  1  0.67758527  0.59312968  0.81432369  1
  Cu+  Cu33  1  0.02551450  0.76231300  0.13959964  1
  Cu+  Cu34  1  0.02394938  0.26321269  0.13852190  1
  Cu+  Cu35  1  0.57258263  0.41950171  0.48223472  1
  Cu+  Cu36  1  0.16348033  0.08219881  0.16816168  1
  Cu+  Cu37  1  0.16339397  0.58487628  0.17019469  1
  Cu+  Cu38  1  0.66037898  0.08218483  0.16601948  1
  Cu+  Cu39  1  0.66006242  0.58063139  0.17404459  1
  Cu+  Cu40  1  0.41964514  0.33431725  0.17387021  1
  Cu+  Cu41  1  0.42553462  0.83599612  0.17023419  1
  Cu+  Cu42  1  0.91895128  0.33549107  0.16616175  1
  Cu+  Cu43  1  0.92595595  0.83778828  0.16979132  1
  Cu+  Cu44  1  0.41854161  0.08236273  0.16922847  1
  Cu+  Cu45  1  0.42443137  0.59089769  0.17472836  1
  Cu+  Cu46  1  0.92460685  0.08728603  0.16705480  1
  Cu+  Cu47  1  0.92042422  0.58462257  0.16933574  1
  Cu+  Cu48  1  0.49595132  0.24690181  0.50623898  1
  Cu+  Cu49  1  0.49605161  0.74556673  0.50532254  1
  Cu+  Cu50  1  0.99733600  0.24762978  0.50392336  1
  Cu+  Cu51  1  0.99800442  0.74089676  0.50656595  1
  Cu+  Cu52  1  0.25443583  0.00187558  0.50654470  1
  Cu+  Cu53  1  0.25119944  0.50251395  0.50303892  1
  Cu+  Cu54  1  0.75354559  0.00448274  0.50411163  1
  Cu+  Cu55  1  0.74938972  0.50242804  0.50513469  1
  Cu+  Cu56  1  0.24985208  0.24615908  0.50405021  1
  Cu+  Cu57  1  0.24343665  0.74049166  0.50423112  1
  Cu+  Cu58  1  0.75207601  0.24532644  0.50522119  1
  Cu+  Cu59  1  0.74581354  0.74341924  0.50477158  1
  Cu+  Cu60  1  0.32950736  0.42167439  0.83771156  1
  Cu+  Cu61  1  0.33052099  0.92184371  0.83640029  1
  Cu+  Cu62  1  0.83068147  0.42048584  0.84015575  1
  Cu+  Cu63  1  0.83075988  0.91562622  0.83622486  1
  Cu+  Cu64  1  0.08390233  0.16777982  0.83843694  1
  Cu+  Cu65  1  0.08175527  0.66966105  0.83841780  1
  Cu+  Cu66  1  0.57908523  0.16809078  0.83954590  1
  Cu+  Cu67  1  0.58023908  0.67103193  0.83690542  1
  Cu+  Cu68  1  0.08434505  0.41353714  0.83914742  1
  Cu+  Cu69  1  0.08461095  0.91393511  0.83491793  1
  Cu+  Cu70  1  0.58924931  0.41840337  0.83680002  1
  Cu+  Cu71  1  0.58006744  0.91106665  0.83700486  1
  Cu+  Cu72  1  0.16708590  0.08046064  0.67380441  1
  Cu+  Cu73  1  0.16561879  0.57999122  0.67614350  1
  Cu+  Cu74  1  0.66988494  0.08221194  0.67366582  1
  Cu+  Cu75  1  0.66607349  0.58075283  0.68441967  1
  Cu+  Cu76  1  0.41499548  0.32988828  0.67663892  1
  Cu+  Cu77  1  0.41436328  0.82913791  0.67212267  1
  Cu+  Cu78  1  0.91456272  0.32616487  0.67453478  1
  Cu+  Cu79  1  0.91509187  0.82818917  0.67417166  1
  Cu+  Cu80  1  0.41539868  0.08594900  0.67842452  1
  Cu+  Cu81  1  0.41428807  0.58407502  0.67976563  1
  Cu+  Cu82  1  0.91462861  0.08231033  0.67264467  1
  Cu+  Cu83  1  0.91311148  0.57989500  0.68184169  1
  Cu+  Cu84  1  0.00427422  0.25243799  0.01029783  1
  Cu+  Cu85  1  0.00310975  0.75232570  0.01193010  1
  Cu+  Cu86  1  0.49907770  0.25154143  0.00891662  1
  Cu+  Cu87  1  0.50290612  0.75039347  0.01280526  1
  Cu+  Cu88  1  0.24955226  0.50096987  0.00965950  1
  Cu+  Cu89  1  0.24847211  1.00090365  0.00728826  1
  Cu+  Cu90  1  0.74807121  0.49983122  0.01907066  1
  Cu+  Cu91  1  0.74708922  0.99783695  0.00488123  1
  Cu+  Cu92  1  0.24921758  0.25325542  0.00700994  1
  Cu+  Cu93  1  0.24809360  0.75242905  0.00507296  1
  Cu+  Cu94  1  0.74622157  0.25244041  0.01177029  1
  Cu+  Cu95  1  0.74613531  0.74824326  0.00873638  1
  Cu+  Cu96  1  0.33702016  0.41998659  0.34319842  1
  Cu+  Cu97  1  0.33879716  0.91816898  0.33873448  1
  Cu+  Cu98  1  0.83366199  0.41670200  0.34215734  1
  Cu+  Cu99  1  0.84101941  0.92117560  0.33762524  1
  Cu+  Cu100  1  0.08538506  0.16737707  0.33976938  1
  Cu+  Cu101  1  0.08108825  0.66393174  0.34617313  1
  Cu+  Cu102  1  0.58435615  0.16533403  0.34085938  1
  Cu+  Cu103  1  0.58547989  0.66616160  0.34948863  1
  Cu+  Cu104  1  0.08480245  0.41778730  0.34036335  1
  Cu+  Cu105  1  0.08594863  0.91906042  0.34127165  1
  Cu+  Cu106  1  0.58582640  0.41997140  0.35183216  1
  Cu+  Cu107  1  0.58533804  0.91921707  0.34021652  1
  Cu+  Cu108  1  -0.00301328  -0.00121211  0.11020100  1
  Cu+  Cu109  1  0.00169502  0.49987952  0.11075507  1
  Cu+  Cu110  1  0.49216213  -0.00336183  0.11129278  1
  Cu+  Cu111  1  0.48987389  0.49498677  0.12011833  1
  Cu+  Cu112  1  0.33040436  0.16336629  0.44849429  1
  Cu+  Cu113  1  0.33476765  0.67044245  0.44670109  1
  Cu+  Cu114  1  0.83605088  0.16749917  0.44663367  1
  Cu+  Cu115  1  0.83809209  0.67356709  0.44976305  1
  Cu+  Cu116  1  0.16433138  0.32733741  0.78191198  1
  Cu+  Cu117  1  0.16896352  0.83063614  0.77873234  1
  Cu+  Cu118  1  0.66909784  0.32758697  0.78366596  1
  Cu+  Cu119  1  0.67017614  0.83945701  0.77975130  1
  Te2-  Te120  1  0.00440816  0.00267112  0.38423478  1
  Te2-  Te121  1  -0.00137308  0.49606947  0.38622741  1
  Te2-  Te122  1  0.50244333  0.00053016  0.38486500  1
  Te2-  Te123  1  0.49929347  0.50014773  0.39411232  1
  Te2-  Te124  1  0.32975716  0.16646016  0.72245912  1
  Te2-  Te125  1  0.32991522  0.66703141  0.72140269  1
  Te2-  Te126  1  0.83270131  0.16282275  0.72031105  1
  Te2-  Te127  1  0.83291015  0.66627654  0.72535684  1
  Te2-  Te128  1  0.17012703  0.33704503  0.05512044  1
  Te2-  Te129  1  0.17020114  0.83691938  0.05361897  1
  Te2-  Te130  1  0.66196836  0.33295955  0.05861207  1
  Te2-  Te131  1  0.66996595  0.83562573  0.05437395  1
  Te2-  Te132  1  0.49246042  0.25262012  0.88347722  1
  Te2-  Te133  1  0.48872356  0.74644827  0.88540459  1
  Te2-  Te134  1  0.99500054  0.24675147  0.88314573  1
  Te2-  Te135  1  0.99186648  0.75012484  0.88456808  1
  Te2-  Te136  1  0.24995838  0.01015884  0.88153431  1
  Te2-  Te137  1  0.25055791  0.51087572  0.88405930  1
  Te2-  Te138  1  0.74863960  0.00186785  0.87901526  1
  Te2-  Te139  1  0.75464060  0.51291075  0.88927176  1
  Te2-  Te140  1  0.25373358  0.25272833  0.88087558  1
  Te2-  Te141  1  0.25147096  0.75201806  0.87917013  1
  Te2-  Te142  1  0.74879937  0.25102948  0.88370881  1
  Te2-  Te143  1  0.75301681  0.74860724  0.88283066  1
  Te2-  Te144  1  0.33540926  0.42015752  0.21667725  1
  Te2-  Te145  1  0.33340058  0.91380976  0.21241940  1
  Te2-  Te146  1  0.82475823  0.41200517  0.21555085  1
  Te2-  Te147  1  0.83538494  0.91771788  0.21120505  1
  Te2-  Te148  1  0.09296541  0.17762673  0.21394943  1
  Te2-  Te149  1  0.08813602  0.67453444  0.21833466  1
  Te2-  Te150  1  0.58546320  0.17499634  0.21494062  1
  Te2-  Te151  1  0.59306454  0.67737171  0.22193908  1
  Te2-  Te152  1  0.08837011  0.41696116  0.21407674  1
  Te2-  Te153  1  0.09445463  0.91696413  0.21527903  1
  Te2-  Te154  1  0.58553327  0.41173930  0.22315015  1
  Te2-  Te155  1  0.59495715  0.91786521  0.21450398  1
  Te2-  Te156  1  0.16221695  0.07850527  0.54783427  1
  Te2-  Te157  1  0.15548902  0.57189365  0.55009572  1
  Te2-  Te158  1  0.66052280  0.07807761  0.54815913  1
  Te2-  Te159  1  0.65485549  0.57576445  0.55534914  1
  Te2-  Te160  1  0.41593469  0.33854146  0.55095305  1
  Te2-  Te161  1  0.41368576  0.83247760  0.54624992  1
  Te2-  Te162  1  0.91915825  0.33656561  0.54880932  1
  Te2-  Te163  1  0.91550963  0.82959637  0.54785734  1
  Te2-  Te164  1  0.42104956  0.08058212  0.55148165  1
  Te2-  Te165  1  0.41585641  0.57502452  0.55228287  1
  Te2-  Te166  1  0.92063682  0.07978712  0.54710970  1
  Te2-  Te167  1  0.91464455  0.57188008  0.55370083  1
  Te2-  Te168  1  -0.00056224  -0.00129970  0.88082208  1
  Te2-  Te169  1  0.00092065  0.50037420  0.88442842  1
  Te2-  Te170  1  0.49869912  -0.00125782  0.88280938  1
  Te2-  Te171  1  0.49962332  0.50012250  0.88358344  1
  Te2-  Te172  1  0.33267239  0.16447187  0.21506219  1
  Te2-  Te173  1  0.33231097  0.66820670  0.21726878  1
  Te2-  Te174  1  0.83272582  0.16545560  0.21260570  1
  Te2-  Te175  1  0.83399812  0.66822759  0.21757416  1
  Te2-  Te176  1  0.16614787  0.33196955  0.54755973  1
  Te2-  Te177  1  0.16714190  0.83223284  0.55074626  1
  Te2-  Te178  1  0.66721510  0.33069617  0.54993427  1
  Te2-  Te179  1  0.66667634  0.83439666  0.54934876  1
  Te2-  Te180  1  0.32588281  0.41146677  0.71081896  1
  Te2-  Te181  1  0.32696491  0.91204825  0.70828904  1
  Te2-  Te182  1  0.82602451  0.40767540  0.71243531  1
  Te2-  Te183  1  0.82782421  0.91180945  0.70900439  1
  Te2-  Te184  1  0.08468444  0.16871430  0.71046755  1
  Te2-  Te185  1  0.08610895  0.67065221  0.71029153  1
  Te2-  Te186  1  0.58816982  0.17117545  0.71097883  1
  Te2-  Te187  1  0.58663754  0.67508204  0.70955954  1
  Te2-  Te188  1  0.08376489  0.41086389  0.71322444  1
  Te2-  Te189  1  0.08550770  0.91012875  0.70906998  1
  Te2-  Te190  1  0.58397855  0.40859114  0.71171908  1
  Te2-  Te191  1  0.58333107  0.91223637  0.71034817  1
  Te2-  Te192  1  0.16025551  0.08272655  0.04250039  1
  Te2-  Te193  1  0.16250984  0.58401540  0.04422194  1
  Te2-  Te194  1  0.65873977  0.07910187  0.03989699  1
  Te2-  Te195  1  0.65721493  0.58107949  0.04778852  1
  Te2-  Te196  1  0.41863628  0.34021934  0.04619058  1
  Te2-  Te197  1  0.41807963  0.83930931  0.04193056  1
  Te2-  Te198  1  0.92006444  0.34180820  0.03874315  1
  Te2-  Te199  1  0.91710674  0.83865504  0.04237969  1
  Te2-  Te200  1  0.41866376  0.08142429  0.04219568  1
  Te2-  Te201  1  0.41894716  0.57926670  0.04636010  1
  Te2-  Te202  1  0.91764266  0.07932854  0.03943247  1
  Te2-  Te203  1  0.92173182  0.58063115  0.04231247  1
  Te2-  Te204  1  0.49467890  0.24527518  0.37856228  1
  Te2-  Te205  1  0.49495259  0.74930654  0.37698829  1
  Te2-  Te206  1  0.99632165  0.24797938  0.37638102  1
  Te2-  Te207  1  0.99465179  0.74919408  0.37808853  1
  Te2-  Te208  1  0.25521247  0.00314367  0.37919673  1
  Te2-  Te209  1  0.25446642  0.50805601  0.37702877  1
  Te2-  Te210  1  0.75536818  0.00478754  0.37711813  1
  Te2-  Te211  1  0.75854941  0.51004178  0.37913249  1
  Te2-  Te212  1  0.25528558  0.24878854  0.37725729  1
  Te2-  Te213  1  0.25462201  0.74797526  0.37601542  1
  Te2-  Te214  1  0.75327487  0.24730869  0.37823459  1
  Te2-  Te215  1  0.75892444  0.75156651  0.37710595  1
