# generated using pymatgen
data_Ti(CuTe)4
_symmetry_space_group_name_H-M   'P 1'
_cell_length_a   16.87636174
_cell_length_b   16.87554108
_cell_length_c   20.68962792
_cell_angle_alpha   89.99840259
_cell_angle_beta   89.96171213
_cell_angle_gamma   119.99029915
_symmetry_Int_Tables_number   1
_chemical_formula_structural   Ti(CuTe)4
_chemical_formula_sum   'Ti24 Cu96 Te96'
_cell_volume   5103.42990861
_cell_formula_units_Z   24
loop_
 _symmetry_equiv_pos_site_id
 _symmetry_equiv_pos_as_xyz
  1  'x, y, z'
loop_
 _atom_type_symbol
 _atom_type_oxidation_number
  Ti4+  4.0
  Cu+  1.0
  Te2-  -2.0
loop_
 _atom_site_type_symbol
 _atom_site_label
 _atom_site_symmetry_multiplicity
 _atom_site_fract_x
 _atom_site_fract_y
 _atom_site_fract_z
 _atom_site_occupancy
  Ti4+  Ti0  1  0.00185154  0.00083017  0.25635631  1
  Ti4+  Ti1  1  0.00137834  0.50017665  0.25938588  1
  Ti4+  Ti2  1  0.50174725  -0.00177888  0.25730879  1
  Ti4+  Ti3  1  0.50300730  0.50100793  0.26067953  1
  Ti4+  Ti4  1  0.33250971  0.16498783  0.58986226  1
  Ti4+  Ti5  1  0.33325419  0.66603733  0.59582364  1
  Ti4+  Ti6  1  0.83307272  0.16821662  0.59025854  1
  Ti4+  Ti7  1  0.82919252  0.66251858  0.59054106  1
  Ti4+  Ti8  1  0.16449756  0.33229111  0.92178516  1
  Ti4+  Ti9  1  0.16777107  0.83533965  0.92087551  1
  Ti4+  Ti10  1  0.66778164  0.33813734  0.92841479  1
  Ti4+  Ti11  1  0.66764656  0.83494572  0.92288917  1
  Ti4+  Ti12  1  -0.00081439  0.00080979  0.75287025  1
  Ti4+  Ti13  1  -0.00140393  0.49934441  0.75426118  1
  Ti4+  Ti14  1  0.49741830  -0.00190842  0.75404241  1
  Ti4+  Ti15  1  0.50127813  0.49951745  0.75633391  1
  Ti4+  Ti16  1  0.33309175  0.16743773  0.08798484  1
  Ti4+  Ti17  1  0.33537649  0.66815061  0.09116147  1
  Ti4+  Ti18  1  0.83240038  0.16706815  0.08786314  1
  Ti4+  Ti19  1  0.83252687  0.66654673  0.08906198  1
  Ti4+  Ti20  1  0.16684643  0.33279371  0.42277193  1
  Ti4+  Ti21  1  0.16697851  0.83309554  0.42273810  1
  Ti4+  Ti22  1  0.66812649  0.33424141  0.42106693  1
  Ti4+  Ti23  1  0.66549806  0.83137387  0.42428941  1
  Cu+  Cu24  1  0.57363257  0.41886253  0.48008234  1
  Cu+  Cu25  1  0.18935022  0.09711423  0.80370068  1
  Cu+  Cu26  1  0.41039649  0.82094171  0.81325872  1
  Cu+  Cu27  1  0.56563465  0.64538251  0.47794642  1
  Cu+  Cu28  1  0.52984665  0.76272651  0.14150366  1
  Cu+  Cu29  1  0.85609314  0.42837864  0.47343014  1
  Cu+  Cu30  1  0.74572210  0.48553739  0.14936773  1
  Cu+  Cu31  1  0.17657202  0.58839129  0.81307441  1
  Cu+  Cu32  1  0.69183228  0.59602833  0.80924981  1
  Cu+  Cu33  1  0.41408579  0.58755919  0.81773823  1
  Cu+  Cu34  1  0.90444703  0.09656380  0.80382381  1
  Cu+  Cu35  1  0.51764171  0.25475938  0.14447914  1
  Cu+  Cu36  1  0.16089819  0.08032243  0.16973317  1
  Cu+  Cu37  1  0.16452867  0.58190931  0.17404957  1
  Cu+  Cu38  1  0.66248286  0.07917900  0.16927057  1
  Cu+  Cu39  1  0.66289336  0.57924078  0.17206662  1
  Cu+  Cu40  1  0.42091932  0.33447345  0.17161525  1
  Cu+  Cu41  1  0.42478697  0.83524801  0.17132555  1
  Cu+  Cu42  1  0.91980507  0.33616714  0.17161624  1
  Cu+  Cu43  1  0.92064778  0.83836047  0.17059960  1
  Cu+  Cu44  1  0.41879510  0.08164819  0.17071288  1
  Cu+  Cu45  1  0.42418101  0.58867375  0.17405499  1
  Cu+  Cu46  1  0.91909028  0.08262772  0.17039613  1
  Cu+  Cu47  1  0.91886996  0.58089190  0.17238165  1
  Cu+  Cu48  1  0.49332646  0.24662346  0.50304767  1
  Cu+  Cu49  1  0.49502750  0.74547639  0.50886777  1
  Cu+  Cu50  1  0.99655250  0.24767874  0.50439749  1
  Cu+  Cu51  1  0.99670158  0.74765324  0.50371033  1
  Cu+  Cu52  1  0.25088014  0.00168837  0.50449779  1
  Cu+  Cu53  1  0.25015047  0.50115201  0.50727520  1
  Cu+  Cu54  1  0.75056609  0.00315655  0.50643826  1
  Cu+  Cu55  1  0.75117461  0.50281676  0.50190583  1
  Cu+  Cu56  1  0.24961898  0.24647090  0.50385003  1
  Cu+  Cu57  1  0.25194323  0.74975633  0.50851988  1
  Cu+  Cu58  1  0.75640249  0.25321869  0.50278221  1
  Cu+  Cu59  1  0.74223391  0.74144833  0.50418495  1
  Cu+  Cu60  1  0.32711748  0.41365997  0.83502076  1
  Cu+  Cu61  1  0.32660799  0.91241401  0.83267291  1
  Cu+  Cu62  1  0.82886046  0.41925319  0.83953924  1
  Cu+  Cu63  1  0.83001962  0.92085706  0.83400002  1
  Cu+  Cu64  1  0.08266440  0.16862170  0.83386954  1
  Cu+  Cu65  1  0.08442829  0.67067593  0.83394468  1
  Cu+  Cu66  1  0.58095748  0.16864485  0.84048191  1
  Cu+  Cu67  1  0.58974109  0.67099550  0.83600567  1
  Cu+  Cu68  1  0.08448630  0.41466668  0.83402513  1
  Cu+  Cu69  1  0.08947885  0.92075764  0.83340529  1
  Cu+  Cu70  1  0.59160395  0.42128266  0.84010126  1
  Cu+  Cu71  1  0.58394535  0.91456525  0.83435900  1
  Cu+  Cu72  1  0.17021544  0.08404148  0.67570019  1
  Cu+  Cu73  1  0.16851703  0.58405151  0.68129484  1
  Cu+  Cu74  1  0.66728933  0.08582901  0.67251872  1
  Cu+  Cu75  1  0.66807220  0.58043401  0.68127779  1
  Cu+  Cu76  1  0.41702228  0.32992493  0.67489299  1
  Cu+  Cu77  1  0.41487504  0.82958057  0.68138615  1
  Cu+  Cu78  1  0.91267653  0.33197773  0.67462645  1
  Cu+  Cu79  1  0.91146744  0.82807222  0.67170051  1
  Cu+  Cu80  1  0.41501412  0.08326828  0.67240412  1
  Cu+  Cu81  1  0.41587182  0.58272073  0.68427095  1
  Cu+  Cu82  1  0.91212657  0.08506521  0.67655085  1
  Cu+  Cu83  1  0.91146460  0.57967968  0.67443107  1
  Cu+  Cu84  1  -0.00043590  0.25064789  0.00615102  1
  Cu+  Cu85  1  0.00314250  0.75224643  0.00419582  1
  Cu+  Cu86  1  0.50351101  0.25576861  0.01425824  1
  Cu+  Cu87  1  0.50235794  0.75065475  0.01382870  1
  Cu+  Cu88  1  0.24825316  0.49890090  0.01030977  1
  Cu+  Cu89  1  0.24900796  0.99976927  0.00488003  1
  Cu+  Cu90  1  0.74779904  0.50038031  0.01763821  1
  Cu+  Cu91  1  0.74822523  1.00068288  0.00740659  1
  Cu+  Cu92  1  0.24633423  0.24983881  0.00657200  1
  Cu+  Cu93  1  0.24861984  0.75072986  0.00906288  1
  Cu+  Cu94  1  0.74888341  0.25263253  0.00977598  1
  Cu+  Cu95  1  0.74963592  0.75088053  0.00758270  1
  Cu+  Cu96  1  0.33528748  0.41798972  0.34278261  1
  Cu+  Cu97  1  0.33711514  0.91688057  0.33950264  1
  Cu+  Cu98  1  0.83829184  0.41879801  0.34631495  1
  Cu+  Cu99  1  0.83866912  0.91955947  0.33998028  1
  Cu+  Cu100  1  0.08261965  0.16401085  0.33928707  1
  Cu+  Cu101  1  0.08372610  0.66510909  0.34244856  1
  Cu+  Cu102  1  0.58191034  0.16260163  0.34184715  1
  Cu+  Cu103  1  0.58225723  0.66457032  0.34903349  1
  Cu+  Cu104  1  0.08345109  0.41727308  0.34320677  1
  Cu+  Cu105  1  0.08297303  0.91896372  0.33947704  1
  Cu+  Cu106  1  0.58374315  0.41724646  0.35039950  1
  Cu+  Cu107  1  0.58222400  0.91569028  0.34343567  1
  Cu+  Cu108  1  -0.00263861  -0.00027285  0.11219298  1
  Cu+  Cu109  1  0.00327698  0.50103490  0.11601769  1
  Cu+  Cu110  1  0.49620875  -0.00158417  0.11261717  1
  Cu+  Cu111  1  0.49377556  0.49772881  0.11719435  1
  Cu+  Cu112  1  0.32749538  0.16207037  0.44642300  1
  Cu+  Cu113  1  0.32869631  0.66505881  0.45272856  1
  Cu+  Cu114  1  0.83323818  0.16330227  0.44732440  1
  Cu+  Cu115  1  0.83731343  0.67367083  0.44682375  1
  Cu+  Cu116  1  0.16413765  0.33077187  0.77553625  1
  Cu+  Cu117  1  0.16051068  0.83186426  0.77442468  1
  Cu+  Cu118  1  0.66516143  0.32763597  0.78544739  1
  Cu+  Cu119  1  0.66817345  0.83510404  0.77674330  1
  Te2-  Te120  1  0.00176724  0.00086902  0.38582627  1
  Te2-  Te121  1  0.00450861  0.50200781  0.38996932  1
  Te2-  Te122  1  0.50013163  -0.00144887  0.38634756  1
  Te2-  Te123  1  0.49787364  0.49795774  0.39252271  1
  Te2-  Te124  1  0.33565475  0.16641610  0.72062967  1
  Te2-  Te125  1  0.33313038  0.66528687  0.72904199  1
  Te2-  Te126  1  0.82966508  0.16849583  0.72098740  1
  Te2-  Te127  1  0.83504547  0.66640264  0.72118798  1
  Te2-  Te128  1  0.16436303  0.33258265  0.05021858  1
  Te2-  Te129  1  0.16729530  0.83531744  0.04945086  1
  Te2-  Te130  1  0.66846687  0.33450118  0.06058649  1
  Te2-  Te131  1  0.67040736  0.83604300  0.05289757  1
  Te2-  Te132  1  0.49772558  0.25350722  0.88623881  1
  Te2-  Te133  1  0.49242852  0.74563342  0.88553550  1
  Te2-  Te134  1  0.99181147  0.24840511  0.88003184  1
  Te2-  Te135  1  0.99773189  0.75165521  0.87790571  1
  Te2-  Te136  1  0.25778111  0.00922098  0.87917815  1
  Te2-  Te137  1  0.25363887  0.50896592  0.88407914  1
  Te2-  Te138  1  0.74944137  0.00791923  0.88138187  1
  Te2-  Te139  1  0.75846147  0.51304406  0.88915309  1
  Te2-  Te140  1  0.25309568  0.24774042  0.88060175  1
  Te2-  Te141  1  0.25406345  0.74476577  0.88305710  1
  Te2-  Te142  1  0.75031779  0.25110201  0.88365569  1
  Te2-  Te143  1  0.75843418  0.75310886  0.88147174  1
  Te2-  Te144  1  0.33457085  0.41766662  0.21615807  1
  Te2-  Te145  1  0.33202124  0.91267461  0.21317503  1
  Te2-  Te146  1  0.82758518  0.41017816  0.21897354  1
  Te2-  Te147  1  0.82972680  0.91479101  0.21421416  1
  Te2-  Te148  1  0.08682246  0.17300504  0.21370989  1
  Te2-  Te149  1  0.08607554  0.67127548  0.21671788  1
  Te2-  Te150  1  0.58982398  0.17217029  0.21607796  1
  Te2-  Te151  1  0.59262835  0.67428914  0.22103784  1
  Te2-  Te152  1  0.08648711  0.41409977  0.21719631  1
  Te2-  Te153  1  0.08761984  0.91391745  0.21407353  1
  Te2-  Te154  1  0.58876273  0.41105425  0.22154707  1
  Te2-  Te155  1  0.59283520  0.91432966  0.21728089  1
  Te2-  Te156  1  0.16128058  0.07968227  0.54846176  1
  Te2-  Te157  1  0.16368752  0.58176227  0.55322548  1
  Te2-  Te158  1  0.66252354  0.08484200  0.54686181  1
  Te2-  Te159  1  0.65316914  0.57384122  0.55297858  1
  Te2-  Te160  1  0.41646242  0.33945605  0.54949097  1
  Te2-  Te161  1  0.41897889  0.83624898  0.55387563  1
  Te2-  Te162  1  0.92424595  0.34273271  0.54914403  1
  Te2-  Te163  1  0.91189871  0.83184611  0.54586957  1
  Te2-  Te164  1  0.41903299  0.08023882  0.54720059  1
  Te2-  Te165  1  0.41586506  0.57540679  0.55556223  1
  Te2-  Te166  1  0.91801629  0.08116008  0.54971291  1
  Te2-  Te167  1  0.91961756  0.58014107  0.54880145  1
  Te2-  Te168  1  -0.00068785  -0.00057604  0.88044225  1
  Te2-  Te169  1  0.00029708  0.50116144  0.88158820  1
  Te2-  Te170  1  0.49697446  -0.00188129  0.88155299  1
  Te2-  Te171  1  0.49830427  0.49977706  0.88412890  1
  Te2-  Te172  1  0.33086837  0.16389777  0.21496686  1
  Te2-  Te173  1  0.33348089  0.66688783  0.21806219  1
  Te2-  Te174  1  0.83302639  0.16558612  0.21398330  1
  Te2-  Te175  1  0.83516831  0.66840834  0.21597786  1
  Te2-  Te176  1  0.16529845  0.33087541  0.54919672  1
  Te2-  Te177  1  0.16480614  0.83317750  0.54918948  1
  Te2-  Te178  1  0.66447128  0.33163929  0.54863725  1
  Te2-  Te179  1  0.66610540  0.83396703  0.55133288  1
  Te2-  Te180  1  0.32718217  0.40985847  0.70962456  1
  Te2-  Te181  1  0.32439576  0.91313741  0.70691675  1
  Te2-  Te182  1  0.82445019  0.41220343  0.71306753  1
  Te2-  Te183  1  0.82602894  0.91231103  0.70715187  1
  Te2-  Te184  1  0.08584839  0.17305817  0.70571105  1
  Te2-  Te185  1  0.08263856  0.67172658  0.70701017  1
  Te2-  Te186  1  0.58360679  0.17069530  0.71232085  1
  Te2-  Te187  1  0.58853611  0.67398676  0.70887999  1
  Te2-  Te188  1  0.08347061  0.41079871  0.70796370  1
  Te2-  Te189  1  0.08198975  0.91146255  0.70583699  1
  Te2-  Te190  1  0.58525812  0.40931924  0.71316742  1
  Te2-  Te191  1  0.58836509  0.91571348  0.70799377  1
  Te2-  Te192  1  0.16094536  0.08057686  0.04314831  1
  Te2-  Te193  1  0.16261833  0.58213551  0.04715276  1
  Te2-  Te194  1  0.65925737  0.08143216  0.04348282  1
  Te2-  Te195  1  0.65738930  0.58263577  0.04581988  1
  Te2-  Te196  1  0.41614110  0.34093751  0.04414765  1
  Te2-  Te197  1  0.41880990  0.83978826  0.04382042  1
  Te2-  Te198  1  0.91958947  0.34006215  0.04480495  1
  Te2-  Te199  1  0.91971297  0.83789274  0.04351190  1
  Te2-  Te200  1  0.41900885  0.08126044  0.04229162  1
  Te2-  Te201  1  0.41831497  0.57872795  0.04572742  1
  Te2-  Te202  1  0.91827976  0.08110942  0.04288286  1
  Te2-  Te203  1  0.92240260  0.58348951  0.04448328  1
  Te2-  Te204  1  0.49330858  0.24385245  0.37651069  1
  Te2-  Te205  1  0.49159382  0.74620158  0.38098788  1
  Te2-  Te206  1  0.99540396  0.24653431  0.37787255  1
  Te2-  Te207  1  0.99611040  0.74854014  0.37680315  1
  Te2-  Te208  1  0.25307375  0.00356734  0.37677925  1
  Te2-  Te209  1  0.25365353  0.50603411  0.38009587  1
  Te2-  Te210  1  0.75260600  0.00263159  0.37931450  1
  Te2-  Te211  1  0.75681434  0.51007423  0.37552372  1
  Te2-  Te212  1  0.25254216  0.24705255  0.37697317  1
  Te2-  Te213  1  0.25376225  0.74761001  0.38020321  1
  Te2-  Te214  1  0.75261766  0.24546269  0.37628528  1
  Te2-  Te215  1  0.75554122  0.74963033  0.37713716  1
