# generated using pymatgen
data_Ti(CuTe)4
_symmetry_space_group_name_H-M   'P 1'
_cell_length_a   16.85483027
_cell_length_b   16.86114128
_cell_length_c   20.66414720
_cell_angle_alpha   89.97853441
_cell_angle_beta   90.08031649
_cell_angle_gamma   120.01795150
_symmetry_Int_Tables_number   1
_chemical_formula_structural   Ti(CuTe)4
_chemical_formula_sum   'Ti24 Cu96 Te96'
_cell_volume   5084.87666468
_cell_formula_units_Z   24
loop_
 _symmetry_equiv_pos_site_id
 _symmetry_equiv_pos_as_xyz
  1  'x, y, z'
loop_
 _atom_type_symbol
 _atom_type_oxidation_number
  Ti4+  4.0
  Cu+  1.0
  Te2-  -2.0
loop_
 _atom_site_type_symbol
 _atom_site_label
 _atom_site_symmetry_multiplicity
 _atom_site_fract_x
 _atom_site_fract_y
 _atom_site_fract_z
 _atom_site_occupancy
  Ti4+  Ti0  1  0.00178380  -0.00261855  0.25813318  1
  Ti4+  Ti1  1  0.00122412  0.49766548  0.25593708  1
  Ti4+  Ti2  1  0.50087816  0.00253261  0.25700254  1
  Ti4+  Ti3  1  0.50224417  0.50346280  0.25839389  1
  Ti4+  Ti4  1  0.32962892  0.16530308  0.58890544  1
  Ti4+  Ti5  1  0.33122365  0.66602033  0.58996997  1
  Ti4+  Ti6  1  0.83076886  0.16621012  0.58830737  1
  Ti4+  Ti7  1  0.82908754  0.66367565  0.59167354  1
  Ti4+  Ti8  1  0.16823655  0.33470762  0.92624287  1
  Ti4+  Ti9  1  0.16550260  0.83397984  0.92541706  1
  Ti4+  Ti10  1  0.66894421  0.33551898  0.92578184  1
  Ti4+  Ti11  1  0.66787807  0.83406085  0.92764230  1
  Ti4+  Ti12  1  0.00009697  -0.00028177  0.75666537  1
  Ti4+  Ti13  1  -0.00128212  0.50081312  0.75611878  1
  Ti4+  Ti14  1  0.50092126  -0.00005211  0.75737174  1
  Ti4+  Ti15  1  0.49966090  0.49969672  0.75667144  1
  Ti4+  Ti16  1  0.33473284  0.16413821  0.09091717  1
  Ti4+  Ti17  1  0.33435107  0.66412667  0.08958881  1
  Ti4+  Ti18  1  0.83497427  0.17061292  0.09022801  1
  Ti4+  Ti19  1  0.83429435  0.66997695  0.09095887  1
  Ti4+  Ti20  1  0.16784790  0.33391912  0.42031695  1
  Ti4+  Ti21  1  0.16823203  0.83440148  0.42126799  1
  Ti4+  Ti22  1  0.66796226  0.33348346  0.42098446  1
  Ti4+  Ti23  1  0.66821403  0.83351213  0.42001496  1
  Cu+  Cu24  1  0.23841389  0.47199021  0.14118850  1
  Cu+  Cu25  1  0.06828541  0.14987978  0.47381481  1
  Cu+  Cu26  1  0.57010416  0.42036816  0.47550869  1
  Cu+  Cu27  1  0.06941042  0.42735893  0.47190550  1
  Cu+  Cu28  1  0.23614849  0.97170962  0.14111722  1
  Cu+  Cu29  1  0.73711422  0.76382464  0.14237171  1
  Cu+  Cu30  1  0.06740133  0.91796026  0.47606966  1
  Cu+  Cu31  1  0.90243450  0.59612033  0.80749767  1
  Cu+  Cu32  1  0.56906010  0.14930578  0.47476069  1
  Cu+  Cu33  1  0.56892684  0.91945192  0.47317512  1
  Cu+  Cu34  1  0.73642127  0.26346933  0.14051669  1
  Cu+  Cu35  1  0.57013329  0.65035986  0.47585861  1
  Cu+  Cu36  1  0.16710796  0.07639712  0.17349297  1
  Cu+  Cu37  1  0.16727025  0.57675428  0.17076178  1
  Cu+  Cu38  1  0.66683957  0.08933721  0.17245287  1
  Cu+  Cu39  1  0.66715079  0.58928334  0.17415566  1
  Cu+  Cu40  1  0.42238292  0.33641739  0.17260962  1
  Cu+  Cu41  1  0.42091319  0.83656469  0.17069745  1
  Cu+  Cu42  1  0.91521043  0.33672052  0.16966655  1
  Cu+  Cu43  1  0.91548565  0.83555485  0.17137310  1
  Cu+  Cu44  1  0.41464070  0.07777578  0.17038471  1
  Cu+  Cu45  1  0.41592020  0.57927223  0.17089285  1
  Cu+  Cu46  1  0.92147574  0.08443238  0.17230237  1
  Cu+  Cu47  1  0.92000539  0.58252268  0.17082672  1
  Cu+  Cu48  1  0.49466012  0.24753371  0.50284068  1
  Cu+  Cu49  1  0.49517321  0.74780261  0.50273833  1
  Cu+  Cu50  1  0.99683038  0.25137049  0.50194683  1
  Cu+  Cu51  1  0.99667355  0.74690917  0.50613631  1
  Cu+  Cu52  1  0.24517296  0.00304888  0.49989134  1
  Cu+  Cu53  1  0.24596248  0.50418461  0.50037197  1
  Cu+  Cu54  1  0.74668379  0.00331855  0.49875594  1
  Cu+  Cu55  1  0.74707143  0.50243966  0.50293262  1
  Cu+  Cu56  1  0.24660120  0.24278997  0.49949917  1
  Cu+  Cu57  1  0.25053610  0.74628978  0.50223799  1
  Cu+  Cu58  1  0.74747015  0.24170127  0.49904754  1
  Cu+  Cu59  1  0.74721594  0.74114717  0.50035430  1
  Cu+  Cu60  1  0.33107039  0.41716975  0.84027511  1
  Cu+  Cu61  1  0.33200299  0.91822630  0.84092759  1
  Cu+  Cu62  1  0.83101672  0.41937431  0.83906422  1
  Cu+  Cu63  1  0.83154102  0.91475426  0.84139830  1
  Cu+  Cu64  1  0.08583113  0.17029688  0.83976450  1
  Cu+  Cu65  1  0.08001969  0.66997270  0.83794652  1
  Cu+  Cu66  1  0.58773038  0.16963571  0.84031716  1
  Cu+  Cu67  1  0.58688693  0.66988676  0.84107463  1
  Cu+  Cu68  1  0.08814929  0.41683379  0.83937623  1
  Cu+  Cu69  1  0.08792662  0.91719751  0.83900831  1
  Cu+  Cu70  1  0.58513695  0.41468079  0.83863893  1
  Cu+  Cu71  1  0.58690912  0.91571021  0.84113359  1
  Cu+  Cu72  1  0.16550307  0.08251729  0.67580253  1
  Cu+  Cu73  1  0.16674012  0.58245727  0.67494375  1
  Cu+  Cu74  1  0.66631726  0.08250542  0.67554734  1
  Cu+  Cu75  1  0.66409161  0.58138478  0.67784429  1
  Cu+  Cu76  1  0.41423968  0.33122084  0.67440493  1
  Cu+  Cu77  1  0.41638462  0.83152066  0.67611139  1
  Cu+  Cu78  1  0.91684755  0.33197349  0.67355632  1
  Cu+  Cu79  1  0.91645413  0.83244323  0.67659967  1
  Cu+  Cu80  1  0.41602619  0.08452687  0.67454495  1
  Cu+  Cu81  1  0.41580183  0.58463090  0.67486841  1
  Cu+  Cu82  1  0.91476078  0.08331767  0.67409138  1
  Cu+  Cu83  1  0.91189347  0.58380275  0.67863874  1
  Cu+  Cu84  1  0.00363497  0.25271882  0.00824428  1
  Cu+  Cu85  1  0.00136792  0.75207155  0.00890358  1
  Cu+  Cu86  1  0.50311220  0.25027698  0.00835830  1
  Cu+  Cu87  1  0.50323982  0.75072433  0.00925814  1
  Cu+  Cu88  1  0.25008137  0.49396755  0.01279680  1
  Cu+  Cu89  1  0.24938120  0.99465125  0.01309367  1
  Cu+  Cu90  1  0.75069039  0.50129154  0.01007271  1
  Cu+  Cu91  1  0.75097259  0.99989915  0.01037692  1
  Cu+  Cu92  1  0.25172300  0.25120576  0.00916957  1
  Cu+  Cu93  1  0.24983775  0.75086516  0.00738518  1
  Cu+  Cu94  1  0.75043138  0.25657181  0.01205811  1
  Cu+  Cu95  1  0.74910983  0.75551655  0.01433640  1
  Cu+  Cu96  1  0.33673485  0.41964575  0.34120924  1
  Cu+  Cu97  1  0.33551148  0.91745153  0.34067351  1
  Cu+  Cu98  1  0.83705059  0.41718958  0.34056214  1
  Cu+  Cu99  1  0.83635898  0.91561913  0.34114592  1
  Cu+  Cu100  1  0.08662202  0.16182677  0.34470465  1
  Cu+  Cu101  1  0.08639831  0.66380827  0.33874935  1
  Cu+  Cu102  1  0.58493557  0.16657210  0.34477570  1
  Cu+  Cu103  1  0.58574734  0.66697943  0.34606356  1
  Cu+  Cu104  1  0.08409029  0.41832724  0.34308896  1
  Cu+  Cu105  1  0.08368598  0.91595579  0.34600713  1
  Cu+  Cu106  1  0.58694337  0.42427957  0.34578907  1
  Cu+  Cu107  1  0.58641907  0.92360172  0.34356293  1
  Cu+  Cu108  1  0.00331694  0.00441094  0.11588121  1
  Cu+  Cu109  1  0.00426344  0.50537435  0.11280318  1
  Cu+  Cu110  1  0.50328592  -0.00119109  0.11409668  1
  Cu+  Cu111  1  0.50251611  0.49851753  0.11613886  1
  Cu+  Cu112  1  0.33542477  0.16642726  0.44150114  1
  Cu+  Cu113  1  0.33434191  0.66697527  0.44262667  1
  Cu+  Cu114  1  0.83723182  0.16765871  0.44137969  1
  Cu+  Cu115  1  0.83865143  0.66619859  0.44667209  1
  Cu+  Cu116  1  0.16740973  0.33137137  0.78328227  1
  Cu+  Cu117  1  0.17038326  0.83313964  0.78224807  1
  Cu+  Cu118  1  0.66442859  0.33025019  0.78227115  1
  Cu+  Cu119  1  0.66726931  0.83368652  0.78487894  1
  Te2-  Te120  1  -0.00185077  -0.00337893  0.39068056  1
  Te2-  Te121  1  0.00031459  0.50133263  0.38665606  1
  Te2-  Te122  1  0.49794388  0.00030455  0.38956112  1
  Te2-  Te123  1  0.49835207  0.50101230  0.39100787  1
  Te2-  Te124  1  0.33157011  0.16568276  0.71735729  1
  Te2-  Te125  1  0.33183744  0.66591746  0.71874614  1
  Te2-  Te126  1  0.83243292  0.16660237  0.71677629  1
  Te2-  Te127  1  0.82908029  0.66796473  0.72184577  1
  Te2-  Te128  1  0.16571290  0.32761435  0.05738891  1
  Te2-  Te129  1  0.16449763  0.82776926  0.05619864  1
  Te2-  Te130  1  0.66542233  0.33782147  0.05667866  1
  Te2-  Te131  1  0.66489523  0.83762067  0.05888040  1
  Te2-  Te132  1  0.49724714  0.24758448  0.88291139  1
  Te2-  Te133  1  0.49641381  0.74763540  0.88373929  1
  Te2-  Te134  1  0.99656740  0.24919909  0.88269156  1
  Te2-  Te135  1  0.99142567  0.75004684  0.88335266  1
  Te2-  Te136  1  0.25381145  0.00693714  0.88662490  1
  Te2-  Te137  1  0.25457360  0.50745735  0.88608915  1
  Te2-  Te138  1  0.75447651  0.00572866  0.88469046  1
  Te2-  Te139  1  0.75164106  0.50939829  0.88420782  1
  Te2-  Te140  1  0.25389486  0.24885846  0.88332954  1
  Te2-  Te141  1  0.24930855  0.74761106  0.88119559  1
  Te2-  Te142  1  0.75651855  0.25167921  0.88493533  1
  Te2-  Te143  1  0.75400115  0.74774904  0.88753611  1
  Te2-  Te144  1  0.32891103  0.41056198  0.21640018  1
  Te2-  Te145  1  0.32703770  0.90930579  0.21571719  1
  Te2-  Te146  1  0.82634494  0.41605447  0.21565457  1
  Te2-  Te147  1  0.82827044  0.91693017  0.21645637  1
  Te2-  Te148  1  0.08951625  0.16784164  0.21764632  1
  Te2-  Te149  1  0.08893022  0.66805158  0.21309229  1
  Te2-  Te150  1  0.58284985  0.17584367  0.21738105  1
  Te2-  Te151  1  0.58379142  0.67676755  0.21878564  1
  Te2-  Te152  1  0.08378036  0.40660523  0.21613940  1
  Te2-  Te153  1  0.08324574  0.90564465  0.21834658  1
  Te2-  Te154  1  0.59005834  0.42056888  0.21868066  1
  Te2-  Te155  1  0.58881974  0.92015650  0.21640620  1
  Te2-  Te156  1  0.15194834  0.07656942  0.54952272  1
  Te2-  Te157  1  0.15638707  0.58074039  0.54930764  1
  Te2-  Te158  1  0.65298453  0.07570430  0.54918946  1
  Te2-  Te159  1  0.65183759  0.57530558  0.55121639  1
  Te2-  Te160  1  0.41385877  0.33773074  0.54777984  1
  Te2-  Te161  1  0.41727153  0.83934687  0.54948784  1
  Te2-  Te162  1  0.91492029  0.33899399  0.54692967  1
  Te2-  Te163  1  0.91299144  0.83628055  0.54987601  1
  Te2-  Te164  1  0.41329376  0.07683909  0.54763569  1
  Te2-  Te165  1  0.41419652  0.57689895  0.54780292  1
  Te2-  Te166  1  0.91415926  0.07781367  0.54705508  1
  Te2-  Te167  1  0.91446726  0.57891732  0.55086170  1
  Te2-  Te168  1  0.00219767  0.00142742  0.88320214  1
  Te2-  Te169  1  0.00185871  0.50089574  0.88296609  1
  Te2-  Te170  1  0.50200662  0.00042702  0.88399624  1
  Te2-  Te171  1  0.50104836  0.49963577  0.88320900  1
  Te2-  Te172  1  0.33675998  0.16793844  0.21813907  1
  Te2-  Te173  1  0.33590837  0.66827588  0.21680566  1
  Te2-  Te174  1  0.83645497  0.16804589  0.21739494  1
  Te2-  Te175  1  0.83700174  0.66692609  0.21811932  1
  Te2-  Te176  1  0.16716225  0.33371887  0.54781675  1
  Te2-  Te177  1  0.16765838  0.83352782  0.54853955  1
  Te2-  Te178  1  0.66629836  0.33080177  0.54853895  1
  Te2-  Te179  1  0.66751734  0.83264646  0.54756712  1
  Te2-  Te180  1  0.32776309  0.41446952  0.71244187  1
  Te2-  Te181  1  0.32944140  0.91507034  0.71283329  1
  Te2-  Te182  1  0.82596207  0.41092384  0.71128336  1
  Te2-  Te183  1  0.82762876  0.91386382  0.71334266  1
  Te2-  Te184  1  0.08459861  0.17151912  0.71195125  1
  Te2-  Te185  1  0.08605609  0.67270373  0.71003175  1
  Te2-  Te186  1  0.58556440  0.17132997  0.71226944  1
  Te2-  Te187  1  0.58530628  0.67251892  0.71338510  1
  Te2-  Te188  1  0.08525762  0.41410035  0.71271319  1
  Te2-  Te189  1  0.08638744  0.91315650  0.71226306  1
  Te2-  Te190  1  0.58386403  0.41134925  0.71176663  1
  Te2-  Te191  1  0.58623699  0.91324783  0.71340930  1
  Te2-  Te192  1  0.16252007  0.08081081  0.04576115  1
  Te2-  Te193  1  0.16264579  0.58050761  0.04314814  1
  Te2-  Te194  1  0.66282759  0.08293319  0.04466410  1
  Te2-  Te195  1  0.66152616  0.58200836  0.04635772  1
  Te2-  Te196  1  0.42086475  0.33675566  0.04621822  1
  Te2-  Te197  1  0.41920900  0.83665084  0.04442281  1
  Te2-  Te198  1  0.92364333  0.34270233  0.04320130  1
  Te2-  Te199  1  0.92271167  0.84269643  0.04481227  1
  Te2-  Te200  1  0.42298891  0.08053687  0.04373535  1
  Te2-  Te201  1  0.42350392  0.58058338  0.04419638  1
  Te2-  Te202  1  0.92076575  0.08366109  0.04596377  1
  Te2-  Te203  1  0.91983352  0.58307647  0.04484590  1
  Te2-  Te204  1  0.49486033  0.25002411  0.37388035  1
  Te2-  Te205  1  0.49433858  0.75005116  0.37388895  1
  Te2-  Te206  1  0.99533124  0.24467596  0.37303634  1
  Te2-  Te207  1  0.99588422  0.74286850  0.37678214  1
  Te2-  Te208  1  0.25630453  0.00755013  0.37348884  1
  Te2-  Te209  1  0.25596608  0.50777753  0.37390511  1
  Te2-  Te210  1  0.75806030  0.00735642  0.37293276  1
  Te2-  Te211  1  0.75836008  0.50750061  0.37631020  1
  Te2-  Te212  1  0.25815922  0.24997867  0.37373176  1
  Te2-  Te213  1  0.25459853  0.74820448  0.37606518  1
  Te2-  Te214  1  0.75675035  0.24833487  0.37336789  1
  Te2-  Te215  1  0.75764640  0.74720288  0.37481395  1
