# generated using pymatgen
data_Ti(CuTe)4
_symmetry_space_group_name_H-M   'P 1'
_cell_length_a   16.89258640
_cell_length_b   16.89749205
_cell_length_c   20.71684644
_cell_angle_alpha   90.03078462
_cell_angle_beta   89.98866282
_cell_angle_gamma   119.99805906
_symmetry_Int_Tables_number   1
_chemical_formula_structural   Ti(CuTe)4
_chemical_formula_sum   'Ti24 Cu96 Te96'
_cell_volume   5121.31050340
_cell_formula_units_Z   24
loop_
 _symmetry_equiv_pos_site_id
 _symmetry_equiv_pos_as_xyz
  1  'x, y, z'
loop_
 _atom_type_symbol
 _atom_type_oxidation_number
  Ti4+  4.0
  Cu+  1.0
  Te2-  -2.0
loop_
 _atom_site_type_symbol
 _atom_site_label
 _atom_site_symmetry_multiplicity
 _atom_site_fract_x
 _atom_site_fract_y
 _atom_site_fract_z
 _atom_site_occupancy
  Ti4+  Ti0  1  -0.00165222  -0.00112337  0.25352895  1
  Ti4+  Ti1  1  -0.00163973  0.49980007  0.25758566  1
  Ti4+  Ti2  1  0.50138075  0.00027641  0.25658017  1
  Ti4+  Ti3  1  0.49950101  0.50013387  0.25678690  1
  Ti4+  Ti4  1  0.33499816  0.16835711  0.58908766  1
  Ti4+  Ti5  1  0.33470440  0.66823874  0.59097506  1
  Ti4+  Ti6  1  0.83572419  0.17108597  0.59478408  1
  Ti4+  Ti7  1  0.83655445  0.66779918  0.59479143  1
  Ti4+  Ti8  1  0.16264656  0.33084086  0.92300340  1
  Ti4+  Ti9  1  0.16891386  0.83170545  0.92300322  1
  Ti4+  Ti10  1  0.66682387  0.33414002  0.92743335  1
  Ti4+  Ti11  1  0.66634813  0.83031149  0.92472183  1
  Ti4+  Ti12  1  0.00094456  0.00166596  0.75460545  1
  Ti4+  Ti13  1  0.00036107  0.50058429  0.75638858  1
  Ti4+  Ti14  1  0.50018175  -0.00097984  0.75546944  1
  Ti4+  Ti15  1  0.50158401  0.50107739  0.75513827  1
  Ti4+  Ti16  1  0.33204751  0.16554193  0.08603231  1
  Ti4+  Ti17  1  0.33267467  0.66564780  0.08815266  1
  Ti4+  Ti18  1  0.83229636  0.16556427  0.08660101  1
  Ti4+  Ti19  1  0.83355453  0.66642002  0.08724589  1
  Ti4+  Ti20  1  0.16561892  0.33299037  0.42174999  1
  Ti4+  Ti21  1  0.16656401  0.83455862  0.42162547  1
  Ti4+  Ti22  1  0.66830585  0.33478030  0.42350668  1
  Ti4+  Ti23  1  0.66667969  0.83377734  0.42439457  1
  Cu+  Cu24  1  0.74081695  0.48893100  0.14778768  1
  Cu+  Cu25  1  0.02149483  0.75963602  0.13967694  1
  Cu+  Cu26  1  0.74213154  0.25299150  0.14775343  1
  Cu+  Cu27  1  0.90482548  0.08694373  0.81050706  1
  Cu+  Cu28  1  0.73983961  0.98553673  0.14384354  1
  Cu+  Cu29  1  0.91395971  0.82008703  0.81224932  1
  Cu+  Cu30  1  0.68606750  0.58785460  0.80893206  1
  Cu+  Cu31  1  0.40533827  0.80822410  0.80589397  1
  Cu+  Cu32  1  0.74142313  0.75176316  0.14780655  1
  Cu+  Cu33  1  0.01795033  0.26029034  0.14168131  1
  Cu+  Cu34  1  0.85849056  0.43071823  0.47734518  1
  Cu+  Cu35  1  0.90413490  0.31778292  0.81302893  1
  Cu+  Cu36  1  0.16183850  0.08077840  0.16606329  1
  Cu+  Cu37  1  0.16364373  0.58214088  0.17045182  1
  Cu+  Cu38  1  0.65723155  0.07771330  0.16849352  1
  Cu+  Cu39  1  0.65532059  0.57774432  0.16913642  1
  Cu+  Cu40  1  0.41607573  0.33370039  0.16873488  1
  Cu+  Cu41  1  0.41968119  0.83419702  0.16976284  1
  Cu+  Cu42  1  0.91806017  0.33800257  0.16851051  1
  Cu+  Cu43  1  0.91919505  0.83697870  0.16595447  1
  Cu+  Cu44  1  0.41773104  0.08328494  0.16905779  1
  Cu+  Cu45  1  0.41795462  0.58355902  0.16969723  1
  Cu+  Cu46  1  0.91753311  0.08027972  0.16545838  1
  Cu+  Cu47  1  0.91826589  0.58157750  0.16867635  1
  Cu+  Cu48  1  0.49645091  0.24903787  0.50439791  1
  Cu+  Cu49  1  0.49737572  0.75056420  0.50612903  1
  Cu+  Cu50  1  0.99785412  0.25092044  0.50715372  1
  Cu+  Cu51  1  0.99850588  0.75183365  0.50675695  1
  Cu+  Cu52  1  0.25394086  0.00547437  0.50279551  1
  Cu+  Cu53  1  0.25218580  0.50391233  0.50461985  1
  Cu+  Cu54  1  0.75307976  0.00354426  0.50898081  1
  Cu+  Cu55  1  0.75666187  0.50382439  0.50693957  1
  Cu+  Cu56  1  0.25317793  0.25024344  0.50324335  1
  Cu+  Cu57  1  0.25341371  0.75141454  0.50495401  1
  Cu+  Cu58  1  0.75839676  0.25666822  0.50657095  1
  Cu+  Cu59  1  0.75166889  0.74931113  0.50901788  1
  Cu+  Cu60  1  0.32912917  0.41451158  0.83674011  1
  Cu+  Cu61  1  0.33187437  0.90971256  0.83619590  1
  Cu+  Cu62  1  0.82751938  0.41286792  0.84069047  1
  Cu+  Cu63  1  0.82889480  0.91254034  0.83749256  1
  Cu+  Cu64  1  0.07977115  0.17102104  0.83523595  1
  Cu+  Cu65  1  0.08750206  0.67116038  0.83688138  1
  Cu+  Cu66  1  0.58401725  0.16862285  0.83926919  1
  Cu+  Cu67  1  0.59032998  0.66790754  0.83575706  1
  Cu+  Cu68  1  0.07958527  0.41051168  0.83678368  1
  Cu+  Cu69  1  0.08559458  0.91289164  0.83710377  1
  Cu+  Cu70  1  0.58803698  0.41861257  0.83982750  1
  Cu+  Cu71  1  0.58025712  0.91015653  0.83659906  1
  Cu+  Cu72  1  0.17292934  0.08784191  0.67145062  1
  Cu+  Cu73  1  0.17102496  0.58715357  0.67419150  1
  Cu+  Cu74  1  0.66943542  0.08714928  0.67577310  1
  Cu+  Cu75  1  0.67231731  0.58565348  0.68042821  1
  Cu+  Cu76  1  0.41641979  0.33143869  0.67273045  1
  Cu+  Cu77  1  0.41593090  0.83048284  0.67779172  1
  Cu+  Cu78  1  0.91578867  0.33310989  0.68278865  1
  Cu+  Cu79  1  0.91622551  0.83218878  0.68162764  1
  Cu+  Cu80  1  0.41604398  0.08627158  0.67294042  1
  Cu+  Cu81  1  0.41751755  0.58574223  0.67375918  1
  Cu+  Cu82  1  0.91762957  0.08930319  0.68157761  1
  Cu+  Cu83  1  0.91787554  0.58517512  0.67790359  1
  Cu+  Cu84  1  0.00120396  0.25056685  0.01227599  1
  Cu+  Cu85  1  0.00561309  0.75198855  0.01155854  1
  Cu+  Cu86  1  0.50153850  0.25162025  0.00833143  1
  Cu+  Cu87  1  0.49979457  0.74764698  0.00760738  1
  Cu+  Cu88  1  0.24537894  0.49536157  0.00674537  1
  Cu+  Cu89  1  0.24952835  0.99644687  0.00472336  1
  Cu+  Cu90  1  0.74888737  0.49678349  0.01603101  1
  Cu+  Cu91  1  0.74697691  0.99526428  0.01310359  1
  Cu+  Cu92  1  0.24622325  0.24900190  0.00495178  1
  Cu+  Cu93  1  0.25013931  0.74966565  0.00824122  1
  Cu+  Cu94  1  0.74793110  0.25129851  0.01644614  1
  Cu+  Cu95  1  0.74929821  0.75008847  0.01536168  1
  Cu+  Cu96  1  0.33454202  0.41781957  0.33987245  1
  Cu+  Cu97  1  0.33613909  0.91830352  0.33955567  1
  Cu+  Cu98  1  0.83485996  0.41857849  0.34747255  1
  Cu+  Cu99  1  0.83280137  0.91604758  0.34142775  1
  Cu+  Cu100  1  0.07984189  0.16462455  0.33957963  1
  Cu+  Cu101  1  0.08072470  0.66653753  0.34339048  1
  Cu+  Cu102  1  0.58317813  0.16460419  0.34196707  1
  Cu+  Cu103  1  0.58214685  0.66446092  0.34284382  1
  Cu+  Cu104  1  0.07973110  0.41462901  0.34295800  1
  Cu+  Cu105  1  0.08128318  0.91625729  0.33960841  1
  Cu+  Cu106  1  0.58218074  0.41879198  0.34206706  1
  Cu+  Cu107  1  0.58400906  0.91914166  0.34278408  1
  Cu+  Cu108  1  0.00235694  0.00132528  0.10758182  1
  Cu+  Cu109  1  0.00313989  0.50189703  0.11285447  1
  Cu+  Cu110  1  0.48983462  -0.00553192  0.11341258  1
  Cu+  Cu111  1  0.48909540  0.49421192  0.11329607  1
  Cu+  Cu112  1  0.33368627  0.16804339  0.44518296  1
  Cu+  Cu113  1  0.33264592  0.66689061  0.44831769  1
  Cu+  Cu114  1  0.83186269  0.16457978  0.45272081  1
  Cu+  Cu115  1  0.83261698  0.66937193  0.45215932  1
  Cu+  Cu116  1  0.17115192  0.33728959  0.77871393  1
  Cu+  Cu117  1  0.17003186  0.83757572  0.77879202  1
  Cu+  Cu118  1  0.66085939  0.32965772  0.78415108  1
  Cu+  Cu119  1  0.66468534  0.83235931  0.78019286  1
  Te2-  Te120  1  -0.00104707  -0.00065786  0.38171704  1
  Te2-  Te121  1  0.00231686  0.50176577  0.38741665  1
  Te2-  Te122  1  0.49982458  0.00004650  0.38533738  1
  Te2-  Te123  1  0.49835855  0.49956531  0.38555267  1
  Te2-  Te124  1  0.33509475  0.16838165  0.71883702  1
  Te2-  Te125  1  0.33358761  0.66417461  0.72202836  1
  Te2-  Te126  1  0.83032736  0.16716294  0.72759482  1
  Te2-  Te127  1  0.83731546  0.66705295  0.72767318  1
  Te2-  Te128  1  0.16742043  0.33253040  0.05335909  1
  Te2-  Te129  1  0.17174609  0.83480205  0.05369237  1
  Te2-  Te130  1  0.66280395  0.33168512  0.05967992  1
  Te2-  Te131  1  0.66234554  0.82946529  0.05633530  1
  Te2-  Te132  1  0.49787855  0.25086740  0.88244434  1
  Te2-  Te133  1  0.49526530  0.74096060  0.88147464  1
  Te2-  Te134  1  0.98476361  0.24226708  0.88534941  1
  Te2-  Te135  1  0.99430964  0.74328968  0.88486825  1
  Te2-  Te136  1  0.25369215  0.00126163  0.87884614  1
  Te2-  Te137  1  0.24748062  0.50131194  0.88077327  1
  Te2-  Te138  1  0.74819438  0.00194547  0.88464667  1
  Te2-  Te139  1  0.75702785  0.50768600  0.88815347  1
  Te2-  Te140  1  0.24736380  0.24542791  0.87923894  1
  Te2-  Te141  1  0.25300060  0.74143237  0.88279652  1
  Te2-  Te142  1  0.74984316  0.24383970  0.88822707  1
  Te2-  Te143  1  0.75665341  0.74456393  0.88650139  1
  Te2-  Te144  1  0.32932062  0.41511781  0.21358469  1
  Te2-  Te145  1  0.33126898  0.91481182  0.21320936  1
  Te2-  Te146  1  0.82284117  0.41215351  0.21920684  1
  Te2-  Te147  1  0.82218458  0.91072307  0.21510515  1
  Te2-  Te148  1  0.08570648  0.17192606  0.21317814  1
  Te2-  Te149  1  0.08618090  0.67242867  0.21670094  1
  Te2-  Te150  1  0.58495608  0.17415213  0.21611334  1
  Te2-  Te151  1  0.58433992  0.67448716  0.21687325  1
  Te2-  Te152  1  0.08574631  0.41441906  0.21651979  1
  Te2-  Te153  1  0.08677852  0.91394256  0.21342371  1
  Te2-  Te154  1  0.58311895  0.40966115  0.21627674  1
  Te2-  Te155  1  0.58610202  0.91053047  0.21686290  1
  Te2-  Te156  1  0.16293184  0.08231258  0.54626634  1
  Te2-  Te157  1  0.16334329  0.58319489  0.54861544  1
  Te2-  Te158  1  0.66655971  0.08736401  0.54972102  1
  Te2-  Te159  1  0.66627161  0.58095071  0.55325509  1
  Te2-  Te160  1  0.42089567  0.34093164  0.54745432  1
  Te2-  Te161  1  0.42027833  0.84043036  0.55133261  1
  Te2-  Te162  1  0.92552480  0.34475234  0.55511450  1
  Te2-  Te163  1  0.91937517  0.83893548  0.55431185  1
  Te2-  Te164  1  0.42106367  0.08173668  0.54766230  1
  Te2-  Te165  1  0.42024474  0.58233746  0.54837711  1
  Te2-  Te166  1  0.92058491  0.08465239  0.55458902  1
  Te2-  Te167  1  0.92589727  0.58430291  0.55211964  1
  Te2-  Te168  1  0.00112723  -0.00017529  0.88211246  1
  Te2-  Te169  1  0.00003235  0.50075058  0.88315949  1
  Te2-  Te170  1  0.50027237  -0.00088074  0.88237193  1
  Te2-  Te171  1  0.49743418  0.49885158  0.88207951  1
  Te2-  Te172  1  0.33023887  0.16500154  0.21226233  1
  Te2-  Te173  1  0.33257515  0.66621134  0.21447872  1
  Te2-  Te174  1  0.83131543  0.16525501  0.21470873  1
  Te2-  Te175  1  0.83019115  0.66566509  0.21541247  1
  Te2-  Te176  1  0.16870121  0.33471403  0.54796077  1
  Te2-  Te177  1  0.16924346  0.83694251  0.54781414  1
  Te2-  Te178  1  0.66555303  0.33378989  0.55015394  1
  Te2-  Te179  1  0.66666718  0.83402209  0.55092937  1
  Te2-  Te180  1  0.33065722  0.41562651  0.70985769  1
  Te2-  Te181  1  0.32905826  0.91628273  0.70915532  1
  Te2-  Te182  1  0.82550444  0.41545409  0.71386344  1
  Te2-  Te183  1  0.82614492  0.91543760  0.71015025  1
  Te2-  Te184  1  0.09055753  0.17478090  0.70929666  1
  Te2-  Te185  1  0.08826597  0.67343438  0.71162441  1
  Te2-  Te186  1  0.58489548  0.17166986  0.71262758  1
  Te2-  Te187  1  0.58718043  0.67371889  0.70932341  1
  Te2-  Te188  1  0.08934382  0.41706590  0.71031688  1
  Te2-  Te189  1  0.08996083  0.91800166  0.70963352  1
  Te2-  Te190  1  0.58606574  0.41282000  0.71174100  1
  Te2-  Te191  1  0.58909240  0.91604140  0.70950047  1
  Te2-  Te192  1  0.16136145  0.07884806  0.03964948  1
  Te2-  Te193  1  0.16088538  0.57995787  0.04390258  1
  Te2-  Te194  1  0.65650215  0.07751472  0.04184397  1
  Te2-  Te195  1  0.65689005  0.57772831  0.04260048  1
  Te2-  Te196  1  0.41653768  0.33729643  0.04191587  1
  Te2-  Te197  1  0.42003704  0.83737772  0.04307302  1
  Te2-  Te198  1  0.92057846  0.34175770  0.04204455  1
  Te2-  Te199  1  0.92200753  0.84093229  0.03958323  1
  Te2-  Te200  1  0.41926740  0.08078262  0.04215349  1
  Te2-  Te201  1  0.41605997  0.57789045  0.04275154  1
  Te2-  Te202  1  0.91937440  0.07785421  0.03899671  1
  Te2-  Te203  1  0.92195715  0.57964009  0.04210368  1
  Te2-  Te204  1  0.49664982  0.24852238  0.37808825  1
  Te2-  Te205  1  0.49562180  0.74862817  0.37955739  1
  Te2-  Te206  1  0.99216746  0.24550955  0.38024465  1
  Te2-  Te207  1  0.99296341  0.74820099  0.38003490  1
  Te2-  Te208  1  0.25228995  0.00511163  0.37588367  1
  Te2-  Te209  1  0.25122828  0.50454161  0.37767936  1
  Te2-  Te210  1  0.75323117  0.00533337  0.38122435  1
  Te2-  Te211  1  0.75173473  0.50787408  0.37950156  1
  Te2-  Te212  1  0.25085990  0.24745884  0.37623640  1
  Te2-  Te213  1  0.25236071  0.74849034  0.37793101  1
  Te2-  Te214  1  0.75281132  0.24612691  0.37916668  1
  Te2-  Te215  1  0.75172591  0.74720368  0.38115291  1
