# generated using pymatgen
data_Ti(CuTe)4
_symmetry_space_group_name_H-M   'P 1'
_cell_length_a   16.85309976
_cell_length_b   16.85013714
_cell_length_c   20.65374004
_cell_angle_alpha   89.99717048
_cell_angle_beta   89.99877138
_cell_angle_gamma   120.00064415
_symmetry_Int_Tables_number   1
_chemical_formula_structural   Ti(CuTe)4
_chemical_formula_sum   'Ti24 Cu96 Te96'
_cell_volume   5079.36882621
_cell_formula_units_Z   24
loop_
 _symmetry_equiv_pos_site_id
 _symmetry_equiv_pos_as_xyz
  1  'x, y, z'
loop_
 _atom_type_symbol
 _atom_type_oxidation_number
  Ti4+  4.0
  Cu+  1.0
  Te2-  -2.0
loop_
 _atom_site_type_symbol
 _atom_site_label
 _atom_site_symmetry_multiplicity
 _atom_site_fract_x
 _atom_site_fract_y
 _atom_site_fract_z
 _atom_site_occupancy
  Ti4+  Ti0  1  0.00126311  -0.00296301  0.25598379  1
  Ti4+  Ti1  1  0.00117497  0.49794269  0.25514295  1
  Ti4+  Ti2  1  0.50215267  0.00319956  0.26096224  1
  Ti4+  Ti3  1  0.49657717  0.49586065  0.25763627  1
  Ti4+  Ti4  1  0.33398307  0.16875623  0.59500274  1
  Ti4+  Ti5  1  0.33542869  0.67178012  0.59095614  1
  Ti4+  Ti6  1  0.83482759  0.16875613  0.59150378  1
  Ti4+  Ti7  1  0.83027263  0.66537177  0.58961505  1
  Ti4+  Ti8  1  0.16449807  0.33277186  0.92275375  1
  Ti4+  Ti9  1  0.16896727  0.83737620  0.92503561  1
  Ti4+  Ti10  1  0.66710161  0.33065252  0.92664375  1
  Ti4+  Ti11  1  0.66304724  0.83044307  0.92300203  1
  Ti4+  Ti12  1  0.00232623  0.00210416  0.75442958  1
  Ti4+  Ti13  1  -0.00145927  0.49818495  0.75686478  1
  Ti4+  Ti14  1  0.49929224  -0.00029125  0.75614462  1
  Ti4+  Ti15  1  0.49995185  0.50157756  0.75593140  1
  Ti4+  Ti16  1  0.33361738  0.16668884  0.08818943  1
  Ti4+  Ti17  1  0.33122547  0.66416701  0.09037595  1
  Ti4+  Ti18  1  0.83214248  0.16683390  0.08843610  1
  Ti4+  Ti19  1  0.83510709  0.66756882  0.08633286  1
  Ti4+  Ti20  1  0.16609406  0.33185403  0.42377516  1
  Ti4+  Ti21  1  0.16877203  0.83287906  0.42386757  1
  Ti4+  Ti22  1  0.66606721  0.33418925  0.42384741  1
  Ti4+  Ti23  1  0.66586770  0.83354455  0.41934658  1
  Cu+  Cu24  1  0.35394788  0.93461435  0.48008866  1
  Cu+  Cu25  1  0.24984371  0.98649046  0.14617545  1
  Cu+  Cu26  1  0.41419891  0.09569402  0.81319093  1
  Cu+  Cu27  1  0.40323250  0.81106472  0.80847453  1
  Cu+  Cu28  1  0.56760727  0.42833326  0.47490707  1
  Cu+  Cu29  1  0.74353163  0.26139343  0.14323540  1
  Cu+  Cu30  1  0.18639829  0.09643594  0.81112440  1
  Cu+  Cu31  1  0.02066578  0.75589888  0.14088272  1
  Cu+  Cu32  1  0.23601539  0.46915177  0.13715860  1
  Cu+  Cu33  1  0.57963918  0.93185497  0.47697084  1
  Cu+  Cu34  1  0.51542899  0.25988068  0.14604665  1
  Cu+  Cu35  1  0.90138847  0.30401109  0.80700504  1
  Cu+  Cu36  1  0.16108886  0.07548157  0.16720198  1
  Cu+  Cu37  1  0.16475595  0.57476100  0.16846863  1
  Cu+  Cu38  1  0.66610350  0.08547945  0.17263268  1
  Cu+  Cu39  1  0.66411200  0.57923007  0.16951361  1
  Cu+  Cu40  1  0.42071502  0.33913061  0.16908997  1
  Cu+  Cu41  1  0.41884999  0.83595365  0.17479893  1
  Cu+  Cu42  1  0.91769761  0.33684571  0.16804633  1
  Cu+  Cu43  1  0.92254326  0.83509797  0.16735785  1
  Cu+  Cu44  1  0.42243921  0.08324257  0.17145164  1
  Cu+  Cu45  1  0.40909092  0.57495915  0.17174292  1
  Cu+  Cu46  1  0.91855251  0.08106004  0.16978817  1
  Cu+  Cu47  1  0.92061114  0.58293878  0.16713077  1
  Cu+  Cu48  1  0.49786716  0.25423011  0.50701513  1
  Cu+  Cu49  1  0.49767482  0.75443522  0.50130348  1
  Cu+  Cu50  1  0.99816552  0.25164409  0.50591563  1
  Cu+  Cu51  1  0.99599594  0.74682353  0.50452858  1
  Cu+  Cu52  1  0.25269180  0.00357262  0.51011599  1
  Cu+  Cu53  1  0.25034851  0.50300765  0.50583008  1
  Cu+  Cu54  1  0.75138808  0.00433627  0.50343200  1
  Cu+  Cu55  1  0.74507810  0.50273756  0.50342656  1
  Cu+  Cu56  1  0.24826828  0.24701143  0.50782936  1
  Cu+  Cu57  1  0.25819786  0.75545844  0.50363925  1
  Cu+  Cu58  1  0.75659615  0.25278426  0.50588347  1
  Cu+  Cu59  1  0.75135800  0.74693683  0.50076856  1
  Cu+  Cu60  1  0.33100146  0.41991497  0.83742638  1
  Cu+  Cu61  1  0.33008891  0.91671060  0.83593427  1
  Cu+  Cu62  1  0.83242974  0.40832248  0.83966882  1
  Cu+  Cu63  1  0.83028381  0.91504930  0.83637449  1
  Cu+  Cu64  1  0.08800582  0.17191784  0.83500267  1
  Cu+  Cu65  1  0.08228427  0.67007795  0.83826409  1
  Cu+  Cu66  1  0.58620283  0.17209969  0.83955818  1
  Cu+  Cu67  1  0.58362859  0.66981665  0.83685136  1
  Cu+  Cu68  1  0.07853466  0.41121425  0.83754618  1
  Cu+  Cu69  1  0.08800601  0.92017180  0.83756782  1
  Cu+  Cu70  1  0.58149195  0.41451250  0.83990213  1
  Cu+  Cu71  1  0.57946569  0.90774032  0.83580403  1
  Cu+  Cu72  1  0.17144297  0.08447214  0.68227562  1
  Cu+  Cu73  1  0.16849803  0.58811830  0.67355454  1
  Cu+  Cu74  1  0.66788459  0.08507874  0.67555022  1
  Cu+  Cu75  1  0.66803164  0.58340007  0.67449552  1
  Cu+  Cu76  1  0.41629879  0.33510055  0.67765184  1
  Cu+  Cu77  1  0.41576131  0.83250772  0.68093380  1
  Cu+  Cu78  1  0.91544162  0.32880997  0.67913354  1
  Cu+  Cu79  1  0.91464313  0.82962911  0.67177440  1
  Cu+  Cu80  1  0.41778778  0.08685320  0.68349047  1
  Cu+  Cu81  1  0.41698686  0.58835757  0.67287185  1
  Cu+  Cu82  1  0.91711931  0.08540737  0.67308171  1
  Cu+  Cu83  1  0.91295817  0.58314828  0.67271780  1
  Cu+  Cu84  1  -0.00145403  0.24889913  0.00651208  1
  Cu+  Cu85  1  0.00577389  0.75561128  0.01196297  1
  Cu+  Cu86  1  0.50209457  0.25051431  0.01651674  1
  Cu+  Cu87  1  0.50003876  0.75073451  0.00849040  1
  Cu+  Cu88  1  0.24455363  0.49384151  0.00951880  1
  Cu+  Cu89  1  0.24953336  1.00023637  0.01541400  1
  Cu+  Cu90  1  0.74976067  0.49828198  0.00630730  1
  Cu+  Cu91  1  0.74562558  0.99433019  0.00506124  1
  Cu+  Cu92  1  0.25027572  0.25144544  0.00706600  1
  Cu+  Cu93  1  0.25272552  0.75299203  0.00841724  1
  Cu+  Cu94  1  0.74643008  0.24867557  0.01498965  1
  Cu+  Cu95  1  0.74589399  0.74926688  0.00521040  1
  Cu+  Cu96  1  0.33190598  0.41269414  0.34324016  1
  Cu+  Cu97  1  0.33612211  0.91867819  0.35037016  1
  Cu+  Cu98  1  0.83557667  0.41627266  0.34076519  1
  Cu+  Cu99  1  0.83628299  0.91541063  0.33764363  1
  Cu+  Cu100  1  0.08168517  0.16176108  0.33930385  1
  Cu+  Cu101  1  0.08381546  0.66329084  0.33953046  1
  Cu+  Cu102  1  0.58549284  0.16865343  0.34715544  1
  Cu+  Cu103  1  0.58086491  0.66287144  0.33862979  1
  Cu+  Cu104  1  0.08270342  0.41518483  0.34013247  1
  Cu+  Cu105  1  0.08300493  0.91550582  0.34326994  1
  Cu+  Cu106  1  0.57941680  0.41552912  0.34671037  1
  Cu+  Cu107  1  0.58223095  0.91911253  0.34709763  1
  Cu+  Cu108  1  -0.00607255  -0.00124663  0.11104947  1
  Cu+  Cu109  1  0.00073110  0.50130988  0.10854414  1
  Cu+  Cu110  1  0.50262219  -0.00407945  0.11741129  1
  Cu+  Cu111  1  0.50393111  0.50960720  0.11412390  1
  Cu+  Cu112  1  0.33059109  0.16633188  0.45236000  1
  Cu+  Cu113  1  0.33177155  0.66125057  0.44695456  1
  Cu+  Cu114  1  0.83742370  0.16613292  0.44785198  1
  Cu+  Cu115  1  0.83568252  0.66633529  0.44506413  1
  Cu+  Cu116  1  0.16893695  0.33871838  0.77894140  1
  Cu+  Cu117  1  0.16158804  0.82967932  0.78091514  1
  Cu+  Cu118  1  0.67166400  0.34373810  0.78460840  1
  Cu+  Cu119  1  0.67100601  0.83302151  0.77899506  1
  Te2-  Te120  1  -0.00059559  -0.00241704  0.38490704  1
  Te2-  Te121  1  0.00096925  0.49852602  0.38399346  1
  Te2-  Te122  1  0.50272299  0.00488549  0.39314353  1
  Te2-  Te123  1  0.49642012  0.50046360  0.38802676  1
  Te2-  Te124  1  0.33725148  0.17266278  0.72755049  1
  Te2-  Te125  1  0.33107221  0.66487839  0.72135959  1
  Te2-  Te126  1  0.83125765  0.16171230  0.72228169  1
  Te2-  Te127  1  0.83257472  0.66640580  0.71903617  1
  Te2-  Te128  1  0.16206763  0.32671758  0.05323834  1
  Te2-  Te129  1  0.17124425  0.83376250  0.05736744  1
  Te2-  Te130  1  0.66878815  0.33747177  0.05914140  1
  Te2-  Te131  1  0.66468557  0.83116647  0.05241317  1
  Te2-  Te132  1  0.49334194  0.24823060  0.88882870  1
  Te2-  Te133  1  0.48744333  0.74025381  0.88285298  1
  Te2-  Te134  1  0.99087508  0.24044780  0.88095095  1
  Te2-  Te135  1  0.99838057  0.75322669  0.88467814  1
  Te2-  Te136  1  0.25757581  0.01269201  0.88641564  1
  Te2-  Te137  1  0.24725491  0.50390637  0.88271429  1
  Te2-  Te138  1  0.74750219  0.00156503  0.87925327  1
  Te2-  Te139  1  0.75236139  0.49921061  0.88037539  1
  Te2-  Te140  1  0.25737922  0.25205375  0.88193071  1
  Te2-  Te141  1  0.25092445  0.74701663  0.88264145  1
  Te2-  Te142  1  0.75018792  0.23955874  0.88734670  1
  Te2-  Te143  1  0.75146023  0.74702207  0.87968138  1
  Te2-  Te144  1  0.32246640  0.40509449  0.21682030  1
  Te2-  Te145  1  0.32912282  0.91388291  0.22203813  1
  Te2-  Te146  1  0.82760996  0.41699566  0.21472394  1
  Te2-  Te147  1  0.83094713  0.91158358  0.21174565  1
  Te2-  Te148  1  0.08725997  0.16811400  0.21330265  1
  Te2-  Te149  1  0.09169102  0.67055917  0.21338389  1
  Te2-  Te150  1  0.58979887  0.17859663  0.22029335  1
  Te2-  Te151  1  0.58009549  0.66521805  0.21223871  1
  Te2-  Te152  1  0.08355093  0.40619229  0.21414895  1
  Te2-  Te153  1  0.09102870  0.90858145  0.21664961  1
  Te2-  Te154  1  0.58861984  0.41357817  0.21929329  1
  Te2-  Te155  1  0.58734952  0.91826256  0.21965253  1
  Te2-  Te156  1  0.16277565  0.08023003  0.55505154  1
  Te2-  Te157  1  0.16487530  0.58714201  0.54769310  1
  Te2-  Te158  1  0.66145420  0.08555083  0.55006858  1
  Te2-  Te159  1  0.65521863  0.58190102  0.54866690  1
  Te2-  Te160  1  0.41572801  0.34135862  0.55204746  1
  Te2-  Te161  1  0.42528454  0.84929905  0.55293739  1
  Te2-  Te162  1  0.92195093  0.34191772  0.55266504  1
  Te2-  Te163  1  0.91789337  0.83724072  0.54616784  1
  Te2-  Te164  1  0.42548920  0.08739920  0.55537759  1
  Te2-  Te165  1  0.42051872  0.58673445  0.54677508  1
  Te2-  Te166  1  0.91857735  0.08181512  0.54713992  1
  Te2-  Te167  1  0.91404906  0.57779619  0.54669676  1
  Te2-  Te168  1  -0.00093177  0.00153928  0.88171476  1
  Te2-  Te169  1  0.00075132  0.50186927  0.88416318  1
  Te2-  Te170  1  0.49979258  -0.00170743  0.88371508  1
  Te2-  Te171  1  0.49942991  0.50146489  0.88289916  1
  Te2-  Te172  1  0.33200702  0.16600709  0.21578105  1
  Te2-  Te173  1  0.33250129  0.66620008  0.21767968  1
  Te2-  Te174  1  0.83638502  0.16710702  0.21575753  1
  Te2-  Te175  1  0.83359768  0.66572687  0.21371997  1
  Te2-  Te176  1  0.16650468  0.33505333  0.55077477  1
  Te2-  Te177  1  0.16478994  0.83127909  0.55100200  1
  Te2-  Te178  1  0.66845530  0.33470785  0.55083501  1
  Te2-  Te179  1  0.66785212  0.83365155  0.54654423  1
  Te2-  Te180  1  0.32833031  0.41817297  0.71021219  1
  Te2-  Te181  1  0.32382418  0.91361427  0.70923303  1
  Te2-  Te182  1  0.82693032  0.41352180  0.71133802  1
  Te2-  Te183  1  0.83075480  0.91517410  0.70916498  1
  Te2-  Te184  1  0.08721606  0.17529347  0.70828019  1
  Te2-  Te185  1  0.08208788  0.67012603  0.71134153  1
  Te2-  Te186  1  0.59029634  0.17574001  0.71317138  1
  Te2-  Te187  1  0.58636088  0.67283524  0.70998899  1
  Te2-  Te188  1  0.08878578  0.41743698  0.70967013  1
  Te2-  Te189  1  0.08413873  0.91067605  0.71014784  1
  Te2-  Te190  1  0.58578224  0.41430602  0.71269343  1
  Te2-  Te191  1  0.58865353  0.91544867  0.70952031  1
  Te2-  Te192  1  0.15904964  0.08217393  0.04133589  1
  Te2-  Te193  1  0.16043734  0.58213278  0.04121814  1
  Te2-  Te194  1  0.65847956  0.07567166  0.04484839  1
  Te2-  Te195  1  0.66209406  0.57993155  0.04256936  1
  Te2-  Te196  1  0.41906884  0.34149400  0.04309522  1
  Te2-  Te197  1  0.41962984  0.83800824  0.04765362  1
  Te2-  Te198  1  0.92059496  0.34003354  0.04105249  1
  Te2-  Te199  1  0.91700698  0.83999385  0.04027124  1
  Te2-  Te200  1  0.42200696  0.07781879  0.04434636  1
  Te2-  Te201  1  0.41735492  0.57943366  0.04327111  1
  Te2-  Te202  1  0.91530810  0.07908248  0.04227459  1
  Te2-  Te203  1  0.92056497  0.58067326  0.03934975  1
  Te2-  Te204  1  0.49102616  0.24405673  0.38001436  1
  Te2-  Te205  1  0.49238102  0.74493652  0.37417959  1
  Te2-  Te206  1  0.99562032  0.24579423  0.37790489  1
  Te2-  Te207  1  0.99723972  0.74549791  0.37756695  1
  Te2-  Te208  1  0.25209970  0.00715152  0.38141787  1
  Te2-  Te209  1  0.25160974  0.50290940  0.37793846  1
  Te2-  Te210  1  0.75656036  0.00653573  0.37506171  1
  Te2-  Te211  1  0.75379618  0.50525545  0.37576263  1
  Te2-  Te212  1  0.25003377  0.24342929  0.38042925  1
  Te2-  Te213  1  0.25318274  0.74477043  0.37674789  1
  Te2-  Te214  1  0.75512178  0.24882243  0.37991580  1
  Te2-  Te215  1  0.75070737  0.74576265  0.37454724  1
