# generated using pymatgen
data_Ti(CuTe)4
_symmetry_space_group_name_H-M   'P 1'
_cell_length_a   16.88726255
_cell_length_b   16.88834515
_cell_length_c   20.71480504
_cell_angle_alpha   90.06439411
_cell_angle_beta   89.92165137
_cell_angle_gamma   119.98305665
_symmetry_Int_Tables_number   1
_chemical_formula_structural   Ti(CuTe)4
_chemical_formula_sum   'Ti24 Cu96 Te96'
_cell_volume   5117.18942982
_cell_formula_units_Z   24
loop_
 _symmetry_equiv_pos_site_id
 _symmetry_equiv_pos_as_xyz
  1  'x, y, z'
loop_
 _atom_type_symbol
 _atom_type_oxidation_number
  Ti4+  4.0
  Cu+  1.0
  Te2-  -2.0
loop_
 _atom_site_type_symbol
 _atom_site_label
 _atom_site_symmetry_multiplicity
 _atom_site_fract_x
 _atom_site_fract_y
 _atom_site_fract_z
 _atom_site_occupancy
  Ti4+  Ti0  1  0.00128990  -0.00086566  0.25746170  1
  Ti4+  Ti1  1  0.00002985  0.49923455  0.25800440  1
  Ti4+  Ti2  1  0.49999946  -0.00184844  0.25643187  1
  Ti4+  Ti3  1  0.50096274  0.50205144  0.26036920  1
  Ti4+  Ti4  1  0.33051002  0.16345181  0.58896652  1
  Ti4+  Ti5  1  0.33051130  0.66740849  0.59092048  1
  Ti4+  Ti6  1  0.83167856  0.16206249  0.59111350  1
  Ti4+  Ti7  1  0.82718565  0.66133250  0.59081027  1
  Ti4+  Ti8  1  0.17215565  0.33737621  0.92256919  1
  Ti4+  Ti9  1  0.16910838  0.83608168  0.92390103  1
  Ti4+  Ti10  1  0.67071523  0.33638273  0.92241028  1
  Ti4+  Ti11  1  0.67015270  0.83596242  0.92721526  1
  Ti4+  Ti12  1  -0.00033002  -0.00073143  0.75588307  1
  Ti4+  Ti13  1  -0.00088563  0.49976647  0.75375272  1
  Ti4+  Ti14  1  0.49978636  0.00035016  0.75700064  1
  Ti4+  Ti15  1  0.49838708  0.49932638  0.75595576  1
  Ti4+  Ti16  1  0.33460962  0.16711563  0.08964416  1
  Ti4+  Ti17  1  0.33536851  0.66935703  0.08926916  1
  Ti4+  Ti18  1  0.83603312  0.16969610  0.08761328  1
  Ti4+  Ti19  1  0.83464474  0.66851391  0.08968131  1
  Ti4+  Ti20  1  0.16423187  0.33015704  0.42186382  1
  Ti4+  Ti21  1  0.16615197  0.83156390  0.42257370  1
  Ti4+  Ti22  1  0.66505494  0.33367486  0.42082153  1
  Ti4+  Ti23  1  0.66525085  0.83335134  0.42306668  1
  Cu+  Cu24  1  0.56829467  0.42025798  0.47643201  1
  Cu+  Cu25  1  0.18971015  0.59661175  0.80796788  1
  Cu+  Cu26  1  0.23880320  0.97644926  0.14133084  1
  Cu+  Cu27  1  0.68872669  0.59642307  0.80995481  1
  Cu+  Cu28  1  0.69197021  0.09588166  0.80827829  1
  Cu+  Cu29  1  0.74773940  0.98739983  0.14467381  1
  Cu+  Cu30  1  0.19241603  0.09761963  0.80594936  1
  Cu+  Cu31  1  0.35539710  0.92666700  0.47236004  1
  Cu+  Cu32  1  0.06722786  0.13896673  0.47310275  1
  Cu+  Cu33  1  0.51958859  0.75583797  0.14363126  1
  Cu+  Cu34  1  0.06839915  0.64245534  0.47342859  1
  Cu+  Cu35  1  0.56879560  0.64960028  0.47803769  1
  Cu+  Cu36  1  0.16591864  0.07908638  0.17184987  1
  Cu+  Cu37  1  0.16277923  0.58210125  0.17243812  1
  Cu+  Cu38  1  0.66593651  0.08044582  0.16893307  1
  Cu+  Cu39  1  0.66457314  0.58302743  0.17335740  1
  Cu+  Cu40  1  0.42044465  0.33699624  0.17398884  1
  Cu+  Cu41  1  0.42303322  0.83717229  0.16950208  1
  Cu+  Cu42  1  0.92044806  0.33902637  0.17043331  1
  Cu+  Cu43  1  0.91958926  0.83770503  0.17042272  1
  Cu+  Cu44  1  0.41290583  0.07661179  0.17040346  1
  Cu+  Cu45  1  0.42232358  0.58556824  0.17336833  1
  Cu+  Cu46  1  0.92018324  0.08301722  0.17097273  1
  Cu+  Cu47  1  0.91958272  0.58370348  0.17272708  1
  Cu+  Cu48  1  0.49328187  0.24774359  0.50218247  1
  Cu+  Cu49  1  0.49312159  0.74718025  0.50523260  1
  Cu+  Cu50  1  0.99492789  0.23975516  0.50373992  1
  Cu+  Cu51  1  0.99455097  0.74205653  0.50503956  1
  Cu+  Cu52  1  0.25408944  0.00135486  0.50269145  1
  Cu+  Cu53  1  0.24694689  0.50151406  0.50382824  1
  Cu+  Cu54  1  0.74974710  0.00318839  0.50505609  1
  Cu+  Cu55  1  0.74347515  0.50187134  0.50224380  1
  Cu+  Cu56  1  0.24219695  0.23994948  0.50232516  1
  Cu+  Cu57  1  0.24886878  0.74862408  0.50396826  1
  Cu+  Cu58  1  0.74676694  0.24461906  0.50498417  1
  Cu+  Cu59  1  0.74388111  0.74321432  0.50446966  1
  Cu+  Cu60  1  0.32945215  0.41594381  0.83648461  1
  Cu+  Cu61  1  0.32921963  0.91718531  0.83816674  1
  Cu+  Cu62  1  0.82913116  0.41624852  0.83447923  1
  Cu+  Cu63  1  0.83009567  0.91574307  0.83885781  1
  Cu+  Cu64  1  0.09163233  0.17009933  0.83680593  1
  Cu+  Cu65  1  0.08788595  0.66972770  0.83649046  1
  Cu+  Cu66  1  0.59048374  0.17002425  0.83738542  1
  Cu+  Cu67  1  0.58718569  0.66939696  0.84007605  1
  Cu+  Cu68  1  0.09067863  0.42243125  0.83550590  1
  Cu+  Cu69  1  0.08987717  0.92213870  0.83741226  1
  Cu+  Cu70  1  0.58930609  0.42084916  0.83670623  1
  Cu+  Cu71  1  0.58900921  0.92122164  0.84117658  1
  Cu+  Cu72  1  0.16726455  0.08153196  0.67706060  1
  Cu+  Cu73  1  0.16718114  0.58601952  0.67847143  1
  Cu+  Cu74  1  0.66963564  0.08301833  0.67974911  1
  Cu+  Cu75  1  0.66485429  0.58300632  0.68049836  1
  Cu+  Cu76  1  0.41068158  0.32999687  0.67395280  1
  Cu+  Cu77  1  0.41296026  0.83247923  0.67616681  1
  Cu+  Cu78  1  0.91277980  0.32755854  0.67259534  1
  Cu+  Cu79  1  0.91004962  0.82700959  0.67485741  1
  Cu+  Cu80  1  0.41402280  0.08147656  0.67407383  1
  Cu+  Cu81  1  0.41248121  0.58288530  0.67692059  1
  Cu+  Cu82  1  0.91383308  0.07986749  0.67571495  1
  Cu+  Cu83  1  0.91062180  0.57937392  0.67413020  1
  Cu+  Cu84  1  0.00825844  0.25708787  0.00483643  1
  Cu+  Cu85  1  0.00355531  0.75331299  0.00700726  1
  Cu+  Cu86  1  0.50690091  0.25518529  0.00584407  1
  Cu+  Cu87  1  0.50599617  0.75522288  0.01401786  1
  Cu+  Cu88  1  0.25124242  0.50164064  0.00829479  1
  Cu+  Cu89  1  0.24907531  0.99919918  0.01269257  1
  Cu+  Cu90  1  0.75056411  0.50076853  0.00831075  1
  Cu+  Cu91  1  0.75179801  1.00108041  0.01458450  1
  Cu+  Cu92  1  0.25266064  0.25429885  0.00857077  1
  Cu+  Cu93  1  0.25017253  0.75162078  0.00882322  1
  Cu+  Cu94  1  0.75337466  0.25549074  0.00719564  1
  Cu+  Cu95  1  0.75041740  0.75103176  0.01150408  1
  Cu+  Cu96  1  0.33461685  0.41857697  0.34173473  1
  Cu+  Cu97  1  0.33603575  0.91698571  0.34400366  1
  Cu+  Cu98  1  0.83498310  0.41798111  0.34080580  1
  Cu+  Cu99  1  0.83479722  0.92008711  0.34294736  1
  Cu+  Cu100  1  0.08063392  0.16118770  0.34397089  1
  Cu+  Cu101  1  0.08024133  0.66053567  0.34536372  1
  Cu+  Cu102  1  0.58138602  0.16412313  0.33863478  1
  Cu+  Cu103  1  0.58112898  0.66503104  0.34841897  1
  Cu+  Cu104  1  0.08052863  0.41568520  0.34112899  1
  Cu+  Cu105  1  0.08293556  0.91636526  0.34183438  1
  Cu+  Cu106  1  0.58201080  0.41994345  0.34746154  1
  Cu+  Cu107  1  0.58348479  0.91791891  0.34326742  1
  Cu+  Cu108  1  0.00258827  0.00351494  0.11394460  1
  Cu+  Cu109  1  0.00061356  0.50267281  0.11463982  1
  Cu+  Cu110  1  0.50320772  0.00603126  0.11256455  1
  Cu+  Cu111  1  0.49942238  0.49811342  0.11728505  1
  Cu+  Cu112  1  0.33153525  0.16580271  0.44466319  1
  Cu+  Cu113  1  0.32972948  0.66288138  0.44753766  1
  Cu+  Cu114  1  0.83209293  0.17137305  0.44780434  1
  Cu+  Cu115  1  0.83392855  0.67026949  0.44793986  1
  Cu+  Cu116  1  0.16035621  0.33062260  0.77919326  1
  Cu+  Cu117  1  0.16137455  0.83170574  0.78089866  1
  Cu+  Cu118  1  0.66131392  0.33102760  0.77931522  1
  Cu+  Cu119  1  0.66279065  0.83227747  0.78469398  1
  Te2-  Te120  1  -0.00160890  -0.00478563  0.38805929  1
  Te2-  Te121  1  -0.00298830  0.49467357  0.38943947  1
  Te2-  Te122  1  0.50258360  0.00173308  0.38682416  1
  Te2-  Te123  1  0.49554617  0.49904019  0.39293732  1
  Te2-  Te124  1  0.33441715  0.16613014  0.71904951  1
  Te2-  Te125  1  0.33384456  0.66867263  0.72112080  1
  Te2-  Te126  1  0.83647159  0.16597554  0.72180144  1
  Te2-  Te127  1  0.83201599  0.66408234  0.72099545  1
  Te2-  Te128  1  0.17086079  0.33717196  0.05162408  1
  Te2-  Te129  1  0.16662993  0.83214721  0.05430121  1
  Te2-  Te130  1  0.67008962  0.33627483  0.05141329  1
  Te2-  Te131  1  0.67139197  0.83513908  0.05924604  1
  Te2-  Te132  1  0.50065216  0.25089752  0.87945739  1
  Te2-  Te133  1  0.50073254  0.75177151  0.88605751  1
  Te2-  Te134  1  1.00273208  0.25227628  0.87830868  1
  Te2-  Te135  1  0.99993257  0.75157881  0.88050276  1
  Te2-  Te136  1  0.25742866  0.01072198  0.88537988  1
  Te2-  Te137  1  0.25972423  0.51213374  0.88267107  1
  Te2-  Te138  1  0.75823784  0.00942017  0.88684871  1
  Te2-  Te139  1  0.75885914  0.51101824  0.88253022  1
  Te2-  Te140  1  0.26059294  0.25060141  0.88285717  1
  Te2-  Te141  1  0.25741948  0.75038192  0.88307704  1
  Te2-  Te142  1  0.76026061  0.25108753  0.88178693  1
  Te2-  Te143  1  0.75718220  0.74963107  0.88543838  1
  Te2-  Te144  1  0.33100780  0.41716589  0.21581218  1
  Te2-  Te145  1  0.32675129  0.90777364  0.21685879  1
  Te2-  Te146  1  0.82881619  0.41484177  0.21517384  1
  Te2-  Te147  1  0.82772856  0.91233554  0.21713846  1
  Te2-  Te148  1  0.08717217  0.16933856  0.21673424  1
  Te2-  Te149  1  0.08630720  0.67201833  0.21901002  1
  Te2-  Te150  1  0.58331789  0.16694400  0.21242624  1
  Te2-  Te151  1  0.59119960  0.67579824  0.22110617  1
  Te2-  Te152  1  0.08699455  0.41417439  0.21585418  1
  Te2-  Te153  1  0.08588238  0.90942902  0.21640946  1
  Te2-  Te154  1  0.58713815  0.41666065  0.22040280  1
  Te2-  Te155  1  0.59050887  0.91168892  0.21745456  1
  Te2-  Te156  1  0.15729861  0.07225389  0.54962334  1
  Te2-  Te157  1  0.15757615  0.57913820  0.55084236  1
  Te2-  Te158  1  0.65914316  0.07802699  0.55271975  1
  Te2-  Te159  1  0.64999780  0.57496378  0.55292068  1
  Te2-  Te160  1  0.41071995  0.33584038  0.54790659  1
  Te2-  Te161  1  0.41943754  0.84054756  0.55023440  1
  Te2-  Te162  1  0.91693788  0.33179867  0.54642207  1
  Te2-  Te163  1  0.91316423  0.83082447  0.54819150  1
  Te2-  Te164  1  0.42237704  0.08144993  0.54840033  1
  Te2-  Te165  1  0.41350426  0.57681691  0.55094250  1
  Te2-  Te166  1  0.91577046  0.07116149  0.55036853  1
  Te2-  Te167  1  0.91071035  0.57206136  0.54852682  1
  Te2-  Te168  1  0.00049946  0.00148781  0.88265972  1
  Te2-  Te169  1  -0.00074444  0.50036419  0.88056322  1
  Te2-  Te170  1  0.49943749  0.00181470  0.88373293  1
  Te2-  Te171  1  0.49901145  0.49942953  0.88278550  1
  Te2-  Te172  1  0.33512532  0.16727514  0.21647381  1
  Te2-  Te173  1  0.33293624  0.66761386  0.21603874  1
  Te2-  Te174  1  0.83549938  0.16906951  0.21460777  1
  Te2-  Te175  1  0.83479585  0.66843995  0.21608045  1
  Te2-  Te176  1  0.16444944  0.33164582  0.54859240  1
  Te2-  Te177  1  0.16346732  0.83274877  0.54986224  1
  Te2-  Te178  1  0.66304644  0.33098507  0.54775943  1
  Te2-  Te179  1  0.66342826  0.83262766  0.54988534  1
  Te2-  Te180  1  0.32518375  0.41312259  0.71121622  1
  Te2-  Te181  1  0.32627301  0.91416934  0.71282945  1
  Te2-  Te182  1  0.82584975  0.41028586  0.70928125  1
  Te2-  Te183  1  0.82578475  0.91128342  0.71328496  1
  Te2-  Te184  1  0.08453598  0.17093223  0.70928173  1
  Te2-  Te185  1  0.08118328  0.67245160  0.70907548  1
  Te2-  Te186  1  0.58437949  0.17125470  0.70982443  1
  Te2-  Te187  1  0.58257882  0.67278686  0.71256892  1
  Te2-  Te188  1  0.08366875  0.41233348  0.70786219  1
  Te2-  Te189  1  0.08139930  0.90949343  0.70977706  1
  Te2-  Te190  1  0.58104978  0.41004315  0.70929242  1
  Te2-  Te191  1  0.58318781  0.91102497  0.71330846  1
  Te2-  Te192  1  0.16249072  0.08460391  0.04462479  1
  Te2-  Te193  1  0.16284724  0.58247466  0.04592081  1
  Te2-  Te194  1  0.66309695  0.08546300  0.04223354  1
  Te2-  Te195  1  0.66177610  0.58121982  0.04711596  1
  Te2-  Te196  1  0.42208702  0.33910365  0.04668304  1
  Te2-  Te197  1  0.42034512  0.84254622  0.04350818  1
  Te2-  Te198  1  0.92323663  0.34152721  0.04384599  1
  Te2-  Te199  1  0.92140115  0.84065616  0.04466916  1
  Te2-  Te200  1  0.42264123  0.08447309  0.04266239  1
  Te2-  Te201  1  0.42149135  0.58216162  0.04558617  1
  Te2-  Te202  1  0.92566685  0.08681576  0.04313520  1
  Te2-  Te203  1  0.92089792  0.58362173  0.04544805  1
  Te2-  Te204  1  0.49284271  0.24564023  0.37502111  1
  Te2-  Te205  1  0.49174326  0.74828573  0.37837906  1
  Te2-  Te206  1  0.99237275  0.24539206  0.37645457  1
  Te2-  Te207  1  0.99347514  0.74640595  0.37764213  1
  Te2-  Te208  1  0.25195228  0.00483359  0.37629377  1
  Te2-  Te209  1  0.24977072  0.50314689  0.37790061  1
  Te2-  Te210  1  0.75252739  0.00670293  0.37956184  1
  Te2-  Te211  1  0.75463713  0.50747070  0.37652269  1
  Te2-  Te212  1  0.25330754  0.24732162  0.37546993  1
  Te2-  Te213  1  0.25279630  0.74504231  0.37657428  1
  Te2-  Te214  1  0.75064921  0.24729882  0.37722407  1
  Te2-  Te215  1  0.75406343  0.74928592  0.37760606  1
