# generated using pymatgen
data_Ti(CuTe)4
_symmetry_space_group_name_H-M   'P 1'
_cell_length_a   16.87743827
_cell_length_b   16.87713127
_cell_length_c   20.69555374
_cell_angle_alpha   90.06961390
_cell_angle_beta   89.94260775
_cell_angle_gamma   119.98119866
_symmetry_Int_Tables_number   1
_chemical_formula_structural   Ti(CuTe)4
_chemical_formula_sum   'Ti24 Cu96 Te96'
_cell_volume   5106.16355641
_cell_formula_units_Z   24
loop_
 _symmetry_equiv_pos_site_id
 _symmetry_equiv_pos_as_xyz
  1  'x, y, z'
loop_
 _atom_type_symbol
 _atom_type_oxidation_number
  Ti4+  4.0
  Cu+  1.0
  Te2-  -2.0
loop_
 _atom_site_type_symbol
 _atom_site_label
 _atom_site_symmetry_multiplicity
 _atom_site_fract_x
 _atom_site_fract_y
 _atom_site_fract_z
 _atom_site_occupancy
  Ti4+  Ti0  1  -0.00039848  -0.00305476  0.26118125  1
  Ti4+  Ti1  1  -0.00342686  0.49537450  0.25866516  1
  Ti4+  Ti2  1  0.49790692  -0.00583816  0.25325730  1
  Ti4+  Ti3  1  0.49668966  0.49534080  0.25693910  1
  Ti4+  Ti4  1  0.33476959  0.16942918  0.59114474  1
  Ti4+  Ti5  1  0.33407251  0.66620447  0.58987010  1
  Ti4+  Ti6  1  0.83253694  0.16730737  0.59134868  1
  Ti4+  Ti7  1  0.83779652  0.66985282  0.59107921  1
  Ti4+  Ti8  1  0.16840428  0.33454831  0.92596346  1
  Ti4+  Ti9  1  0.16538584  0.83623278  0.92426639  1
  Ti4+  Ti10  1  0.66849216  0.33650375  0.92507808  1
  Ti4+  Ti11  1  0.66827975  0.83414554  0.92626781  1
  Ti4+  Ti12  1  0.00210746  0.00141651  0.75648953  1
  Ti4+  Ti13  1  -0.00006142  0.50147467  0.75669840  1
  Ti4+  Ti14  1  0.50044475  0.00184601  0.75581210  1
  Ti4+  Ti15  1  0.50110414  0.50258648  0.75672053  1
  Ti4+  Ti16  1  0.33174933  0.16564692  0.08951930  1
  Ti4+  Ti17  1  0.33275788  0.66734050  0.08702914  1
  Ti4+  Ti18  1  0.83291350  0.16693157  0.08793551  1
  Ti4+  Ti19  1  0.83235236  0.66652571  0.09195271  1
  Ti4+  Ti20  1  0.16777203  0.33355966  0.42136797  1
  Ti4+  Ti21  1  0.16383575  0.83168078  0.42108886  1
  Ti4+  Ti22  1  0.66617749  0.33191871  0.42100280  1
  Ti4+  Ti23  1  0.66663244  0.83334384  0.42187257  1
  Cu+  Cu24  1  0.08024380  0.92887815  0.47946120  1
  Cu+  Cu25  1  0.74620887  0.98007746  0.14049553  1
  Cu+  Cu26  1  0.35872671  0.42915648  0.47415048  1
  Cu+  Cu27  1  0.19162510  0.09724118  0.80687149  1
  Cu+  Cu28  1  0.90714500  0.81481636  0.80987664  1
  Cu+  Cu29  1  0.23488628  0.97206274  0.14037611  1
  Cu+  Cu30  1  0.51320355  0.74925265  0.14168073  1
  Cu+  Cu31  1  0.07847407  0.64903009  0.47408928  1
  Cu+  Cu32  1  0.85047607  0.42225535  0.47660117  1
  Cu+  Cu33  1  0.23650727  0.47643207  0.14089493  1
  Cu+  Cu34  1  0.73691019  0.47280955  0.14079256  1
  Cu+  Cu35  1  0.85121563  0.93013366  0.47873149  1
  Cu+  Cu36  1  0.16445050  0.07496638  0.17345210  1
  Cu+  Cu37  1  0.16282797  0.57727080  0.17072125  1
  Cu+  Cu38  1  0.66381477  0.07568394  0.16605804  1
  Cu+  Cu39  1  0.66399361  0.57470795  0.17102378  1
  Cu+  Cu40  1  0.41479916  0.33542797  0.17044735  1
  Cu+  Cu41  1  0.42270367  0.83775511  0.16465298  1
  Cu+  Cu42  1  0.91556621  0.33700721  0.16944866  1
  Cu+  Cu43  1  0.91889822  0.83677199  0.17463332  1
  Cu+  Cu44  1  0.41073205  0.07475465  0.16851160  1
  Cu+  Cu45  1  0.41284043  0.57653666  0.17010288  1
  Cu+  Cu46  1  0.91524014  0.08026012  0.17350191  1
  Cu+  Cu47  1  0.91157867  0.57696200  0.17394131  1
  Cu+  Cu48  1  0.49609890  0.24808608  0.50315440  1
  Cu+  Cu49  1  0.49502243  0.74788362  0.50339173  1
  Cu+  Cu50  1  0.99517469  0.24857701  0.50288440  1
  Cu+  Cu51  1  0.99703992  0.74941058  0.50110995  1
  Cu+  Cu52  1  0.25121699  0.00581214  0.50415227  1
  Cu+  Cu53  1  0.25663823  0.50337716  0.50147650  1
  Cu+  Cu54  1  0.75289862  0.00429629  0.50438362  1
  Cu+  Cu55  1  0.75477154  0.50233820  0.50278712  1
  Cu+  Cu56  1  0.25648591  0.25418625  0.50343887  1
  Cu+  Cu57  1  0.25002913  0.74618497  0.50312734  1
  Cu+  Cu58  1  0.75246420  0.24914602  0.50322516  1
  Cu+  Cu59  1  0.75516387  0.75374164  0.50367001  1
  Cu+  Cu60  1  0.33073798  0.41779313  0.83972300  1
  Cu+  Cu61  1  0.33188219  0.92000983  0.83775120  1
  Cu+  Cu62  1  0.83020845  0.41916273  0.83932390  1
  Cu+  Cu63  1  0.82984574  0.91260084  0.83887220  1
  Cu+  Cu64  1  0.09095578  0.17130583  0.83880284  1
  Cu+  Cu65  1  0.08318205  0.67081507  0.83841491  1
  Cu+  Cu66  1  0.58635509  0.17274089  0.83878557  1
  Cu+  Cu67  1  0.58576593  0.67132940  0.83922371  1
  Cu+  Cu68  1  0.08474083  0.41678294  0.84087261  1
  Cu+  Cu69  1  0.08628920  0.91771889  0.83697556  1
  Cu+  Cu70  1  0.58846845  0.42028258  0.83973446  1
  Cu+  Cu71  1  0.58606461  0.91814951  0.84052569  1
  Cu+  Cu72  1  0.17119796  0.08871267  0.67894226  1
  Cu+  Cu73  1  0.16927917  0.58423501  0.67392638  1
  Cu+  Cu74  1  0.66874560  0.08481342  0.67349587  1
  Cu+  Cu75  1  0.67121956  0.58830502  0.67498013  1
  Cu+  Cu76  1  0.41768667  0.33589385  0.67665836  1
  Cu+  Cu77  1  0.41516246  0.83092913  0.67358094  1
  Cu+  Cu78  1  0.91388794  0.33180124  0.67662471  1
  Cu+  Cu79  1  0.91839647  0.83480773  0.68178042  1
  Cu+  Cu80  1  0.41585727  0.08519287  0.67411528  1
  Cu+  Cu81  1  0.41686649  0.58508545  0.67525747  1
  Cu+  Cu82  1  0.91490535  0.08590353  0.67675139  1
  Cu+  Cu83  1  0.91879343  0.58558769  0.67687162  1
  Cu+  Cu84  1  0.00324526  0.25316957  0.00839723  1
  Cu+  Cu85  1  -0.00091648  0.75356064  0.00942117  1
  Cu+  Cu86  1  0.50349849  0.25528905  0.00734468  1
  Cu+  Cu87  1  0.50325655  0.75426885  0.01246887  1
  Cu+  Cu88  1  0.24648306  0.49696229  0.01263178  1
  Cu+  Cu89  1  0.24562878  0.99750283  0.01224294  1
  Cu+  Cu90  1  0.74855818  0.49671208  0.01290370  1
  Cu+  Cu91  1  0.74983539  0.99696148  0.01157908  1
  Cu+  Cu92  1  0.24901905  0.25159501  0.00994084  1
  Cu+  Cu93  1  0.24762214  0.75311181  0.00653737  1
  Cu+  Cu94  1  0.75138020  0.25472015  0.00657780  1
  Cu+  Cu95  1  0.75213576  0.75232055  0.01037789  1
  Cu+  Cu96  1  0.33451226  0.41735461  0.34558535  1
  Cu+  Cu97  1  0.33327606  0.91546743  0.33760731  1
  Cu+  Cu98  1  0.83287489  0.41540256  0.34721099  1
  Cu+  Cu99  1  0.83507671  0.91730335  0.34918110  1
  Cu+  Cu100  1  0.08209958  0.16358619  0.34201717  1
  Cu+  Cu101  1  0.07799810  0.66009258  0.34480616  1
  Cu+  Cu102  1  0.57827711  0.15924180  0.33560871  1
  Cu+  Cu103  1  0.57979986  0.66245939  0.34091401  1
  Cu+  Cu104  1  0.08167427  0.41420334  0.34130591  1
  Cu+  Cu105  1  0.08160668  0.91643578  0.34961217  1
  Cu+  Cu106  1  0.57997566  0.41325330  0.34125756  1
  Cu+  Cu107  1  0.58120498  0.91483152  0.33988575  1
  Cu+  Cu108  1  0.00248655  0.00617272  0.11807308  1
  Cu+  Cu109  1  0.00139820  0.50554466  0.11511158  1
  Cu+  Cu110  1  0.50328065  0.00848558  0.10853232  1
  Cu+  Cu111  1  0.50152739  0.50197552  0.11295865  1
  Cu+  Cu112  1  0.33506295  0.16636649  0.44592202  1
  Cu+  Cu113  1  0.33369316  0.66844959  0.44424858  1
  Cu+  Cu114  1  0.83091831  0.16590696  0.44550008  1
  Cu+  Cu115  1  0.82602490  0.66288327  0.44654452  1
  Cu+  Cu116  1  0.16565231  0.33679726  0.78374121  1
  Cu+  Cu117  1  0.17068526  0.83148532  0.78096735  1
  Cu+  Cu118  1  0.66502760  0.33407489  0.78212169  1
  Cu+  Cu119  1  0.66287443  0.83421595  0.78341115  1
  Te2-  Te120  1  0.00108737  0.00177550  0.39280434  1
  Te2-  Te121  1  -0.00083261  0.49508643  0.39026200  1
  Te2-  Te122  1  0.49729766  -0.00378318  0.38180685  1
  Te2-  Te123  1  0.50158889  0.49898515  0.38701370  1
  Te2-  Te124  1  0.33798040  0.17097470  0.72133996  1
  Te2-  Te125  1  0.33352286  0.66683670  0.71834155  1
  Te2-  Te126  1  0.83183284  0.16727111  0.72001067  1
  Te2-  Te127  1  0.83526200  0.66724922  0.72103411  1
  Te2-  Te128  1  0.16535140  0.33111492  0.05687401  1
  Te2-  Te129  1  0.16286846  0.83085518  0.05476828  1
  Te2-  Te130  1  0.66537191  0.33033756  0.05608260  1
  Te2-  Te131  1  0.66838130  0.83171253  0.05818583  1
  Te2-  Te132  1  0.49748663  0.25196070  0.88183065  1
  Te2-  Te133  1  0.49783317  0.75020724  0.88487312  1
  Te2-  Te134  1  0.99825442  0.24744668  0.88263646  1
  Te2-  Te135  1  0.99209370  0.74703577  0.88344008  1
  Te2-  Te136  1  0.25498326  0.00970136  0.88461963  1
  Te2-  Te137  1  0.25225121  0.50583763  0.88540016  1
  Te2-  Te138  1  0.75441922  0.00443474  0.88447882  1
  Te2-  Te139  1  0.75452147  0.50900280  0.88605897  1
  Te2-  Te140  1  0.25917105  0.25060008  0.88431525  1
  Te2-  Te141  1  0.25144284  0.75167495  0.88085385  1
  Te2-  Te142  1  0.75442132  0.25126809  0.88136344  1
  Te2-  Te143  1  0.75270969  0.74394131  0.88469304  1
  Te2-  Te144  1  0.32285386  0.40866864  0.21801563  1
  Te2-  Te145  1  0.32356609  0.90467228  0.21224735  1
  Te2-  Te146  1  0.82266281  0.40761473  0.21940862  1
  Te2-  Te147  1  0.82648064  0.91021073  0.22112410  1
  Te2-  Te148  1  0.08471007  0.16593449  0.21593007  1
  Te2-  Te149  1  0.08205479  0.66539112  0.21672208  1
  Te2-  Te150  1  0.58178361  0.16366042  0.20930921  1
  Te2-  Te151  1  0.58624991  0.66697173  0.21470555  1
  Te2-  Te152  1  0.08157714  0.40727072  0.21571185  1
  Te2-  Te153  1  0.08407741  0.90737267  0.22145592  1
  Te2-  Te154  1  0.58098817  0.40586091  0.21571772  1
  Te2-  Te155  1  0.58856227  0.90765031  0.21401665  1
  Te2-  Te156  1  0.16157351  0.08696429  0.55124681  1
  Te2-  Te157  1  0.16062516  0.57549114  0.54785478  1
  Te2-  Te158  1  0.66230049  0.08160216  0.54765715  1
  Te2-  Te159  1  0.66806396  0.58469400  0.54818592  1
  Te2-  Te160  1  0.42510617  0.34304123  0.55030759  1
  Te2-  Te161  1  0.41744342  0.83735105  0.54744642  1
  Te2-  Te162  1  0.92232926  0.34119544  0.55027547  1
  Te2-  Te163  1  0.92414042  0.84526150  0.55285057  1
  Te2-  Te164  1  0.41807462  0.08164593  0.54838244  1
  Te2-  Te165  1  0.42458503  0.58192938  0.54923398  1
  Te2-  Te166  1  0.92343997  0.08368461  0.55085128  1
  Te2-  Te167  1  0.92408435  0.58094196  0.55023980  1
  Te2-  Te168  1  -0.00008053  0.00141089  0.88389900  1
  Te2-  Te169  1  -0.00003488  0.50210487  0.88277825  1
  Te2-  Te170  1  0.50094171  0.00332405  0.88218426  1
  Te2-  Te171  1  0.50085735  0.50232120  0.88300232  1
  Te2-  Te172  1  0.33388241  0.16552378  0.21636062  1
  Te2-  Te173  1  0.33309723  0.66791392  0.21488376  1
  Te2-  Te174  1  0.83100618  0.16668508  0.21505852  1
  Te2-  Te175  1  0.83178556  0.66598623  0.21885595  1
  Te2-  Te176  1  0.16594676  0.33430539  0.54792127  1
  Te2-  Te177  1  0.16796057  0.83497252  0.54896614  1
  Te2-  Te178  1  0.66607421  0.33289889  0.54802192  1
  Te2-  Te179  1  0.66537071  0.83398843  0.54867080  1
  Te2-  Te180  1  0.32831914  0.41595333  0.71331547  1
  Te2-  Te181  1  0.32902217  0.91527347  0.71066353  1
  Te2-  Te182  1  0.82748135  0.41569688  0.71250787  1
  Te2-  Te183  1  0.82771217  0.91633341  0.71226895  1
  Te2-  Te184  1  0.08538867  0.17468075  0.71203184  1
  Te2-  Te185  1  0.08852348  0.67331647  0.71142617  1
  Te2-  Te186  1  0.58632338  0.17301552  0.71110528  1
  Te2-  Te187  1  0.58742037  0.67437484  0.71224471  1
  Te2-  Te188  1  0.08490575  0.41474290  0.71308486  1
  Te2-  Te189  1  0.09125840  0.91643860  0.70986530  1
  Te2-  Te190  1  0.58858776  0.41812875  0.71219194  1
  Te2-  Te191  1  0.58523916  0.91503751  0.71227936  1
  Te2-  Te192  1  0.15858486  0.08162313  0.04555477  1
  Te2-  Te193  1  0.15974832  0.58304243  0.04301088  1
  Te2-  Te194  1  0.66207281  0.08298114  0.03924770  1
  Te2-  Te195  1  0.66093750  0.58160987  0.04429773  1
  Te2-  Te196  1  0.41870554  0.33918627  0.04545148  1
  Te2-  Te197  1  0.41764595  0.84151968  0.04000485  1
  Te2-  Te198  1  0.92024915  0.34034943  0.04444089  1
  Te2-  Te199  1  0.91960132  0.84113362  0.04937007  1
  Te2-  Te200  1  0.41958574  0.08342324  0.04074454  1
  Te2-  Te201  1  0.42006361  0.58087231  0.04188438  1
  Te2-  Te202  1  0.92181671  0.08244625  0.04486649  1
  Te2-  Te203  1  0.92043603  0.58317024  0.04585144  1
  Te2-  Te204  1  0.49411772  0.24369202  0.37660877  1
  Te2-  Te205  1  0.49415781  0.74593381  0.37718483  1
  Te2-  Te206  1  0.99377725  0.24507575  0.37753348  1
  Te2-  Te207  1  0.98850691  0.74283302  0.37528083  1
  Te2-  Te208  1  0.25468777  0.00524781  0.37643719  1
  Te2-  Te209  1  0.25146136  0.50665605  0.37502208  1
  Te2-  Te210  1  0.75076953  0.00622138  0.37661659  1
  Te2-  Te211  1  0.74998498  0.50534309  0.37560250  1
  Te2-  Te212  1  0.25230274  0.24464366  0.37658279  1
  Te2-  Te213  1  0.25086730  0.74621971  0.37541813  1
  Te2-  Te214  1  0.74789252  0.24158904  0.37523068  1
  Te2-  Te215  1  0.75008810  0.74381867  0.37645742  1
