# generated using pymatgen
data_Ti(CuTe)4
_symmetry_space_group_name_H-M   'P 1'
_cell_length_a   16.84260976
_cell_length_b   16.84184393
_cell_length_c   20.64572220
_cell_angle_alpha   90.01409660
_cell_angle_beta   89.97857157
_cell_angle_gamma   119.98430102
_symmetry_Int_Tables_number   1
_chemical_formula_structural   Ti(CuTe)4
_chemical_formula_sum   'Ti24 Cu96 Te96'
_cell_volume   5072.57392772
_cell_formula_units_Z   24
loop_
 _symmetry_equiv_pos_site_id
 _symmetry_equiv_pos_as_xyz
  1  'x, y, z'
loop_
 _atom_type_symbol
 _atom_type_oxidation_number
  Ti4+  4.0
  Cu+  1.0
  Te2-  -2.0
loop_
 _atom_site_type_symbol
 _atom_site_label
 _atom_site_symmetry_multiplicity
 _atom_site_fract_x
 _atom_site_fract_y
 _atom_site_fract_z
 _atom_site_occupancy
  Ti4+  Ti0  1  -0.00292296  0.00069913  0.25729041  1
  Ti4+  Ti1  1  -0.00274972  0.50153531  0.25765168  1
  Ti4+  Ti2  1  0.49985400  0.00034213  0.25714298  1
  Ti4+  Ti3  1  0.49540921  0.49763394  0.26032557  1
  Ti4+  Ti4  1  0.33225096  0.16968359  0.59230412  1
  Ti4+  Ti5  1  0.33353580  0.66758696  0.59270614  1
  Ti4+  Ti6  1  0.83149193  0.16742056  0.59343606  1
  Ti4+  Ti7  1  0.83225905  0.66799633  0.59071742  1
  Ti4+  Ti8  1  0.17059190  0.33111078  0.92325271  1
  Ti4+  Ti9  1  0.17098257  0.83105188  0.92256057  1
  Ti4+  Ti10  1  0.67157153  0.33421327  0.92258073  1
  Ti4+  Ti11  1  0.66908492  0.83180460  0.92378826  1
  Ti4+  Ti12  1  0.00102620  0.00240520  0.75526799  1
  Ti4+  Ti13  1  -0.00054741  0.49987889  0.75437400  1
  Ti4+  Ti14  1  0.49873692  -0.00012268  0.75460317  1
  Ti4+  Ti15  1  0.50033378  0.50091628  0.75569708  1
  Ti4+  Ti16  1  0.33351708  0.16873961  0.08930618  1
  Ti4+  Ti17  1  0.33332711  0.66696434  0.08908984  1
  Ti4+  Ti18  1  0.83288786  0.16497976  0.08817264  1
  Ti4+  Ti19  1  0.83494047  0.66553102  0.08748163  1
  Ti4+  Ti20  1  0.16683780  0.33452992  0.42428822  1
  Ti4+  Ti21  1  0.16490330  0.83343192  0.42383333  1
  Ti4+  Ti22  1  0.66524815  0.33327098  0.42385981  1
  Ti4+  Ti23  1  0.66485940  0.83332535  0.42338102  1
  Cu+  Cu24  1  0.69329762  0.59439054  0.80519473  1
  Cu+  Cu25  1  0.68398757  0.08559853  0.80977207  1
  Cu+  Cu26  1  0.73739024  0.25876046  0.14245057  1
  Cu+  Cu27  1  0.41642991  0.31727597  0.80983484  1
  Cu+  Cu28  1  0.18841663  0.08770140  0.80756083  1
  Cu+  Cu29  1  0.35778904  0.42928445  0.47711397  1
  Cu+  Cu30  1  0.41531941  0.81566994  0.80955179  1
  Cu+  Cu31  1  0.73542255  0.97469125  0.14071327  1
  Cu+  Cu32  1  0.91401962  0.31542813  0.80973848  1
  Cu+  Cu33  1  0.23499152  0.26395481  0.14399829  1
  Cu+  Cu34  1  0.18563348  0.58555311  0.80775911  1
  Cu+  Cu35  1  0.23702192  0.76334273  0.14191310  1
  Cu+  Cu36  1  0.16354062  0.08809829  0.17058747  1
  Cu+  Cu37  1  0.16297136  0.58729666  0.17037085  1
  Cu+  Cu38  1  0.66297667  0.08136867  0.16941564  1
  Cu+  Cu39  1  0.66487737  0.58272506  0.17281169  1
  Cu+  Cu40  1  0.41141746  0.33696481  0.17222681  1
  Cu+  Cu41  1  0.41272678  0.83650151  0.16912204  1
  Cu+  Cu42  1  0.91334510  0.33796899  0.16929496  1
  Cu+  Cu43  1  0.91625720  0.83503739  0.16952061  1
  Cu+  Cu44  1  0.41818074  0.08223500  0.16995595  1
  Cu+  Cu45  1  0.41572627  0.57926954  0.17266249  1
  Cu+  Cu46  1  0.91279917  0.07434647  0.16832524  1
  Cu+  Cu47  1  0.91799589  0.58025153  0.16879091  1
  Cu+  Cu48  1  0.49691933  0.25076514  0.50604599  1
  Cu+  Cu49  1  0.49659705  0.75243097  0.50593789  1
  Cu+  Cu50  1  0.99600058  0.25110240  0.50685836  1
  Cu+  Cu51  1  0.99568325  0.75002587  0.50562148  1
  Cu+  Cu52  1  0.24693359  0.00175389  0.50714699  1
  Cu+  Cu53  1  0.25462160  0.50279241  0.50609345  1
  Cu+  Cu54  1  0.74841655  0.00280708  0.50674025  1
  Cu+  Cu55  1  0.74881962  0.50307245  0.50619858  1
  Cu+  Cu56  1  0.25466248  0.25293465  0.50613991  1
  Cu+  Cu57  1  0.25027358  0.74934234  0.50802529  1
  Cu+  Cu58  1  0.75045128  0.24916252  0.50792400  1
  Cu+  Cu59  1  0.74935876  0.74853912  0.50610549  1
  Cu+  Cu60  1  0.32989682  0.40724351  0.83435226  1
  Cu+  Cu61  1  0.32863040  0.90661870  0.83299245  1
  Cu+  Cu62  1  0.83010645  0.40958343  0.83348987  1
  Cu+  Cu63  1  0.83100539  0.91404338  0.83636070  1
  Cu+  Cu64  1  0.09304103  0.16835809  0.83491283  1
  Cu+  Cu65  1  0.09239683  0.66939497  0.83346382  1
  Cu+  Cu66  1  0.59254229  0.17004760  0.83361172  1
  Cu+  Cu67  1  0.59292306  0.66894982  0.83537082  1
  Cu+  Cu68  1  0.08631127  0.41445566  0.83751335  1
  Cu+  Cu69  1  0.08630250  0.91669461  0.83698919  1
  Cu+  Cu70  1  0.58913079  0.41941520  0.83712443  1
  Cu+  Cu71  1  0.58632248  0.91395048  0.83836956  1
  Cu+  Cu72  1  0.17027039  0.08926906  0.67836540  1
  Cu+  Cu73  1  0.16990494  0.58650479  0.67806565  1
  Cu+  Cu74  1  0.66866485  0.08760492  0.67974322  1
  Cu+  Cu75  1  0.67177338  0.58903013  0.67724461  1
  Cu+  Cu76  1  0.41290592  0.33335277  0.68041549  1
  Cu+  Cu77  1  0.41172559  0.83061916  0.67971351  1
  Cu+  Cu78  1  0.91075186  0.32973785  0.68007104  1
  Cu+  Cu79  1  0.91332415  0.83338766  0.67321999  1
  Cu+  Cu80  1  0.41376911  0.08458939  0.67374296  1
  Cu+  Cu81  1  0.41588623  0.58470259  0.67543324  1
  Cu+  Cu82  1  0.91426641  0.08437498  0.67411464  1
  Cu+  Cu83  1  0.91410831  0.58521900  0.67267268  1
  Cu+  Cu84  1  0.00371136  0.24905479  0.00790661  1
  Cu+  Cu85  1  0.00449927  0.74903510  0.00527403  1
  Cu+  Cu86  1  0.50376059  0.25192214  0.00787133  1
  Cu+  Cu87  1  0.50228270  0.74790131  0.00868181  1
  Cu+  Cu88  1  0.25276426  0.49804818  0.00777786  1
  Cu+  Cu89  1  0.25281823  0.99863272  0.00714489  1
  Cu+  Cu90  1  0.75185865  0.49872659  0.00685338  1
  Cu+  Cu91  1  0.74980074  0.99539118  0.01279286  1
  Cu+  Cu92  1  0.25125368  0.25122461  0.01429062  1
  Cu+  Cu93  1  0.25122767  0.75038456  0.01286830  1
  Cu+  Cu94  1  0.75186694  0.25202863  0.01316317  1
  Cu+  Cu95  1  0.75125172  0.74902507  0.00770325  1
  Cu+  Cu96  1  0.33406134  0.41679945  0.34889945  1
  Cu+  Cu97  1  0.33394513  0.91698276  0.34312242  1
  Cu+  Cu98  1  0.83317721  0.41724656  0.34269882  1
  Cu+  Cu99  1  0.83294914  0.91738835  0.34235922  1
  Cu+  Cu100  1  0.07942219  0.16546948  0.34248061  1
  Cu+  Cu101  1  0.08215501  0.66572830  0.34283797  1
  Cu+  Cu102  1  0.58310346  0.16479042  0.34317297  1
  Cu+  Cu103  1  0.57901583  0.66393915  0.34341057  1
  Cu+  Cu104  1  0.07954720  0.41831310  0.34008190  1
  Cu+  Cu105  1  0.08092999  0.91929014  0.33993986  1
  Cu+  Cu106  1  0.57893276  0.41520345  0.34247014  1
  Cu+  Cu107  1  0.58177260  0.91745183  0.34102362  1
  Cu+  Cu108  1  0.00399188  -0.00452367  0.11196063  1
  Cu+  Cu109  1  0.00302136  0.49913611  0.11124399  1
  Cu+  Cu110  1  0.49993971  -0.00042531  0.11078328  1
  Cu+  Cu111  1  0.50573486  0.50151552  0.11674485  1
  Cu+  Cu112  1  0.33229598  0.16263129  0.45036880  1
  Cu+  Cu113  1  0.33138029  0.66710233  0.45055914  1
  Cu+  Cu114  1  0.83221095  0.16530769  0.45173602  1
  Cu+  Cu115  1  0.83339471  0.66679468  0.44870143  1
  Cu+  Cu116  1  0.16343563  0.33312470  0.77796487  1
  Cu+  Cu117  1  0.15949863  0.83227533  0.77747740  1
  Cu+  Cu118  1  0.66360947  0.33446501  0.77763774  1
  Cu+  Cu119  1  0.66558045  0.83335650  0.77852136  1
  Te2-  Te120  1  -0.00204077  0.00020968  0.38612126  1
  Te2-  Te121  1  -0.00178892  0.50073714  0.38656194  1
  Te2-  Te122  1  0.49917141  -0.00055392  0.38590066  1
  Te2-  Te123  1  0.50175920  0.50083676  0.39117689  1
  Te2-  Te124  1  0.33586304  0.16713444  0.72515320  1
  Te2-  Te125  1  0.33514085  0.66533479  0.72551508  1
  Te2-  Te126  1  0.83389222  0.16448196  0.72708518  1
  Te2-  Te127  1  0.83845683  0.67115906  0.72254321  1
  Te2-  Te128  1  0.16680373  0.33474204  0.05370298  1
  Te2-  Te129  1  0.16729694  0.83469213  0.05290776  1
  Te2-  Te130  1  0.66757483  0.33529813  0.05297313  1
  Te2-  Te131  1  0.66645315  0.82771088  0.05409198  1
  Te2-  Te132  1  0.50001072  0.24580702  0.88126864  1
  Te2-  Te133  1  0.49708454  0.74159294  0.88187728  1
  Te2-  Te134  1  0.99867160  0.24334388  0.88172794  1
  Te2-  Te135  1  1.00084893  0.74708669  0.87850461  1
  Te2-  Te136  1  0.25882886  0.00326735  0.88106625  1
  Te2-  Te137  1  0.25789797  0.50305975  0.88159797  1
  Te2-  Te138  1  0.75593349  0.00560917  0.88547434  1
  Te2-  Te139  1  0.75914819  0.50636489  0.88061682  1
  Te2-  Te140  1  0.25952643  0.24236025  0.88620125  1
  Te2-  Te141  1  0.25875917  0.74114067  0.88461142  1
  Te2-  Te142  1  0.75854075  0.24370539  0.88534080  1
  Te2-  Te143  1  0.75933477  0.74780189  0.88267541  1
  Te2-  Te144  1  0.32004171  0.41356565  0.22152583  1
  Te2-  Te145  1  0.32520914  0.91641197  0.21715765  1
  Te2-  Te146  1  0.82222757  0.41430280  0.21669335  1
  Te2-  Te147  1  0.82201518  0.90811819  0.21651287  1
  Te2-  Te148  1  0.07923874  0.17456005  0.21583074  1
  Te2-  Te149  1  0.08375671  0.67632719  0.21678133  1
  Te2-  Te150  1  0.58542741  0.17391121  0.21657547  1
  Te2-  Te151  1  0.58263908  0.66881083  0.21767966  1
  Te2-  Te152  1  0.08244191  0.41683839  0.21337523  1
  Te2-  Te153  1  0.08555284  0.91868699  0.21361001  1
  Te2-  Te154  1  0.58028263  0.41247647  0.21600609  1
  Te2-  Te155  1  0.58202995  0.91044421  0.21417929  1
  Te2-  Te156  1  0.16082712  0.08491263  0.55158484  1
  Te2-  Te157  1  0.16259076  0.57932301  0.55144977  1
  Te2-  Te158  1  0.65934913  0.08115645  0.55329193  1
  Te2-  Te159  1  0.65915715  0.58116431  0.55167202  1
  Te2-  Te160  1  0.42349782  0.34430045  0.55371205  1
  Te2-  Te161  1  0.41800691  0.83995684  0.55368646  1
  Te2-  Te162  1  0.91815719  0.33991162  0.55376454  1
  Te2-  Te163  1  0.91773140  0.84020062  0.54819722  1
  Te2-  Te164  1  0.41594174  0.08246040  0.54872900  1
  Te2-  Te165  1  0.42403771  0.58439285  0.55020276  1
  Te2-  Te166  1  0.91742011  0.08247465  0.54869294  1
  Te2-  Te167  1  0.91787036  0.58153765  0.54762877  1
  Te2-  Te168  1  0.00027021  -0.00079695  0.88261730  1
  Te2-  Te169  1  0.00034889  0.49972163  0.88242567  1
  Te2-  Te170  1  0.49945023  -0.00041163  0.88258466  1
  Te2-  Te171  1  0.49970708  0.49918197  0.88358648  1
  Te2-  Te172  1  0.33257439  0.16644576  0.21620492  1
  Te2-  Te173  1  0.33224862  0.66689018  0.21599329  1
  Te2-  Te174  1  0.83338120  0.16681450  0.21524219  1
  Te2-  Te175  1  0.83406583  0.66625149  0.21434564  1
  Te2-  Te176  1  0.16520035  0.33372385  0.55137165  1
  Te2-  Te177  1  0.16400639  0.83316418  0.55066529  1
  Te2-  Te178  1  0.66538499  0.33411684  0.55067711  1
  Te2-  Te179  1  0.66547598  0.83421315  0.55027589  1
  Te2-  Te180  1  0.32477939  0.41641094  0.70906394  1
  Te2-  Te181  1  0.32410682  0.91555620  0.70781504  1
  Te2-  Te182  1  0.82519004  0.41656252  0.70807675  1
  Te2-  Te183  1  0.82770807  0.91586369  0.71064072  1
  Te2-  Te184  1  0.08415507  0.17526987  0.70837825  1
  Te2-  Te185  1  0.08377351  0.67288998  0.70738694  1
  Te2-  Te186  1  0.58285164  0.17420351  0.70800653  1
  Te2-  Te187  1  0.58510275  0.67426443  0.70913787  1
  Te2-  Te188  1  0.08544835  0.41284027  0.70855710  1
  Te2-  Te189  1  0.08469249  0.91503425  0.70832756  1
  Te2-  Te190  1  0.58710243  0.41545707  0.70849630  1
  Te2-  Te191  1  0.58605595  0.91338747  0.70968281  1
  Te2-  Te192  1  0.16154693  0.07756632  0.04231714  1
  Te2-  Te193  1  0.16134566  0.57711539  0.04217600  1
  Te2-  Te194  1  0.65924388  0.07853536  0.04140363  1
  Te2-  Te195  1  0.66255823  0.57943450  0.04455952  1
  Te2-  Te196  1  0.42421459  0.34209021  0.04451110  1
  Te2-  Te197  1  0.42402075  0.83982421  0.04191293  1
  Te2-  Te198  1  0.92408083  0.33889859  0.04238255  1
  Te2-  Te199  1  0.92171004  0.83696555  0.04202327  1
  Te2-  Te200  1  0.42099266  0.08297782  0.04369757  1
  Te2-  Te201  1  0.42016105  0.57949156  0.04629920  1
  Te2-  Te202  1  0.92262348  0.08014915  0.04233208  1
  Te2-  Te203  1  0.92165696  0.57985066  0.04222532  1
  Te2-  Te204  1  0.49309812  0.24569510  0.37920300  1
  Te2-  Te205  1  0.49255241  0.74786334  0.37909812  1
  Te2-  Te206  1  0.99453973  0.24997934  0.38018661  1
  Te2-  Te207  1  0.99429377  0.74915845  0.37815680  1
  Te2-  Te208  1  0.25040003  0.00450796  0.37922411  1
  Te2-  Te209  1  0.24944454  0.50680754  0.37855930  1
  Te2-  Te210  1  0.75094912  0.00549705  0.37953325  1
  Te2-  Te211  1  0.74975388  0.50479133  0.37890819  1
  Te2-  Te212  1  0.24932483  0.24351268  0.37953872  1
  Te2-  Te213  1  0.25165277  0.74766824  0.38088318  1
  Te2-  Te214  1  0.75246662  0.24759032  0.38111628  1
  Te2-  Te215  1  0.75010659  0.74654684  0.37912283  1
