# generated using pymatgen
data_Ti(CuTe)4
_symmetry_space_group_name_H-M   'P 1'
_cell_length_a   16.90210430
_cell_length_b   16.90346733
_cell_length_c   20.71791670
_cell_angle_alpha   89.98828193
_cell_angle_beta   90.02737773
_cell_angle_gamma   120.00654827
_symmetry_Int_Tables_number   1
_chemical_formula_structural   Ti(CuTe)4
_chemical_formula_sum   'Ti24 Cu96 Te96'
_cell_volume   5125.83449638
_cell_formula_units_Z   24
loop_
 _symmetry_equiv_pos_site_id
 _symmetry_equiv_pos_as_xyz
  1  'x, y, z'
loop_
 _atom_type_symbol
 _atom_type_oxidation_number
  Ti4+  4.0
  Cu+  1.0
  Te2-  -2.0
loop_
 _atom_site_type_symbol
 _atom_site_label
 _atom_site_symmetry_multiplicity
 _atom_site_fract_x
 _atom_site_fract_y
 _atom_site_fract_z
 _atom_site_occupancy
  Ti4+  Ti0  1  -0.00253916  -0.00352049  0.26094807  1
  Ti4+  Ti1  1  -0.00350315  0.49805517  0.25311630  1
  Ti4+  Ti2  1  0.49842083  -0.00084294  0.25497942  1
  Ti4+  Ti3  1  0.49994378  0.50196000  0.25864649  1
  Ti4+  Ti4  1  0.33493175  0.17067176  0.58942218  1
  Ti4+  Ti5  1  0.33327467  0.66783922  0.59176010  1
  Ti4+  Ti6  1  0.83431505  0.16731710  0.58875322  1
  Ti4+  Ti7  1  0.83450385  0.66815018  0.59220480  1
  Ti4+  Ti8  1  0.16746658  0.33126572  0.92411440  1
  Ti4+  Ti9  1  0.16907154  0.83336350  0.92901520  1
  Ti4+  Ti10  1  0.66714036  0.33337409  0.92512639  1
  Ti4+  Ti11  1  0.66533661  0.83117109  0.92561209  1
  Ti4+  Ti12  1  0.00187380  0.00184665  0.75783428  1
  Ti4+  Ti13  1  0.00018372  0.50042236  0.75638177  1
  Ti4+  Ti14  1  0.49972057  -0.00099081  0.75637315  1
  Ti4+  Ti15  1  0.50147999  0.50118195  0.75621422  1
  Ti4+  Ti16  1  0.33493615  0.16576357  0.08921280  1
  Ti4+  Ti17  1  0.33346157  0.66548291  0.08689239  1
  Ti4+  Ti18  1  0.83335090  0.16609850  0.08728831  1
  Ti4+  Ti19  1  0.83236952  0.66667469  0.08646297  1
  Ti4+  Ti20  1  0.16694630  0.33370835  0.41809127  1
  Ti4+  Ti21  1  0.16630346  0.83247818  0.42211694  1
  Ti4+  Ti22  1  0.66629015  0.33397842  0.42088985  1
  Ti4+  Ti23  1  0.66644659  0.83340382  0.42098751  1
  Cu+  Cu24  1  0.40411951  0.80825385  0.80958395  1
  Cu+  Cu25  1  0.24102623  0.98626703  0.14690308  1
  Cu+  Cu26  1  0.57949717  0.43210726  0.47557330  1
  Cu+  Cu27  1  0.00347115  0.75233860  0.15050668  1
  Cu+  Cu28  1  0.73897334  0.76098481  0.14183526  1
  Cu+  Cu29  1  0.24328234  0.75386024  0.14482088  1
  Cu+  Cu30  1  0.08091869  0.16140278  0.48197956  1
  Cu+  Cu31  1  0.34804261  0.42985975  0.47650109  1
  Cu+  Cu32  1  0.73493028  0.25408462  0.13827725  1
  Cu+  Cu33  1  0.73714019  0.48691936  0.14143127  1
  Cu+  Cu34  1  0.84336705  0.92176790  0.48269989  1
  Cu+  Cu35  1  0.08000605  0.92177777  0.48487115  1
  Cu+  Cu36  1  0.16413550  0.08050417  0.17314127  1
  Cu+  Cu37  1  0.16236389  0.58115707  0.16656352  1
  Cu+  Cu38  1  0.66291174  0.08322907  0.16891085  1
  Cu+  Cu39  1  0.65990093  0.58344582  0.16899431  1
  Cu+  Cu40  1  0.41803087  0.33614963  0.17224658  1
  Cu+  Cu41  1  0.41696808  0.83586012  0.16784787  1
  Cu+  Cu42  1  0.91151708  0.33377883  0.16650241  1
  Cu+  Cu43  1  0.91563370  0.83923299  0.16969488  1
  Cu+  Cu44  1  0.41637751  0.07726217  0.16766927  1
  Cu+  Cu45  1  0.41644974  0.58022935  0.17062566  1
  Cu+  Cu46  1  0.91571485  0.07921831  0.17225773  1
  Cu+  Cu47  1  0.91592702  0.57549204  0.16388337  1
  Cu+  Cu48  1  0.49881766  0.25474205  0.50177881  1
  Cu+  Cu49  1  0.49557209  0.75134430  0.50411730  1
  Cu+  Cu50  1  0.99371704  0.24746902  0.49960449  1
  Cu+  Cu51  1  0.99665302  0.74828320  0.50469548  1
  Cu+  Cu52  1  0.25297762  0.00503347  0.50291076  1
  Cu+  Cu53  1  0.25359158  0.50740390  0.50211865  1
  Cu+  Cu54  1  0.75313873  0.00521056  0.50125645  1
  Cu+  Cu55  1  0.75077252  0.50391846  0.50521983  1
  Cu+  Cu56  1  0.25690000  0.25168589  0.49834026  1
  Cu+  Cu57  1  0.25299595  0.74937755  0.50524753  1
  Cu+  Cu58  1  0.75262615  0.24876780  0.50304737  1
  Cu+  Cu59  1  0.75408226  0.74882411  0.50279298  1
  Cu+  Cu60  1  0.33108309  0.41306395  0.83859989  1
  Cu+  Cu61  1  0.33183561  0.91197528  0.84042174  1
  Cu+  Cu62  1  0.83077354  0.41509143  0.83963009  1
  Cu+  Cu63  1  0.83240912  0.91465537  0.84119625  1
  Cu+  Cu64  1  0.08784720  0.17090083  0.83899232  1
  Cu+  Cu65  1  0.08468318  0.66934344  0.84104346  1
  Cu+  Cu66  1  0.58636916  0.16989568  0.83882127  1
  Cu+  Cu67  1  0.58744742  0.66974665  0.83897879  1
  Cu+  Cu68  1  0.08423574  0.41318382  0.83814401  1
  Cu+  Cu69  1  0.08755135  0.91797255  0.84276782  1
  Cu+  Cu70  1  0.58642573  0.41635635  0.83932151  1
  Cu+  Cu71  1  0.57921353  0.90941963  0.83812920  1
  Cu+  Cu72  1  0.16928179  0.08597118  0.67672314  1
  Cu+  Cu73  1  0.16816438  0.58562760  0.67514198  1
  Cu+  Cu74  1  0.66966491  0.08447331  0.67301532  1
  Cu+  Cu75  1  0.67073457  0.58604409  0.67706312  1
  Cu+  Cu76  1  0.41796895  0.33452245  0.67572858  1
  Cu+  Cu77  1  0.41364329  0.83048398  0.68024799  1
  Cu+  Cu78  1  0.91506786  0.33101642  0.67291806  1
  Cu+  Cu79  1  0.91844173  0.83333538  0.67914680  1
  Cu+  Cu80  1  0.41652153  0.08614453  0.67399228  1
  Cu+  Cu81  1  0.41768638  0.58627633  0.67606626  1
  Cu+  Cu82  1  0.91688679  0.08477788  0.67569668  1
  Cu+  Cu83  1  0.91601477  0.58531125  0.67631708  1
  Cu+  Cu84  1  0.00485603  0.24875033  0.00694411  1
  Cu+  Cu85  1  0.00355807  0.75312194  0.01621398  1
  Cu+  Cu86  1  0.50223550  0.25200413  0.00737518  1
  Cu+  Cu87  1  0.50248179  0.74760514  0.00918199  1
  Cu+  Cu88  1  0.24955541  0.49350844  0.00603515  1
  Cu+  Cu89  1  0.25088321  0.99743259  0.01509289  1
  Cu+  Cu90  1  0.74870922  0.49735958  0.01140036  1
  Cu+  Cu91  1  0.75020627  0.99612648  0.00695304  1
  Cu+  Cu92  1  0.24953707  0.25059195  0.00798441  1
  Cu+  Cu93  1  0.25032661  0.75084055  0.01444919  1
  Cu+  Cu94  1  0.74927539  0.25257945  0.01074846  1
  Cu+  Cu95  1  0.74810361  0.75173585  0.01322161  1
  Cu+  Cu96  1  0.33545967  0.41885418  0.34604067  1
  Cu+  Cu97  1  0.33445158  0.91532414  0.34188751  1
  Cu+  Cu98  1  0.83348341  0.41658642  0.33922225  1
  Cu+  Cu99  1  0.83365624  0.91545662  0.34907850  1
  Cu+  Cu100  1  0.08068147  0.16250393  0.34798975  1
  Cu+  Cu101  1  0.08239882  0.66321115  0.34060457  1
  Cu+  Cu102  1  0.58146387  0.16318630  0.33942586  1
  Cu+  Cu103  1  0.58192548  0.66697982  0.34171568  1
  Cu+  Cu104  1  0.08118310  0.41777575  0.33543562  1
  Cu+  Cu105  1  0.08069225  0.91480462  0.35050328  1
  Cu+  Cu106  1  0.58225784  0.41989968  0.34642437  1
  Cu+  Cu107  1  0.58043711  0.91750373  0.33796268  1
  Cu+  Cu108  1  0.00360326  0.00754312  0.11593298  1
  Cu+  Cu109  1  0.00216284  0.49496401  0.10808432  1
  Cu+  Cu110  1  0.50325451  -0.00140353  0.11020560  1
  Cu+  Cu111  1  0.49362743  0.49538069  0.11394588  1
  Cu+  Cu112  1  0.33678098  0.16508132  0.44431107  1
  Cu+  Cu113  1  0.33327654  0.66984450  0.44657483  1
  Cu+  Cu114  1  0.83026555  0.16779261  0.44283843  1
  Cu+  Cu115  1  0.83414469  0.66431115  0.44775828  1
  Cu+  Cu116  1  0.16792012  0.33585825  0.78104915  1
  Cu+  Cu117  1  0.16612675  0.83488480  0.78635200  1
  Cu+  Cu118  1  0.66683751  0.33269636  0.78264464  1
  Cu+  Cu119  1  0.67091119  0.83774868  0.78343175  1
  Te2-  Te120  1  -0.00118555  -0.00170255  0.39360427  1
  Te2-  Te121  1  -0.00162757  0.49789516  0.38161443  1
  Te2-  Te122  1  0.49937934  -0.00053161  0.38372668  1
  Te2-  Te123  1  0.50093825  0.50444390  0.39061399  1
  Te2-  Te124  1  0.33509603  0.16916741  0.71770131  1
  Te2-  Te125  1  0.33149658  0.66403799  0.72215433  1
  Te2-  Te126  1  0.83371760  0.16687740  0.71733317  1
  Te2-  Te127  1  0.83500600  0.66813470  0.72082186  1
  Te2-  Te128  1  0.16734905  0.33137978  0.05385073  1
  Te2-  Te129  1  0.16760656  0.83299616  0.06218885  1
  Te2-  Te130  1  0.66387433  0.33268842  0.05754611  1
  Te2-  Te131  1  0.66522845  0.83456472  0.05663248  1
  Te2-  Te132  1  0.49630535  0.24797742  0.88204932  1
  Te2-  Te133  1  0.49160130  0.74069942  0.88366207  1
  Te2-  Te134  1  0.99522929  0.24556688  0.88177679  1
  Te2-  Te135  1  0.99855156  0.75007768  0.88781211  1
  Te2-  Te136  1  0.25545330  0.00340162  0.88743841  1
  Te2-  Te137  1  0.25266550  0.50284147  0.88082320  1
  Te2-  Te138  1  0.74880400  0.00099980  0.88120869  1
  Te2-  Te139  1  0.75336204  0.50491730  0.88465301  1
  Te2-  Te140  1  0.25478531  0.24592895  0.88285839  1
  Te2-  Te141  1  0.25195854  0.74362980  0.88677634  1
  Te2-  Te142  1  0.75308777  0.24783033  0.88431471  1
  Te2-  Te143  1  0.75326747  0.74717308  0.88626748  1
  Te2-  Te144  1  0.32895932  0.41434000  0.21827975  1
  Te2-  Te145  1  0.32157019  0.90943034  0.21630364  1
  Te2-  Te146  1  0.81992800  0.41040483  0.21360894  1
  Te2-  Te147  1  0.82479517  0.91318988  0.22058285  1
  Te2-  Te148  1  0.08289523  0.16599499  0.21913966  1
  Te2-  Te149  1  0.08521574  0.67400304  0.21475194  1
  Te2-  Te150  1  0.58209500  0.17230493  0.21398081  1
  Te2-  Te151  1  0.58369976  0.67494103  0.21601334  1
  Te2-  Te152  1  0.08129969  0.41328942  0.20947182  1
  Te2-  Te153  1  0.08512545  0.90943150  0.22110687  1
  Te2-  Te154  1  0.58504909  0.41436283  0.21862501  1
  Te2-  Te155  1  0.58429397  0.91477995  0.21216239  1
  Te2-  Te156  1  0.15922121  0.08227239  0.55009390  1
  Te2-  Te157  1  0.16213478  0.58166143  0.54911830  1
  Te2-  Te158  1  0.66310581  0.08101557  0.54702688  1
  Te2-  Te159  1  0.66136574  0.58448148  0.55105113  1
  Te2-  Te160  1  0.42260183  0.34671686  0.54929466  1
  Te2-  Te161  1  0.41896964  0.83996915  0.55260944  1
  Te2-  Te162  1  0.92027610  0.33862330  0.54691494  1
  Te2-  Te163  1  0.92294423  0.84453310  0.55261115  1
  Te2-  Te164  1  0.42017180  0.08605663  0.54716260  1
  Te2-  Te165  1  0.42330568  0.58449254  0.54988233  1
  Te2-  Te166  1  0.92330686  0.07906841  0.54968476  1
  Te2-  Te167  1  0.91846606  0.58178604  0.54992041  1
  Te2-  Te168  1  0.00185461  0.00188467  0.88403937  1
  Te2-  Te169  1  0.00040421  0.49841718  0.88250676  1
  Te2-  Te170  1  0.50179535  0.00076109  0.88320869  1
  Te2-  Te171  1  0.50058936  0.49961512  0.88231708  1
  Te2-  Te172  1  0.33512670  0.16597398  0.21627220  1
  Te2-  Te173  1  0.33154854  0.66559497  0.21402975  1
  Te2-  Te174  1  0.83214445  0.16584961  0.21420019  1
  Te2-  Te175  1  0.83275985  0.66463854  0.21499201  1
  Te2-  Te176  1  0.16706150  0.33478814  0.54584376  1
  Te2-  Te177  1  0.16817266  0.83448593  0.54917368  1
  Te2-  Te178  1  0.66788074  0.33333879  0.54758343  1
  Te2-  Te179  1  0.66728636  0.83442842  0.54786855  1
  Te2-  Te180  1  0.32946574  0.41575536  0.71187955  1
  Te2-  Te181  1  0.32692073  0.91634391  0.71275647  1
  Te2-  Te182  1  0.82881975  0.41433356  0.71245293  1
  Te2-  Te183  1  0.83009302  0.91543032  0.71397573  1
  Te2-  Te184  1  0.08677802  0.17329869  0.71261268  1
  Te2-  Te185  1  0.08619193  0.67306517  0.71429589  1
  Te2-  Te186  1  0.58634761  0.17065800  0.71198382  1
  Te2-  Te187  1  0.58796207  0.67379142  0.71307077  1
  Te2-  Te188  1  0.08511760  0.41468531  0.71104723  1
  Te2-  Te189  1  0.08864263  0.91639678  0.71524581  1
  Te2-  Te190  1  0.58784142  0.41548807  0.71260091  1
  Te2-  Te191  1  0.58715960  0.91472144  0.71074481  1
  Te2-  Te192  1  0.16176275  0.08096824  0.04562873  1
  Te2-  Te193  1  0.16164566  0.57686723  0.04003077  1
  Te2-  Te194  1  0.66184589  0.07912755  0.04120160  1
  Te2-  Te195  1  0.65763793  0.57844261  0.04216841  1
  Te2-  Te196  1  0.41901818  0.33762134  0.04556060  1
  Te2-  Te197  1  0.42306489  0.83902844  0.04153812  1
  Te2-  Te198  1  0.92197524  0.33728397  0.04002276  1
  Te2-  Te199  1  0.92092409  0.84300819  0.04352051  1
  Te2-  Te200  1  0.42391764  0.08203273  0.04203885  1
  Te2-  Te201  1  0.41849474  0.57781180  0.04458534  1
  Te2-  Te202  1  0.91938082  0.07949150  0.04530617  1
  Te2-  Te203  1  0.92120483  0.57968164  0.03886420  1
  Te2-  Te204  1  0.49423166  0.24627608  0.37491304  1
  Te2-  Te205  1  0.49388782  0.74895054  0.37778864  1
  Te2-  Te206  1  0.99312346  0.24852541  0.37328124  1
  Te2-  Te207  1  0.99260311  0.74239374  0.37780446  1
  Te2-  Te208  1  0.25423483  0.00531936  0.37608760  1
  Te2-  Te209  1  0.25038931  0.50713149  0.37470310  1
  Te2-  Te210  1  0.75027870  0.00579199  0.37470126  1
  Te2-  Te211  1  0.75478025  0.50694966  0.37710068  1
  Te2-  Te212  1  0.25415243  0.24530956  0.37246070  1
  Te2-  Te213  1  0.25165080  0.74609266  0.37830469  1
  Te2-  Te214  1  0.75089716  0.24730444  0.37608178  1
  Te2-  Te215  1  0.75126224  0.74323623  0.37677292  1
