# generated using pymatgen
data_Ti(CuTe)4
_symmetry_space_group_name_H-M   'P 1'
_cell_length_a   16.89817591
_cell_length_b   16.89821368
_cell_length_c   20.72041075
_cell_angle_alpha   90.00996025
_cell_angle_beta   90.01702734
_cell_angle_gamma   120.00181820
_symmetry_Int_Tables_number   1
_chemical_formula_structural   Ti(CuTe)4
_chemical_formula_sum   'Ti24 Cu96 Te96'
_cell_volume   5123.91138166
_cell_formula_units_Z   24
loop_
 _symmetry_equiv_pos_site_id
 _symmetry_equiv_pos_as_xyz
  1  'x, y, z'
loop_
 _atom_type_symbol
 _atom_type_oxidation_number
  Ti4+  4.0
  Cu+  1.0
  Te2-  -2.0
loop_
 _atom_site_type_symbol
 _atom_site_label
 _atom_site_symmetry_multiplicity
 _atom_site_fract_x
 _atom_site_fract_y
 _atom_site_fract_z
 _atom_site_occupancy
  Ti4+  Ti0  1  0.00267993  0.00123117  0.25633736  1
  Ti4+  Ti1  1  -0.00205805  0.49964932  0.25924886  1
  Ti4+  Ti2  1  0.49971535  -0.00305174  0.25520006  1
  Ti4+  Ti3  1  0.50078131  0.50063276  0.25595327  1
  Ti4+  Ti4  1  0.33328442  0.16912563  0.59120152  1
  Ti4+  Ti5  1  0.33200122  0.66741752  0.59333467  1
  Ti4+  Ti6  1  0.83682178  0.17052763  0.58727233  1
  Ti4+  Ti7  1  0.83171183  0.66747892  0.59094016  1
  Ti4+  Ti8  1  0.16678978  0.33087752  0.92535306  1
  Ti4+  Ti9  1  0.16598154  0.83017169  0.92944248  1
  Ti4+  Ti10  1  0.66504573  0.33102162  0.92397358  1
  Ti4+  Ti11  1  0.66572336  0.83237171  0.92224652  1
  Ti4+  Ti12  1  0.00040389  0.00163136  0.75685044  1
  Ti4+  Ti13  1  -0.00051202  0.50138271  0.75774635  1
  Ti4+  Ti14  1  0.50035095  -0.00055355  0.75540649  1
  Ti4+  Ti15  1  0.49903262  0.49885541  0.75562358  1
  Ti4+  Ti16  1  0.33159320  0.16625566  0.08760066  1
  Ti4+  Ti17  1  0.33630933  0.66722694  0.08808638  1
  Ti4+  Ti18  1  0.83349930  0.16618237  0.08789395  1
  Ti4+  Ti19  1  0.83144073  0.66303335  0.08801754  1
  Ti4+  Ti20  1  0.16624754  0.33301108  0.42109946  1
  Ti4+  Ti21  1  0.16804661  0.83380982  0.42350264  1
  Ti4+  Ti22  1  0.66578222  0.33508802  0.42100719  1
  Ti4+  Ti23  1  0.66800626  0.83453402  0.42148047  1
  Cu+  Cu24  1  0.52649458  0.76195758  0.13746199  1
  Cu+  Cu25  1  0.73642745  0.47338263  0.13883712  1
  Cu+  Cu26  1  0.00758511  0.75194243  0.14908136  1
  Cu+  Cu27  1  0.40460655  0.30951308  0.80873549  1
  Cu+  Cu28  1  0.84621820  0.42907882  0.47850866  1
  Cu+  Cu29  1  0.40330714  0.81066377  0.81034807  1
  Cu+  Cu30  1  0.08058663  0.42910653  0.47788381  1
  Cu+  Cu31  1  0.24475861  0.98932380  0.14664359  1
  Cu+  Cu32  1  0.57168278  0.43046537  0.47376661  1
  Cu+  Cu33  1  0.24042316  0.26271155  0.14165112  1
  Cu+  Cu34  1  0.07430414  0.14551512  0.47390426  1
  Cu+  Cu35  1  0.24630524  0.75214364  0.14966754  1
  Cu+  Cu36  1  0.16258093  0.08397005  0.16821850  1
  Cu+  Cu37  1  0.16254205  0.57975681  0.17156485  1
  Cu+  Cu38  1  0.66448752  0.08052019  0.16928664  1
  Cu+  Cu39  1  0.66242105  0.57472683  0.16853651  1
  Cu+  Cu40  1  0.41550466  0.33816507  0.16933393  1
  Cu+  Cu41  1  0.42275209  0.83710531  0.16742915  1
  Cu+  Cu42  1  0.91730114  0.33558558  0.17222035  1
  Cu+  Cu43  1  0.91990939  0.83706396  0.16886323  1
  Cu+  Cu44  1  0.41659595  0.07831744  0.16873225  1
  Cu+  Cu45  1  0.42547920  0.58730164  0.16822084  1
  Cu+  Cu46  1  0.91991655  0.08378978  0.16995337  1
  Cu+  Cu47  1  0.91352690  0.57612045  0.16999891  1
  Cu+  Cu48  1  0.49731349  0.25609875  0.50376167  1
  Cu+  Cu49  1  0.49912065  0.75175293  0.50717113  1
  Cu+  Cu50  1  0.99779746  0.24967148  0.49988738  1
  Cu+  Cu51  1  0.99878766  0.75054510  0.50514174  1
  Cu+  Cu52  1  0.25239365  0.00364180  0.50527710  1
  Cu+  Cu53  1  0.25108950  0.50694585  0.50559243  1
  Cu+  Cu54  1  0.75390830  0.00505873  0.50146894  1
  Cu+  Cu55  1  0.74933207  0.50635862  0.50308266  1
  Cu+  Cu56  1  0.24970272  0.24565853  0.50323986  1
  Cu+  Cu57  1  0.25241243  0.75025117  0.50627936  1
  Cu+  Cu58  1  0.75610919  0.25376551  0.50058351  1
  Cu+  Cu59  1  0.75176232  0.75062971  0.50404659  1
  Cu+  Cu60  1  0.33019896  0.40853519  0.83849691  1
  Cu+  Cu61  1  0.33082312  0.91094881  0.84141688  1
  Cu+  Cu62  1  0.83001913  0.41605093  0.83927440  1
  Cu+  Cu63  1  0.83058969  0.91629189  0.83740328  1
  Cu+  Cu64  1  0.08542611  0.16938826  0.83918845  1
  Cu+  Cu65  1  0.08420508  0.66960837  0.84192531  1
  Cu+  Cu66  1  0.58680548  0.16986771  0.83632842  1
  Cu+  Cu67  1  0.58428472  0.67018298  0.83677474  1
  Cu+  Cu68  1  0.08329374  0.41519408  0.84033336  1
  Cu+  Cu69  1  0.08234670  0.91401081  0.84279188  1
  Cu+  Cu70  1  0.58079572  0.41055099  0.83787103  1
  Cu+  Cu71  1  0.57969294  0.90964938  0.83594088  1
  Cu+  Cu72  1  0.16762711  0.08504697  0.67691745  1
  Cu+  Cu73  1  0.16676515  0.58664608  0.67802060  1
  Cu+  Cu74  1  0.67147516  0.08692244  0.67123297  1
  Cu+  Cu75  1  0.66804180  0.58472280  0.67479380  1
  Cu+  Cu76  1  0.41513776  0.33099849  0.67918085  1
  Cu+  Cu77  1  0.41441855  0.83039536  0.68064232  1
  Cu+  Cu78  1  0.91693233  0.33460744  0.67407917  1
  Cu+  Cu79  1  0.91606405  0.83202336  0.67552081  1
  Cu+  Cu80  1  0.41714467  0.08603779  0.67488964  1
  Cu+  Cu81  1  0.41469324  0.58601147  0.67579697  1
  Cu+  Cu82  1  0.91891816  0.08776861  0.67328584  1
  Cu+  Cu83  1  0.91482155  0.58618928  0.67648182  1
  Cu+  Cu84  1  0.00240202  0.25041180  0.00871378  1
  Cu+  Cu85  1  0.00146098  0.74803739  0.01681327  1
  Cu+  Cu86  1  0.50129907  0.25138561  0.00712184  1
  Cu+  Cu87  1  0.50428156  0.75131999  0.01045286  1
  Cu+  Cu88  1  0.25033760  0.49528241  0.00729143  1
  Cu+  Cu89  1  0.24695871  0.99430147  0.01495853  1
  Cu+  Cu90  1  0.74498592  0.49312325  0.01078645  1
  Cu+  Cu91  1  0.74849443  0.99776106  0.00512935  1
  Cu+  Cu92  1  0.24865628  0.25121571  0.01294125  1
  Cu+  Cu93  1  0.24901926  0.74936125  0.01699965  1
  Cu+  Cu94  1  0.75049422  0.25181060  0.00752579  1
  Cu+  Cu95  1  0.74695391  0.74877298  0.00524867  1
  Cu+  Cu96  1  0.33503227  0.41846936  0.34078298  1
  Cu+  Cu97  1  0.33547864  0.91553541  0.34243470  1
  Cu+  Cu98  1  0.83410545  0.41838468  0.34719959  1
  Cu+  Cu99  1  0.83764218  0.91906818  0.33989193  1
  Cu+  Cu100  1  0.08545182  0.16442384  0.34492325  1
  Cu+  Cu101  1  0.08341899  0.66555754  0.34427937  1
  Cu+  Cu102  1  0.57879230  0.16068464  0.33851048  1
  Cu+  Cu103  1  0.58436463  0.66639458  0.34086959  1
  Cu+  Cu104  1  0.08148432  0.41852663  0.34733860  1
  Cu+  Cu105  1  0.08609622  0.91893562  0.34253173  1
  Cu+  Cu106  1  0.57992698  0.41722181  0.34476112  1
  Cu+  Cu107  1  0.58200888  0.91522895  0.34002527  1
  Cu+  Cu108  1  -0.00620247  -0.00263598  0.11171869  1
  Cu+  Cu109  1  0.00117316  0.49654013  0.11488088  1
  Cu+  Cu110  1  0.50428501  0.00516806  0.11094849  1
  Cu+  Cu111  1  0.50086011  0.49996450  0.11080382  1
  Cu+  Cu112  1  0.33554519  0.16486717  0.44803251  1
  Cu+  Cu113  1  0.33820504  0.67050246  0.45085160  1
  Cu+  Cu114  1  0.82981207  0.16557225  0.44259144  1
  Cu+  Cu115  1  0.83719612  0.67339406  0.44832492  1
  Cu+  Cu116  1  0.16512058  0.33585433  0.78336945  1
  Cu+  Cu117  1  0.16653995  0.83702387  0.78737422  1
  Cu+  Cu118  1  0.66895926  0.33394368  0.78053524  1
  Cu+  Cu119  1  0.66955215  0.83599417  0.77879190  1
  Te2-  Te120  1  0.00076274  -0.00208979  0.38644160  1
  Te2-  Te121  1  -0.00019697  0.50257344  0.39092448  1
  Te2-  Te122  1  0.50046969  -0.00225312  0.38386438  1
  Te2-  Te123  1  0.49864566  0.50256049  0.38615968  1
  Te2-  Te124  1  0.33200356  0.16436213  0.72139400  1
  Te2-  Te125  1  0.33054803  0.66444819  0.72400259  1
  Te2-  Te126  1  0.83543199  0.16929582  0.71557542  1
  Te2-  Te127  1  0.83187300  0.66774558  0.71957354  1
  Te2-  Te128  1  0.16508974  0.33365910  0.05617024  1
  Te2-  Te129  1  0.16584028  0.83058971  0.06338080  1
  Te2-  Te130  1  0.66355890  0.32748764  0.05495929  1
  Te2-  Te131  1  0.67105548  0.83511255  0.05280770  1
  Te2-  Te132  1  0.49105817  0.24086229  0.88193079  1
  Te2-  Te133  1  0.49050569  0.74195108  0.88409075  1
  Te2-  Te134  1  0.99576081  0.24705684  0.88323934  1
  Te2-  Te135  1  0.99560809  0.74670021  0.88937879  1
  Te2-  Te136  1  0.25130145  -0.00060934  0.88712675  1
  Te2-  Te137  1  0.25339987  0.50076294  0.88156754  1
  Te2-  Te138  1  0.74828760  0.00269828  0.87943882  1
  Te2-  Te139  1  0.74829388  0.50220334  0.88403371  1
  Te2-  Te140  1  0.25150006  0.24080492  0.88619109  1
  Te2-  Te141  1  0.25069356  0.74213346  0.88885228  1
  Te2-  Te142  1  0.75303886  0.24786962  0.88198894  1
  Te2-  Te143  1  0.75180220  0.74739220  0.88000397  1
  Te2-  Te144  1  0.32762031  0.41966162  0.21502338  1
  Te2-  Te145  1  0.32353130  0.90900324  0.21686710  1
  Te2-  Te146  1  0.82483195  0.41054481  0.21924148  1
  Te2-  Te147  1  0.83241012  0.91536820  0.21391762  1
  Te2-  Te148  1  0.08715083  0.17490172  0.21749388  1
  Te2-  Te149  1  0.08573008  0.67364568  0.21821641  1
  Te2-  Te150  1  0.58281586  0.16775702  0.21282026  1
  Te2-  Te151  1  0.59323330  0.67362175  0.21473611  1
  Te2-  Te152  1  0.08460460  0.41532533  0.21957783  1
  Te2-  Te153  1  0.08974742  0.91302213  0.21681611  1
  Te2-  Te154  1  0.58199829  0.40796095  0.21735420  1
  Te2-  Te155  1  0.58960601  0.91297726  0.21446041  1
  Te2-  Te156  1  0.15929912  0.07792350  0.55073603  1
  Te2-  Te157  1  0.15812154  0.58378029  0.55213145  1
  Te2-  Te158  1  0.66637966  0.08623038  0.54510656  1
  Te2-  Te159  1  0.65781813  0.58285472  0.54905886  1
  Te2-  Te160  1  0.41629026  0.34290201  0.55148036  1
  Te2-  Te161  1  0.41854915  0.83862126  0.55334902  1
  Te2-  Te162  1  0.92461176  0.34690770  0.54817227  1
  Te2-  Te163  1  0.91908997  0.83846255  0.54947271  1
  Te2-  Te164  1  0.42124569  0.08713012  0.54855615  1
  Te2-  Te165  1  0.41731799  0.58223126  0.54982328  1
  Te2-  Te166  1  0.92126800  0.08127242  0.54731619  1
  Te2-  Te167  1  0.92056225  0.58291561  0.55030027  1
  Te2-  Te168  1  -0.00164848  -0.00004885  0.88320912  1
  Te2-  Te169  1  -0.00140424  0.49924134  0.88389741  1
  Te2-  Te170  1  0.50222013  0.00086527  0.88218854  1
  Te2-  Te171  1  0.50056199  0.50027013  0.88214548  1
  Te2-  Te172  1  0.33394441  0.16703108  0.21510672  1
  Te2-  Te173  1  0.33448679  0.66615562  0.21579917  1
  Te2-  Te174  1  0.83307434  0.16575833  0.21434053  1
  Te2-  Te175  1  0.83240365  0.66658799  0.21569721  1
  Te2-  Te176  1  0.16739285  0.33472176  0.54846329  1
  Te2-  Te177  1  0.16761500  0.83508977  0.54963531  1
  Te2-  Te178  1  0.66767338  0.33479878  0.54849163  1
  Te2-  Te179  1  0.66920450  0.83715724  0.54785786  1
  Te2-  Te180  1  0.32642451  0.41513696  0.71127192  1
  Te2-  Te181  1  0.32707912  0.91595832  0.71341691  1
  Te2-  Te182  1  0.82869207  0.41582982  0.71204361  1
  Te2-  Te183  1  0.83039111  0.91725632  0.71039549  1
  Te2-  Te184  1  0.08711505  0.17401083  0.71294144  1
  Te2-  Te185  1  0.08461353  0.67413544  0.71542295  1
  Te2-  Te186  1  0.58720602  0.17158746  0.71021062  1
  Te2-  Te187  1  0.58468288  0.67146982  0.71099003  1
  Te2-  Te188  1  0.08564136  0.41606922  0.71313569  1
  Te2-  Te189  1  0.08559682  0.91470235  0.71499553  1
  Te2-  Te190  1  0.58773985  0.41496760  0.71075293  1
  Te2-  Te191  1  0.58867369  0.91668385  0.70869709  1
  Te2-  Te192  1  0.15714338  0.07765083  0.04183793  1
  Te2-  Te193  1  0.16174795  0.57621670  0.04458101  1
  Te2-  Te194  1  0.66262939  0.08109436  0.04252538  1
  Te2-  Te195  1  0.65943203  0.57990113  0.04187050  1
  Te2-  Te196  1  0.42113554  0.33958924  0.04290153  1
  Te2-  Te197  1  0.42230372  0.84156537  0.04133295  1
  Te2-  Te198  1  0.91997020  0.33827726  0.04525731  1
  Te2-  Te199  1  0.91625248  0.83643133  0.04227301  1
  Te2-  Te200  1  0.42009346  0.08120942  0.04200543  1
  Te2-  Te201  1  0.41992954  0.57871739  0.04188229  1
  Te2-  Te202  1  0.91837875  0.07996338  0.04303433  1
  Te2-  Te203  1  0.91769787  0.57481742  0.04325212  1
  Te2-  Te204  1  0.49331001  0.24466262  0.37631570  1
  Te2-  Te205  1  0.49564341  0.74703896  0.37940489  1
  Te2-  Te206  1  0.99282547  0.24534666  0.37340841  1
  Te2-  Te207  1  0.99609371  0.74871704  0.37827476  1
  Te2-  Te208  1  0.25526420  0.00543595  0.37847678  1
  Te2-  Te209  1  0.25421591  0.50726599  0.37814224  1
  Te2-  Te210  1  0.75304212  0.00482944  0.37483507  1
  Te2-  Te211  1  0.75254211  0.50936408  0.37584166  1
  Te2-  Te212  1  0.25690709  0.24963740  0.37702030  1
  Te2-  Te213  1  0.25339656  0.74640093  0.37980472  1
  Te2-  Te214  1  0.74858504  0.24531417  0.37411883  1
  Te2-  Te215  1  0.75444145  0.74924116  0.37717661  1
