# generated using pymatgen
data_Ti(CuTe)4
_symmetry_space_group_name_H-M   'P 1'
_cell_length_a   16.87328839
_cell_length_b   16.87448023
_cell_length_c   20.68539747
_cell_angle_alpha   89.99778617
_cell_angle_beta   90.00114134
_cell_angle_gamma   120.00513381
_symmetry_Int_Tables_number   1
_chemical_formula_structural   Ti(CuTe)4
_chemical_formula_sum   'Ti24 Cu96 Te96'
_cell_volume   5100.37568367
_cell_formula_units_Z   24
loop_
 _symmetry_equiv_pos_site_id
 _symmetry_equiv_pos_as_xyz
  1  'x, y, z'
loop_
 _atom_type_symbol
 _atom_type_oxidation_number
  Ti4+  4.0
  Cu+  1.0
  Te2-  -2.0
loop_
 _atom_site_type_symbol
 _atom_site_label
 _atom_site_symmetry_multiplicity
 _atom_site_fract_x
 _atom_site_fract_y
 _atom_site_fract_z
 _atom_site_occupancy
  Ti4+  Ti0  1  -0.00000785  -0.00006425  0.25720805  1
  Ti4+  Ti1  1  -0.00306837  0.50026020  0.26121748  1
  Ti4+  Ti2  1  0.49870899  -0.00212890  0.25435757  1
  Ti4+  Ti3  1  0.50129216  0.50247638  0.25828893  1
  Ti4+  Ti4  1  0.33658360  0.17112338  0.59103818  1
  Ti4+  Ti5  1  0.33126932  0.66770883  0.59115395  1
  Ti4+  Ti6  1  0.83501757  0.16702877  0.58863470  1
  Ti4+  Ti7  1  0.83291029  0.66836173  0.59170200  1
  Ti4+  Ti8  1  0.16710614  0.32979392  0.92444416  1
  Ti4+  Ti9  1  0.16761722  0.83083786  0.92573489  1
  Ti4+  Ti10  1  0.66833740  0.33556504  0.92748600  1
  Ti4+  Ti11  1  0.66592688  0.83011907  0.92260801  1
  Ti4+  Ti12  1  0.00103664  0.00197700  0.75490127  1
  Ti4+  Ti13  1  -0.00038961  0.50107838  0.75826966  1
  Ti4+  Ti14  1  0.49890948  -0.00233261  0.75614111  1
  Ti4+  Ti15  1  0.50125718  0.50059824  0.75524183  1
  Ti4+  Ti16  1  0.33376568  0.16580746  0.08745321  1
  Ti4+  Ti17  1  0.33423746  0.66728113  0.08963031  1
  Ti4+  Ti18  1  0.83240181  0.16561370  0.08814592  1
  Ti4+  Ti19  1  0.83243464  0.66471447  0.09036191  1
  Ti4+  Ti20  1  0.16595348  0.33436732  0.41859027  1
  Ti4+  Ti21  1  0.16706042  0.83297775  0.42135624  1
  Ti4+  Ti22  1  0.66331337  0.33348101  0.42246012  1
  Ti4+  Ti23  1  0.66870534  0.83488795  0.42307161  1
  Cu+  Cu24  1  0.83566494  0.41967915  0.48728690  1
  Cu+  Cu25  1  0.52532343  0.76257965  0.13687589  1
  Cu+  Cu26  1  0.68964422  0.59291834  0.80811075  1
  Cu+  Cu27  1  0.23530309  0.75796681  0.14209763  1
  Cu+  Cu28  1  0.07762702  0.65688804  0.48192344  1
  Cu+  Cu29  1  0.07689941  0.42327179  0.47808561  1
  Cu+  Cu30  1  0.40248915  0.80433732  0.80851606  1
  Cu+  Cu31  1  0.57035304  0.43247669  0.47493451  1
  Cu+  Cu32  1  0.73829319  0.48254034  0.14704268  1
  Cu+  Cu33  1  0.73969480  0.25661919  0.14515424  1
  Cu+  Cu34  1  0.40874453  0.31197750  0.80874054  1
  Cu+  Cu35  1  0.86133030  0.92930696  0.47204245  1
  Cu+  Cu36  1  0.16437159  0.08143157  0.17059059  1
  Cu+  Cu37  1  0.16264549  0.58533775  0.17386509  1
  Cu+  Cu38  1  0.66191634  0.08179564  0.16766549  1
  Cu+  Cu39  1  0.66161777  0.57929184  0.17181154  1
  Cu+  Cu40  1  0.41770007  0.33507525  0.17108304  1
  Cu+  Cu41  1  0.41766295  0.83473129  0.16785613  1
  Cu+  Cu42  1  0.91421540  0.33474742  0.17271361  1
  Cu+  Cu43  1  0.91681783  0.83672861  0.17243862  1
  Cu+  Cu44  1  0.41666394  0.07948433  0.16695205  1
  Cu+  Cu45  1  0.42383101  0.58896451  0.17129600  1
  Cu+  Cu46  1  0.91695040  0.07848541  0.17101085  1
  Cu+  Cu47  1  0.91452415  0.57827205  0.17265717  1
  Cu+  Cu48  1  0.49537261  0.25555575  0.50334427  1
  Cu+  Cu49  1  0.49604555  0.75226894  0.50675577  1
  Cu+  Cu50  1  0.99490718  0.24896827  0.49846363  1
  Cu+  Cu51  1  0.99727533  0.74918338  0.50243503  1
  Cu+  Cu52  1  0.25491961  0.00470828  0.50442300  1
  Cu+  Cu53  1  0.25035011  0.50432877  0.50142131  1
  Cu+  Cu54  1  0.75774055  0.00293095  0.50280855  1
  Cu+  Cu55  1  0.74518348  0.50424517  0.50460629  1
  Cu+  Cu56  1  0.25462702  0.25173101  0.50217722  1
  Cu+  Cu57  1  0.25202635  0.74843542  0.50337412  1
  Cu+  Cu58  1  0.75086054  0.24571936  0.50195099  1
  Cu+  Cu59  1  0.75565099  0.75436562  0.50502651  1
  Cu+  Cu60  1  0.32904230  0.40845567  0.83684144  1
  Cu+  Cu61  1  0.33094867  0.90767223  0.83841172  1
  Cu+  Cu62  1  0.83127504  0.41680992  0.84126724  1
  Cu+  Cu63  1  0.83135324  0.91463182  0.83638992  1
  Cu+  Cu64  1  0.08641207  0.17000541  0.83673288  1
  Cu+  Cu65  1  0.08573080  0.67004418  0.84022398  1
  Cu+  Cu66  1  0.58820129  0.16873530  0.83941921  1
  Cu+  Cu67  1  0.59040637  0.67034090  0.83547430  1
  Cu+  Cu68  1  0.08410139  0.41424205  0.84041252  1
  Cu+  Cu69  1  0.08430464  0.91565959  0.83911173  1
  Cu+  Cu70  1  0.58755466  0.41750967  0.83799882  1
  Cu+  Cu71  1  0.57753001  0.90783529  0.83709254  1
  Cu+  Cu72  1  0.17138749  0.08754696  0.67381813  1
  Cu+  Cu73  1  0.16476310  0.58470559  0.67739521  1
  Cu+  Cu74  1  0.67019102  0.08435820  0.67189543  1
  Cu+  Cu75  1  0.66941990  0.58720920  0.67972929  1
  Cu+  Cu76  1  0.41798575  0.33293374  0.67975610  1
  Cu+  Cu77  1  0.41227841  0.82889648  0.67904786  1
  Cu+  Cu78  1  0.91477543  0.33271858  0.67606352  1
  Cu+  Cu79  1  0.91732829  0.83432528  0.67632196  1
  Cu+  Cu80  1  0.41872905  0.08708400  0.67437551  1
  Cu+  Cu81  1  0.41472862  0.58491966  0.67383010  1
  Cu+  Cu82  1  0.91786929  0.08605370  0.67313548  1
  Cu+  Cu83  1  0.91540740  0.58349013  0.67901855  1
  Cu+  Cu84  1  0.00318267  0.24887737  0.00803123  1
  Cu+  Cu85  1  0.00249222  0.75002922  0.01004882  1
  Cu+  Cu86  1  0.50170446  0.25194868  0.00851802  1
  Cu+  Cu87  1  0.50369776  0.74892692  0.00951959  1
  Cu+  Cu88  1  0.24728302  0.49294366  0.00755540  1
  Cu+  Cu89  1  0.24977258  0.99588435  0.00678054  1
  Cu+  Cu90  1  0.74981032  0.49846522  0.01620437  1
  Cu+  Cu91  1  0.74844363  0.99653792  0.00465281  1
  Cu+  Cu92  1  0.24923649  0.24958528  0.00805905  1
  Cu+  Cu93  1  0.24804083  0.74898081  0.01394611  1
  Cu+  Cu94  1  0.75065389  0.25333276  0.01508213  1
  Cu+  Cu95  1  0.74953929  0.74840490  0.00813366  1
  Cu+  Cu96  1  0.33527314  0.41890314  0.33917372  1
  Cu+  Cu97  1  0.33475096  0.91551780  0.33896142  1
  Cu+  Cu98  1  0.83127879  0.41627772  0.35294669  1
  Cu+  Cu99  1  0.83960492  0.91934799  0.34459741  1
  Cu+  Cu100  1  0.08343736  0.16527948  0.33856878  1
  Cu+  Cu101  1  0.08279570  0.66559021  0.34909904  1
  Cu+  Cu102  1  0.57822703  0.16241730  0.33968330  1
  Cu+  Cu103  1  0.58319391  0.66711477  0.34240310  1
  Cu+  Cu104  1  0.08112806  0.41901457  0.34662181  1
  Cu+  Cu105  1  0.08362822  0.91868698  0.33972746  1
  Cu+  Cu106  1  0.57866731  0.41789955  0.34747645  1
  Cu+  Cu107  1  0.58159210  0.91684438  0.33830750  1
  Cu+  Cu108  1  0.00179555  -0.00000796  0.11445213  1
  Cu+  Cu109  1  0.00212518  0.49755542  0.11716892  1
  Cu+  Cu110  1  0.49999147  -0.00064230  0.10853278  1
  Cu+  Cu111  1  0.49478820  0.49695900  0.11514515  1
  Cu+  Cu112  1  0.32934194  0.16324879  0.44683138  1
  Cu+  Cu113  1  0.33775917  0.66763252  0.44668108  1
  Cu+  Cu114  1  0.82953761  0.16331461  0.44233066  1
  Cu+  Cu115  1  0.83372643  0.66895317  0.44688986  1
  Cu+  Cu116  1  0.16393694  0.33504022  0.78112415  1
  Cu+  Cu117  1  0.16671469  0.83792928  0.78314303  1
  Cu+  Cu118  1  0.66762535  0.32995060  0.78355371  1
  Cu+  Cu119  1  0.67050246  0.84070766  0.77904697  1
  Te2-  Te120  1  0.00591282  0.00329329  0.38808762  1
  Te2-  Te121  1  -0.00224614  0.50024260  0.39408848  1
  Te2-  Te122  1  0.49897330  -0.00199162  0.38317406  1
  Te2-  Te123  1  0.49742278  0.50365320  0.38879748  1
  Te2-  Te124  1  0.33468426  0.16629149  0.72167209  1
  Te2-  Te125  1  0.32941511  0.66259666  0.72184701  1
  Te2-  Te126  1  0.83409201  0.16687746  0.71712426  1
  Te2-  Te127  1  0.83625745  0.66977917  0.72180375  1
  Te2-  Te128  1  0.16652844  0.33022853  0.05391804  1
  Te2-  Te129  1  0.16615490  0.83354543  0.05638262  1
  Te2-  Te130  1  0.66394657  0.33240662  0.05946102  1
  Te2-  Te131  1  0.67021384  0.83366303  0.05289854  1
  Te2-  Te132  1  0.49684572  0.24627634  0.88254368  1
  Te2-  Te133  1  0.49210647  0.73834393  0.88271033  1
  Te2-  Te134  1  0.99550724  0.24547205  0.88216138  1
  Te2-  Te135  1  0.99645245  0.74794410  0.88421348  1
  Te2-  Te136  1  0.25380939  0.00031764  0.88082220  1
  Te2-  Te137  1  0.25348007  0.50101384  0.88167855  1
  Te2-  Te138  1  0.74793660  0.00002858  0.87866039  1
  Te2-  Te139  1  0.75647154  0.50868178  0.88758603  1
  Te2-  Te140  1  0.25247746  0.24029752  0.88249654  1
  Te2-  Te141  1  0.25148999  0.73975975  0.88629798  1
  Te2-  Te142  1  0.75401120  0.25000664  0.88714481  1
  Te2-  Te143  1  0.75800043  0.74784147  0.88242690  1
  Te2-  Te144  1  0.33203262  0.41873985  0.21320533  1
  Te2-  Te145  1  0.32541073  0.91325568  0.21315307  1
  Te2-  Te146  1  0.82142070  0.41062025  0.22264019  1
  Te2-  Te147  1  0.82696780  0.91300656  0.21786291  1
  Te2-  Te148  1  0.08538880  0.17091825  0.21302449  1
  Te2-  Te149  1  0.08089094  0.67257659  0.22070664  1
  Te2-  Te150  1  0.58210137  0.17192031  0.21391722  1
  Te2-  Te151  1  0.59190987  0.67635706  0.21679012  1
  Te2-  Te152  1  0.08251547  0.41642587  0.21842169  1
  Te2-  Te153  1  0.08522192  0.91364048  0.21442707  1
  Te2-  Te154  1  0.58306714  0.41015799  0.21975962  1
  Te2-  Te155  1  0.58827475  0.91437139  0.21263434  1
  Te2-  Te156  1  0.16612661  0.08457727  0.54768052  1
  Te2-  Te157  1  0.15518108  0.57863879  0.55118084  1
  Te2-  Te158  1  0.66442983  0.07902984  0.54594463  1
  Te2-  Te159  1  0.65995089  0.58663115  0.55202115  1
  Te2-  Te160  1  0.41931532  0.34645198  0.55198080  1
  Te2-  Te161  1  0.41654811  0.83943621  0.55171706  1
  Te2-  Te162  1  0.92115266  0.34353262  0.54978568  1
  Te2-  Te163  1  0.92448340  0.84132049  0.55032838  1
  Te2-  Te164  1  0.42315006  0.08706912  0.54825041  1
  Te2-  Te165  1  0.41664484  0.58297473  0.54787947  1
  Te2-  Te166  1  0.92663585  0.08444082  0.54719540  1
  Te2-  Te167  1  0.91886773  0.57929765  0.55218052  1
  Te2-  Te168  1  -0.00001383  0.00047497  0.88132014  1
  Te2-  Te169  1  0.00102804  0.49991947  0.88424059  1
  Te2-  Te170  1  0.50069206  -0.00094924  0.88320798  1
  Te2-  Te171  1  0.49914077  0.49971163  0.88262741  1
  Te2-  Te172  1  0.33336479  0.16519254  0.21384385  1
  Te2-  Te173  1  0.33266533  0.66676581  0.21735460  1
  Te2-  Te174  1  0.83124875  0.16336455  0.21520341  1
  Te2-  Te175  1  0.83211366  0.66706356  0.21736590  1
  Te2-  Te176  1  0.16555019  0.33373122  0.54589719  1
  Te2-  Te177  1  0.16783578  0.83522231  0.54880122  1
  Te2-  Te178  1  0.66537674  0.33123021  0.55045589  1
  Te2-  Te179  1  0.66625256  0.83498199  0.54990378  1
  Te2-  Te180  1  0.32777135  0.41545480  0.71009473  1
  Te2-  Te181  1  0.32690517  0.91608193  0.71062711  1
  Te2-  Te182  1  0.82682775  0.41365690  0.71437935  1
  Te2-  Te183  1  0.82890565  0.91607199  0.70959181  1
  Te2-  Te184  1  0.08787900  0.17406466  0.71040492  1
  Te2-  Te185  1  0.08567501  0.67445537  0.71412074  1
  Te2-  Te186  1  0.58782502  0.17041385  0.71255261  1
  Te2-  Te187  1  0.58431045  0.67456649  0.70972685  1
  Te2-  Te188  1  0.08442169  0.41458488  0.71280639  1
  Te2-  Te189  1  0.08802164  0.91689031  0.71120297  1
  Te2-  Te190  1  0.59017374  0.41485889  0.71030775  1
  Te2-  Te191  1  0.58599698  0.91406008  0.70876362  1
  Te2-  Te192  1  0.16197681  0.07866873  0.04348451  1
  Te2-  Te193  1  0.16104402  0.57654326  0.04583727  1
  Te2-  Te194  1  0.66054845  0.07852604  0.04050640  1
  Te2-  Te195  1  0.65848883  0.57991384  0.04516440  1
  Te2-  Te196  1  0.41921733  0.33886041  0.04422787  1
  Te2-  Te197  1  0.42171727  0.83932618  0.04027893  1
  Te2-  Te198  1  0.92330996  0.33937062  0.04514385  1
  Te2-  Te199  1  0.91895289  0.83677471  0.04578791  1
  Te2-  Te200  1  0.42035987  0.08039249  0.04121518  1
  Te2-  Te201  1  0.41731907  0.57783569  0.04411092  1
  Te2-  Te202  1  0.91750438  0.07862004  0.04410333  1
  Te2-  Te203  1  0.92245547  0.58037985  0.04641626  1
  Te2-  Te204  1  0.49095113  0.24481352  0.37674266  1
  Te2-  Te205  1  0.49632794  0.74951482  0.37900567  1
  Te2-  Te206  1  0.99233502  0.24507930  0.37257555  1
  Te2-  Te207  1  0.99298131  0.74917086  0.37617294  1
  Te2-  Te208  1  0.25346817  0.00414946  0.37682239  1
  Te2-  Te209  1  0.25447501  0.50839357  0.37422064  1
  Te2-  Te210  1  0.75189235  0.00518682  0.37493524  1
  Te2-  Te211  1  0.75126325  0.50904306  0.37736034  1
  Te2-  Te212  1  0.25347994  0.24902703  0.37565030  1
  Te2-  Te213  1  0.25545225  0.74708098  0.37666908  1
  Te2-  Te214  1  0.74743188  0.24333010  0.37577435  1
  Te2-  Te215  1  0.75348692  0.74698463  0.37785840  1
