# generated using pymatgen
data_Ti(CuTe)4
_symmetry_space_group_name_H-M   'P 1'
_cell_length_a   16.89139725
_cell_length_b   16.88712274
_cell_length_c   20.70721401
_cell_angle_alpha   89.98209274
_cell_angle_beta   89.98616967
_cell_angle_gamma   120.00090189
_symmetry_Int_Tables_number   1
_chemical_formula_structural   Ti(CuTe)4
_chemical_formula_sum   'Ti24 Cu96 Te96'
_cell_volume   5115.28134651
_cell_formula_units_Z   24
loop_
 _symmetry_equiv_pos_site_id
 _symmetry_equiv_pos_as_xyz
  1  'x, y, z'
loop_
 _atom_type_symbol
 _atom_type_oxidation_number
  Ti4+  4.0
  Cu+  1.0
  Te2-  -2.0
loop_
 _atom_site_type_symbol
 _atom_site_label
 _atom_site_symmetry_multiplicity
 _atom_site_fract_x
 _atom_site_fract_y
 _atom_site_fract_z
 _atom_site_occupancy
  Ti4+  Ti0  1  -0.00465891  -0.00395614  0.25929094  1
  Ti4+  Ti1  1  0.00067584  0.49671750  0.26311582  1
  Ti4+  Ti2  1  0.50043359  0.00079761  0.25382835  1
  Ti4+  Ti3  1  0.49954971  0.49917465  0.25680728  1
  Ti4+  Ti4  1  0.33401583  0.17100631  0.58711990  1
  Ti4+  Ti5  1  0.33342114  0.66775459  0.58862484  1
  Ti4+  Ti6  1  0.83354097  0.16743862  0.59191280  1
  Ti4+  Ti7  1  0.83444386  0.66897243  0.58985037  1
  Ti4+  Ti8  1  0.16686281  0.33255569  0.92814546  1
  Ti4+  Ti9  1  0.16454424  0.83152605  0.92332899  1
  Ti4+  Ti10  1  0.66915178  0.33323437  0.92544804  1
  Ti4+  Ti11  1  0.66855968  0.83393086  0.92393327  1
  Ti4+  Ti12  1  -0.00070142  -0.00154411  0.75615242  1
  Ti4+  Ti13  1  0.00085608  0.50157326  0.75643857  1
  Ti4+  Ti14  1  0.50205494  0.00274881  0.75403415  1
  Ti4+  Ti15  1  0.49916055  0.50039330  0.75706956  1
  Ti4+  Ti16  1  0.33567895  0.16590499  0.08776787  1
  Ti4+  Ti17  1  0.33161314  0.66346240  0.08859674  1
  Ti4+  Ti18  1  0.83268564  0.16514004  0.09001173  1
  Ti4+  Ti19  1  0.83287183  0.66735068  0.09196549  1
  Ti4+  Ti20  1  0.16712075  0.33241706  0.41949123  1
  Ti4+  Ti21  1  0.16607140  0.83359064  0.41876091  1
  Ti4+  Ti22  1  0.66571048  0.33320357  0.42106384  1
  Ti4+  Ti23  1  0.66596868  0.83238157  0.42179320  1
  Cu+  Cu24  1  0.69109892  0.09621322  0.80890912  1
  Cu+  Cu25  1  0.57684463  0.43093500  0.47271021  1
  Cu+  Cu26  1  0.07830125  0.65744370  0.47930803  1
  Cu+  Cu27  1  0.84907063  0.92953687  0.47737618  1
  Cu+  Cu28  1  0.84170216  0.42116385  0.48260041  1
  Cu+  Cu29  1  0.35041087  0.42973287  0.47287274  1
  Cu+  Cu30  1  0.73617467  0.76217328  0.14137904  1
  Cu+  Cu31  1  0.07986461  0.93066671  0.47393695  1
  Cu+  Cu32  1  0.52487550  0.26282114  0.13992003  1
  Cu+  Cu33  1  0.23583033  0.47504066  0.14432033  1
  Cu+  Cu34  1  0.07966062  0.42035646  0.48219559  1
  Cu+  Cu35  1  0.90450981  0.80778884  0.80885429  1
  Cu+  Cu36  1  0.16371514  0.07755483  0.17264443  1
  Cu+  Cu37  1  0.16322927  0.57539170  0.17427798  1
  Cu+  Cu38  1  0.66178519  0.07973459  0.16851398  1
  Cu+  Cu39  1  0.66383308  0.58600114  0.17155024  1
  Cu+  Cu40  1  0.42281816  0.33514167  0.17009515  1
  Cu+  Cu41  1  0.41755363  0.83550001  0.16900882  1
  Cu+  Cu42  1  0.91723835  0.33392321  0.17517832  1
  Cu+  Cu43  1  0.91065944  0.83447474  0.17408890  1
  Cu+  Cu44  1  0.42449615  0.08680519  0.16739849  1
  Cu+  Cu45  1  0.41195876  0.57549153  0.16964947  1
  Cu+  Cu46  1  0.91334670  0.07706337  0.17243541  1
  Cu+  Cu47  1  0.91759087  0.58069108  0.17724803  1
  Cu+  Cu48  1  0.49641624  0.25532842  0.50004675  1
  Cu+  Cu49  1  0.49599269  0.74841820  0.50282728  1
  Cu+  Cu50  1  0.99364695  0.24666797  0.50238797  1
  Cu+  Cu51  1  0.99665542  0.75229498  0.50021361  1
  Cu+  Cu52  1  0.25095873  0.00696037  0.50073044  1
  Cu+  Cu53  1  0.25472867  0.50779038  0.50043765  1
  Cu+  Cu54  1  0.75174678  0.00336511  0.50628762  1
  Cu+  Cu55  1  0.75095596  0.50509257  0.50229211  1
  Cu+  Cu56  1  0.25745871  0.25306004  0.49866987  1
  Cu+  Cu57  1  0.25134281  0.74770034  0.50026918  1
  Cu+  Cu58  1  0.75128656  0.24772395  0.50452985  1
  Cu+  Cu59  1  0.75488575  0.75297591  0.50246755  1
  Cu+  Cu60  1  0.32974270  0.41629900  0.84185147  1
  Cu+  Cu61  1  0.33002475  0.91555042  0.83655089  1
  Cu+  Cu62  1  0.83106392  0.41600888  0.83864488  1
  Cu+  Cu63  1  0.83035553  0.90916368  0.83682796  1
  Cu+  Cu64  1  0.08491249  0.16918005  0.84151648  1
  Cu+  Cu65  1  0.08425088  0.67072023  0.83752348  1
  Cu+  Cu66  1  0.59014800  0.17017833  0.83754654  1
  Cu+  Cu67  1  0.58615537  0.66888473  0.83893886  1
  Cu+  Cu68  1  0.08520539  0.41604211  0.84126433  1
  Cu+  Cu69  1  0.07899395  0.90872900  0.83682235  1
  Cu+  Cu70  1  0.58449637  0.41541795  0.84037443  1
  Cu+  Cu71  1  0.58991105  0.92166109  0.83644270  1
  Cu+  Cu72  1  0.16946675  0.08672420  0.67327727  1
  Cu+  Cu73  1  0.16911589  0.58493203  0.67572244  1
  Cu+  Cu74  1  0.67139834  0.08778890  0.67894073  1
  Cu+  Cu75  1  0.66714959  0.58419436  0.67557192  1
  Cu+  Cu76  1  0.41523391  0.33494131  0.67530510  1
  Cu+  Cu77  1  0.41518973  0.83267349  0.67181604  1
  Cu+  Cu78  1  0.91766406  0.33447623  0.67842163  1
  Cu+  Cu79  1  0.91675693  0.83234606  0.67925526  1
  Cu+  Cu80  1  0.41647699  0.08829193  0.67044743  1
  Cu+  Cu81  1  0.41370873  0.58361137  0.67555807  1
  Cu+  Cu82  1  0.91592048  0.08466977  0.67769551  1
  Cu+  Cu83  1  0.91773313  0.58530880  0.67682475  1
  Cu+  Cu84  1  0.00306299  0.25138000  0.01171631  1
  Cu+  Cu85  1  0.00156851  0.75077222  0.01017113  1
  Cu+  Cu86  1  0.50594089  0.25062001  0.01095903  1
  Cu+  Cu87  1  0.50247717  0.75008535  0.00612583  1
  Cu+  Cu88  1  0.24599960  0.49427259  0.01503925  1
  Cu+  Cu89  1  0.24736074  0.99492762  0.00550547  1
  Cu+  Cu90  1  0.75099197  0.49823072  0.01004533  1
  Cu+  Cu91  1  0.75093413  0.99872318  0.00754939  1
  Cu+  Cu92  1  0.24985698  0.25044884  0.01022859  1
  Cu+  Cu93  1  0.24572190  0.74821734  0.00703978  1
  Cu+  Cu94  1  0.75087522  0.25021416  0.01007492  1
  Cu+  Cu95  1  0.75012546  0.75254495  0.01366551  1
  Cu+  Cu96  1  0.33467141  0.41407140  0.34405543  1
  Cu+  Cu97  1  0.33699893  0.92004916  0.33495188  1
  Cu+  Cu98  1  0.83678219  0.41559595  0.35045564  1
  Cu+  Cu99  1  0.83278236  0.91544825  0.34768103  1
  Cu+  Cu100  1  0.07934276  0.16097950  0.34097280  1
  Cu+  Cu101  1  0.08332751  0.66140839  0.34778469  1
  Cu+  Cu102  1  0.58132052  0.16304304  0.33859864  1
  Cu+  Cu103  1  0.58032557  0.66461265  0.34091597  1
  Cu+  Cu104  1  0.08253895  0.41585023  0.34978957  1
  Cu+  Cu105  1  0.07862747  0.91546839  0.34467970  1
  Cu+  Cu106  1  0.58139622  0.41649619  0.34422851  1
  Cu+  Cu107  1  0.58037490  0.91802580  0.33855170  1
  Cu+  Cu108  1  0.00340417  0.00240690  0.11679841  1
  Cu+  Cu109  1  -0.00254969  0.50039594  0.12061872  1
  Cu+  Cu110  1  0.49704402  -0.00498450  0.10940306  1
  Cu+  Cu111  1  0.49989343  0.49992318  0.11294442  1
  Cu+  Cu112  1  0.33507662  0.16474820  0.44105140  1
  Cu+  Cu113  1  0.33661436  0.67259336  0.44292105  1
  Cu+  Cu114  1  0.82894844  0.16322210  0.44750276  1
  Cu+  Cu115  1  0.83211125  0.66714873  0.44515602  1
  Cu+  Cu116  1  0.16515549  0.33186520  0.78637198  1
  Cu+  Cu117  1  0.17089895  0.83636034  0.77927386  1
  Cu+  Cu118  1  0.66550201  0.33566626  0.78272356  1
  Cu+  Cu119  1  0.66091498  0.83072328  0.78113203  1
  Te2-  Te120  1  -0.00133032  0.00022441  0.39207064  1
  Te2-  Te121  1  0.00094787  0.49841151  0.39697597  1
  Te2-  Te122  1  0.49855147  -0.00016723  0.38341309  1
  Te2-  Te123  1  0.50056957  0.50216437  0.38876461  1
  Te2-  Te124  1  0.33423692  0.16931476  0.71575938  1
  Te2-  Te125  1  0.33416369  0.66921505  0.71731358  1
  Te2-  Te126  1  0.83724062  0.16988309  0.72196572  1
  Te2-  Te127  1  0.83193468  0.66474019  0.71950991  1
  Te2-  Te128  1  0.16586732  0.32868470  0.05945156  1
  Te2-  Te129  1  0.16633213  0.83225815  0.05255224  1
  Te2-  Te130  1  0.67150645  0.33466323  0.05606298  1
  Te2-  Te131  1  0.66503446  0.83511966  0.05437312  1
  Te2-  Te132  1  0.49866552  0.24650947  0.88360653  1
  Te2-  Te133  1  0.49929908  0.75182855  0.87991010  1
  Te2-  Te134  1  0.99555213  0.24788507  0.88567814  1
  Te2-  Te135  1  0.98868740  0.74066561  0.88439297  1
  Te2-  Te136  1  0.24801570  0.00226967  0.87962116  1
  Te2-  Te137  1  0.25144236  0.50465852  0.88817471  1
  Te2-  Te138  1  0.75965102  0.00680363  0.88165425  1
  Te2-  Te139  1  0.75308563  0.50496430  0.88408692  1
  Te2-  Te140  1  0.25315690  0.24764609  0.88456385  1
  Te2-  Te141  1  0.25173036  0.74723733  0.88113440  1
  Te2-  Te142  1  0.75898790  0.24902358  0.88419346  1
  Te2-  Te143  1  0.75220605  0.74279412  0.88636135  1
  Te2-  Te144  1  0.32701667  0.40715993  0.21694673  1
  Te2-  Te145  1  0.32966067  0.91734125  0.20969321  1
  Te2-  Te146  1  0.82957653  0.41272312  0.22258484  1
  Te2-  Te147  1  0.82074974  0.91216855  0.22079162  1
  Te2-  Te148  1  0.08238890  0.16603855  0.21523120  1
  Te2-  Te149  1  0.08660539  0.66660008  0.22021735  1
  Te2-  Te150  1  0.59239056  0.17662341  0.21386053  1
  Te2-  Te151  1  0.57999380  0.67163566  0.21513027  1
  Te2-  Te152  1  0.08409776  0.40703779  0.22202959  1
  Te2-  Te153  1  0.07960664  0.90972635  0.21791958  1
  Te2-  Te154  1  0.59084112  0.41770257  0.21727857  1
  Te2-  Te155  1  0.58502141  0.91290547  0.21329869  1
  Te2-  Te156  1  0.16054499  0.08702213  0.54734792  1
  Te2-  Te157  1  0.15644534  0.57847674  0.54990263  1
  Te2-  Te158  1  0.66348029  0.08243948  0.55137506  1
  Te2-  Te159  1  0.66227707  0.58506276  0.54898263  1
  Te2-  Te160  1  0.42333813  0.34932799  0.54922341  1
  Te2-  Te161  1  0.41748091  0.83847702  0.54574715  1
  Te2-  Te162  1  0.92187873  0.34381600  0.55225838  1
  Te2-  Te163  1  0.92306624  0.84470011  0.55123746  1
  Te2-  Te164  1  0.41931569  0.08625830  0.54394600  1
  Te2-  Te165  1  0.42150821  0.58221781  0.54935930  1
  Te2-  Te166  1  0.92306341  0.08336497  0.55154483  1
  Te2-  Te167  1  0.92183617  0.58147457  0.55029413  1
  Te2-  Te168  1  -0.00020466  -0.00132855  0.88293071  1
  Te2-  Te169  1  0.00042672  0.50144286  0.88275620  1
  Te2-  Te170  1  0.49897593  -0.00009396  0.88095028  1
  Te2-  Te171  1  0.50015057  0.50024176  0.88353376  1
  Te2-  Te172  1  0.33382877  0.16482030  0.21458373  1
  Te2-  Te173  1  0.33428798  0.66696762  0.21544196  1
  Te2-  Te174  1  0.82987867  0.16294462  0.21602539  1
  Te2-  Te175  1  0.83196664  0.66478278  0.21875876  1
  Te2-  Te176  1  0.16678819  0.33376095  0.54703969  1
  Te2-  Te177  1  0.16827832  0.83596116  0.54650391  1
  Te2-  Te178  1  0.66578956  0.33360263  0.54885979  1
  Te2-  Te179  1  0.66481945  0.83244294  0.54877268  1
  Te2-  Te180  1  0.32680096  0.41497911  0.71477958  1
  Te2-  Te181  1  0.33093662  0.91826371  0.70906896  1
  Te2-  Te182  1  0.82793977  0.41520436  0.71240635  1
  Te2-  Te183  1  0.82596041  0.91397809  0.71062792  1
  Te2-  Te184  1  0.08591564  0.17163379  0.71430527  1
  Te2-  Te185  1  0.08767434  0.67386010  0.71129133  1
  Te2-  Te186  1  0.58585476  0.17526254  0.70984789  1
  Te2-  Te187  1  0.58454582  0.67145173  0.71186031  1
  Te2-  Te188  1  0.08775950  0.41547733  0.71425602  1
  Te2-  Te189  1  0.08933991  0.91656583  0.70951627  1
  Te2-  Te190  1  0.58493816  0.41469817  0.71276745  1
  Te2-  Te191  1  0.58552190  0.91424928  0.70875412  1
  Te2-  Te192  1  0.16315552  0.07954258  0.04560165  1
  Te2-  Te193  1  0.15808666  0.57918337  0.04677383  1
  Te2-  Te194  1  0.66157979  0.07941790  0.04280226  1
  Te2-  Te195  1  0.66161666  0.57936189  0.04475643  1
  Te2-  Te196  1  0.42105336  0.33885903  0.04326903  1
  Te2-  Te197  1  0.41651210  0.83417189  0.04221795  1
  Te2-  Te198  1  0.92025747  0.33863115  0.04881830  1
  Te2-  Te199  1  0.92154159  0.84003651  0.04722729  1
  Te2-  Te200  1  0.41809949  0.07728730  0.04041739  1
  Te2-  Te201  1  0.42036737  0.58009663  0.04265816  1
  Te2-  Te202  1  0.91975977  0.07998697  0.04616982  1
  Te2-  Te203  1  0.91954937  0.58152251  0.04975345  1
  Te2-  Te204  1  0.49361157  0.24466859  0.37356933  1
  Te2-  Te205  1  0.49512360  0.74870482  0.37606640  1
  Te2-  Te206  1  0.99132380  0.24230006  0.37640633  1
  Te2-  Te207  1  0.99097673  0.74281962  0.37368223  1
  Te2-  Te208  1  0.25274637  0.00544206  0.37275795  1
  Te2-  Te209  1  0.25604876  0.50806074  0.37369747  1
  Te2-  Te210  1  0.74924985  0.00471903  0.37819935  1
  Te2-  Te211  1  0.75411103  0.50729168  0.37496382  1
  Te2-  Te212  1  0.24997351  0.24157078  0.37308640  1
  Te2-  Te213  1  0.25641100  0.75080425  0.37336031  1
  Te2-  Te214  1  0.74961956  0.24276763  0.37774152  1
  Te2-  Te215  1  0.74952970  0.74297131  0.37591226  1
