# generated using pymatgen
data_Ti(CuTe)4
_symmetry_space_group_name_H-M   'P 1'
_cell_length_a   16.86377136
_cell_length_b   16.86058687
_cell_length_c   20.67137444
_cell_angle_alpha   89.95274783
_cell_angle_beta   90.01958726
_cell_angle_gamma   120.00686448
_symmetry_Int_Tables_number   1
_chemical_formula_structural   Ti(CuTe)4
_chemical_formula_sum   'Ti24 Cu96 Te96'
_cell_volume   5089.75858962
_cell_formula_units_Z   24
loop_
 _symmetry_equiv_pos_site_id
 _symmetry_equiv_pos_as_xyz
  1  'x, y, z'
loop_
 _atom_type_symbol
 _atom_type_oxidation_number
  Ti4+  4.0
  Cu+  1.0
  Te2-  -2.0
loop_
 _atom_site_type_symbol
 _atom_site_label
 _atom_site_symmetry_multiplicity
 _atom_site_fract_x
 _atom_site_fract_y
 _atom_site_fract_z
 _atom_site_occupancy
  Ti4+  Ti0  1  -0.00159435  0.00324816  0.25466003  1
  Ti4+  Ti1  1  -0.00095147  0.50254856  0.25456783  1
  Ti4+  Ti2  1  0.50136142  0.00445630  0.26041199  1
  Ti4+  Ti3  1  0.50038069  0.50470180  0.25684443  1
  Ti4+  Ti4  1  0.33485464  0.16405849  0.59229450  1
  Ti4+  Ti5  1  0.33263261  0.66572582  0.59322940  1
  Ti4+  Ti6  1  0.83453599  0.16657173  0.59267139  1
  Ti4+  Ti7  1  0.83438322  0.66611507  0.59263973  1
  Ti4+  Ti8  1  0.16698825  0.33080521  0.92256905  1
  Ti4+  Ti9  1  0.16722190  0.83097026  0.92767237  1
  Ti4+  Ti10  1  0.66371395  0.33184200  0.92377584  1
  Ti4+  Ti11  1  0.66542334  0.83131496  0.92193867  1
  Ti4+  Ti12  1  -0.00059772  -0.00022319  0.75694537  1
  Ti4+  Ti13  1  0.00062289  0.49929060  0.75703717  1
  Ti4+  Ti14  1  0.49985438  -0.00178312  0.75752060  1
  Ti4+  Ti15  1  0.50101585  0.49792173  0.75459237  1
  Ti4+  Ti16  1  0.33243043  0.16535823  0.08858032  1
  Ti4+  Ti17  1  0.33233662  0.66465315  0.08803969  1
  Ti4+  Ti18  1  0.83234344  0.16645707  0.08869058  1
  Ti4+  Ti19  1  0.83235206  0.66612101  0.08633004  1
  Ti4+  Ti20  1  0.16670004  0.33394683  0.42466581  1
  Ti4+  Ti21  1  0.16772733  0.83464287  0.42200370  1
  Ti4+  Ti22  1  0.66596771  0.33342380  0.42196952  1
  Ti4+  Ti23  1  0.66685867  0.83422925  0.42306976  1
  Cu+  Cu24  1  0.57968074  0.15014299  0.47908887  1
  Cu+  Cu25  1  0.73622574  0.26499788  0.14013154  1
  Cu+  Cu26  1  0.90461372  0.09547000  0.80838295  1
  Cu+  Cu27  1  0.40763024  0.59109740  0.80700286  1
  Cu+  Cu28  1  0.01434869  0.26352933  0.14235704  1
  Cu+  Cu29  1  0.01404001  0.76359638  0.14266859  1
  Cu+  Cu30  1  0.35160293  0.92049646  0.47756561  1
  Cu+  Cu31  1  0.24543479  0.26555862  0.13974099  1
  Cu+  Cu32  1  0.73823373  0.76552805  0.13639184  1
  Cu+  Cu33  1  0.68880981  0.59403660  0.80723459  1
  Cu+  Cu34  1  0.24731228  0.76527611  0.14386907  1
  Cu+  Cu35  1  0.40457151  0.30916997  0.80601700  1
  Cu+  Cu36  1  0.16386665  0.08853656  0.16660247  1
  Cu+  Cu37  1  0.16385898  0.58730853  0.16648960  1
  Cu+  Cu38  1  0.66457448  0.09034743  0.17230092  1
  Cu+  Cu39  1  0.66304339  0.58981880  0.16774738  1
  Cu+  Cu40  1  0.41651883  0.33697002  0.17078412  1
  Cu+  Cu41  1  0.41749027  0.83592250  0.17399378  1
  Cu+  Cu42  1  0.91419995  0.33732322  0.16893921  1
  Cu+  Cu43  1  0.91372612  0.83752535  0.16794686  1
  Cu+  Cu44  1  0.42061594  0.08363946  0.17258643  1
  Cu+  Cu45  1  0.42086146  0.58241742  0.16873078  1
  Cu+  Cu46  1  0.92285525  0.08562366  0.16641688  1
  Cu+  Cu47  1  0.92239704  0.58524556  0.16534541  1
  Cu+  Cu48  1  0.49701965  0.24420394  0.50408002  1
  Cu+  Cu49  1  0.49753413  0.74706777  0.50613063  1
  Cu+  Cu50  1  0.99783059  0.24688638  0.50728483  1
  Cu+  Cu51  1  0.99617586  0.74660610  0.50488816  1
  Cu+  Cu52  1  0.25570052  0.00215978  0.50354081  1
  Cu+  Cu53  1  0.25059786  0.50210487  0.50834658  1
  Cu+  Cu54  1  0.75493567  0.00278210  0.50576446  1
  Cu+  Cu55  1  0.75336637  0.50447882  0.50560319  1
  Cu+  Cu56  1  0.25214784  0.24800566  0.50787205  1
  Cu+  Cu57  1  0.25232243  0.74793255  0.50550671  1
  Cu+  Cu58  1  0.75260067  0.24750230  0.50441096  1
  Cu+  Cu59  1  0.75189760  0.74817628  0.50634937  1
  Cu+  Cu60  1  0.33017277  0.41180364  0.83428775  1
  Cu+  Cu61  1  0.33117841  0.91184657  0.84198573  1
  Cu+  Cu62  1  0.83126882  0.41328824  0.83871917  1
  Cu+  Cu63  1  0.83168666  0.91949801  0.83680023  1
  Cu+  Cu64  1  0.08074616  0.16719321  0.83701935  1
  Cu+  Cu65  1  0.08556047  0.66745085  0.84206713  1
  Cu+  Cu66  1  0.58410866  0.16696348  0.83936913  1
  Cu+  Cu67  1  0.58557139  0.66900472  0.83490916  1
  Cu+  Cu68  1  0.08297129  0.41206804  0.83682049  1
  Cu+  Cu69  1  0.08443937  0.91269628  0.84140457  1
  Cu+  Cu70  1  0.58344329  0.41194099  0.83432499  1
  Cu+  Cu71  1  0.58316896  0.91272505  0.83699721  1
  Cu+  Cu72  1  0.16841562  0.08146934  0.67506753  1
  Cu+  Cu73  1  0.16871117  0.58450775  0.67665483  1
  Cu+  Cu74  1  0.66850167  0.08330066  0.67630996  1
  Cu+  Cu75  1  0.67272962  0.58462975  0.67839423  1
  Cu+  Cu76  1  0.41625391  0.32653638  0.67772972  1
  Cu+  Cu77  1  0.41491641  0.83036754  0.67744686  1
  Cu+  Cu78  1  0.91658285  0.33156456  0.67462414  1
  Cu+  Cu79  1  0.91662044  0.83078730  0.67508549  1
  Cu+  Cu80  1  0.41648108  0.08181170  0.67948169  1
  Cu+  Cu81  1  0.41429955  0.58421349  0.67869208  1
  Cu+  Cu82  1  0.91527834  0.08596399  0.68009838  1
  Cu+  Cu83  1  0.91649632  0.58458010  0.67581512  1
  Cu+  Cu84  1  0.00095518  0.24682621  0.01290342  1
  Cu+  Cu85  1  0.00349689  0.74781405  0.01347323  1
  Cu+  Cu86  1  0.49884196  0.24658854  0.00766008  1
  Cu+  Cu87  1  0.49954433  0.74648965  0.00745787  1
  Cu+  Cu88  1  0.25178433  0.49680503  0.00593796  1
  Cu+  Cu89  1  0.25237167  0.99671647  0.00929395  1
  Cu+  Cu90  1  0.74629435  0.49603890  0.00641639  1
  Cu+  Cu91  1  0.74691477  0.99735773  0.00784581  1
  Cu+  Cu92  1  0.24746579  0.24802255  0.01029020  1
  Cu+  Cu93  1  0.24758867  0.74886665  0.01434621  1
  Cu+  Cu94  1  0.74439492  0.25007028  0.01204050  1
  Cu+  Cu95  1  0.74621110  0.74970342  0.00856005  1
  Cu+  Cu96  1  0.33494476  0.41887874  0.34242559  1
  Cu+  Cu97  1  0.33499981  0.91902699  0.34882984  1
  Cu+  Cu98  1  0.83407964  0.41974914  0.33961294  1
  Cu+  Cu99  1  0.83367121  0.91777497  0.33960944  1
  Cu+  Cu100  1  0.08358570  0.16818938  0.34245709  1
  Cu+  Cu101  1  0.08243764  0.66754777  0.34166232  1
  Cu+  Cu102  1  0.58224448  0.16782026  0.34903035  1
  Cu+  Cu103  1  0.58309042  0.66778468  0.34163843  1
  Cu+  Cu104  1  0.08167329  0.41846698  0.34088331  1
  Cu+  Cu105  1  0.08025337  0.91818121  0.34004649  1
  Cu+  Cu106  1  0.58252291  0.42183126  0.33964354  1
  Cu+  Cu107  1  0.58325770  0.91941020  0.34367880  1
  Cu+  Cu108  1  0.00076747  -0.00217809  0.10797432  1
  Cu+  Cu109  1  0.00072000  0.49762899  0.10817945  1
  Cu+  Cu110  1  0.50222571  -0.00421510  0.11712682  1
  Cu+  Cu111  1  0.50154612  0.49590581  0.11110438  1
  Cu+  Cu112  1  0.33064788  0.16825372  0.44851907  1
  Cu+  Cu113  1  0.33322254  0.66366576  0.45004498  1
  Cu+  Cu114  1  0.83635480  0.16745417  0.44852557  1
  Cu+  Cu115  1  0.83337022  0.66848278  0.44927658  1
  Cu+  Cu116  1  0.16636633  0.33217579  0.77830778  1
  Cu+  Cu117  1  0.16691089  0.83263156  0.78626716  1
  Cu+  Cu118  1  0.66978366  0.33074686  0.78118953  1
  Cu+  Cu119  1  0.66783258  0.83381423  0.77855573  1
  Te2-  Te120  1  -0.00110398  0.00188766  0.38312529  1
  Te2-  Te121  1  -0.00081222  0.50175686  0.38308005  1
  Te2-  Te122  1  0.50185125  0.00098752  0.39257047  1
  Te2-  Te123  1  0.50001733  0.50299354  0.38604446  1
  Te2-  Te124  1  0.33115354  0.16109212  0.72282201  1
  Te2-  Te125  1  0.33181306  0.66684641  0.72411503  1
  Te2-  Te126  1  0.83189442  0.16893114  0.72350843  1
  Te2-  Te127  1  0.83783499  0.66851835  0.72384191  1
  Te2-  Te128  1  0.16749160  0.33431513  0.05479897  1
  Te2-  Te129  1  0.16845012  0.83526167  0.06041303  1
  Te2-  Te130  1  0.66176563  0.33391246  0.05468909  1
  Te2-  Te131  1  0.66334587  0.83349295  0.05233264  1
  Te2-  Te132  1  0.49050099  0.24239249  0.88189092  1
  Te2-  Te133  1  0.49186313  0.74516029  0.88172638  1
  Te2-  Te134  1  0.99280996  0.24705093  0.88545114  1
  Te2-  Te135  1  0.99572170  0.74549038  0.88643733  1
  Te2-  Te136  1  0.25286392  0.00186978  0.88395251  1
  Te2-  Te137  1  0.25170668  0.50298224  0.88043601  1
  Te2-  Te138  1  0.74931293  0.00582439  0.88255686  1
  Te2-  Te139  1  0.75289712  0.50467081  0.88090823  1
  Te2-  Te140  1  0.25008107  0.24188152  0.88217944  1
  Te2-  Te141  1  0.25290933  0.74504539  0.88735331  1
  Te2-  Te142  1  0.75050914  0.24671689  0.88535000  1
  Te2-  Te143  1  0.75603373  0.74942672  0.88131054  1
  Te2-  Te144  1  0.32631614  0.41751712  0.21632436  1
  Te2-  Te145  1  0.32811812  0.91780654  0.22101119  1
  Te2-  Te146  1  0.82582905  0.41905163  0.21352488  1
  Te2-  Te147  1  0.82541597  0.91853211  0.21328480  1
  Te2-  Te148  1  0.08932378  0.18101424  0.21588981  1
  Te2-  Te149  1  0.08869630  0.67988682  0.21568641  1
  Te2-  Te150  1  0.58567048  0.17872629  0.22105932  1
  Te2-  Te151  1  0.58590599  0.67960768  0.21562420  1
  Te2-  Te152  1  0.08781360  0.41916205  0.21382613  1
  Te2-  Te153  1  0.08691127  0.91994716  0.21346698  1
  Te2-  Te154  1  0.58605052  0.42039247  0.21271046  1
  Te2-  Te155  1  0.58635537  0.92046084  0.21668932  1
  Te2-  Te156  1  0.16419113  0.07799828  0.54910020  1
  Te2-  Te157  1  0.16126711  0.58157389  0.55067713  1
  Te2-  Te158  1  0.66163821  0.07684205  0.55045115  1
  Te2-  Te159  1  0.66228342  0.58011023  0.55135084  1
  Te2-  Te160  1  0.42150515  0.33546498  0.55081840  1
  Te2-  Te161  1  0.42259073  0.83899385  0.55160964  1
  Te2-  Te162  1  0.91923266  0.33750812  0.54877790  1
  Te2-  Te163  1  0.92037293  0.83769747  0.54938949  1
  Te2-  Te164  1  0.42314582  0.07592547  0.55265138  1
  Te2-  Te165  1  0.41887826  0.58008668  0.55179553  1
  Te2-  Te166  1  0.92054652  0.08016143  0.55299032  1
  Te2-  Te167  1  0.92039765  0.58012427  0.55003685  1
  Te2-  Te168  1  0.00022091  -0.00176786  0.88421768  1
  Te2-  Te169  1  -0.00023288  0.49699654  0.88371038  1
  Te2-  Te170  1  0.50057018  -0.00200607  0.88423467  1
  Te2-  Te171  1  0.49985990  0.49840064  0.88258822  1
  Te2-  Te172  1  0.33273470  0.16730112  0.21579257  1
  Te2-  Te173  1  0.33291424  0.66488550  0.21529565  1
  Te2-  Te174  1  0.83527585  0.16766262  0.21633980  1
  Te2-  Te175  1  0.83359801  0.66692827  0.21387088  1
  Te2-  Te176  1  0.16705605  0.33211736  0.55130596  1
  Te2-  Te177  1  0.16575552  0.83213916  0.54906314  1
  Te2-  Te178  1  0.66812781  0.33340911  0.54900899  1
  Te2-  Te179  1  0.66752566  0.83287637  0.54958269  1
  Te2-  Te180  1  0.32740063  0.41081853  0.70703047  1
  Te2-  Te181  1  0.32675222  0.91137928  0.71470272  1
  Te2-  Te182  1  0.82914613  0.41388520  0.71168015  1
  Te2-  Te183  1  0.82768402  0.91226340  0.70973076  1
  Te2-  Te184  1  0.08851403  0.17183562  0.70997118  1
  Te2-  Te185  1  0.08639293  0.67197100  0.71461247  1
  Te2-  Te186  1  0.58687435  0.17101806  0.71277831  1
  Te2-  Te187  1  0.58727239  0.67218555  0.70783516  1
  Te2-  Te188  1  0.08634063  0.41340103  0.71061277  1
  Te2-  Te189  1  0.08538043  0.91282518  0.71418280  1
  Te2-  Te190  1  0.58860993  0.41148758  0.70767781  1
  Te2-  Te191  1  0.58591233  0.91271636  0.71094187  1
  Te2-  Te192  1  0.16022369  0.07600025  0.04021583  1
  Te2-  Te193  1  0.15993958  0.57517448  0.04013329  1
  Te2-  Te194  1  0.65892428  0.07834084  0.04474311  1
  Te2-  Te195  1  0.65910107  0.57826629  0.04054142  1
  Te2-  Te196  1  0.41958034  0.33763485  0.04204974  1
  Te2-  Te197  1  0.42109259  0.83810535  0.04494932  1
  Te2-  Te198  1  0.91855960  0.33856966  0.04032018  1
  Te2-  Te199  1  0.91958339  0.83898941  0.03923734  1
  Te2-  Te200  1  0.42060907  0.07893648  0.04678712  1
  Te2-  Te201  1  0.41952474  0.57812145  0.04336353  1
  Te2-  Te202  1  0.91588134  0.07562474  0.04118927  1
  Te2-  Te203  1  0.91588640  0.57516446  0.04007572  1
  Te2-  Te204  1  0.49260480  0.25170784  0.37703693  1
  Te2-  Te205  1  0.49421455  0.74873231  0.37908476  1
  Te2-  Te206  1  0.99526992  0.24913020  0.37944158  1
  Te2-  Te207  1  0.99493748  0.74927924  0.37800078  1
  Te2-  Te208  1  0.25027128  0.00799334  0.37657160  1
  Te2-  Te209  1  0.25133307  0.50522021  0.38011806  1
  Te2-  Te210  1  0.75369178  0.00678590  0.37872099  1
  Te2-  Te211  1  0.75156611  0.50600879  0.37851428  1
  Te2-  Te212  1  0.25301679  0.24911979  0.37964280  1
  Te2-  Te213  1  0.25222246  0.74525448  0.37775756  1
  Te2-  Te214  1  0.75613060  0.25024782  0.37680609  1
  Te2-  Te215  1  0.75293498  0.74860900  0.37855128  1
