# generated using pymatgen
data_Ti(CuTe)4
_symmetry_space_group_name_H-M   'P 1'
_cell_length_a   16.88462800
_cell_length_b   16.88296864
_cell_length_c   20.70770387
_cell_angle_alpha   89.99679148
_cell_angle_beta   89.99589367
_cell_angle_gamma   120.00241424
_symmetry_Int_Tables_number   1
_chemical_formula_structural   Ti(CuTe)4
_chemical_formula_sum   'Ti24 Cu96 Te96'
_cell_volume   5112.01734266
_cell_formula_units_Z   24
loop_
 _symmetry_equiv_pos_site_id
 _symmetry_equiv_pos_as_xyz
  1  'x, y, z'
loop_
 _atom_type_symbol
 _atom_type_oxidation_number
  Ti4+  4.0
  Cu+  1.0
  Te2-  -2.0
loop_
 _atom_site_type_symbol
 _atom_site_label
 _atom_site_symmetry_multiplicity
 _atom_site_fract_x
 _atom_site_fract_y
 _atom_site_fract_z
 _atom_site_occupancy
  Ti4+  Ti0  1  0.00243924  -0.00236076  0.25960677  1
  Ti4+  Ti1  1  -0.00199211  0.49606773  0.25499003  1
  Ti4+  Ti2  1  0.49781285  -0.00408704  0.25846057  1
  Ti4+  Ti3  1  0.49963441  0.49888816  0.25726491  1
  Ti4+  Ti4  1  0.33348269  0.16550427  0.59493286  1
  Ti4+  Ti5  1  0.33469497  0.66515952  0.59064546  1
  Ti4+  Ti6  1  0.83157112  0.16280446  0.59026307  1
  Ti4+  Ti7  1  0.83104240  0.66508230  0.59043109  1
  Ti4+  Ti8  1  0.16642375  0.33733494  0.92335593  1
  Ti4+  Ti9  1  0.16781091  0.83701682  0.92213166  1
  Ti4+  Ti10  1  0.66777244  0.33850348  0.92396435  1
  Ti4+  Ti11  1  0.66893259  0.83911223  0.92649397  1
  Ti4+  Ti12  1  -0.00149484  0.00009497  0.75492600  1
  Ti4+  Ti13  1  0.00088218  0.50142627  0.75470045  1
  Ti4+  Ti14  1  0.49911955  -0.00078023  0.75576494  1
  Ti4+  Ti15  1  0.50027860  0.49962121  0.75656860  1
  Ti4+  Ti16  1  0.33137308  0.16553742  0.09001458  1
  Ti4+  Ti17  1  0.33525435  0.66893023  0.08852012  1
  Ti4+  Ti18  1  0.83468439  0.17044565  0.08891288  1
  Ti4+  Ti19  1  0.83311152  0.66737932  0.08849875  1
  Ti4+  Ti20  1  0.16651818  0.33153299  0.42341946  1
  Ti4+  Ti21  1  0.16637693  0.83081120  0.42379888  1
  Ti4+  Ti22  1  0.66565693  0.33137565  0.42305060  1
  Ti4+  Ti23  1  0.66692125  0.83196396  0.41978996  1
  Cu+  Cu24  1  0.24103507  0.47906834  0.14080392  1
  Cu+  Cu25  1  0.90465378  0.09720647  0.80650232  1
  Cu+  Cu26  1  0.18058623  0.09756455  0.80991406  1
  Cu+  Cu27  1  0.23648479  0.97209688  0.14082996  1
  Cu+  Cu28  1  0.57385410  0.92333107  0.47522966  1
  Cu+  Cu29  1  0.18977227  0.59820160  0.80648433  1
  Cu+  Cu30  1  0.90786953  0.59860066  0.80595825  1
  Cu+  Cu31  1  0.41397090  0.09895818  0.81019931  1
  Cu+  Cu32  1  0.73765621  0.47630146  0.14126344  1
  Cu+  Cu33  1  0.52251385  0.76060514  0.14286985  1
  Cu+  Cu34  1  0.57284348  0.64542142  0.47272483  1
  Cu+  Cu35  1  0.85203723  0.92392391  0.47459414  1
  Cu+  Cu36  1  0.16434782  0.07476872  0.17180749  1
  Cu+  Cu37  1  0.16307411  0.57674093  0.16882838  1
  Cu+  Cu38  1  0.66508367  0.08269738  0.17163835  1
  Cu+  Cu39  1  0.66354512  0.57721097  0.16989701  1
  Cu+  Cu40  1  0.41664378  0.33556626  0.17097861  1
  Cu+  Cu41  1  0.42354932  0.83757446  0.17078252  1
  Cu+  Cu42  1  0.91939421  0.33837023  0.16853028  1
  Cu+  Cu43  1  0.92065384  0.83753611  0.17260873  1
  Cu+  Cu44  1  0.41001511  0.07500311  0.17152387  1
  Cu+  Cu45  1  0.41851273  0.58266504  0.17032304  1
  Cu+  Cu46  1  0.91911323  0.08346419  0.17378958  1
  Cu+  Cu47  1  0.91323180  0.57681560  0.16895495  1
  Cu+  Cu48  1  0.49718735  0.24623270  0.50764566  1
  Cu+  Cu49  1  0.49495154  0.74507819  0.50070039  1
  Cu+  Cu50  1  0.99765069  0.24490288  0.50449046  1
  Cu+  Cu51  1  0.99685016  0.74557126  0.50516457  1
  Cu+  Cu52  1  0.25184911  0.00110639  0.50897670  1
  Cu+  Cu53  1  0.25072549  0.50046617  0.50517552  1
  Cu+  Cu54  1  0.75276582  0.00300054  0.50134616  1
  Cu+  Cu55  1  0.74976667  0.50068198  0.50472688  1
  Cu+  Cu56  1  0.25121185  0.24701291  0.50821137  1
  Cu+  Cu57  1  0.25032609  0.74593466  0.50511174  1
  Cu+  Cu58  1  0.74848744  0.24536644  0.50415317  1
  Cu+  Cu59  1  0.75069124  0.74565282  0.50102074  1
  Cu+  Cu60  1  0.33100614  0.41866262  0.83714910  1
  Cu+  Cu61  1  0.33101113  0.92228708  0.83487378  1
  Cu+  Cu62  1  0.83170951  0.42373304  0.83669686  1
  Cu+  Cu63  1  0.83010630  0.92291073  0.83790707  1
  Cu+  Cu64  1  0.08084865  0.17155652  0.83637357  1
  Cu+  Cu65  1  0.08499637  0.67107429  0.83534176  1
  Cu+  Cu66  1  0.58487984  0.17211950  0.83857819  1
  Cu+  Cu67  1  0.58430525  0.67084149  0.84136268  1
  Cu+  Cu68  1  0.09037767  0.42200599  0.83561987  1
  Cu+  Cu69  1  0.08988380  0.92108990  0.83415151  1
  Cu+  Cu70  1  0.58772436  0.41898467  0.83733180  1
  Cu+  Cu71  1  0.58591624  0.91615498  0.83958433  1
  Cu+  Cu72  1  0.16904866  0.08289987  0.68052569  1
  Cu+  Cu73  1  0.17122138  0.58383972  0.67833874  1
  Cu+  Cu74  1  0.66654343  0.07931744  0.67501632  1
  Cu+  Cu75  1  0.66615498  0.58313830  0.67479113  1
  Cu+  Cu76  1  0.41643033  0.33053475  0.67756561  1
  Cu+  Cu77  1  0.41739105  0.82998985  0.67453868  1
  Cu+  Cu78  1  0.91495928  0.32881967  0.67305891  1
  Cu+  Cu79  1  0.91254838  0.82965551  0.67397001  1
  Cu+  Cu80  1  0.41417180  0.08329519  0.68124151  1
  Cu+  Cu81  1  0.41735511  0.58313984  0.67436556  1
  Cu+  Cu82  1  0.91208215  0.08155162  0.67838614  1
  Cu+  Cu83  1  0.91352927  0.58419421  0.67788967  1
  Cu+  Cu84  1  0.00139000  0.25382635  0.00771208  1
  Cu+  Cu85  1  0.00141726  0.75456142  0.00668028  1
  Cu+  Cu86  1  0.50076325  0.25326196  0.00937760  1
  Cu+  Cu87  1  0.50666414  0.75682268  0.01431656  1
  Cu+  Cu88  1  0.25001490  0.50119389  0.01180930  1
  Cu+  Cu89  1  0.24863177  1.00028495  0.01330658  1
  Cu+  Cu90  1  0.74896883  0.50076685  0.01207003  1
  Cu+  Cu91  1  0.75135722  1.00346919  0.00980263  1
  Cu+  Cu92  1  0.24748715  0.25179921  0.00917579  1
  Cu+  Cu93  1  0.25211320  0.75553361  0.00624082  1
  Cu+  Cu94  1  0.75003079  0.25580095  0.00707245  1
  Cu+  Cu95  1  0.75056160  0.75627020  0.00870727  1
  Cu+  Cu96  1  0.33386383  0.41687399  0.34307159  1
  Cu+  Cu97  1  0.33330370  0.91394286  0.34313621  1
  Cu+  Cu98  1  0.83319187  0.41505675  0.34029209  1
  Cu+  Cu99  1  0.83925358  0.91833360  0.34553775  1
  Cu+  Cu100  1  0.08425551  0.16249942  0.34226166  1
  Cu+  Cu101  1  0.07989973  0.65940530  0.33836652  1
  Cu+  Cu102  1  0.57943626  0.16144331  0.34198428  1
  Cu+  Cu103  1  0.58224326  0.66246297  0.34373903  1
  Cu+  Cu104  1  0.08166535  0.41491934  0.34035799  1
  Cu+  Cu105  1  0.08424907  0.91550785  0.34489866  1
  Cu+  Cu106  1  0.58232871  0.41546218  0.34344569  1
  Cu+  Cu107  1  0.58238299  0.91666883  0.34593871  1
  Cu+  Cu108  1  -0.00132267  0.00314690  0.11722205  1
  Cu+  Cu109  1  0.00306124  0.50617916  0.11032887  1
  Cu+  Cu110  1  0.50330381  0.00638492  0.11553311  1
  Cu+  Cu111  1  0.49920452  0.49853193  0.11321487  1
  Cu+  Cu112  1  0.33332038  0.16567556  0.45293148  1
  Cu+  Cu113  1  0.32742116  0.66204026  0.44681716  1
  Cu+  Cu114  1  0.83682255  0.17267368  0.44677336  1
  Cu+  Cu115  1  0.83537346  0.66255541  0.44667092  1
  Cu+  Cu116  1  0.16757560  0.33513625  0.77890945  1
  Cu+  Cu117  1  0.16652779  0.83324589  0.77734197  1
  Cu+  Cu118  1  0.67005950  0.33268275  0.78033739  1
  Cu+  Cu119  1  0.66509040  0.82973174  0.78375487  1
  Te2-  Te120  1  0.00443448  -0.00021038  0.39036620  1
  Te2-  Te121  1  -0.00215952  0.49577901  0.38366715  1
  Te2-  Te122  1  0.49742429  -0.00206986  0.38875936  1
  Te2-  Te123  1  0.49845069  0.49638388  0.38739912  1
  Te2-  Te124  1  0.33380092  0.16841743  0.72756660  1
  Te2-  Te125  1  0.33758819  0.66691080  0.72126678  1
  Te2-  Te126  1  0.83023828  0.16665404  0.72089837  1
  Te2-  Te127  1  0.82989058  0.66703707  0.72103390  1
  Te2-  Te128  1  0.16537406  0.33397095  0.05347002  1
  Te2-  Te129  1  0.16515823  0.83180404  0.05226450  1
  Te2-  Te130  1  0.66500055  0.33372402  0.05416259  1
  Te2-  Te131  1  0.67253842  0.84023946  0.05736398  1
  Te2-  Te132  1  0.49401420  0.25267162  0.88369378  1
  Te2-  Te133  1  0.49681193  0.75083689  0.88727118  1
  Te2-  Te134  1  0.99385985  0.25358124  0.88156759  1
  Te2-  Te135  1  0.99579581  0.75349742  0.88046015  1
  Te2-  Te136  1  0.25577492  0.01382263  0.88540596  1
  Te2-  Te137  1  0.25748278  0.51146754  0.88420554  1
  Te2-  Te138  1  0.75278425  0.01364741  0.88432794  1
  Te2-  Te139  1  0.75332579  0.51284790  0.88461571  1
  Te2-  Te140  1  0.25300754  0.25121107  0.88295138  1
  Te2-  Te141  1  0.25665420  0.75393070  0.88017409  1
  Te2-  Te142  1  0.75366508  0.25420599  0.88081785  1
  Te2-  Te143  1  0.75448557  0.75452753  0.88271030  1
  Te2-  Te144  1  0.32650064  0.41206406  0.21679996  1
  Te2-  Te145  1  0.32449473  0.90565996  0.21705295  1
  Te2-  Te146  1  0.82311461  0.40764628  0.21478182  1
  Te2-  Te147  1  0.83112708  0.91485521  0.21842830  1
  Te2-  Te148  1  0.08853645  0.16770406  0.21627082  1
  Te2-  Te149  1  0.08315028  0.66640860  0.21204823  1
  Te2-  Te150  1  0.57947902  0.16575041  0.21554035  1
  Te2-  Te151  1  0.58929039  0.67127888  0.21633066  1
  Te2-  Te152  1  0.08511688  0.40806274  0.21472826  1
  Te2-  Te153  1  0.08645804  0.90683584  0.21893156  1
  Te2-  Te154  1  0.58312726  0.40875738  0.21714163  1
  Te2-  Te155  1  0.59120731  0.91522641  0.21843392  1
  Te2-  Te156  1  0.16222834  0.07944694  0.55351741  1
  Te2-  Te157  1  0.16287859  0.57932166  0.55133315  1
  Te2-  Te158  1  0.65823367  0.07756391  0.54918456  1
  Te2-  Te159  1  0.65786663  0.57697497  0.54886409  1
  Te2-  Te160  1  0.41936507  0.33632470  0.55185837  1
  Te2-  Te161  1  0.41888232  0.83816289  0.54859967  1
  Te2-  Te162  1  0.91712747  0.33325905  0.54717277  1
  Te2-  Te163  1  0.92032390  0.83803322  0.54826208  1
  Te2-  Te164  1  0.41910351  0.07954574  0.55436288  1
  Te2-  Te165  1  0.41916299  0.57651735  0.54860009  1
  Te2-  Te166  1  0.92032789  0.07777296  0.55116308  1
  Te2-  Te167  1  0.91655587  0.57886126  0.55100001  1
  Te2-  Te168  1  0.00051543  0.00107849  0.88247134  1
  Te2-  Te169  1  0.00093625  0.50198062  0.88218001  1
  Te2-  Te170  1  0.50008636  0.00160246  0.88268600  1
  Te2-  Te171  1  0.50018434  0.50134595  0.88278853  1
  Te2-  Te172  1  0.33320727  0.16668727  0.21682162  1
  Te2-  Te173  1  0.33206895  0.66650371  0.21577508  1
  Te2-  Te174  1  0.83452447  0.16882033  0.21509185  1
  Te2-  Te175  1  0.83358219  0.66593237  0.21515968  1
  Te2-  Te176  1  0.16585555  0.33170045  0.54974053  1
  Te2-  Te177  1  0.16573496  0.83008064  0.54999772  1
  Te2-  Te178  1  0.66687499  0.33185982  0.54937659  1
  Te2-  Te179  1  0.66577722  0.83172619  0.54786099  1
  Te2-  Te180  1  0.32844656  0.41352504  0.71119332  1
  Te2-  Te181  1  0.32669692  0.91013286  0.70878785  1
  Te2-  Te182  1  0.82809481  0.41192234  0.70948336  1
  Te2-  Te183  1  0.82445903  0.91034317  0.71114404  1
  Te2-  Te184  1  0.08557352  0.17328946  0.70864420  1
  Te2-  Te185  1  0.08701037  0.67351268  0.70742438  1
  Te2-  Te186  1  0.58780178  0.17163139  0.71073888  1
  Te2-  Te187  1  0.58572803  0.67150334  0.71341845  1
  Te2-  Te188  1  0.08437144  0.41144622  0.70921978  1
  Te2-  Te189  1  0.08259462  0.91025369  0.70847588  1
  Te2-  Te190  1  0.58682365  0.41362087  0.71194338  1
  Te2-  Te191  1  0.58545080  0.91167940  0.71364477  1
  Te2-  Te192  1  0.15840798  0.08205262  0.04481291  1
  Te2-  Te193  1  0.16271096  0.58594883  0.04166620  1
  Te2-  Te194  1  0.66289737  0.08553639  0.04483709  1
  Te2-  Te195  1  0.66058424  0.58504805  0.04324846  1
  Te2-  Te196  1  0.41695067  0.33854415  0.04517432  1
  Te2-  Te197  1  0.42041092  0.84341738  0.04456968  1
  Te2-  Te198  1  0.91987736  0.34228652  0.04308331  1
  Te2-  Te199  1  0.91992245  0.84103642  0.04638868  1
  Te2-  Te200  1  0.42109489  0.08291539  0.04414159  1
  Te2-  Te201  1  0.42250928  0.58285435  0.04274668  1
  Te2-  Te202  1  0.92108139  0.08451766  0.04609198  1
  Te2-  Te203  1  0.92179345  0.58442986  0.04144195  1
  Te2-  Te204  1  0.49333424  0.24499257  0.38046390  1
  Te2-  Te205  1  0.49167113  0.74385334  0.37410897  1
  Te2-  Te206  1  0.99581398  0.24479099  0.37763433  1
  Te2-  Te207  1  0.99550527  0.74417631  0.37838993  1
  Te2-  Te208  1  0.25391166  0.00381745  0.38196569  1
  Te2-  Te209  1  0.25068123  0.50316177  0.37848728  1
  Te2-  Te210  1  0.75529634  0.00724535  0.37494274  1
  Te2-  Te211  1  0.75226264  0.50317525  0.37815878  1
  Te2-  Te212  1  0.25372802  0.24655017  0.38088340  1
  Te2-  Te213  1  0.24942690  0.74324646  0.37811008  1
  Te2-  Te214  1  0.75004087  0.24491287  0.37738694  1
  Te2-  Te215  1  0.75463472  0.74504159  0.37432185  1
