# generated using pymatgen
data_Ti(CuTe)4
_symmetry_space_group_name_H-M   'P 1'
_cell_length_a   16.88836545
_cell_length_b   16.88913185
_cell_length_c   20.70988171
_cell_angle_alpha   90.01674116
_cell_angle_beta   90.01003458
_cell_angle_gamma   119.99558811
_symmetry_Int_Tables_number   1
_chemical_formula_structural   Ti(CuTe)4
_chemical_formula_sum   'Ti24 Cu96 Te96'
_cell_volume   5115.90476818
_cell_formula_units_Z   24
loop_
 _symmetry_equiv_pos_site_id
 _symmetry_equiv_pos_as_xyz
  1  'x, y, z'
loop_
 _atom_type_symbol
 _atom_type_oxidation_number
  Ti4+  4.0
  Cu+  1.0
  Te2-  -2.0
loop_
 _atom_site_type_symbol
 _atom_site_label
 _atom_site_symmetry_multiplicity
 _atom_site_fract_x
 _atom_site_fract_y
 _atom_site_fract_z
 _atom_site_occupancy
  Ti4+  Ti0  1  -0.00034504  0.00244907  0.25471092  1
  Ti4+  Ti1  1  0.00061323  0.50362319  0.25455577  1
  Ti4+  Ti2  1  0.50037102  -0.00168842  0.26051886  1
  Ti4+  Ti3  1  0.49843589  0.49674223  0.25987286  1
  Ti4+  Ti4  1  0.33468744  0.16414125  0.59406945  1
  Ti4+  Ti5  1  0.33035660  0.66587761  0.58976789  1
  Ti4+  Ti6  1  0.83424450  0.17100488  0.58859123  1
  Ti4+  Ti7  1  0.82874353  0.66607777  0.58970147  1
  Ti4+  Ti8  1  0.17035501  0.33210042  0.92306892  1
  Ti4+  Ti9  1  0.16759865  0.83327502  0.92703640  1
  Ti4+  Ti10  1  0.66747197  0.33281744  0.92686381  1
  Ti4+  Ti11  1  0.66638232  0.83348814  0.92423467  1
  Ti4+  Ti12  1  0.00044319  0.00099938  0.75439106  1
  Ti4+  Ti13  1  -0.00031702  0.50087708  0.75659744  1
  Ti4+  Ti14  1  0.50061807  -0.00030339  0.75736470  1
  Ti4+  Ti15  1  0.49896668  0.49934753  0.75568936  1
  Ti4+  Ti16  1  0.33349088  0.16809087  0.09110321  1
  Ti4+  Ti17  1  0.33414827  0.66779741  0.08902715  1
  Ti4+  Ti18  1  0.83453116  0.16536008  0.08773697  1
  Ti4+  Ti19  1  0.83361273  0.66486645  0.08712846  1
  Ti4+  Ti20  1  0.16530123  0.33475890  0.42293329  1
  Ti4+  Ti21  1  0.16704105  0.83421170  0.42235925  1
  Ti4+  Ti22  1  0.66685967  0.33284326  0.41968702  1
  Ti4+  Ti23  1  0.66674486  0.83172352  0.42038932  1
  Cu+  Cu24  1  0.24562723  0.76408865  0.14315690  1
  Cu+  Cu25  1  0.01515231  0.76151809  0.14223362  1
  Cu+  Cu26  1  0.18434737  0.08652159  0.81089379  1
  Cu+  Cu27  1  0.23914399  0.26463082  0.14149413  1
  Cu+  Cu28  1  0.41401968  0.31573918  0.81159462  1
  Cu+  Cu29  1  0.73720286  0.47733101  0.14154972  1
  Cu+  Cu30  1  0.35112602  0.92301979  0.47798183  1
  Cu+  Cu31  1  0.73644617  0.97580287  0.13919200  1
  Cu+  Cu32  1  0.56902375  0.64703674  0.47535337  1
  Cu+  Cu33  1  0.57827891  0.15198210  0.47740868  1
  Cu+  Cu34  1  0.57282057  0.41861698  0.47855281  1
  Cu+  Cu35  1  0.06821700  0.43203052  0.46983776  1
  Cu+  Cu36  1  0.16406755  0.08881913  0.16948694  1
  Cu+  Cu37  1  0.16501090  0.58704786  0.16860364  1
  Cu+  Cu38  1  0.66639996  0.07923194  0.17273713  1
  Cu+  Cu39  1  0.66343311  0.57585932  0.17208157  1
  Cu+  Cu40  1  0.41488422  0.33629092  0.17291021  1
  Cu+  Cu41  1  0.41662125  0.83878112  0.17199632  1
  Cu+  Cu42  1  0.92149891  0.33749942  0.16834891  1
  Cu+  Cu43  1  0.92128339  0.83943939  0.16771271  1
  Cu+  Cu44  1  0.41843584  0.08250134  0.17495007  1
  Cu+  Cu45  1  0.41908990  0.58246628  0.17249616  1
  Cu+  Cu46  1  0.91430782  0.07799712  0.16772425  1
  Cu+  Cu47  1  0.91814101  0.58161729  0.16637073  1
  Cu+  Cu48  1  0.49433495  0.24416994  0.50370516  1
  Cu+  Cu49  1  0.49572082  0.74553329  0.50264337  1
  Cu+  Cu50  1  0.99817610  0.25783949  0.50313641  1
  Cu+  Cu51  1  0.99496719  0.74907260  0.50455606  1
  Cu+  Cu52  1  0.25442941  0.00111195  0.50579470  1
  Cu+  Cu53  1  0.24286421  0.50212945  0.50302552  1
  Cu+  Cu54  1  0.75205823  0.00362470  0.50215829  1
  Cu+  Cu55  1  0.74793135  0.50555319  0.50082613  1
  Cu+  Cu56  1  0.24914455  0.24673750  0.50787786  1
  Cu+  Cu57  1  0.25320432  0.75014554  0.50347719  1
  Cu+  Cu58  1  0.75277999  0.24643387  0.50032116  1
  Cu+  Cu59  1  0.74555164  0.74344131  0.50166767  1
  Cu+  Cu60  1  0.33124407  0.40943084  0.83591053  1
  Cu+  Cu61  1  0.33180868  0.91240830  0.84037494  1
  Cu+  Cu62  1  0.83202195  0.41770028  0.84083353  1
  Cu+  Cu63  1  0.82920694  0.91669295  0.83769780  1
  Cu+  Cu64  1  0.09200051  0.16935522  0.83495470  1
  Cu+  Cu65  1  0.08545273  0.66905389  0.84057958  1
  Cu+  Cu66  1  0.58600391  0.16884726  0.84017827  1
  Cu+  Cu67  1  0.58378908  0.67085736  0.83836866  1
  Cu+  Cu68  1  0.08682906  0.41643329  0.83832517  1
  Cu+  Cu69  1  0.08639839  0.91516254  0.83926861  1
  Cu+  Cu70  1  0.58490632  0.41333874  0.84060381  1
  Cu+  Cu71  1  0.58634548  0.91599611  0.83874155  1
  Cu+  Cu72  1  0.16952938  0.08287120  0.68084217  1
  Cu+  Cu73  1  0.16637737  0.58559075  0.67464501  1
  Cu+  Cu74  1  0.66930071  0.08574381  0.67478456  1
  Cu+  Cu75  1  0.66551153  0.58430646  0.67566870  1
  Cu+  Cu76  1  0.41640471  0.33000787  0.68192838  1
  Cu+  Cu77  1  0.41599505  0.83085095  0.67555130  1
  Cu+  Cu78  1  0.91494735  0.33407805  0.67399521  1
  Cu+  Cu79  1  0.91219201  0.83126318  0.67305449  1
  Cu+  Cu80  1  0.41745533  0.08201634  0.67945574  1
  Cu+  Cu81  1  0.41378680  0.58437273  0.67413169  1
  Cu+  Cu82  1  0.91567110  0.08754237  0.67146119  1
  Cu+  Cu83  1  0.91275306  0.58619828  0.67420972  1
  Cu+  Cu84  1  0.00482845  0.24972780  0.00497822  1
  Cu+  Cu85  1  0.00366618  0.75074113  0.01229939  1
  Cu+  Cu86  1  0.50310828  0.25166228  0.01211144  1
  Cu+  Cu87  1  0.50215695  0.75222884  0.00821191  1
  Cu+  Cu88  1  0.25297934  0.49788282  0.00653917  1
  Cu+  Cu89  1  0.25109981  0.99887208  0.01061067  1
  Cu+  Cu90  1  0.74680435  0.49457950  0.01298164  1
  Cu+  Cu91  1  0.74768871  0.99529373  0.01142632  1
  Cu+  Cu92  1  0.25220888  0.25243520  0.01301095  1
  Cu+  Cu93  1  0.24890074  0.75119497  0.01422400  1
  Cu+  Cu94  1  0.75090236  0.25117929  0.00901238  1
  Cu+  Cu95  1  0.74745680  0.75001779  0.00600206  1
  Cu+  Cu96  1  0.33304420  0.41496871  0.34424633  1
  Cu+  Cu97  1  0.33646371  0.91908221  0.34930630  1
  Cu+  Cu98  1  0.83484241  0.41870392  0.33837783  1
  Cu+  Cu99  1  0.83603362  0.91789300  0.33906404  1
  Cu+  Cu100  1  0.08210572  0.16673990  0.33950448  1
  Cu+  Cu101  1  0.08282143  0.66937599  0.34009091  1
  Cu+  Cu102  1  0.58325312  0.16259263  0.34697166  1
  Cu+  Cu103  1  0.58322630  0.66057620  0.34611679  1
  Cu+  Cu104  1  0.08191489  0.42190004  0.34228604  1
  Cu+  Cu105  1  0.08278605  0.92106714  0.34002046  1
  Cu+  Cu106  1  0.58155868  0.41568803  0.34708954  1
  Cu+  Cu107  1  0.58297432  0.91579990  0.34208855  1
  Cu+  Cu108  1  0.00072657  0.00049463  0.10979472  1
  Cu+  Cu109  1  0.00202025  0.49740293  0.10970530  1
  Cu+  Cu110  1  0.50319736  0.00573317  0.11778001  1
  Cu+  Cu111  1  0.50125452  0.50404701  0.11608407  1
  Cu+  Cu112  1  0.32645288  0.16499096  0.45071268  1
  Cu+  Cu113  1  0.33334238  0.66644001  0.44614974  1
  Cu+  Cu114  1  0.83724850  0.16342697  0.44498316  1
  Cu+  Cu115  1  0.83715231  0.66943723  0.44554107  1
  Cu+  Cu116  1  0.16409238  0.33396949  0.77925441  1
  Cu+  Cu117  1  0.16619918  0.83107384  0.78384373  1
  Cu+  Cu118  1  0.67041572  0.33299615  0.78455741  1
  Cu+  Cu119  1  0.66682637  0.83351939  0.78095199  1
  Te2-  Te120  1  -0.00016706  0.00251952  0.38354164  1
  Te2-  Te121  1  -0.00215083  0.50522827  0.38476193  1
  Te2-  Te122  1  0.50277769  -0.00255902  0.39232606  1
  Te2-  Te123  1  0.49581566  0.49522556  0.39182641  1
  Te2-  Te124  1  0.33541080  0.16370437  0.72565939  1
  Te2-  Te125  1  0.33103451  0.66592755  0.71836104  1
  Te2-  Te126  1  0.83438375  0.16945606  0.71730050  1
  Te2-  Te127  1  0.83029871  0.66775979  0.71846201  1
  Te2-  Te128  1  0.16710239  0.33500084  0.05350768  1
  Te2-  Te129  1  0.16840476  0.83656127  0.05929759  1
  Te2-  Te130  1  0.66654394  0.32920776  0.05777225  1
  Te2-  Te131  1  0.66487080  0.82918843  0.05566761  1
  Te2-  Te132  1  0.49356011  0.24307270  0.88640652  1
  Te2-  Te133  1  0.49421266  0.74844064  0.88285897  1
  Te2-  Te134  1  1.00058310  0.24624553  0.87902938  1
  Te2-  Te135  1  0.99678947  0.74848831  0.88513589  1
  Te2-  Te136  1  0.25745965  0.00591495  0.88473148  1
  Te2-  Te137  1  0.25634904  0.50244679  0.88058144  1
  Te2-  Te138  1  0.75280812  0.00614135  0.88500552  1
  Te2-  Te139  1  0.75108620  0.50441173  0.88617047  1
  Te2-  Te140  1  0.25863620  0.24286734  0.88569800  1
  Te2-  Te141  1  0.25229636  0.74636868  0.88716663  1
  Te2-  Te142  1  0.75405969  0.24875665  0.88334208  1
  Te2-  Te143  1  0.75235025  0.74811537  0.88062190  1
  Te2-  Te144  1  0.32494459  0.41528452  0.21825439  1
  Te2-  Te145  1  0.32631173  0.91615560  0.22166789  1
  Te2-  Te146  1  0.82803441  0.41235237  0.21296111  1
  Te2-  Te147  1  0.82570834  0.90956083  0.21353072  1
  Te2-  Te148  1  0.08213171  0.17600034  0.21390662  1
  Te2-  Te149  1  0.08801605  0.67957941  0.21467990  1
  Te2-  Te150  1  0.58689409  0.16845320  0.21910747  1
  Te2-  Te151  1  0.58674544  0.66694838  0.21838369  1
  Te2-  Te152  1  0.08791109  0.41992827  0.21527583  1
  Te2-  Te153  1  0.09095063  0.92028273  0.21429483  1
  Te2-  Te154  1  0.58250940  0.40746144  0.21958847  1
  Te2-  Te155  1  0.58343051  0.90899157  0.21638131  1
  Te2-  Te156  1  0.16490183  0.07860573  0.55292528  1
  Te2-  Te157  1  0.15656629  0.58395872  0.54876714  1
  Te2-  Te158  1  0.65979952  0.07806514  0.54901343  1
  Te2-  Te159  1  0.65031262  0.57535452  0.55010487  1
  Te2-  Te160  1  0.41768673  0.33606306  0.55349686  1
  Te2-  Te161  1  0.42333674  0.83937027  0.54949560  1
  Te2-  Te162  1  0.91694127  0.34567354  0.54814918  1
  Te2-  Te163  1  0.91344713  0.83660138  0.54703537  1
  Te2-  Te164  1  0.42352702  0.07698822  0.55303514  1
  Te2-  Te165  1  0.41209171  0.57504067  0.54805146  1
  Te2-  Te166  1  0.92087444  0.08723534  0.54516087  1
  Te2-  Te167  1  0.91410670  0.58043675  0.54777847  1
  Te2-  Te168  1  -0.00036376  -0.00012025  0.88130591  1
  Te2-  Te169  1  0.00158282  0.49979707  0.88297838  1
  Te2-  Te170  1  0.50158561  -0.00055285  0.88378773  1
  Te2-  Te171  1  0.50069097  0.50094396  0.88249904  1
  Te2-  Te172  1  0.33238968  0.16653241  0.21781655  1
  Te2-  Te173  1  0.33399240  0.66748720  0.21590742  1
  Te2-  Te174  1  0.83695964  0.16916790  0.21449450  1
  Te2-  Te175  1  0.83524504  0.66866317  0.21451892  1
  Te2-  Te176  1  0.16602985  0.33354444  0.54967815  1
  Te2-  Te177  1  0.16396632  0.83102614  0.54915048  1
  Te2-  Te178  1  0.66810912  0.33378116  0.54704143  1
  Te2-  Te179  1  0.66630309  0.83405245  0.54719355  1
  Te2-  Te180  1  0.32624030  0.41383832  0.70945693  1
  Te2-  Te181  1  0.32773399  0.91173249  0.71402008  1
  Te2-  Te182  1  0.82842447  0.41666836  0.71329991  1
  Te2-  Te183  1  0.82869780  0.91762749  0.71070178  1
  Te2-  Te184  1  0.08592626  0.17328305  0.70807918  1
  Te2-  Te185  1  0.08313530  0.67189234  0.71306289  1
  Te2-  Te186  1  0.58746131  0.17247997  0.71380239  1
  Te2-  Te187  1  0.58317802  0.67171517  0.71174745  1
  Te2-  Te188  1  0.08482044  0.41566851  0.71117942  1
  Te2-  Te189  1  0.08264658  0.90983239  0.71132581  1
  Te2-  Te190  1  0.58880951  0.41484021  0.71303097  1
  Te2-  Te191  1  0.58669677  0.91515002  0.71193143  1
  Te2-  Te192  1  0.16174759  0.07978340  0.04295883  1
  Te2-  Te193  1  0.16248498  0.57781431  0.04190801  1
  Te2-  Te194  1  0.66113797  0.08099217  0.04515513  1
  Te2-  Te195  1  0.65984007  0.58045958  0.04446655  1
  Te2-  Te196  1  0.42336198  0.34148528  0.04659178  1
  Te2-  Te197  1  0.42172157  0.84143579  0.04540810  1
  Te2-  Te198  1  0.92178325  0.33665456  0.04205484  1
  Te2-  Te199  1  0.91774538  0.83801598  0.04111845  1
  Te2-  Te200  1  0.42013144  0.08159976  0.04837642  1
  Te2-  Te201  1  0.42127843  0.58251328  0.04572582  1
  Te2-  Te202  1  0.92118707  0.08034798  0.04098538  1
  Te2-  Te203  1  0.92059475  0.57795515  0.04004326  1
  Te2-  Te204  1  0.49075394  0.24314941  0.37677182  1
  Te2-  Te205  1  0.49351999  0.74501332  0.37544800  1
  Te2-  Te206  1  0.99489943  0.24964120  0.37541468  1
  Te2-  Te207  1  0.99591089  0.75146874  0.37707624  1
  Te2-  Te208  1  0.25169746  0.00743631  0.37869899  1
  Te2-  Te209  1  0.25343969  0.50659070  0.37638434  1
  Te2-  Te210  1  0.75301662  0.00419249  0.37584526  1
  Te2-  Te211  1  0.75446644  0.50718447  0.37454134  1
  Te2-  Te212  1  0.24978421  0.24613338  0.38059709  1
  Te2-  Te213  1  0.25172030  0.74579150  0.37663382  1
  Te2-  Te214  1  0.75683785  0.24895877  0.37430582  1
  Te2-  Te215  1  0.75589758  0.74815155  0.37512998  1
