# generated using pymatgen
data_Ti(CuTe)4
_symmetry_space_group_name_H-M   'P 1'
_cell_length_a   16.85981606
_cell_length_b   16.86269337
_cell_length_c   20.66897562
_cell_angle_alpha   89.99776600
_cell_angle_beta   90.03619552
_cell_angle_gamma   120.01079770
_symmetry_Int_Tables_number   1
_chemical_formula_structural   Ti(CuTe)4
_chemical_formula_sum   'Ti24 Cu96 Te96'
_cell_volume   5088.40871170
_cell_formula_units_Z   24
loop_
 _symmetry_equiv_pos_site_id
 _symmetry_equiv_pos_as_xyz
  1  'x, y, z'
loop_
 _atom_type_symbol
 _atom_type_oxidation_number
  Ti4+  4.0
  Cu+  1.0
  Te2-  -2.0
loop_
 _atom_site_type_symbol
 _atom_site_label
 _atom_site_symmetry_multiplicity
 _atom_site_fract_x
 _atom_site_fract_y
 _atom_site_fract_z
 _atom_site_occupancy
  Ti4+  Ti0  1  0.00000186  -0.00040769  0.25873813  1
  Ti4+  Ti1  1  0.00000626  0.49982972  0.25867857  1
  Ti4+  Ti2  1  0.50123427  -0.00181768  0.25968194  1
  Ti4+  Ti3  1  0.50104155  0.49973980  0.26111092  1
  Ti4+  Ti4  1  0.33132237  0.16594049  0.59133902  1
  Ti4+  Ti5  1  0.33610419  0.67023176  0.59075815  1
  Ti4+  Ti6  1  0.83533350  0.16638960  0.59112397  1
  Ti4+  Ti7  1  0.83077412  0.66205877  0.58856510  1
  Ti4+  Ti8  1  0.16706164  0.33408355  0.92511644  1
  Ti4+  Ti9  1  0.16534614  0.83103940  0.92170969  1
  Ti4+  Ti10  1  0.66376044  0.33403706  0.92207962  1
  Ti4+  Ti11  1  0.66688860  0.83826048  0.92510435  1
  Ti4+  Ti12  1  -0.00004364  0.00210073  0.75425415  1
  Ti4+  Ti13  1  -0.00032525  0.50153889  0.75417090  1
  Ti4+  Ti14  1  0.50124743  -0.00077970  0.75275490  1
  Ti4+  Ti15  1  0.50019132  0.49817866  0.75530129  1
  Ti4+  Ti16  1  0.33427951  0.16796613  0.09105678  1
  Ti4+  Ti17  1  0.33432175  0.66797021  0.08947735  1
  Ti4+  Ti18  1  0.83184869  0.16522177  0.09027606  1
  Ti4+  Ti19  1  0.83285309  0.66677361  0.08998957  1
  Ti4+  Ti20  1  0.16654544  0.33000612  0.42258281  1
  Ti4+  Ti21  1  0.16828677  0.83347195  0.42252193  1
  Ti4+  Ti22  1  0.66971961  0.33547848  0.42310126  1
  Ti4+  Ti23  1  0.66567393  0.83426787  0.42303807  1
  Cu+  Cu24  1  0.40736531  0.81210800  0.80720858  1
  Cu+  Cu25  1  0.40120882  0.31221036  0.80740944  1
  Cu+  Cu26  1  0.90179249  0.59733176  0.80501956  1
  Cu+  Cu27  1  0.85988196  0.42874237  0.47347396  1
  Cu+  Cu28  1  0.06898464  0.13745215  0.47324759  1
  Cu+  Cu29  1  0.57349385  0.93247332  0.47693021  1
  Cu+  Cu30  1  0.67903514  0.09363713  0.81189916  1
  Cu+  Cu31  1  0.56840753  0.65150371  0.47542357  1
  Cu+  Cu32  1  0.91082289  0.09880974  0.81056331  1
  Cu+  Cu33  1  0.73828646  0.97389589  0.14402382  1
  Cu+  Cu34  1  0.40510215  0.08394450  0.80945079  1
  Cu+  Cu35  1  0.57112782  0.42030302  0.47708633  1
  Cu+  Cu36  1  0.16544257  0.08445834  0.17399376  1
  Cu+  Cu37  1  0.16471291  0.58200820  0.17213862  1
  Cu+  Cu38  1  0.66303346  0.07550833  0.17244050  1
  Cu+  Cu39  1  0.66415500  0.58128794  0.17529190  1
  Cu+  Cu40  1  0.42142670  0.33736875  0.17532918  1
  Cu+  Cu41  1  0.42006151  0.83672214  0.17205274  1
  Cu+  Cu42  1  0.91723225  0.33727175  0.17290560  1
  Cu+  Cu43  1  0.92055886  0.83618883  0.17207775  1
  Cu+  Cu44  1  0.41745343  0.08187088  0.17382582  1
  Cu+  Cu45  1  0.41964839  0.58385702  0.17426485  1
  Cu+  Cu46  1  0.91534697  0.07822429  0.17281503  1
  Cu+  Cu47  1  0.91625427  0.57909023  0.17267230  1
  Cu+  Cu48  1  0.49552252  0.24887096  0.50607752  1
  Cu+  Cu49  1  0.49669002  0.75321016  0.50441392  1
  Cu+  Cu50  1  1.00002673  0.24224861  0.50350813  1
  Cu+  Cu51  1  0.99862467  0.74584135  0.50347213  1
  Cu+  Cu52  1  0.25185862  0.00166676  0.50508410  1
  Cu+  Cu53  1  0.25117098  0.50158712  0.50391911  1
  Cu+  Cu54  1  0.74891560  0.00425329  0.50431928  1
  Cu+  Cu55  1  0.75267921  0.50206835  0.50155920  1
  Cu+  Cu56  1  0.24604943  0.24339439  0.50341510  1
  Cu+  Cu57  1  0.25395388  0.75125062  0.50444811  1
  Cu+  Cu58  1  0.75645435  0.25362288  0.50390364  1
  Cu+  Cu59  1  0.74620139  0.74412909  0.50207485  1
  Cu+  Cu60  1  0.33121249  0.41408652  0.83819014  1
  Cu+  Cu61  1  0.32661356  0.90904359  0.83316067  1
  Cu+  Cu62  1  0.83070024  0.42222731  0.83456960  1
  Cu+  Cu63  1  0.83263853  0.92216112  0.83691708  1
  Cu+  Cu64  1  0.08418743  0.17334522  0.83601404  1
  Cu+  Cu65  1  0.07885340  0.66936136  0.83408280  1
  Cu+  Cu66  1  0.58366032  0.17291960  0.83228702  1
  Cu+  Cu67  1  0.58428747  0.66998292  0.83807527  1
  Cu+  Cu68  1  0.08689009  0.41763833  0.83715255  1
  Cu+  Cu69  1  0.08364906  0.91362552  0.83442008  1
  Cu+  Cu70  1  0.57922536  0.40995698  0.83408895  1
  Cu+  Cu71  1  0.58749446  0.91439484  0.83324428  1
  Cu+  Cu72  1  0.16533215  0.08361400  0.67473135  1
  Cu+  Cu73  1  0.17098937  0.58605026  0.67300042  1
  Cu+  Cu74  1  0.67064230  0.08375517  0.67999897  1
  Cu+  Cu75  1  0.66621567  0.58107832  0.67440648  1
  Cu+  Cu76  1  0.41475381  0.32988746  0.67876863  1
  Cu+  Cu77  1  0.41875386  0.83100677  0.67888416  1
  Cu+  Cu78  1  0.91983536  0.33306913  0.67349104  1
  Cu+  Cu79  1  0.91515988  0.83019428  0.67110918  1
  Cu+  Cu80  1  0.41592873  0.08593184  0.67903294  1
  Cu+  Cu81  1  0.41940449  0.58680919  0.67536725  1
  Cu+  Cu82  1  0.91546378  0.08406051  0.67967236  1
  Cu+  Cu83  1  0.91384351  0.58300793  0.67713668  1
  Cu+  Cu84  1  0.00188214  0.25232380  0.01028432  1
  Cu+  Cu85  1  0.00003401  0.74847999  0.00819633  1
  Cu+  Cu86  1  0.49966183  0.25060107  0.00980963  1
  Cu+  Cu87  1  0.50078920  0.75346477  0.00950607  1
  Cu+  Cu88  1  0.25138690  0.49846989  0.00869961  1
  Cu+  Cu89  1  0.24926292  0.99801356  0.00747755  1
  Cu+  Cu90  1  0.74688212  0.50038445  0.00721397  1
  Cu+  Cu91  1  0.74889294  1.00021026  0.01522132  1
  Cu+  Cu92  1  0.25090750  0.25262096  0.01055556  1
  Cu+  Cu93  1  0.24988468  0.75080687  0.00620461  1
  Cu+  Cu94  1  0.74813247  0.25213618  0.00735788  1
  Cu+  Cu95  1  0.74934461  0.75309940  0.00986398  1
  Cu+  Cu96  1  0.33492739  0.41574491  0.34196869  1
  Cu+  Cu97  1  0.33720398  0.91782482  0.34178342  1
  Cu+  Cu98  1  0.84028379  0.41879388  0.34588895  1
  Cu+  Cu99  1  0.83481622  0.91897224  0.34279797  1
  Cu+  Cu100  1  0.08120062  0.16040259  0.34488125  1
  Cu+  Cu101  1  0.08425240  0.66520083  0.33997444  1
  Cu+  Cu102  1  0.58397632  0.16446493  0.34183950  1
  Cu+  Cu103  1  0.58135009  0.66271013  0.34726929  1
  Cu+  Cu104  1  0.08257754  0.41686542  0.34089966  1
  Cu+  Cu105  1  0.08492235  0.91846932  0.34152788  1
  Cu+  Cu106  1  0.58328788  0.41890632  0.34825340  1
  Cu+  Cu107  1  0.58338890  0.92014337  0.34822977  1
  Cu+  Cu108  1  0.00365690  0.00004254  0.11593091  1
  Cu+  Cu109  1  0.00280779  0.50306981  0.11578194  1
  Cu+  Cu110  1  0.49738674  0.00200399  0.11638922  1
  Cu+  Cu111  1  0.49960044  0.50131774  0.11932118  1
  Cu+  Cu112  1  0.33323128  0.16465908  0.44786536  1
  Cu+  Cu113  1  0.32760670  0.66232709  0.44715914  1
  Cu+  Cu114  1  0.83680864  0.17013306  0.44799789  1
  Cu+  Cu115  1  0.83767792  0.67158237  0.44523506  1
  Cu+  Cu116  1  0.16900206  0.33818604  0.77892946  1
  Cu+  Cu117  1  0.16406635  0.83204298  0.77470270  1
  Cu+  Cu118  1  0.67063726  0.33618990  0.77547083  1
  Cu+  Cu119  1  0.67117437  0.82869543  0.78041136  1
  Te2-  Te120  1  -0.00209841  -0.00584178  0.38952432  1
  Te2-  Te121  1  0.00672250  0.50307720  0.38970446  1
  Te2-  Te122  1  0.49925617  0.00262918  0.39080702  1
  Te2-  Te123  1  0.49594276  0.49726377  0.39384082  1
  Te2-  Te124  1  0.32821466  0.16359595  0.72378248  1
  Te2-  Te125  1  0.33355640  0.66451941  0.72139388  1
  Te2-  Te126  1  0.83629840  0.17097101  0.72355277  1
  Te2-  Te127  1  0.83068750  0.66723238  0.71861592  1
  Te2-  Te128  1  0.16713456  0.33411021  0.05428441  1
  Te2-  Te129  1  0.16614375  0.83228545  0.05033390  1
  Te2-  Te130  1  0.66579893  0.33503366  0.05067322  1
  Te2-  Te131  1  0.66468984  0.83246044  0.05538378  1
  Te2-  Te132  1  0.48676095  0.24217960  0.88289930  1
  Te2-  Te133  1  0.49358786  0.74719713  0.88324417  1
  Te2-  Te134  1  0.99315658  0.25161176  0.88415579  1
  Te2-  Te135  1  0.99052341  0.74828289  0.88202868  1
  Te2-  Te136  1  0.25074272  0.00399621  0.88099526  1
  Te2-  Te137  1  0.25460638  0.50503848  0.88226344  1
  Te2-  Te138  1  0.75484276  0.01414160  0.88559710  1
  Te2-  Te139  1  0.74658335  0.50710427  0.88074048  1
  Te2-  Te140  1  0.24978491  0.24357989  0.88384287  1
  Te2-  Te141  1  0.24847966  0.74118968  0.87961211  1
  Te2-  Te142  1  0.75426090  0.25256126  0.88059267  1
  Te2-  Te143  1  0.75239411  0.75389044  0.88309184  1
  Te2-  Te144  1  0.33061950  0.41519505  0.21661607  1
  Te2-  Te145  1  0.32991748  0.91375053  0.21629221  1
  Te2-  Te146  1  0.82683794  0.41261217  0.21927962  1
  Te2-  Te147  1  0.82603678  0.90856367  0.21731193  1
  Te2-  Te148  1  0.08356141  0.17102135  0.21781424  1
  Te2-  Te149  1  0.08530040  0.67080015  0.21428710  1
  Te2-  Te150  1  0.58703601  0.16862332  0.21585003  1
  Te2-  Te151  1  0.58642115  0.67131752  0.22041293  1
  Te2-  Te152  1  0.08534800  0.41378911  0.21527267  1
  Te2-  Te153  1  0.08780489  0.91590704  0.21590687  1
  Te2-  Te154  1  0.58778814  0.41432910  0.22136517  1
  Te2-  Te155  1  0.58548131  0.90782422  0.22065356  1
  Te2-  Te156  1  0.15808582  0.07507718  0.54957161  1
  Te2-  Te157  1  0.16542228  0.58320180  0.54761453  1
  Te2-  Te158  1  0.66229918  0.08638599  0.55209746  1
  Te2-  Te159  1  0.65479608  0.57557135  0.54863403  1
  Te2-  Te160  1  0.41377740  0.33853480  0.55119268  1
  Te2-  Te161  1  0.42085370  0.84474937  0.55188025  1
  Te2-  Te162  1  0.92672340  0.33795315  0.54783000  1
  Te2-  Te163  1  0.91482759  0.83191881  0.54548037  1
  Te2-  Te164  1  0.41907882  0.08265190  0.55164835  1
  Te2-  Te165  1  0.41848727  0.58003498  0.54975143  1
  Te2-  Te166  1  0.91581297  0.07397310  0.55171897  1
  Te2-  Te167  1  0.92153008  0.57870638  0.54998373  1
  Te2-  Te168  1  0.00232322  0.00183669  0.88132102  1
  Te2-  Te169  1  -0.00031841  0.50060596  0.88125006  1
  Te2-  Te170  1  0.49977348  -0.00013046  0.88075026  1
  Te2-  Te171  1  0.50134902  0.50100497  0.88251963  1
  Te2-  Te172  1  0.33474298  0.16748672  0.21799185  1
  Te2-  Te173  1  0.33337718  0.66706839  0.21624934  1
  Te2-  Te174  1  0.83331574  0.16678545  0.21707750  1
  Te2-  Te175  1  0.83505890  0.66696723  0.21666633  1
  Te2-  Te176  1  0.16813300  0.33407716  0.55000415  1
  Te2-  Te177  1  0.16675306  0.83267019  0.54932128  1
  Te2-  Te178  1  0.66672784  0.33339652  0.55083497  1
  Te2-  Te179  1  0.66773870  0.83366175  0.55067043  1
  Te2-  Te180  1  0.32772722  0.41603467  0.70971080  1
  Te2-  Te181  1  0.32645764  0.91276899  0.70598925  1
  Te2-  Te182  1  0.82749069  0.41076156  0.70698763  1
  Te2-  Te183  1  0.82716484  0.91115752  0.70895358  1
  Te2-  Te184  1  0.08846494  0.17614913  0.70888659  1
  Te2-  Te185  1  0.08750641  0.67307754  0.70678198  1
  Te2-  Te186  1  0.58846251  0.17490237  0.70563643  1
  Te2-  Te187  1  0.58774327  0.67135573  0.71109828  1
  Te2-  Te188  1  0.08838534  0.41699639  0.71032479  1
  Te2-  Te189  1  0.08377962  0.91337550  0.70841342  1
  Te2-  Te190  1  0.58712832  0.41190413  0.70765288  1
  Te2-  Te191  1  0.59088048  0.91207565  0.70733321  1
  Te2-  Te192  1  0.16311797  0.08159178  0.04608881  1
  Te2-  Te193  1  0.16292709  0.58094332  0.04451897  1
  Te2-  Te194  1  0.65869342  0.08301582  0.04494882  1
  Te2-  Te195  1  0.66043643  0.58264032  0.04728761  1
  Te2-  Te196  1  0.42062238  0.34049332  0.04779265  1
  Te2-  Te197  1  0.41891187  0.84070700  0.04521808  1
  Te2-  Te198  1  0.91727245  0.33787796  0.04616050  1
  Te2-  Te199  1  0.91988717  0.83877929  0.04516686  1
  Te2-  Te200  1  0.41830367  0.08071221  0.04584023  1
  Te2-  Te201  1  0.42142714  0.58287520  0.04630698  1
  Te2-  Te202  1  0.92222591  0.08230043  0.04542455  1
  Te2-  Te203  1  0.91663652  0.57888876  0.04520921  1
  Te2-  Te204  1  0.49574764  0.24569655  0.37858938  1
  Te2-  Te205  1  0.49130361  0.74591683  0.37717765  1
  Te2-  Te206  1  0.99447862  0.24676600  0.37631061  1
  Te2-  Te207  1  0.99701041  0.74766613  0.37656139  1
  Te2-  Te208  1  0.25471193  0.00564282  0.37812450  1
  Te2-  Te209  1  0.25220891  0.50262728  0.37748761  1
  Te2-  Te210  1  0.75588696  0.00846666  0.37795598  1
  Te2-  Te211  1  0.75696713  0.50893054  0.37527293  1
  Te2-  Te212  1  0.25455434  0.24553309  0.37635396  1
  Te2-  Te213  1  0.25424909  0.74772705  0.37744321  1
  Te2-  Te214  1  0.75338876  0.24617592  0.37720304  1
  Te2-  Te215  1  0.75391616  0.74890676  0.37607851  1
