# generated using pymatgen
data_Ti(CuTe)4
_symmetry_space_group_name_H-M   'P 1'
_cell_length_a   16.89116135
_cell_length_b   16.88891816
_cell_length_c   20.71259821
_cell_angle_alpha   90.01585916
_cell_angle_beta   89.96358038
_cell_angle_gamma   119.98917903
_symmetry_Int_Tables_number   1
_chemical_formula_structural   Ti(CuTe)4
_chemical_formula_sum   'Ti24 Cu96 Te96'
_cell_volume   5117.68805933
_cell_formula_units_Z   24
loop_
 _symmetry_equiv_pos_site_id
 _symmetry_equiv_pos_as_xyz
  1  'x, y, z'
loop_
 _atom_type_symbol
 _atom_type_oxidation_number
  Ti4+  4.0
  Cu+  1.0
  Te2-  -2.0
loop_
 _atom_site_type_symbol
 _atom_site_label
 _atom_site_symmetry_multiplicity
 _atom_site_fract_x
 _atom_site_fract_y
 _atom_site_fract_z
 _atom_site_occupancy
  Ti4+  Ti0  1  0.00164320  0.00300448  0.25712673  1
  Ti4+  Ti1  1  -0.00347004  0.50028739  0.25877179  1
  Ti4+  Ti2  1  0.49668999  0.00165226  0.25367097  1
  Ti4+  Ti3  1  0.49786047  0.50039321  0.26090811  1
  Ti4+  Ti4  1  0.33440715  0.16723153  0.59598954  1
  Ti4+  Ti5  1  0.33344975  0.66361638  0.58783425  1
  Ti4+  Ti6  1  0.83501161  0.16519604  0.58881120  1
  Ti4+  Ti7  1  0.83644648  0.66611821  0.58906311  1
  Ti4+  Ti8  1  0.16644448  0.33315412  0.92912273  1
  Ti4+  Ti9  1  0.16656830  0.83465837  0.92274766  1
  Ti4+  Ti10  1  0.66719302  0.33416820  0.92562268  1
  Ti4+  Ti11  1  0.66704708  0.83030617  0.92111243  1
  Ti4+  Ti12  1  -0.00030552  -0.00233759  0.75530518  1
  Ti4+  Ti13  1  0.00097695  0.49906804  0.75707074  1
  Ti4+  Ti14  1  0.50070980  -0.00028446  0.75350447  1
  Ti4+  Ti15  1  0.50132158  0.50044926  0.75628301  1
  Ti4+  Ti16  1  0.33176100  0.16525408  0.08826966  1
  Ti4+  Ti17  1  0.33344651  0.66712421  0.08863055  1
  Ti4+  Ti18  1  0.83178123  0.16765602  0.08731641  1
  Ti4+  Ti19  1  0.83313814  0.66748945  0.09066824  1
  Ti4+  Ti20  1  0.16589475  0.33475742  0.42214227  1
  Ti4+  Ti21  1  0.16565799  0.83318752  0.42272551  1
  Ti4+  Ti22  1  0.66496839  0.33278700  0.42219602  1
  Ti4+  Ti23  1  0.66807821  0.83506053  0.41919724  1
  Cu+  Cu24  1  0.85793665  0.92816291  0.47240786  1
  Cu+  Cu25  1  0.23587342  0.97677181  0.13924577  1
  Cu+  Cu26  1  0.17862299  0.09334252  0.81505876  1
  Cu+  Cu27  1  0.58150872  0.65366442  0.47635870  1
  Cu+  Cu28  1  0.24572554  0.26017500  0.14666996  1
  Cu+  Cu29  1  0.41379059  0.09460603  0.81231077  1
  Cu+  Cu30  1  0.07828412  0.64720048  0.47548826  1
  Cu+  Cu31  1  0.01130042  0.26054586  0.14609590  1
  Cu+  Cu32  1  0.73816438  0.26248624  0.14074715  1
  Cu+  Cu33  1  0.34833474  0.41860060  0.47856186  1
  Cu+  Cu34  1  0.85019468  0.41967615  0.47560058  1
  Cu+  Cu35  1  0.90514202  0.80826720  0.80561351  1
  Cu+  Cu36  1  0.16242242  0.08149963  0.16866118  1
  Cu+  Cu37  1  0.16408478  0.58593393  0.17138236  1
  Cu+  Cu38  1  0.66136585  0.08878132  0.16705769  1
  Cu+  Cu39  1  0.66404074  0.58299851  0.17498000  1
  Cu+  Cu40  1  0.41641771  0.33914717  0.17334556  1
  Cu+  Cu41  1  0.41584321  0.83705810  0.16823585  1
  Cu+  Cu42  1  0.91402387  0.33877671  0.17022650  1
  Cu+  Cu43  1  0.91802690  0.83741311  0.17226766  1
  Cu+  Cu44  1  0.41217000  0.07606615  0.16709043  1
  Cu+  Cu45  1  0.41634095  0.58229265  0.17337272  1
  Cu+  Cu46  1  0.92017230  0.08560124  0.16953889  1
  Cu+  Cu47  1  0.91647829  0.58290818  0.17308897  1
  Cu+  Cu48  1  0.49613610  0.24634931  0.50687968  1
  Cu+  Cu49  1  0.49715287  0.74431431  0.49977432  1
  Cu+  Cu50  1  0.99507829  0.24696499  0.50228135  1
  Cu+  Cu51  1  0.99800018  0.74432896  0.50261708  1
  Cu+  Cu52  1  0.25178523  0.00294964  0.50968507  1
  Cu+  Cu53  1  0.25568404  0.50346539  0.50078576  1
  Cu+  Cu54  1  0.75778689  0.00287060  0.50129242  1
  Cu+  Cu55  1  0.75559565  0.50161967  0.50186746  1
  Cu+  Cu56  1  0.25176655  0.24786126  0.50853181  1
  Cu+  Cu57  1  0.24878032  0.74392752  0.50341021  1
  Cu+  Cu58  1  0.75327660  0.24859051  0.50336048  1
  Cu+  Cu59  1  0.75617651  0.75175752  0.50152347  1
  Cu+  Cu60  1  0.33286662  0.41584268  0.84091016  1
  Cu+  Cu61  1  0.33178459  0.91973231  0.83499152  1
  Cu+  Cu62  1  0.83230292  0.41579599  0.84022221  1
  Cu+  Cu63  1  0.82924826  0.90695410  0.83499415  1
  Cu+  Cu64  1  0.08690191  0.17282618  0.84173591  1
  Cu+  Cu65  1  0.08453251  0.66911287  0.83735734  1
  Cu+  Cu66  1  0.58594524  0.17161051  0.83831511  1
  Cu+  Cu67  1  0.58710115  0.66991908  0.83549281  1
  Cu+  Cu68  1  0.08352445  0.41478492  0.84217572  1
  Cu+  Cu69  1  0.08400305  0.91386676  0.83559338  1
  Cu+  Cu70  1  0.58765870  0.41787300  0.83856479  1
  Cu+  Cu71  1  0.58487847  0.91300217  0.83539769  1
  Cu+  Cu72  1  0.17087440  0.08555911  0.68348967  1
  Cu+  Cu73  1  0.16913731  0.58077759  0.67452220  1
  Cu+  Cu74  1  0.67046863  0.08386843  0.67112134  1
  Cu+  Cu75  1  0.66966184  0.58439510  0.67423836  1
  Cu+  Cu76  1  0.41652166  0.33211233  0.67911620  1
  Cu+  Cu77  1  0.41565355  0.82798104  0.67028475  1
  Cu+  Cu78  1  0.91610057  0.32952795  0.67601000  1
  Cu+  Cu79  1  0.91569872  0.82975927  0.67649491  1
  Cu+  Cu80  1  0.41617878  0.08542618  0.68231605  1
  Cu+  Cu81  1  0.41638171  0.58214923  0.67496485  1
  Cu+  Cu82  1  0.91633959  0.08347071  0.67423677  1
  Cu+  Cu83  1  0.91792057  0.58184282  0.67636717  1
  Cu+  Cu84  1  0.00231503  0.25066813  0.01541532  1
  Cu+  Cu85  1  0.00074133  0.75211562  0.00879490  1
  Cu+  Cu86  1  0.50221161  0.25106219  0.00955571  1
  Cu+  Cu87  1  0.50256730  0.74880268  0.00562333  1
  Cu+  Cu88  1  0.24903134  0.49784479  0.01182058  1
  Cu+  Cu89  1  0.24857414  0.99741523  0.01103445  1
  Cu+  Cu90  1  0.74964836  0.49904267  0.01024741  1
  Cu+  Cu91  1  0.74674392  0.99341596  0.00299824  1
  Cu+  Cu92  1  0.24764364  0.25100544  0.01639561  1
  Cu+  Cu93  1  0.25008117  0.75181655  0.00600099  1
  Cu+  Cu94  1  0.74704262  0.25158277  0.01125717  1
  Cu+  Cu95  1  0.74900528  0.74946237  0.00720722  1
  Cu+  Cu96  1  0.33440040  0.41864189  0.34898000  1
  Cu+  Cu97  1  0.33336399  0.91990332  0.34000100  1
  Cu+  Cu98  1  0.83213981  0.41652946  0.34605207  1
  Cu+  Cu99  1  0.83836573  0.92206747  0.34377838  1
  Cu+  Cu100  1  0.08323118  0.16835599  0.34259241  1
  Cu+  Cu101  1  0.07901955  0.66432958  0.34651332  1
  Cu+  Cu102  1  0.57769675  0.16483755  0.33875857  1
  Cu+  Cu103  1  0.58086693  0.66505975  0.34635168  1
  Cu+  Cu104  1  0.07876874  0.41642883  0.34203783  1
  Cu+  Cu105  1  0.08526353  0.92129370  0.34268394  1
  Cu+  Cu106  1  0.57717546  0.41539771  0.34403246  1
  Cu+  Cu107  1  0.58139612  0.92229806  0.33565073  1
  Cu+  Cu108  1  -0.00602923  -0.00262955  0.11315390  1
  Cu+  Cu109  1  0.00257001  0.50561608  0.11543764  1
  Cu+  Cu110  1  0.50135825  -0.00325355  0.10892287  1
  Cu+  Cu111  1  0.50277112  0.50384579  0.11860933  1
  Cu+  Cu112  1  0.33176192  0.16364059  0.45309904  1
  Cu+  Cu113  1  0.33552740  0.67152512  0.44314619  1
  Cu+  Cu114  1  0.82950157  0.16516904  0.44449901  1
  Cu+  Cu115  1  0.83251374  0.66568270  0.44492411  1
  Cu+  Cu116  1  0.16911239  0.33831944  0.78706585  1
  Cu+  Cu117  1  0.16966086  0.82988247  0.77899274  1
  Cu+  Cu118  1  0.67042058  0.33604680  0.78300542  1
  Cu+  Cu119  1  0.66493276  0.83368545  0.77688199  1
  Te2-  Te120  1  0.00449668  0.00429440  0.38747619  1
  Te2-  Te121  1  -0.00175846  0.49793942  0.39085839  1
  Te2-  Te122  1  0.49791888  0.00092130  0.38276787  1
  Te2-  Te123  1  0.50036830  0.50021713  0.39327003  1
  Te2-  Te124  1  0.33560254  0.16977222  0.72833367  1
  Te2-  Te125  1  0.33418781  0.66513778  0.71648737  1
  Te2-  Te126  1  0.83311950  0.16443954  0.71781586  1
  Te2-  Te127  1  0.83378713  0.66299544  0.71885567  1
  Te2-  Te128  1  0.16705348  0.33578789  0.06148048  1
  Te2-  Te129  1  0.16521609  0.83048594  0.05281695  1
  Te2-  Te130  1  0.66536269  0.33543223  0.05621515  1
  Te2-  Te131  1  0.66623450  0.83130641  0.05025460  1
  Te2-  Te132  1  0.49382332  0.25031239  0.88399332  1
  Te2-  Te133  1  0.49511466  0.74532215  0.87991423  1
  Te2-  Te134  1  0.99540219  0.24708329  0.88799964  1
  Te2-  Te135  1  0.99334096  0.74551988  0.88264974  1
  Te2-  Te136  1  0.25415305  0.01079056  0.88409004  1
  Te2-  Te137  1  0.25217399  0.50312787  0.88564213  1
  Te2-  Te138  1  0.75422373  0.00135061  0.87743620  1
  Te2-  Te139  1  0.75418859  0.50561795  0.88437021  1
  Te2-  Te140  1  0.25604545  0.24930627  0.88902865  1
  Te2-  Te141  1  0.25337348  0.75185678  0.87996611  1
  Te2-  Te142  1  0.75201216  0.24764471  0.88455616  1
  Te2-  Te143  1  0.75279325  0.73978285  0.88199030  1
  Te2-  Te144  1  0.32434777  0.41585293  0.22159645  1
  Te2-  Te145  1  0.32140411  0.90936728  0.21470295  1
  Te2-  Te146  1  0.82324496  0.41521569  0.21873355  1
  Te2-  Te147  1  0.83131689  0.91917289  0.21650243  1
  Te2-  Te148  1  0.08934045  0.17881173  0.21695870  1
  Te2-  Te149  1  0.08301291  0.67109028  0.21933761  1
  Te2-  Te150  1  0.57954668  0.17586683  0.21332231  1
  Te2-  Te151  1  0.58365154  0.67095433  0.21923241  1
  Te2-  Te152  1  0.08513951  0.41697114  0.21612519  1
  Te2-  Te153  1  0.08584084  0.91389459  0.21675885  1
  Te2-  Te154  1  0.58221806  0.41388362  0.21810006  1
  Te2-  Te155  1  0.58543801  0.91998750  0.20989669  1
  Te2-  Te156  1  0.16309199  0.08186715  0.55564268  1
  Te2-  Te157  1  0.15976360  0.57313284  0.54864074  1
  Te2-  Te158  1  0.66491962  0.07949224  0.54501313  1
  Te2-  Te159  1  0.66496095  0.57947364  0.54782280  1
  Te2-  Te160  1  0.42295115  0.33975557  0.55324070  1
  Te2-  Te161  1  0.41819796  0.83357003  0.54417491  1
  Te2-  Te162  1  0.92340644  0.33995796  0.55020920  1
  Te2-  Te163  1  0.92438332  0.83878649  0.54916096  1
  Te2-  Te164  1  0.41935483  0.08092020  0.55504320  1
  Te2-  Te165  1  0.42357612  0.57640616  0.54906885  1
  Te2-  Te166  1  0.92593019  0.08098583  0.54872440  1
  Te2-  Te167  1  0.92316870  0.57627186  0.55020823  1
  Te2-  Te168  1  -0.00102028  -0.00040873  0.88262140  1
  Te2-  Te169  1  0.00089683  0.50150345  0.88370375  1
  Te2-  Te170  1  0.50153345  -0.00052248  0.88049152  1
  Te2-  Te171  1  0.50268354  0.50202689  0.88267638  1
  Te2-  Te172  1  0.33280792  0.16668610  0.21555561  1
  Te2-  Te173  1  0.33302634  0.66954526  0.21497616  1
  Te2-  Te174  1  0.83075574  0.16691415  0.21479208  1
  Te2-  Te175  1  0.83325664  0.66891671  0.21712548  1
  Te2-  Te176  1  0.16524072  0.33384726  0.54894391  1
  Te2-  Te177  1  0.16706521  0.83166973  0.54959885  1
  Te2-  Te178  1  0.66711744  0.33230603  0.54908412  1
  Te2-  Te179  1  0.66661924  0.83283957  0.54677409  1
  Te2-  Te180  1  0.32795766  0.41346441  0.71441178  1
  Te2-  Te181  1  0.32847612  0.91087791  0.70798951  1
  Te2-  Te182  1  0.82938752  0.41244149  0.71324707  1
  Te2-  Te183  1  0.82744324  0.91330862  0.70843741  1
  Te2-  Te184  1  0.08520965  0.17271263  0.71440140  1
  Te2-  Te185  1  0.08784420  0.66972006  0.71079717  1
  Te2-  Te186  1  0.59012236  0.17299059  0.71074491  1
  Te2-  Te187  1  0.58692489  0.67144561  0.70940820  1
  Te2-  Te188  1  0.08566610  0.41202387  0.71477240  1
  Te2-  Te189  1  0.08767917  0.91152716  0.70909705  1
  Te2-  Te190  1  0.58793129  0.41463786  0.71229869  1
  Te2-  Te191  1  0.58535678  0.91356656  0.70814202  1
  Te2-  Te192  1  0.15697297  0.07779534  0.04233947  1
  Te2-  Te193  1  0.16160725  0.58213887  0.04465093  1
  Te2-  Te194  1  0.66084472  0.07810621  0.03987667  1
  Te2-  Te195  1  0.66172672  0.58085656  0.04773875  1
  Te2-  Te196  1  0.42094953  0.34021131  0.04628171  1
  Te2-  Te197  1  0.41983791  0.83697734  0.04150852  1
  Te2-  Te198  1  0.91979577  0.34210164  0.04297318  1
  Te2-  Te199  1  0.91786594  0.83834779  0.04538115  1
  Te2-  Te200  1  0.42089385  0.08079388  0.04155982  1
  Te2-  Te201  1  0.41941226  0.58022038  0.04687626  1
  Te2-  Te202  1  0.91520855  0.07743001  0.04284856  1
  Te2-  Te203  1  0.91944337  0.58221391  0.04652222  1
  Te2-  Te204  1  0.49153163  0.24620599  0.38061362  1
  Te2-  Te205  1  0.49527221  0.75269545  0.37327687  1
  Te2-  Te206  1  0.99261064  0.24738020  0.37695170  1
  Te2-  Te207  1  0.99323169  0.75074805  0.37651175  1
  Te2-  Te208  1  0.25303427  0.00656202  0.38215563  1
  Te2-  Te209  1  0.24959700  0.50787030  0.37511104  1
  Te2-  Te210  1  0.75071235  0.00727813  0.37399408  1
  Te2-  Te211  1  0.74848422  0.50562196  0.37582556  1
  Te2-  Te212  1  0.25216697  0.24612727  0.38077751  1
  Te2-  Te213  1  0.25249674  0.74910742  0.37566004  1
  Te2-  Te214  1  0.74769618  0.24395347  0.37567210  1
  Te2-  Te215  1  0.75486608  0.74834348  0.37372149  1
