# generated using pymatgen
data_Ti(CuTe)4
_symmetry_space_group_name_H-M   'P 1'
_cell_length_a   16.87006703
_cell_length_b   16.87158907
_cell_length_c   20.67750820
_cell_angle_alpha   89.97381885
_cell_angle_beta   90.05018371
_cell_angle_gamma   120.01188372
_symmetry_Int_Tables_number   1
_chemical_formula_structural   Ti(CuTe)4
_chemical_formula_sum   'Ti24 Cu96 Te96'
_cell_volume   5096.23499362
_cell_formula_units_Z   24
loop_
 _symmetry_equiv_pos_site_id
 _symmetry_equiv_pos_as_xyz
  1  'x, y, z'
loop_
 _atom_type_symbol
 _atom_type_oxidation_number
  Ti4+  4.0
  Cu+  1.0
  Te2-  -2.0
loop_
 _atom_site_type_symbol
 _atom_site_label
 _atom_site_symmetry_multiplicity
 _atom_site_fract_x
 _atom_site_fract_y
 _atom_site_fract_z
 _atom_site_occupancy
  Ti4+  Ti0  1  0.00088844  0.00168331  0.25839990  1
  Ti4+  Ti1  1  -0.00482202  0.49730656  0.26069299  1
  Ti4+  Ti2  1  0.49978796  -0.00104567  0.26063783  1
  Ti4+  Ti3  1  0.49858193  0.49928947  0.25483477  1
  Ti4+  Ti4  1  0.33112503  0.16633827  0.59150843  1
  Ti4+  Ti5  1  0.33433125  0.66902277  0.58881569  1
  Ti4+  Ti6  1  0.83554349  0.16971070  0.59500377  1
  Ti4+  Ti7  1  0.83299456  0.66594219  0.58892465  1
  Ti4+  Ti8  1  0.16625860  0.33276380  0.92513282  1
  Ti4+  Ti9  1  0.16943876  0.83416397  0.92251054  1
  Ti4+  Ti10  1  0.66599469  0.33139938  0.92639536  1
  Ti4+  Ti11  1  0.66609125  0.83318690  0.92081143  1
  Ti4+  Ti12  1  0.00100159  0.00110650  0.75326101  1
  Ti4+  Ti13  1  0.00121887  0.49967567  0.75628829  1
  Ti4+  Ti14  1  0.49882321  -0.00071711  0.75265997  1
  Ti4+  Ti15  1  0.50106097  0.50046465  0.75453250  1
  Ti4+  Ti16  1  0.33301525  0.16823105  0.08835241  1
  Ti4+  Ti17  1  0.33474110  0.66706005  0.08956891  1
  Ti4+  Ti18  1  0.83317969  0.16605673  0.09128286  1
  Ti4+  Ti19  1  0.83370383  0.66458671  0.08782204  1
  Ti4+  Ti20  1  0.16618230  0.33139653  0.42281674  1
  Ti4+  Ti21  1  0.16723703  0.83305157  0.41981815  1
  Ti4+  Ti22  1  0.66836350  0.33463778  0.42409202  1
  Ti4+  Ti23  1  0.66566202  0.83443205  0.42276206  1
  Cu+  Cu24  1  0.40664442  0.09383787  0.80721444  1
  Cu+  Cu25  1  0.57472393  0.93449015  0.47729019  1
  Cu+  Cu26  1  0.73790098  0.25280449  0.14927500  1
  Cu+  Cu27  1  0.06832840  0.14153600  0.47551669  1
  Cu+  Cu28  1  0.91091124  0.32280813  0.81885382  1
  Cu+  Cu29  1  0.07730717  0.42642781  0.47708030  1
  Cu+  Cu30  1  0.67032487  0.08503211  0.81761684  1
  Cu+  Cu31  1  0.85154594  0.42746149  0.48093487  1
  Cu+  Cu32  1  0.23537541  0.26232891  0.14066688  1
  Cu+  Cu33  1  0.73562693  0.47842449  0.14233688  1
  Cu+  Cu34  1  0.91289336  0.09002145  0.81386872  1
  Cu+  Cu35  1  0.40472818  0.81203412  0.80513433  1
  Cu+  Cu36  1  0.16479875  0.08844956  0.17090786  1
  Cu+  Cu37  1  0.16498203  0.58071518  0.17461646  1
  Cu+  Cu38  1  0.66204289  0.08015312  0.17456929  1
  Cu+  Cu39  1  0.66345904  0.57882512  0.16881949  1
  Cu+  Cu40  1  0.41239642  0.33691702  0.16753158  1
  Cu+  Cu41  1  0.42064744  0.83526989  0.17423674  1
  Cu+  Cu42  1  0.91372834  0.33632440  0.17366429  1
  Cu+  Cu43  1  0.91865286  0.83611329  0.17116392  1
  Cu+  Cu44  1  0.41698601  0.08058146  0.17213776  1
  Cu+  Cu45  1  0.41943118  0.58190452  0.16898180  1
  Cu+  Cu46  1  0.92026516  0.08195515  0.17259179  1
  Cu+  Cu47  1  0.91099969  0.57544764  0.17083050  1
  Cu+  Cu48  1  0.49759203  0.25038680  0.50726853  1
  Cu+  Cu49  1  0.49832845  0.75533763  0.50341114  1
  Cu+  Cu50  1  0.99955060  0.24947327  0.50624123  1
  Cu+  Cu51  1  0.99750368  0.74913607  0.50119356  1
  Cu+  Cu52  1  0.25237148  0.00264320  0.50389094  1
  Cu+  Cu53  1  0.25098801  0.50399956  0.50291891  1
  Cu+  Cu54  1  0.74807738  0.00247740  0.50737421  1
  Cu+  Cu55  1  0.75499839  0.50533751  0.50341105  1
  Cu+  Cu56  1  0.24647210  0.24246279  0.50361614  1
  Cu+  Cu57  1  0.25317124  0.74935377  0.50105392  1
  Cu+  Cu58  1  0.75629048  0.25308168  0.50723566  1
  Cu+  Cu59  1  0.74983196  0.74604225  0.50342833  1
  Cu+  Cu60  1  0.33214712  0.41497722  0.83882662  1
  Cu+  Cu61  1  0.32821997  0.91340571  0.83273921  1
  Cu+  Cu62  1  0.83063424  0.41467896  0.83986062  1
  Cu+  Cu63  1  0.83137783  0.91610867  0.83334447  1
  Cu+  Cu64  1  0.08646957  0.17131004  0.83693685  1
  Cu+  Cu65  1  0.08704435  0.67008489  0.83670685  1
  Cu+  Cu66  1  0.58338214  0.17240531  0.83527788  1
  Cu+  Cu67  1  0.58453381  0.66989514  0.83441985  1
  Cu+  Cu68  1  0.08510349  0.41349798  0.83751215  1
  Cu+  Cu69  1  0.08669290  0.91543687  0.83520085  1
  Cu+  Cu70  1  0.58621627  0.41695454  0.83857023  1
  Cu+  Cu71  1  0.58349388  0.90896150  0.83080082  1
  Cu+  Cu72  1  0.16835665  0.08443527  0.67463284  1
  Cu+  Cu73  1  0.16892962  0.58454612  0.67373595  1
  Cu+  Cu74  1  0.66884262  0.08606517  0.68388027  1
  Cu+  Cu75  1  0.66991004  0.58321248  0.67178290  1
  Cu+  Cu76  1  0.41613127  0.33142631  0.67373231  1
  Cu+  Cu77  1  0.41612364  0.83124719  0.67678199  1
  Cu+  Cu78  1  0.91843877  0.33383909  0.68586408  1
  Cu+  Cu79  1  0.91590576  0.82932484  0.67103201  1
  Cu+  Cu80  1  0.41389143  0.08627695  0.67854120  1
  Cu+  Cu81  1  0.41607413  0.58496821  0.67088512  1
  Cu+  Cu82  1  0.91786086  0.08669815  0.68225052  1
  Cu+  Cu83  1  0.91511768  0.58422468  0.67443581  1
  Cu+  Cu84  1  -0.00020491  0.24879419  0.01252141  1
  Cu+  Cu85  1  0.00460014  0.75131129  0.00642196  1
  Cu+  Cu86  1  0.50011764  0.24872776  0.00949881  1
  Cu+  Cu87  1  0.50227717  0.75259930  0.00593028  1
  Cu+  Cu88  1  0.24951235  0.49908642  0.00791845  1
  Cu+  Cu89  1  0.25104418  0.99853273  0.00676742  1
  Cu+  Cu90  1  0.75066336  0.49524411  0.01372756  1
  Cu+  Cu91  1  0.75050538  0.99828429  0.00826378  1
  Cu+  Cu92  1  0.24743157  0.25198788  0.01182125  1
  Cu+  Cu93  1  0.25196787  0.75252495  0.00815890  1
  Cu+  Cu94  1  0.74963884  0.24857077  0.01788474  1
  Cu+  Cu95  1  0.75084368  0.75216603  0.00390335  1
  Cu+  Cu96  1  0.33511509  0.41621668  0.33994170  1
  Cu+  Cu97  1  0.33524340  0.91582130  0.34161539  1
  Cu+  Cu98  1  0.83354592  0.41615789  0.35115211  1
  Cu+  Cu99  1  0.83542959  0.91866165  0.34135139  1
  Cu+  Cu100  1  0.08345282  0.16298643  0.34728265  1
  Cu+  Cu101  1  0.08132800  0.66420851  0.34115488  1
  Cu+  Cu102  1  0.58329134  0.16474288  0.34518024  1
  Cu+  Cu103  1  0.58134273  0.66319049  0.33771762  1
  Cu+  Cu104  1  0.07925372  0.41590000  0.34768631  1
  Cu+  Cu105  1  0.08493998  0.92063845  0.33982562  1
  Cu+  Cu106  1  0.58064089  0.41669545  0.33938772  1
  Cu+  Cu107  1  0.58196884  0.92037816  0.34795807  1
  Cu+  Cu108  1  0.00111839  -0.00446647  0.11477210  1
  Cu+  Cu109  1  0.00590444  0.50503001  0.11801544  1
  Cu+  Cu110  1  0.49649170  -0.00321236  0.11758455  1
  Cu+  Cu111  1  0.50274659  0.50379243  0.10917889  1
  Cu+  Cu112  1  0.33662451  0.16649054  0.44878474  1
  Cu+  Cu113  1  0.33589580  0.66553441  0.44460686  1
  Cu+  Cu114  1  0.83358309  0.16437550  0.45152378  1
  Cu+  Cu115  1  0.83488147  0.67140758  0.44415127  1
  Cu+  Cu116  1  0.17353966  0.33721888  0.78122826  1
  Cu+  Cu117  1  0.16151619  0.83021982  0.77716531  1
  Cu+  Cu118  1  0.66879610  0.34010986  0.78183067  1
  Cu+  Cu119  1  0.67047535  0.82839335  0.77471346  1
  Te2-  Te120  1  -0.00160988  -0.00351336  0.38923472  1
  Te2-  Te121  1  0.00024964  0.50226727  0.39276949  1
  Te2-  Te122  1  0.49754567  0.00159449  0.39163329  1
  Te2-  Te123  1  0.49946617  0.49974555  0.38387106  1
  Te2-  Te124  1  0.33121590  0.16906892  0.72244194  1
  Te2-  Te125  1  0.33301968  0.66466933  0.71922655  1
  Te2-  Te126  1  0.83407922  0.16794506  0.72826541  1
  Te2-  Te127  1  0.83320674  0.66649422  0.71829274  1
  Te2-  Te128  1  0.16484302  0.33564523  0.05564050  1
  Te2-  Te129  1  0.16873880  0.83425917  0.05148634  1
  Te2-  Te130  1  0.66329895  0.32932011  0.05830023  1
  Te2-  Te131  1  0.66725626  0.83245050  0.04954835  1
  Te2-  Te132  1  0.49329927  0.24888103  0.88343022  1
  Te2-  Te133  1  0.49146701  0.74356646  0.87994305  1
  Te2-  Te134  1  0.98969054  0.24396271  0.88626546  1
  Te2-  Te135  1  0.99772448  0.74833304  0.88029951  1
  Te2-  Te136  1  0.25370293  0.00803243  0.88069545  1
  Te2-  Te137  1  0.25176359  0.50324937  0.88199410  1
  Te2-  Te138  1  0.75389321  0.00913786  0.88198965  1
  Te2-  Te139  1  0.75269628  0.50232842  0.88599574  1
  Te2-  Te140  1  0.25183397  0.24733077  0.88415237  1
  Te2-  Te141  1  0.25415246  0.74464894  0.88175568  1
  Te2-  Te142  1  0.75266056  0.24310291  0.88819227  1
  Te2-  Te143  1  0.75272301  0.74915522  0.87773773  1
  Te2-  Te144  1  0.32376470  0.41576643  0.21442363  1
  Te2-  Te145  1  0.32941882  0.91315677  0.21575721  1
  Te2-  Te146  1  0.81860096  0.40921493  0.22228005  1
  Te2-  Te147  1  0.82948209  0.91464505  0.21565309  1
  Te2-  Te148  1  0.08530173  0.17679816  0.21972166  1
  Te2-  Te149  1  0.07983801  0.66614169  0.21503159  1
  Te2-  Te150  1  0.58297280  0.17279073  0.21924679  1
  Te2-  Te151  1  0.58693099  0.67029973  0.21186165  1
  Te2-  Te152  1  0.08076880  0.41241531  0.21989239  1
  Te2-  Te153  1  0.08795180  0.91897937  0.21350563  1
  Te2-  Te154  1  0.58002025  0.40745321  0.21352059  1
  Te2-  Te155  1  0.58700103  0.91429425  0.22060824  1
  Te2-  Te156  1  0.15686589  0.07438734  0.54907291  1
  Te2-  Te157  1  0.16033308  0.58346633  0.54813350  1
  Te2-  Te158  1  0.66292638  0.08701250  0.55500450  1
  Te2-  Te159  1  0.66103384  0.57863152  0.54635431  1
  Te2-  Te160  1  0.41513294  0.33708147  0.54796492  1
  Te2-  Te161  1  0.41810519  0.84360846  0.54950710  1
  Te2-  Te162  1  0.92470398  0.34412200  0.55626121  1
  Te2-  Te163  1  0.91832280  0.83715841  0.54527781  1
  Te2-  Te164  1  0.41889841  0.08241890  0.55099863  1
  Te2-  Te165  1  0.41983591  0.58472746  0.54494002  1
  Te2-  Te166  1  0.91673735  0.07956007  0.55352680  1
  Te2-  Te167  1  0.92516031  0.58358066  0.54892098  1
  Te2-  Te168  1  0.00076383  -0.00077356  0.88067932  1
  Te2-  Te169  1  0.00208638  0.50099813  0.88375750  1
  Te2-  Te170  1  0.49976337  -0.00181965  0.88104886  1
  Te2-  Te171  1  0.50169364  0.50193628  0.88149843  1
  Te2-  Te172  1  0.33421006  0.16779511  0.21534606  1
  Te2-  Te173  1  0.33478492  0.66548090  0.21649616  1
  Te2-  Te174  1  0.83313086  0.16517966  0.21828981  1
  Te2-  Te175  1  0.83256343  0.66703261  0.21515374  1
  Te2-  Te176  1  0.17052009  0.33534694  0.55060689  1
  Te2-  Te177  1  0.16661630  0.83255558  0.54645511  1
  Te2-  Te178  1  0.66764551  0.33597941  0.55122311  1
  Te2-  Te179  1  0.66687106  0.83164343  0.54985429  1
  Te2-  Te180  1  0.32970250  0.41546161  0.71035945  1
  Te2-  Te181  1  0.32465833  0.91268346  0.70596700  1
  Te2-  Te182  1  0.82691937  0.41540217  0.71214853  1
  Te2-  Te183  1  0.82849664  0.91227535  0.70614582  1
  Te2-  Te184  1  0.09056760  0.17635716  0.70997320  1
  Te2-  Te185  1  0.08553409  0.67076145  0.71034756  1
  Te2-  Te186  1  0.58658252  0.17672667  0.70880018  1
  Te2-  Te187  1  0.58631503  0.67059913  0.70725677  1
  Te2-  Te188  1  0.09154587  0.41578079  0.71075031  1
  Te2-  Te189  1  0.08546031  0.91364767  0.70877806  1
  Te2-  Te190  1  0.58638855  0.41396705  0.71090277  1
  Te2-  Te191  1  0.58858267  0.91264851  0.70505363  1
  Te2-  Te192  1  0.16084553  0.07902612  0.04300552  1
  Te2-  Te193  1  0.16297523  0.58204988  0.04614930  1
  Te2-  Te194  1  0.65946798  0.07591902  0.04689218  1
  Te2-  Te195  1  0.66234080  0.58171325  0.04046041  1
  Te2-  Te196  1  0.42107287  0.34085723  0.04104542  1
  Te2-  Te197  1  0.42105677  0.83924340  0.04639505  1
  Te2-  Te198  1  0.92189839  0.34080425  0.04699702  1
  Te2-  Te199  1  0.91966691  0.83652235  0.04345606  1
  Te2-  Te200  1  0.41926473  0.08003367  0.04580560  1
  Te2-  Te201  1  0.42021335  0.58199774  0.04229699  1
  Te2-  Te202  1  0.91934375  0.07907418  0.04679002  1
  Te2-  Te203  1  0.92361635  0.58104181  0.04361345  1
  Te2-  Te204  1  0.49630856  0.24837698  0.38001221  1
  Te2-  Te205  1  0.49446964  0.74601322  0.37556672  1
  Te2-  Te206  1  0.99129661  0.24381138  0.37856541  1
  Te2-  Te207  1  0.99517809  0.74902914  0.37451698  1
  Te2-  Te208  1  0.25454411  0.00597616  0.37710131  1
  Te2-  Te209  1  0.25287359  0.50394444  0.37564108  1
  Te2-  Te210  1  0.75506265  0.00775363  0.37933164  1
  Te2-  Te211  1  0.75020978  0.50693592  0.37644840  1
  Te2-  Te212  1  0.25573737  0.24762631  0.37707689  1
  Te2-  Te213  1  0.25227246  0.74499462  0.37530248  1
  Te2-  Te214  1  0.75264422  0.24380928  0.38070015  1
  Te2-  Te215  1  0.75057781  0.74808541  0.37646923  1
