# generated using pymatgen
data_Ti(CuTe)4
_symmetry_space_group_name_H-M   'P 1'
_cell_length_a   16.89680183
_cell_length_b   16.89380049
_cell_length_c   20.72073064
_cell_angle_alpha   90.03538252
_cell_angle_beta   89.93344156
_cell_angle_gamma   119.97678039
_symmetry_Int_Tables_number   1
_chemical_formula_structural   Ti(CuTe)4
_chemical_formula_sum   'Ti24 Cu96 Te96'
_cell_volume   5123.52478957
_cell_formula_units_Z   24
loop_
 _symmetry_equiv_pos_site_id
 _symmetry_equiv_pos_as_xyz
  1  'x, y, z'
loop_
 _atom_type_symbol
 _atom_type_oxidation_number
  Ti4+  4.0
  Cu+  1.0
  Te2-  -2.0
loop_
 _atom_site_type_symbol
 _atom_site_label
 _atom_site_symmetry_multiplicity
 _atom_site_fract_x
 _atom_site_fract_y
 _atom_site_fract_z
 _atom_site_occupancy
  Ti4+  Ti0  1  0.00348046  -0.00160528  0.25829665  1
  Ti4+  Ti1  1  0.00088860  0.49868872  0.26017822  1
  Ti4+  Ti2  1  0.50216883  0.00056599  0.25758454  1
  Ti4+  Ti3  1  0.50145804  0.50043257  0.25463554  1
  Ti4+  Ti4  1  0.33249221  0.16770981  0.59160793  1
  Ti4+  Ti5  1  0.33385324  0.67128354  0.59376689  1
  Ti4+  Ti6  1  0.83155002  0.16679940  0.58828132  1
  Ti4+  Ti7  1  0.83633034  0.66915927  0.58819361  1
  Ti4+  Ti8  1  0.16453331  0.33214065  0.92264305  1
  Ti4+  Ti9  1  0.16612461  0.82969960  0.92921929  1
  Ti4+  Ti10  1  0.66371758  0.33170274  0.92348258  1
  Ti4+  Ti11  1  0.66585036  0.83306477  0.92433159  1
  Ti4+  Ti12  1  -0.00162466  0.00009522  0.75661655  1
  Ti4+  Ti13  1  -0.00057396  0.50142268  0.75600990  1
  Ti4+  Ti14  1  0.49971650  0.00068108  0.75671614  1
  Ti4+  Ti15  1  0.49828571  0.49909830  0.75334050  1
  Ti4+  Ti16  1  0.33260508  0.16608005  0.08759825  1
  Ti4+  Ti17  1  0.33379412  0.66635421  0.09009954  1
  Ti4+  Ti18  1  0.83193602  0.16550873  0.08971658  1
  Ti4+  Ti19  1  0.83274670  0.66573206  0.08871328  1
  Ti4+  Ti20  1  0.16759426  0.33303654  0.42102506  1
  Ti4+  Ti21  1  0.16683548  0.83332679  0.42136623  1
  Ti4+  Ti22  1  0.66791614  0.33411712  0.42083676  1
  Ti4+  Ti23  1  0.66624177  0.83472812  0.42153871  1
  Cu+  Cu24  1  0.08095420  0.65516071  0.47995348  1
  Cu+  Cu25  1  0.85166073  0.42414277  0.47539307  1
  Cu+  Cu26  1  0.01617033  0.75252608  0.14703283  1
  Cu+  Cu27  1  0.52561317  0.76193260  0.14013061  1
  Cu+  Cu28  1  0.41050681  0.81753682  0.81346855  1
  Cu+  Cu29  1  0.18130427  0.58858884  0.81264551  1
  Cu+  Cu30  1  0.24778967  0.98430126  0.14395531  1
  Cu+  Cu31  1  0.40356209  0.31050428  0.80837078  1
  Cu+  Cu32  1  0.08121543  0.92782628  0.47920299  1
  Cu+  Cu33  1  0.84988846  0.92978058  0.47281159  1
  Cu+  Cu34  1  0.57011359  0.92977254  0.47393456  1
  Cu+  Cu35  1  0.52191980  0.26016986  0.13945722  1
  Cu+  Cu36  1  0.16358480  0.07511334  0.16902665  1
  Cu+  Cu37  1  0.16295486  0.58031550  0.17314956  1
  Cu+  Cu38  1  0.66399310  0.08070814  0.17093459  1
  Cu+  Cu39  1  0.66103838  0.57993484  0.16817299  1
  Cu+  Cu40  1  0.42212812  0.33675031  0.16799964  1
  Cu+  Cu41  1  0.42393460  0.83463701  0.17157140  1
  Cu+  Cu42  1  0.91653090  0.33370706  0.17345882  1
  Cu+  Cu43  1  0.92310321  0.83490238  0.17092585  1
  Cu+  Cu44  1  0.42060346  0.08381873  0.17043623  1
  Cu+  Cu45  1  0.42226684  0.58608101  0.16974628  1
  Cu+  Cu46  1  0.91899330  0.08174893  0.17276515  1
  Cu+  Cu47  1  0.92017262  0.58137793  0.17354460  1
  Cu+  Cu48  1  0.49697051  0.25023702  0.50571491  1
  Cu+  Cu49  1  0.49753062  0.75796745  0.50547250  1
  Cu+  Cu50  1  0.99681416  0.24751250  0.50037115  1
  Cu+  Cu51  1  0.99560809  0.74883389  0.49986738  1
  Cu+  Cu52  1  0.25294131  0.00792542  0.50440622  1
  Cu+  Cu53  1  0.24923949  0.50206830  0.50512471  1
  Cu+  Cu54  1  0.74806600  0.00347024  0.50146316  1
  Cu+  Cu55  1  0.75612032  0.50379867  0.50123795  1
  Cu+  Cu56  1  0.25246223  0.25028686  0.50400775  1
  Cu+  Cu57  1  0.25356353  0.74833728  0.50547685  1
  Cu+  Cu58  1  0.75377478  0.25043378  0.50198551  1
  Cu+  Cu59  1  0.75605778  0.75454733  0.50155618  1
  Cu+  Cu60  1  0.32766061  0.40995947  0.83419672  1
  Cu+  Cu61  1  0.33006420  0.91154185  0.84062811  1
  Cu+  Cu62  1  0.82794083  0.41405815  0.83788144  1
  Cu+  Cu63  1  0.82912552  0.91518976  0.83878752  1
  Cu+  Cu64  1  0.08019763  0.16895594  0.83683324  1
  Cu+  Cu65  1  0.08578550  0.66843552  0.84052595  1
  Cu+  Cu66  1  0.58473379  0.17155687  0.83755745  1
  Cu+  Cu67  1  0.58387302  0.66978605  0.83636342  1
  Cu+  Cu68  1  0.08522002  0.41614062  0.83703545  1
  Cu+  Cu69  1  0.08128924  0.91354356  0.84313198  1
  Cu+  Cu70  1  0.57855478  0.41019392  0.83623943  1
  Cu+  Cu71  1  0.58296936  0.91245110  0.83862834  1
  Cu+  Cu72  1  0.16658482  0.08421508  0.67617686  1
  Cu+  Cu73  1  0.16884099  0.58833786  0.68278303  1
  Cu+  Cu74  1  0.66775806  0.08558197  0.67355649  1
  Cu+  Cu75  1  0.67038668  0.58614934  0.67107714  1
  Cu+  Cu76  1  0.41440296  0.33060096  0.67858603  1
  Cu+  Cu77  1  0.41493996  0.83345823  0.68250952  1
  Cu+  Cu78  1  0.91349586  0.33187196  0.67340951  1
  Cu+  Cu79  1  0.91718541  0.83344113  0.67530158  1
  Cu+  Cu80  1  0.41513148  0.08631802  0.67564561  1
  Cu+  Cu81  1  0.41629445  0.58689667  0.67429132  1
  Cu+  Cu82  1  0.91248803  0.08299058  0.67369953  1
  Cu+  Cu83  1  0.91665582  0.58552923  0.67539030  1
  Cu+  Cu84  1  0.00049916  0.25126412  0.00721369  1
  Cu+  Cu85  1  0.00191077  0.74908832  0.01616461  1
  Cu+  Cu86  1  0.50077499  0.25148860  0.01097028  1
  Cu+  Cu87  1  0.50313332  0.75225167  0.01232522  1
  Cu+  Cu88  1  0.24630972  0.49614386  0.00712811  1
  Cu+  Cu89  1  0.24573238  0.99433833  0.01463358  1
  Cu+  Cu90  1  0.74608492  0.49686049  0.00640542  1
  Cu+  Cu91  1  0.74781137  0.99858506  0.00766690  1
  Cu+  Cu92  1  0.24561832  0.24998169  0.00657994  1
  Cu+  Cu93  1  0.24800873  0.74769127  0.01354361  1
  Cu+  Cu94  1  0.74680609  0.24987163  0.00855718  1
  Cu+  Cu95  1  0.74760467  0.75035497  0.00778531  1
  Cu+  Cu96  1  0.33706483  0.41872064  0.33765262  1
  Cu+  Cu97  1  0.33602315  0.91690541  0.34188316  1
  Cu+  Cu98  1  0.83802708  0.41911254  0.34610015  1
  Cu+  Cu99  1  0.83847175  0.91732470  0.34432285  1
  Cu+  Cu100  1  0.08658464  0.16468489  0.34040708  1
  Cu+  Cu101  1  0.08293204  0.66314358  0.34954921  1
  Cu+  Cu102  1  0.58207323  0.16613178  0.34143742  1
  Cu+  Cu103  1  0.57923448  0.66340957  0.34000693  1
  Cu+  Cu104  1  0.08406802  0.41650798  0.34193338  1
  Cu+  Cu105  1  0.08466791  0.91717025  0.34837641  1
  Cu+  Cu106  1  0.58075651  0.41643933  0.33944543  1
  Cu+  Cu107  1  0.58132565  0.91759836  0.34601738  1
  Cu+  Cu108  1  -0.00360687  -0.00011262  0.11479751  1
  Cu+  Cu109  1  -0.00217160  0.49490650  0.11728354  1
  Cu+  Cu110  1  0.50008574  -0.00061006  0.11437181  1
  Cu+  Cu111  1  0.49557937  0.49797027  0.11036968  1
  Cu+  Cu112  1  0.33694584  0.17168397  0.44791086  1
  Cu+  Cu113  1  0.33591790  0.66213045  0.45041204  1
  Cu+  Cu114  1  0.83555715  0.16774515  0.44327687  1
  Cu+  Cu115  1  0.82656478  0.66453382  0.44374466  1
  Cu+  Cu116  1  0.16326836  0.33250529  0.77808992  1
  Cu+  Cu117  1  0.16472869  0.83698808  0.78707025  1
  Cu+  Cu118  1  0.66830232  0.33687658  0.77958305  1
  Cu+  Cu119  1  0.66765205  0.83239928  0.78075091  1
  Te2-  Te120  1  0.00373952  0.00273823  0.39012723  1
  Te2-  Te121  1  0.00304758  0.49748367  0.39232396  1
  Te2-  Te122  1  0.49921996  0.00266588  0.38799432  1
  Te2-  Te123  1  0.49989472  0.49958739  0.38359664  1
  Te2-  Te124  1  0.33037994  0.16474495  0.72211318  1
  Te2-  Te125  1  0.33520807  0.66732433  0.72550775  1
  Te2-  Te126  1  0.83205722  0.16734589  0.71685574  1
  Te2-  Te127  1  0.83366286  0.66796507  0.71642823  1
  Te2-  Te128  1  0.16444517  0.33229054  0.05161071  1
  Te2-  Te129  1  0.16708906  0.82968551  0.06128981  1
  Te2-  Te130  1  0.66715848  0.33406033  0.05407120  1
  Te2-  Te131  1  0.66985097  0.83565748  0.05495177  1
  Te2-  Te132  1  0.48925836  0.24207671  0.88410174  1
  Te2-  Te133  1  0.49163438  0.74289524  0.88537647  1
  Te2-  Te134  1  0.99325871  0.24919711  0.88132695  1
  Te2-  Te135  1  0.99621190  0.74524329  0.88833124  1
  Te2-  Te136  1  0.25039682  -0.00071664  0.88700105  1
  Te2-  Te137  1  0.25628061  0.50553034  0.88148955  1
  Te2-  Te138  1  0.75001671  0.00417132  0.88209675  1
  Te2-  Te139  1  0.74739602  0.50224921  0.88056922  1
  Te2-  Te140  1  0.24775242  0.24145168  0.88103385  1
  Te2-  Te141  1  0.25480567  0.74224529  0.88730826  1
  Te2-  Te142  1  0.75093262  0.24689316  0.88284430  1
  Te2-  Te143  1  0.75076150  0.74682414  0.88197730  1
  Te2-  Te144  1  0.33153090  0.41570760  0.21152318  1
  Te2-  Te145  1  0.33054610  0.91094378  0.21588233  1
  Te2-  Te146  1  0.83019473  0.41488676  0.21897376  1
  Te2-  Te147  1  0.83363000  0.91309201  0.21693540  1
  Te2-  Te148  1  0.08885646  0.16757851  0.21441720  1
  Te2-  Te149  1  0.08994842  0.67259732  0.22161120  1
  Te2-  Te150  1  0.58912217  0.17339333  0.21565620  1
  Te2-  Te151  1  0.59131902  0.67564807  0.21493928  1
  Te2-  Te152  1  0.08533031  0.41286002  0.21638589  1
  Te2-  Te153  1  0.09145511  0.90926944  0.22015264  1
  Te2-  Te154  1  0.59037915  0.41427296  0.21430453  1
  Te2-  Te155  1  0.59101798  0.91526453  0.21899264  1
  Te2-  Te156  1  0.15860092  0.08358962  0.55037499  1
  Te2-  Te157  1  0.16080187  0.58039881  0.55435968  1
  Te2-  Te158  1  0.65829499  0.08333455  0.54767395  1
  Te2-  Te159  1  0.66738366  0.58475264  0.54443675  1
  Te2-  Te160  1  0.41865773  0.33910915  0.55125470  1
  Te2-  Te161  1  0.41762088  0.84534287  0.55462811  1
  Te2-  Te162  1  0.92323090  0.34040924  0.54781741  1
  Te2-  Te163  1  0.92399546  0.84555692  0.54917148  1
  Te2-  Te164  1  0.41867092  0.08219234  0.54986868  1
  Te2-  Te165  1  0.41911546  0.58803806  0.54792848  1
  Te2-  Te166  1  0.91899602  0.08130106  0.54755254  1
  Te2-  Te167  1  0.92454593  0.58056294  0.54951227  1
  Te2-  Te168  1  -0.00240721  0.00022675  0.88285735  1
  Te2-  Te169  1  -0.00320649  0.49738343  0.88282357  1
  Te2-  Te170  1  0.50096552  0.00123640  0.88344277  1
  Te2-  Te171  1  0.49751170  0.49928771  0.88003492  1
  Te2-  Te172  1  0.33360551  0.16782069  0.21506371  1
  Te2-  Te173  1  0.33323836  0.66519452  0.21673174  1
  Te2-  Te174  1  0.83308851  0.16479967  0.21595227  1
  Te2-  Te175  1  0.83126514  0.66448867  0.21546484  1
  Te2-  Te176  1  0.16514147  0.33283527  0.54720046  1
  Te2-  Te177  1  0.16700161  0.83531969  0.54876829  1
  Te2-  Te178  1  0.66756270  0.33479405  0.54761091  1
  Te2-  Te179  1  0.66739994  0.83429648  0.54901520  1
  Te2-  Te180  1  0.32571532  0.41576992  0.70758655  1
  Te2-  Te181  1  0.32591141  0.91677989  0.71379396  1
  Te2-  Te182  1  0.82815333  0.41549259  0.71098136  1
  Te2-  Te183  1  0.82761419  0.91396486  0.71168025  1
  Te2-  Te184  1  0.08245190  0.17086680  0.71064388  1
  Te2-  Te185  1  0.08483862  0.67618893  0.71386337  1
  Te2-  Te186  1  0.58507581  0.17245597  0.71179387  1
  Te2-  Te187  1  0.58630461  0.67185490  0.70987741  1
  Te2-  Te188  1  0.08381330  0.41385250  0.70952755  1
  Te2-  Te189  1  0.08561173  0.91490256  0.71493838  1
  Te2-  Te190  1  0.58759510  0.41612274  0.70859052  1
  Te2-  Te191  1  0.58792653  0.91611343  0.71137566  1
  Te2-  Te192  1  0.15861690  0.08027948  0.04303257  1
  Te2-  Te193  1  0.16011605  0.57803973  0.04730743  1
  Te2-  Te194  1  0.66040203  0.08024242  0.04497099  1
  Te2-  Te195  1  0.66061556  0.58057979  0.04307674  1
  Te2-  Te196  1  0.41550444  0.33843967  0.04128506  1
  Te2-  Te197  1  0.41880101  0.83968999  0.04501033  1
  Te2-  Te198  1  0.91672158  0.33668137  0.04618576  1
  Te2-  Te199  1  0.91789700  0.83884910  0.04410165  1
  Te2-  Te200  1  0.41928422  0.07872157  0.04255949  1
  Te2-  Te201  1  0.41697520  0.57893081  0.04251503  1
  Te2-  Te202  1  0.91803329  0.08109730  0.04510622  1
  Te2-  Te203  1  0.91605726  0.57563670  0.04559448  1
  Te2-  Te204  1  0.49534105  0.24840413  0.37859694  1
  Te2-  Te205  1  0.49283057  0.74586389  0.37810301  1
  Te2-  Te206  1  0.99639442  0.24556097  0.37455588  1
  Te2-  Te207  1  0.99136839  0.74475771  0.37427039  1
  Te2-  Te208  1  0.25702978  0.00767644  0.37750958  1
  Te2-  Te209  1  0.25392403  0.50483760  0.37785959  1
  Te2-  Te210  1  0.75506199  0.00727027  0.37389697  1
  Te2-  Te211  1  0.75135612  0.50578731  0.37436323  1
  Te2-  Te212  1  0.25579112  0.24947023  0.37723816  1
  Te2-  Te213  1  0.25624678  0.74760017  0.37916918  1
  Te2-  Te214  1  0.75247163  0.24577856  0.37529566  1
  Te2-  Te215  1  0.74954450  0.74550821  0.37486886  1
