# generated using pymatgen
data_Ti(CuTe)4
_symmetry_space_group_name_H-M   'P 1'
_cell_length_a   16.89825414
_cell_length_b   16.89897855
_cell_length_c   20.72050145
_cell_angle_alpha   90.01154180
_cell_angle_beta   90.01627493
_cell_angle_gamma   119.99326189
_symmetry_Int_Tables_number   1
_chemical_formula_structural   Ti(CuTe)4
_chemical_formula_sum   'Ti24 Cu96 Te96'
_cell_volume   5124.63120879
_cell_formula_units_Z   24
loop_
 _symmetry_equiv_pos_site_id
 _symmetry_equiv_pos_as_xyz
  1  'x, y, z'
loop_
 _atom_type_symbol
 _atom_type_oxidation_number
  Ti4+  4.0
  Cu+  1.0
  Te2-  -2.0
loop_
 _atom_site_type_symbol
 _atom_site_label
 _atom_site_symmetry_multiplicity
 _atom_site_fract_x
 _atom_site_fract_y
 _atom_site_fract_z
 _atom_site_occupancy
  Ti4+  Ti0  1  -0.00195278  -0.00072959  0.25583704  1
  Ti4+  Ti1  1  -0.00127911  0.50220000  0.25773806  1
  Ti4+  Ti2  1  0.49862261  -0.00197970  0.25932276  1
  Ti4+  Ti3  1  0.50025919  0.49946893  0.25524566  1
  Ti4+  Ti4  1  0.33536767  0.16535590  0.58717540  1
  Ti4+  Ti5  1  0.33175504  0.66578683  0.59159591  1
  Ti4+  Ti6  1  0.83384919  0.16884516  0.59089923  1
  Ti4+  Ti7  1  0.83345087  0.66836914  0.59598100  1
  Ti4+  Ti8  1  0.16475033  0.33068356  0.92022102  1
  Ti4+  Ti9  1  0.16899387  0.83273658  0.92479108  1
  Ti4+  Ti10  1  0.66996454  0.33656168  0.92337910  1
  Ti4+  Ti11  1  0.66365786  0.83149351  0.92859459  1
  Ti4+  Ti12  1  0.00148743  0.00192914  0.75458003  1
  Ti4+  Ti13  1  -0.00056497  0.49906448  0.75376638  1
  Ti4+  Ti14  1  0.49918627  -0.00154294  0.75822599  1
  Ti4+  Ti15  1  0.50151346  0.50100887  0.75457835  1
  Ti4+  Ti16  1  0.33397111  0.16701127  0.08688879  1
  Ti4+  Ti17  1  0.33131134  0.66674833  0.08880392  1
  Ti4+  Ti18  1  0.83424180  0.16651073  0.08883580  1
  Ti4+  Ti19  1  0.83298225  0.66510524  0.08715062  1
  Ti4+  Ti20  1  0.16580283  0.33462706  0.42031482  1
  Ti4+  Ti21  1  0.16701097  0.83414575  0.42227280  1
  Ti4+  Ti22  1  0.66598564  0.33295650  0.42241237  1
  Ti4+  Ti23  1  0.66691893  0.83267325  0.42431167  1
  Cu+  Cu24  1  0.07158919  0.42975195  0.47314984  1
  Cu+  Cu25  1  0.50712674  0.75411828  0.15026872  1
  Cu+  Cu26  1  0.40504227  0.80714956  0.80901337  1
  Cu+  Cu27  1  0.74239686  0.98732267  0.14737228  1
  Cu+  Cu28  1  0.73965415  0.47742082  0.14082167  1
  Cu+  Cu29  1  0.91448148  0.59246200  0.81319394  1
  Cu+  Cu30  1  0.90609828  0.31229598  0.80723995  1
  Cu+  Cu31  1  0.57835862  0.14953443  0.47730268  1
  Cu+  Cu32  1  0.23729960  0.76144334  0.14222037  1
  Cu+  Cu33  1  0.35080783  0.92133488  0.47718957  1
  Cu+  Cu34  1  0.74564391  0.75239693  0.14892055  1
  Cu+  Cu35  1  0.68356464  0.59652129  0.81282882  1
  Cu+  Cu36  1  0.16430115  0.08146540  0.16955000  1
  Cu+  Cu37  1  0.16172808  0.58651542  0.17060065  1
  Cu+  Cu38  1  0.66400761  0.08128559  0.17214578  1
  Cu+  Cu39  1  0.66150021  0.57719557  0.16702286  1
  Cu+  Cu40  1  0.41857090  0.33556526  0.16829201  1
  Cu+  Cu41  1  0.41430781  0.83716320  0.17062339  1
  Cu+  Cu42  1  0.91924087  0.33757934  0.17115007  1
  Cu+  Cu43  1  0.91862575  0.83921210  0.16885610  1
  Cu+  Cu44  1  0.41782175  0.08259622  0.17143285  1
  Cu+  Cu45  1  0.41910557  0.58124923  0.16868354  1
  Cu+  Cu46  1  0.91565347  0.07813221  0.16897723  1
  Cu+  Cu47  1  0.91523024  0.57694518  0.16877912  1
  Cu+  Cu48  1  0.49713937  0.24377799  0.50148799  1
  Cu+  Cu49  1  0.49803461  0.74916375  0.50600801  1
  Cu+  Cu50  1  0.99896751  0.25552390  0.50341416  1
  Cu+  Cu51  1  0.99674228  0.74906296  0.50803677  1
  Cu+  Cu52  1  0.25672516  0.00357175  0.50102163  1
  Cu+  Cu53  1  0.24609278  0.50163863  0.50376855  1
  Cu+  Cu54  1  0.75183210  0.00214736  0.50535306  1
  Cu+  Cu55  1  0.75138049  0.50501154  0.50873776  1
  Cu+  Cu56  1  0.25213666  0.24813439  0.50105600  1
  Cu+  Cu57  1  0.25519066  0.75013259  0.50447338  1
  Cu+  Cu58  1  0.75067883  0.24580088  0.50456488  1
  Cu+  Cu59  1  0.75048896  0.74793729  0.50854897  1
  Cu+  Cu60  1  0.32994754  0.41436201  0.83491809  1
  Cu+  Cu61  1  0.33250809  0.90935284  0.83946412  1
  Cu+  Cu62  1  0.82994149  0.41480787  0.83532622  1
  Cu+  Cu63  1  0.83227396  0.91854022  0.84043325  1
  Cu+  Cu64  1  0.08567614  0.17086544  0.83367262  1
  Cu+  Cu65  1  0.08822400  0.67382603  0.83747202  1
  Cu+  Cu66  1  0.58560588  0.17018291  0.83845826  1
  Cu+  Cu67  1  0.58622462  0.67232020  0.84013602  1
  Cu+  Cu68  1  0.08074296  0.40875828  0.83402752  1
  Cu+  Cu69  1  0.08693718  0.91873195  0.83723186  1
  Cu+  Cu70  1  0.59001926  0.42109084  0.83629437  1
  Cu+  Cu71  1  0.57871377  0.91069388  0.84203912  1
  Cu+  Cu72  1  0.17075617  0.08451530  0.67063962  1
  Cu+  Cu73  1  0.16859128  0.58496873  0.67465301  1
  Cu+  Cu74  1  0.66799694  0.08447582  0.67727241  1
  Cu+  Cu75  1  0.67111040  0.58707460  0.68283734  1
  Cu+  Cu76  1  0.41671266  0.32983799  0.67019734  1
  Cu+  Cu77  1  0.41440730  0.82891665  0.68107895  1
  Cu+  Cu78  1  0.91550873  0.33049507  0.67784224  1
  Cu+  Cu79  1  0.91562091  0.83323046  0.67770659  1
  Cu+  Cu80  1  0.41657669  0.08345971  0.67496549  1
  Cu+  Cu81  1  0.41674172  0.58471912  0.67385931  1
  Cu+  Cu82  1  0.91736979  0.08653316  0.67373779  1
  Cu+  Cu83  1  0.91483213  0.58618843  0.68259717  1
  Cu+  Cu84  1  0.00153011  0.25042006  0.00541059  1
  Cu+  Cu85  1  0.00395643  0.75067478  0.00890143  1
  Cu+  Cu86  1  0.50411585  0.25335259  0.00709365  1
  Cu+  Cu87  1  0.50005913  0.74972497  0.01665789  1
  Cu+  Cu88  1  0.24417993  0.49328233  0.00354988  1
  Cu+  Cu89  1  0.25222864  0.99836055  0.00689037  1
  Cu+  Cu90  1  0.75170885  0.49803522  0.01201803  1
  Cu+  Cu91  1  0.74697562  0.99655979  0.01535217  1
  Cu+  Cu92  1  0.24834795  0.24979516  0.00375714  1
  Cu+  Cu93  1  0.24734723  0.75001897  0.01357191  1
  Cu+  Cu94  1  0.75368671  0.25439144  0.00885736  1
  Cu+  Cu95  1  0.74861110  0.75128929  0.01625929  1
  Cu+  Cu96  1  0.33555786  0.41830698  0.33817458  1
  Cu+  Cu97  1  0.33482407  0.91700368  0.34696171  1
  Cu+  Cu98  1  0.83329865  0.41912079  0.34306788  1
  Cu+  Cu99  1  0.83397608  0.91534123  0.34364780  1
  Cu+  Cu100  1  0.08025670  0.16436890  0.33768414  1
  Cu+  Cu101  1  0.08097694  0.66676353  0.34229126  1
  Cu+  Cu102  1  0.58157816  0.16347186  0.34689322  1
  Cu+  Cu103  1  0.58387147  0.66437208  0.34273349  1
  Cu+  Cu104  1  0.08120535  0.42119804  0.34473058  1
  Cu+  Cu105  1  0.07908267  0.91729307  0.34046423  1
  Cu+  Cu106  1  0.58466422  0.42028377  0.34078028  1
  Cu+  Cu107  1  0.58260281  0.91597943  0.34447546  1
  Cu+  Cu108  1  0.00476048  0.00334548  0.11141379  1
  Cu+  Cu109  1  0.00139939  0.49728331  0.11307759  1
  Cu+  Cu110  1  0.50164381  0.00513724  0.11579416  1
  Cu+  Cu111  1  0.49455817  0.49638314  0.11007149  1
  Cu+  Cu112  1  0.33168421  0.16890991  0.44270531  1
  Cu+  Cu113  1  0.33627281  0.66451254  0.44924158  1
  Cu+  Cu114  1  0.83684816  0.16453942  0.44834185  1
  Cu+  Cu115  1  0.83419066  0.66793802  0.45333932  1
  Cu+  Cu116  1  0.17063603  0.33433037  0.77539337  1
  Cu+  Cu117  1  0.16967771  0.84008946  0.78207605  1
  Cu+  Cu118  1  0.66089625  0.33015637  0.78001102  1
  Cu+  Cu119  1  0.67069928  0.83900991  0.78636708  1
  Te2-  Te120  1  -0.00067508  0.00162606  0.38460447  1
  Te2-  Te121  1  -0.00277418  0.50313238  0.38812569  1
  Te2-  Te122  1  0.50085973  -0.00248194  0.39091461  1
  Te2-  Te123  1  0.49898163  0.49912020  0.38349446  1
  Te2-  Te124  1  0.33442118  0.16653360  0.71596500  1
  Te2-  Te125  1  0.33151870  0.66199470  0.72215692  1
  Te2-  Te126  1  0.83239619  0.16435536  0.72115949  1
  Te2-  Te127  1  0.83588797  0.67194111  0.72872388  1
  Te2-  Te128  1  0.16548126  0.33035395  0.04924926  1
  Te2-  Te129  1  0.16688340  0.83615096  0.05527645  1
  Te2-  Te130  1  0.66713423  0.33157175  0.05364025  1
  Te2-  Te131  1  0.66485865  0.83215869  0.06223092  1
  Te2-  Te132  1  0.50026750  0.25329919  0.88105916  1
  Te2-  Te133  1  0.49124634  0.74206603  0.88855562  1
  Te2-  Te134  1  0.98955269  0.24079820  0.88032479  1
  Te2-  Te135  1  0.99572186  0.75083901  0.88348087  1
  Te2-  Te136  1  0.25536310  0.00186492  0.88101452  1
  Te2-  Te137  1  0.24836699  0.50198615  0.87799508  1
  Te2-  Te138  1  0.74707302  0.00105328  0.88739366  1
  Te2-  Te139  1  0.75857639  0.51252984  0.88489525  1
  Te2-  Te140  1  0.25254502  0.24689428  0.87839743  1
  Te2-  Te141  1  0.25189562  0.74089251  0.88635788  1
  Te2-  Te142  1  0.75367064  0.24694938  0.88300042  1
  Te2-  Te143  1  0.75510810  0.75109731  0.88819242  1
  Te2-  Te144  1  0.32988735  0.41527475  0.21249296  1
  Te2-  Te145  1  0.32606648  0.91499980  0.21918962  1
  Te2-  Te146  1  0.82458203  0.41009702  0.21723656  1
  Te2-  Te147  1  0.82061355  0.90951679  0.21799746  1
  Te2-  Te148  1  0.08271399  0.16957690  0.21186861  1
  Te2-  Te149  1  0.08155666  0.67561448  0.21630697  1
  Te2-  Te150  1  0.58535943  0.16841458  0.21904325  1
  Te2-  Te151  1  0.58888063  0.67533161  0.21671185  1
  Te2-  Te152  1  0.08661283  0.41934987  0.21743850  1
  Te2-  Te153  1  0.08350270  0.91316232  0.21464538  1
  Te2-  Te154  1  0.58594052  0.41084225  0.21499434  1
  Te2-  Te155  1  0.58539097  0.91048986  0.21859278  1
  Te2-  Te156  1  0.16483512  0.07950208  0.54474304  1
  Te2-  Te157  1  0.15850589  0.58381878  0.54898759  1
  Te2-  Te158  1  0.65970136  0.07660131  0.55145616  1
  Te2-  Te159  1  0.66187369  0.58193769  0.55588028  1
  Te2-  Te160  1  0.42113933  0.33585487  0.54440907  1
  Te2-  Te161  1  0.42299894  0.84013445  0.55388736  1
  Te2-  Te162  1  0.91702831  0.34244842  0.55057060  1
  Te2-  Te163  1  0.91855384  0.83864511  0.55197843  1
  Te2-  Te164  1  0.42394457  0.07588362  0.54968450  1
  Te2-  Te165  1  0.41504425  0.57984197  0.54789403  1
  Te2-  Te166  1  0.92083474  0.08651811  0.54754718  1
  Te2-  Te167  1  0.91866839  0.58239484  0.55522903  1
  Te2-  Te168  1  0.00247998  0.00299857  0.88123743  1
  Te2-  Te169  1  0.00168123  0.50081091  0.88123873  1
  Te2-  Te170  1  0.50103952  0.00268239  0.88505138  1
  Te2-  Te171  1  0.49880965  0.49966661  0.88145355  1
  Te2-  Te172  1  0.33304018  0.16727191  0.21346525  1
  Te2-  Te173  1  0.33223985  0.66518240  0.21656670  1
  Te2-  Te174  1  0.83498420  0.16779193  0.21593432  1
  Te2-  Te175  1  0.83344570  0.66665415  0.21480260  1
  Te2-  Te176  1  0.16825999  0.33225140  0.54710715  1
  Te2-  Te177  1  0.16797814  0.83444102  0.54901701  1
  Te2-  Te178  1  0.66644977  0.33303596  0.54910377  1
  Te2-  Te179  1  0.66666819  0.83379100  0.55025835  1
  Te2-  Te180  1  0.33110703  0.41391053  0.70796644  1
  Te2-  Te181  1  0.32743056  0.91433369  0.71202551  1
  Te2-  Te182  1  0.82473933  0.41236226  0.70894107  1
  Te2-  Te183  1  0.82846972  0.91679973  0.71320830  1
  Te2-  Te184  1  0.08800075  0.17204722  0.70740197  1
  Te2-  Te185  1  0.08853711  0.67397534  0.71122995  1
  Te2-  Te186  1  0.58510316  0.17043823  0.71227595  1
  Te2-  Te187  1  0.58565512  0.67516994  0.71302621  1
  Te2-  Te188  1  0.08803772  0.41479418  0.70761227  1
  Te2-  Te189  1  0.08713748  0.91579473  0.71056441  1
  Te2-  Te190  1  0.58545257  0.41269132  0.70916288  1
  Te2-  Te191  1  0.58746121  0.91435672  0.71421738  1
  Te2-  Te192  1  0.16315711  0.08026106  0.04212051  1
  Te2-  Te193  1  0.15966290  0.57696664  0.04335782  1
  Te2-  Te194  1  0.66121423  0.08377851  0.04467782  1
  Te2-  Te195  1  0.65824441  0.57793271  0.04066639  1
  Te2-  Te196  1  0.41836191  0.33785609  0.04152039  1
  Te2-  Te197  1  0.41979264  0.84186432  0.04417573  1
  Te2-  Te198  1  0.92182825  0.33863453  0.04472983  1
  Te2-  Te199  1  0.92206914  0.83945174  0.04251539  1
  Te2-  Te200  1  0.42199844  0.08273454  0.04420665  1
  Te2-  Te201  1  0.41342625  0.57638067  0.04194695  1
  Te2-  Te202  1  0.92038603  0.08070992  0.04214887  1
  Te2-  Te203  1  0.92352975  0.58161795  0.04298538  1
  Te2-  Te204  1  0.49434699  0.24934669  0.37482187  1
  Te2-  Te205  1  0.49499953  0.74604124  0.37901463  1
  Te2-  Te206  1  0.99378376  0.24756650  0.37553241  1
  Te2-  Te207  1  0.99389319  0.74880305  0.38085986  1
  Te2-  Te208  1  0.24995970  0.00562013  0.37456334  1
  Te2-  Te209  1  0.25443438  0.50683350  0.37607210  1
  Te2-  Te210  1  0.75272392  0.00464674  0.37875571  1
  Te2-  Te211  1  0.75221367  0.50665107  0.38174851  1
  Te2-  Te212  1  0.25036875  0.24837448  0.37414468  1
  Te2-  Te213  1  0.25113140  0.74470499  0.37782353  1
  Te2-  Te214  1  0.75455500  0.24837993  0.37781304  1
  Te2-  Te215  1  0.75267880  0.74606503  0.38133598  1
