# generated using pymatgen
data_Ti(CuTe)4
_symmetry_space_group_name_H-M   'P 1'
_cell_length_a   16.87171265
_cell_length_b   16.87034673
_cell_length_c   20.68045604
_cell_angle_alpha   90.00031141
_cell_angle_beta   89.99657200
_cell_angle_gamma   119.99439700
_symmetry_Int_Tables_number   1
_chemical_formula_structural   Ti(CuTe)4
_chemical_formula_sum   'Ti24 Cu96 Te96'
_cell_volume   5097.98364775
_cell_formula_units_Z   24
loop_
 _symmetry_equiv_pos_site_id
 _symmetry_equiv_pos_as_xyz
  1  'x, y, z'
loop_
 _atom_type_symbol
 _atom_type_oxidation_number
  Ti4+  4.0
  Cu+  1.0
  Te2-  -2.0
loop_
 _atom_site_type_symbol
 _atom_site_label
 _atom_site_symmetry_multiplicity
 _atom_site_fract_x
 _atom_site_fract_y
 _atom_site_fract_z
 _atom_site_occupancy
  Ti4+  Ti0  1  0.00366842  0.00123106  0.26328709  1
  Ti4+  Ti1  1  0.00183093  0.49715283  0.25613202  1
  Ti4+  Ti2  1  0.49839933  -0.00313116  0.25727255  1
  Ti4+  Ti3  1  0.50360037  0.49808641  0.25526714  1
  Ti4+  Ti4  1  0.33369015  0.17003767  0.59071708  1
  Ti4+  Ti5  1  0.33257302  0.66849628  0.58782806  1
  Ti4+  Ti6  1  0.83118037  0.16523571  0.59334069  1
  Ti4+  Ti7  1  0.83211973  0.66690736  0.59081943  1
  Ti4+  Ti8  1  0.16563576  0.33359048  0.92525548  1
  Ti4+  Ti9  1  0.16392853  0.83354452  0.92507061  1
  Ti4+  Ti10  1  0.66525993  0.33320811  0.92673418  1
  Ti4+  Ti11  1  0.66842346  0.83615458  0.92280381  1
  Ti4+  Ti12  1  -0.00175210  -0.00125449  0.75521474  1
  Ti4+  Ti13  1  -0.00079312  0.50000913  0.75513166  1
  Ti4+  Ti14  1  0.50016080  0.00188667  0.75545952  1
  Ti4+  Ti15  1  0.49978246  0.50073816  0.75639157  1
  Ti4+  Ti16  1  0.33193237  0.16485990  0.08835939  1
  Ti4+  Ti17  1  0.33416083  0.66794286  0.08648012  1
  Ti4+  Ti18  1  0.83589463  0.16872813  0.09157196  1
  Ti4+  Ti19  1  0.83119356  0.66539071  0.09047512  1
  Ti4+  Ti20  1  0.16852119  0.33180157  0.42057133  1
  Ti4+  Ti21  1  0.16692551  0.83196009  0.42035402  1
  Ti4+  Ti22  1  0.66623165  0.33371892  0.42360711  1
  Ti4+  Ti23  1  0.66638668  0.83401159  0.42024989  1
  Cu+  Cu24  1  0.90542434  0.81129283  0.80886399  1
  Cu+  Cu25  1  0.91258544  0.09290948  0.81328629  1
  Cu+  Cu26  1  0.56992022  0.43179962  0.47271173  1
  Cu+  Cu27  1  0.68366910  0.09770823  0.81146383  1
  Cu+  Cu28  1  0.02877734  0.26030260  0.14246526  1
  Cu+  Cu29  1  0.07749801  0.15623000  0.48255869  1
  Cu+  Cu30  1  0.83980284  0.92172341  0.48435920  1
  Cu+  Cu31  1  0.74556634  0.47792307  0.14171110  1
  Cu+  Cu32  1  0.23580958  0.97452518  0.14138766  1
  Cu+  Cu33  1  0.57203333  0.93077781  0.47394574  1
  Cu+  Cu34  1  0.07921398  0.92115210  0.48308848  1
  Cu+  Cu35  1  0.51463486  0.24948269  0.14206025  1
  Cu+  Cu36  1  0.16335639  0.07700958  0.17271240  1
  Cu+  Cu37  1  0.16495289  0.58115368  0.16838059  1
  Cu+  Cu38  1  0.66449191  0.07880077  0.17269764  1
  Cu+  Cu39  1  0.66493128  0.57494783  0.16939426  1
  Cu+  Cu40  1  0.42534948  0.33647937  0.16769170  1
  Cu+  Cu41  1  0.42079122  0.83557980  0.16950588  1
  Cu+  Cu42  1  0.92602196  0.33606117  0.16994645  1
  Cu+  Cu43  1  0.91841927  0.83614602  0.17601631  1
  Cu+  Cu44  1  0.41442453  0.07634414  0.16924465  1
  Cu+  Cu45  1  0.41961243  0.58270975  0.16899803  1
  Cu+  Cu46  1  0.92331241  0.08782353  0.17671388  1
  Cu+  Cu47  1  0.91512516  0.57787374  0.17195152  1
  Cu+  Cu48  1  0.49788858  0.25648225  0.50433851  1
  Cu+  Cu49  1  0.49527240  0.75428693  0.50017365  1
  Cu+  Cu50  1  0.99742641  0.24862325  0.50446196  1
  Cu+  Cu51  1  0.99675510  0.74768751  0.50282703  1
  Cu+  Cu52  1  0.25268180  0.00347038  0.50278446  1
  Cu+  Cu53  1  0.25224734  0.50365940  0.50185803  1
  Cu+  Cu54  1  0.74756211  0.00499719  0.50407850  1
  Cu+  Cu55  1  0.74536610  0.50165853  0.50436264  1
  Cu+  Cu56  1  0.25288248  0.24716021  0.50147814  1
  Cu+  Cu57  1  0.25131517  0.74533509  0.50085799  1
  Cu+  Cu58  1  0.74871217  0.24672502  0.50648659  1
  Cu+  Cu59  1  0.75398879  0.74750124  0.50078920  1
  Cu+  Cu60  1  0.33101608  0.41611511  0.83934410  1
  Cu+  Cu61  1  0.32891128  0.91973123  0.83888272  1
  Cu+  Cu62  1  0.83042059  0.41809154  0.83874406  1
  Cu+  Cu63  1  0.82839932  0.91409007  0.83460841  1
  Cu+  Cu64  1  0.08415731  0.17345704  0.83840685  1
  Cu+  Cu65  1  0.08332243  0.66936368  0.83700557  1
  Cu+  Cu66  1  0.58540873  0.17174896  0.83976966  1
  Cu+  Cu67  1  0.58519588  0.67025584  0.83685235  1
  Cu+  Cu68  1  0.08158291  0.41400144  0.83756601  1
  Cu+  Cu69  1  0.08097882  0.91052910  0.83792157  1
  Cu+  Cu70  1  0.58331726  0.41501929  0.84141019  1
  Cu+  Cu71  1  0.58787111  0.92095282  0.83540868  1
  Cu+  Cu72  1  0.16869162  0.08546152  0.67777526  1
  Cu+  Cu73  1  0.16815863  0.58391938  0.67179379  1
  Cu+  Cu74  1  0.66752962  0.08439238  0.68225826  1
  Cu+  Cu75  1  0.66725119  0.58323254  0.67562236  1
  Cu+  Cu76  1  0.41649930  0.33340801  0.67568489  1
  Cu+  Cu77  1  0.41256401  0.83191492  0.67257799  1
  Cu+  Cu78  1  0.91492335  0.33224091  0.67567599  1
  Cu+  Cu79  1  0.91701108  0.83092715  0.68088990  1
  Cu+  Cu80  1  0.41541465  0.08708607  0.67296758  1
  Cu+  Cu81  1  0.41441539  0.58617671  0.67072570  1
  Cu+  Cu82  1  0.91460784  0.08305143  0.68338757  1
  Cu+  Cu83  1  0.91530254  0.58357294  0.67349768  1
  Cu+  Cu84  1  0.00377590  0.25166201  0.01450337  1
  Cu+  Cu85  1  -0.00111916  0.75236647  0.00971399  1
  Cu+  Cu86  1  0.50070586  0.25018361  0.01260703  1
  Cu+  Cu87  1  0.50364219  0.75382146  0.00459281  1
  Cu+  Cu88  1  0.24875574  0.49903880  0.00667581  1
  Cu+  Cu89  1  0.24301076  0.99494701  0.01229266  1
  Cu+  Cu90  1  0.74497875  0.49593351  0.01351938  1
  Cu+  Cu91  1  0.75138889  1.00038555  0.00982063  1
  Cu+  Cu92  1  0.24608047  0.24940459  0.00798125  1
  Cu+  Cu93  1  0.25019738  0.75429132  0.00682632  1
  Cu+  Cu94  1  0.74924307  0.24974544  0.01059028  1
  Cu+  Cu95  1  0.75034772  0.75365803  0.00856220  1
  Cu+  Cu96  1  0.33804881  0.41630498  0.33731273  1
  Cu+  Cu97  1  0.33423570  0.91463325  0.33987448  1
  Cu+  Cu98  1  0.83706099  0.41484003  0.34121573  1
  Cu+  Cu99  1  0.83666687  0.91969433  0.35059911  1
  Cu+  Cu100  1  0.08515161  0.16455356  0.35002340  1
  Cu+  Cu101  1  0.08145108  0.66061580  0.33835171  1
  Cu+  Cu102  1  0.58264108  0.16392726  0.34150537  1
  Cu+  Cu103  1  0.58512681  0.66469850  0.33735062  1
  Cu+  Cu104  1  0.08323730  0.41530113  0.34051550  1
  Cu+  Cu105  1  0.08308101  0.91662800  0.35048431  1
  Cu+  Cu106  1  0.58443684  0.41838981  0.34571343  1
  Cu+  Cu107  1  0.58085347  0.91777772  0.34530797  1
  Cu+  Cu108  1  -0.00519734  -0.00238425  0.12045103  1
  Cu+  Cu109  1  0.00320732  0.50508163  0.11193315  1
  Cu+  Cu110  1  0.50187242  -0.00112991  0.11317378  1
  Cu+  Cu111  1  0.49869956  0.50343208  0.11190543  1
  Cu+  Cu112  1  0.33779058  0.16465206  0.44553487  1
  Cu+  Cu113  1  0.33271928  0.66220744  0.44239692  1
  Cu+  Cu114  1  0.83518414  0.17222573  0.44864594  1
  Cu+  Cu115  1  0.83498372  0.66171802  0.44592906  1
  Cu+  Cu116  1  0.17149861  0.34211947  0.78242739  1
  Cu+  Cu117  1  0.16974773  0.83051053  0.78134493  1
  Cu+  Cu118  1  0.66742528  0.33697775  0.78360867  1
  Cu+  Cu119  1  0.65871658  0.82932780  0.77820099  1
  Te2-  Te120  1  0.00135104  -0.00004650  0.39673392  1
  Te2-  Te121  1  0.00127517  0.49747243  0.38508042  1
  Te2-  Te122  1  0.49713946  0.00059338  0.38786342  1
  Te2-  Te123  1  0.50054184  0.50209940  0.38582016  1
  Te2-  Te124  1  0.33395629  0.16887043  0.71958553  1
  Te2-  Te125  1  0.33228173  0.66765865  0.71690323  1
  Te2-  Te126  1  0.83401891  0.16927597  0.72500593  1
  Te2-  Te127  1  0.83169182  0.66349322  0.72103784  1
  Te2-  Te128  1  0.17092492  0.33648630  0.05595329  1
  Te2-  Te129  1  0.16251694  0.82904510  0.05601727  1
  Te2-  Te130  1  0.66602925  0.32974235  0.05857828  1
  Te2-  Te131  1  0.66692990  0.83509347  0.05158294  1
  Te2-  Te132  1  0.49440035  0.24730688  0.88545708  1
  Te2-  Te133  1  0.49837713  0.75236225  0.87857729  1
  Te2-  Te134  1  0.99088654  0.24863679  0.88669140  1
  Te2-  Te135  1  0.98947687  0.74205712  0.88384560  1
  Te2-  Te136  1  0.24749129  0.00524103  0.88490084  1
  Te2-  Te137  1  0.24964607  0.50374940  0.88083787  1
  Te2-  Te138  1  0.75661046  0.01241806  0.88343059  1
  Te2-  Te139  1  0.75067900  0.50423743  0.88609731  1
  Te2-  Te140  1  0.25071541  0.24756490  0.88242070  1
  Te2-  Te141  1  0.25145467  0.75082445  0.88065110  1
  Te2-  Te142  1  0.75639331  0.25095213  0.88463605  1
  Te2-  Te143  1  0.75221889  0.74574500  0.88237707  1
  Te2-  Te144  1  0.33376744  0.41314650  0.21153597  1
  Te2-  Te145  1  0.32526792  0.90749202  0.21421165  1
  Te2-  Te146  1  0.82815205  0.40615182  0.21547733  1
  Te2-  Te147  1  0.83372976  0.91914646  0.22186153  1
  Te2-  Te148  1  0.09376921  0.17335520  0.22158924  1
  Te2-  Te149  1  0.08407906  0.66775642  0.21254007  1
  Te2-  Te150  1  0.58723621  0.16962693  0.21566682  1
  Te2-  Te151  1  0.58868155  0.66803396  0.21170566  1
  Te2-  Te152  1  0.09407823  0.41502054  0.21496187  1
  Te2-  Te153  1  0.08507606  0.90993442  0.22202116  1
  Te2-  Te154  1  0.59121773  0.40811324  0.21817293  1
  Te2-  Te155  1  0.58601412  0.91250579  0.21785650  1
  Te2-  Te156  1  0.15756796  0.07915002  0.55153800  1
  Te2-  Te157  1  0.16031023  0.57915213  0.54597587  1
  Te2-  Te158  1  0.65753838  0.08139196  0.55408304  1
  Te2-  Te159  1  0.65845956  0.58357435  0.54965731  1
  Te2-  Te160  1  0.41739545  0.34435806  0.54973331  1
  Te2-  Te161  1  0.41664368  0.84382466  0.54697065  1
  Te2-  Te162  1  0.91694326  0.33494958  0.54966688  1
  Te2-  Te163  1  0.92152247  0.84289766  0.55267306  1
  Te2-  Te164  1  0.42010698  0.08657522  0.54681322  1
  Te2-  Te165  1  0.42076244  0.58563771  0.54464474  1
  Te2-  Te166  1  0.91915594  0.07835482  0.55430112  1
  Te2-  Te167  1  0.91523553  0.58037746  0.54735503  1
  Te2-  Te168  1  -0.00092249  0.00061069  0.88261436  1
  Te2-  Te169  1  -0.00011741  0.50108917  0.88185042  1
  Te2-  Te170  1  0.49874224  0.00076646  0.88264894  1
  Te2-  Te171  1  0.49971144  0.50200709  0.88286825  1
  Te2-  Te172  1  0.33527988  0.16702221  0.21609554  1
  Te2-  Te173  1  0.33443925  0.66578271  0.21309826  1
  Te2-  Te174  1  0.83330006  0.16751439  0.21857501  1
  Te2-  Te175  1  0.83322332  0.66526023  0.21769950  1
  Te2-  Te176  1  0.16868593  0.33464581  0.54794448  1
  Te2-  Te177  1  0.16768067  0.83223707  0.54768359  1
  Te2-  Te178  1  0.66609322  0.33365782  0.55067103  1
  Te2-  Te179  1  0.66519495  0.83156287  0.54806681  1
  Te2-  Te180  1  0.32891095  0.41683869  0.71131162  1
  Te2-  Te181  1  0.32865168  0.91734234  0.71109738  1
  Te2-  Te182  1  0.82646197  0.41394330  0.71151548  1
  Te2-  Te183  1  0.82296478  0.91010357  0.70842029  1
  Te2-  Te184  1  0.08728734  0.17419988  0.71182234  1
  Te2-  Te185  1  0.08537866  0.67126640  0.70987689  1
  Te2-  Te186  1  0.58482260  0.17536424  0.71174441  1
  Te2-  Te187  1  0.58415675  0.67118859  0.70970799  1
  Te2-  Te188  1  0.08540724  0.41418411  0.71043647  1
  Te2-  Te189  1  0.08907600  0.91508864  0.71146254  1
  Te2-  Te190  1  0.58586960  0.41411021  0.71348630  1
  Te2-  Te191  1  0.58226568  0.91129359  0.70862291  1
  Te2-  Te192  1  0.15734272  0.08064544  0.04620653  1
  Te2-  Te193  1  0.16209459  0.58275679  0.04170042  1
  Te2-  Te194  1  0.66290546  0.08080642  0.04650695  1
  Te2-  Te195  1  0.65918622  0.58259351  0.04287445  1
  Te2-  Te196  1  0.41682823  0.33849350  0.04186811  1
  Te2-  Te197  1  0.42064164  0.84029805  0.04261434  1
  Te2-  Te198  1  0.91978696  0.34111021  0.04401994  1
  Te2-  Te199  1  0.91806035  0.83931922  0.04887976  1
  Te2-  Te200  1  0.41724315  0.07705833  0.04139755  1
  Te2-  Te201  1  0.42006422  0.58296885  0.04104678  1
  Te2-  Te202  1  0.92015343  0.07989331  0.04816803  1
  Te2-  Te203  1  0.91844243  0.58089431  0.04380917  1
  Te2-  Te204  1  0.49465294  0.24590406  0.37648482  1
  Te2-  Te205  1  0.49475721  0.74451245  0.37312250  1
  Te2-  Te206  1  0.99365146  0.24631288  0.37711079  1
  Te2-  Te207  1  0.99354442  0.74266868  0.37553443  1
  Te2-  Te208  1  0.25628890  0.00615632  0.37554128  1
  Te2-  Te209  1  0.25406631  0.50244736  0.37461823  1
  Te2-  Te210  1  0.75331866  0.00971466  0.37679954  1
  Te2-  Te211  1  0.75671980  0.50511625  0.37647843  1
  Te2-  Te212  1  0.25886492  0.24773504  0.37564228  1
  Te2-  Te213  1  0.25149855  0.74458237  0.37513753  1
  Te2-  Te214  1  0.75137279  0.24603886  0.37978038  1
  Te2-  Te215  1  0.75352338  0.74588872  0.37526933  1
