# generated using pymatgen
data_Ti(CuTe)4
_symmetry_space_group_name_H-M   'P 1'
_cell_length_a   16.85594624
_cell_length_b   16.85902553
_cell_length_c   20.66558115
_cell_angle_alpha   90.01242234
_cell_angle_beta   90.01283844
_cell_angle_gamma   119.99965466
_symmetry_Int_Tables_number   1
_chemical_formula_structural   Ti(CuTe)4
_chemical_formula_sum   'Ti24 Cu96 Te96'
_cell_volume   5085.87086945
_cell_formula_units_Z   24
loop_
 _symmetry_equiv_pos_site_id
 _symmetry_equiv_pos_as_xyz
  1  'x, y, z'
loop_
 _atom_type_symbol
 _atom_type_oxidation_number
  Ti4+  4.0
  Cu+  1.0
  Te2-  -2.0
loop_
 _atom_site_type_symbol
 _atom_site_label
 _atom_site_symmetry_multiplicity
 _atom_site_fract_x
 _atom_site_fract_y
 _atom_site_fract_z
 _atom_site_occupancy
  Ti4+  Ti0  1  0.00478205  0.00033723  0.25474596  1
  Ti4+  Ti1  1  -0.00037326  0.49979945  0.25919806  1
  Ti4+  Ti2  1  0.50225456  -0.00179472  0.25950610  1
  Ti4+  Ti3  1  0.50121191  0.49941806  0.25517872  1
  Ti4+  Ti4  1  0.33582662  0.17053820  0.59127423  1
  Ti4+  Ti5  1  0.32908845  0.66563871  0.59213358  1
  Ti4+  Ti6  1  0.83155827  0.16440674  0.58782298  1
  Ti4+  Ti7  1  0.83234627  0.66909847  0.58953294  1
  Ti4+  Ti8  1  0.16533241  0.33219687  0.92556678  1
  Ti4+  Ti9  1  0.16670907  0.83204880  0.92774660  1
  Ti4+  Ti10  1  0.66826137  0.33421830  0.92641366  1
  Ti4+  Ti11  1  0.66250792  0.83294964  0.92471917  1
  Ti4+  Ti12  1  0.00122175  0.00169157  0.75707095  1
  Ti4+  Ti13  1  -0.00187726  0.50017575  0.75692172  1
  Ti4+  Ti14  1  0.49873181  -0.00221338  0.75716528  1
  Ti4+  Ti15  1  0.50014174  0.50139393  0.75581508  1
  Ti4+  Ti16  1  0.33165059  0.16714001  0.08792049  1
  Ti4+  Ti17  1  0.33616468  0.66907414  0.09114276  1
  Ti4+  Ti18  1  0.83297231  0.16620106  0.09011682  1
  Ti4+  Ti19  1  0.83315671  0.66479003  0.08852825  1
  Ti4+  Ti20  1  0.16668330  0.33432491  0.42086797  1
  Ti4+  Ti21  1  0.16783314  0.83203701  0.42185991  1
  Ti4+  Ti22  1  0.66508220  0.33336368  0.41989047  1
  Ti4+  Ti23  1  0.67001645  0.83499767  0.42170630  1
  Cu+  Cu24  1  0.24867183  0.98480435  0.14200344  1
  Cu+  Cu25  1  0.73893593  0.47412651  0.14134365  1
  Cu+  Cu26  1  0.06864776  0.42187028  0.47595444  1
  Cu+  Cu27  1  0.56946667  0.15208049  0.47627009  1
  Cu+  Cu28  1  0.57162390  0.91972179  0.47845378  1
  Cu+  Cu29  1  0.56932921  0.42988633  0.47189548  1
  Cu+  Cu30  1  0.86227556  0.93144369  0.46889037  1
  Cu+  Cu31  1  0.01572235  0.75133137  0.14379961  1
  Cu+  Cu32  1  0.23955783  0.26351583  0.13880282  1
  Cu+  Cu33  1  0.07070578  0.64971913  0.47800730  1
  Cu+  Cu34  1  0.40042203  0.80575322  0.80845303  1
  Cu+  Cu35  1  0.52901683  0.76423228  0.14169802  1
  Cu+  Cu36  1  0.16544923  0.08319049  0.16572070  1
  Cu+  Cu37  1  0.16572203  0.58249394  0.17409963  1
  Cu+  Cu38  1  0.66542788  0.08114542  0.17360467  1
  Cu+  Cu39  1  0.66346641  0.57494122  0.16801193  1
  Cu+  Cu40  1  0.41522011  0.33681017  0.16806211  1
  Cu+  Cu41  1  0.42605003  0.83592437  0.17191156  1
  Cu+  Cu42  1  0.92103077  0.33458379  0.17283104  1
  Cu+  Cu43  1  0.92306376  0.83577698  0.16804488  1
  Cu+  Cu44  1  0.41933854  0.08143580  0.17256812  1
  Cu+  Cu45  1  0.42320552  0.58838139  0.16974196  1
  Cu+  Cu46  1  0.91726113  0.07976045  0.16986561  1
  Cu+  Cu47  1  0.91663961  0.57894934  0.17133808  1
  Cu+  Cu48  1  0.49605281  0.25266235  0.50226631  1
  Cu+  Cu49  1  0.49435699  0.74823047  0.50551008  1
  Cu+  Cu50  1  0.99556570  0.24859402  0.50093742  1
  Cu+  Cu51  1  0.99662010  0.74868992  0.50247176  1
  Cu+  Cu52  1  0.25149978  0.00384682  0.50394517  1
  Cu+  Cu53  1  0.24458705  0.50142996  0.50350905  1
  Cu+  Cu54  1  0.75259228  0.00202076  0.50005656  1
  Cu+  Cu55  1  0.74515399  0.50462382  0.50027155  1
  Cu+  Cu56  1  0.25313794  0.24922518  0.50314985  1
  Cu+  Cu57  1  0.24725884  0.74399670  0.50343274  1
  Cu+  Cu58  1  0.74749180  0.24426448  0.49898032  1
  Cu+  Cu59  1  0.75770045  0.75525088  0.50146307  1
  Cu+  Cu60  1  0.32974922  0.41435793  0.83999205  1
  Cu+  Cu61  1  0.33077741  0.91028632  0.84107301  1
  Cu+  Cu62  1  0.82998927  0.41539935  0.84013144  1
  Cu+  Cu63  1  0.83052511  0.91733625  0.83980540  1
  Cu+  Cu64  1  0.08614996  0.17085376  0.83969431  1
  Cu+  Cu65  1  0.08155364  0.66963468  0.84089099  1
  Cu+  Cu66  1  0.58735252  0.17092110  0.84010736  1
  Cu+  Cu67  1  0.58122867  0.67007017  0.83790845  1
  Cu+  Cu68  1  0.08244794  0.41358826  0.83970070  1
  Cu+  Cu69  1  0.08559513  0.91682402  0.84258852  1
  Cu+  Cu70  1  0.58756011  0.41801249  0.84009223  1
  Cu+  Cu71  1  0.57767964  0.90883250  0.83773598  1
  Cu+  Cu72  1  0.17087594  0.08592407  0.67505274  1
  Cu+  Cu73  1  0.16317343  0.58389524  0.67980290  1
  Cu+  Cu74  1  0.66636474  0.08180726  0.67500834  1
  Cu+  Cu75  1  0.66766899  0.58694100  0.67381885  1
  Cu+  Cu76  1  0.41893890  0.33391191  0.67585296  1
  Cu+  Cu77  1  0.41256745  0.83026689  0.68033479  1
  Cu+  Cu78  1  0.91378486  0.33151107  0.67397509  1
  Cu+  Cu79  1  0.91826487  0.83439552  0.67578756  1
  Cu+  Cu80  1  0.41803759  0.08721617  0.67665348  1
  Cu+  Cu81  1  0.41376847  0.58396580  0.67525435  1
  Cu+  Cu82  1  0.91759479  0.08484392  0.67382683  1
  Cu+  Cu83  1  0.91412290  0.58465237  0.67476006  1
  Cu+  Cu84  1  0.00078678  0.24948491  0.00778407  1
  Cu+  Cu85  1  0.00309851  0.75265396  0.01460421  1
  Cu+  Cu86  1  0.50256225  0.25219204  0.00733141  1
  Cu+  Cu87  1  0.50311494  0.75348070  0.01371736  1
  Cu+  Cu88  1  0.24717111  0.49779169  0.00813338  1
  Cu+  Cu89  1  0.24869347  0.99607844  0.01326296  1
  Cu+  Cu90  1  0.74754772  0.49441128  0.01286810  1
  Cu+  Cu91  1  0.74530499  0.99828653  0.00645050  1
  Cu+  Cu92  1  0.24737911  0.25384026  0.01131190  1
  Cu+  Cu93  1  0.25045441  0.75031419  0.01140288  1
  Cu+  Cu94  1  0.74969695  0.25205453  0.00967279  1
  Cu+  Cu95  1  0.74593760  0.74997787  0.00654025  1
  Cu+  Cu96  1  0.33515725  0.41749271  0.33946324  1
  Cu+  Cu97  1  0.33559674  0.91518583  0.34215335  1
  Cu+  Cu98  1  0.83369054  0.41820641  0.34121389  1
  Cu+  Cu99  1  0.84309136  0.91832566  0.34193224  1
  Cu+  Cu100  1  0.08694795  0.16721873  0.33819955  1
  Cu+  Cu101  1  0.08336227  0.66471598  0.34823805  1
  Cu+  Cu102  1  0.58236223  0.16213268  0.34658107  1
  Cu+  Cu103  1  0.58498911  0.66588115  0.33988099  1
  Cu+  Cu104  1  0.08242382  0.41955066  0.34665521  1
  Cu+  Cu105  1  0.08839200  0.91857847  0.34027841  1
  Cu+  Cu106  1  0.58144687  0.41773350  0.34319578  1
  Cu+  Cu107  1  0.58442927  0.91672203  0.34853494  1
  Cu+  Cu108  1  -0.00268938  0.00020365  0.11039488  1
  Cu+  Cu109  1  0.00153398  0.49746877  0.11624614  1
  Cu+  Cu110  1  0.50160579  0.00242498  0.11642097  1
  Cu+  Cu111  1  0.49896799  0.50165835  0.11139606  1
  Cu+  Cu112  1  0.32970912  0.16438967  0.44545848  1
  Cu+  Cu113  1  0.33621616  0.66421920  0.44717477  1
  Cu+  Cu114  1  0.83504287  0.16664407  0.44097894  1
  Cu+  Cu115  1  0.83476393  0.66719619  0.44334866  1
  Cu+  Cu116  1  0.16648963  0.33498561  0.78266704  1
  Cu+  Cu117  1  0.16540189  0.83503988  0.78580163  1
  Cu+  Cu118  1  0.66640964  0.33400429  0.78373300  1
  Cu+  Cu119  1  0.67098854  0.83447558  0.78156044  1
  Te2-  Te120  1  0.00947528  0.00400498  0.38513699  1
  Te2-  Te121  1  -0.00434212  0.49848564  0.39159426  1
  Te2-  Te122  1  0.49810212  -0.00329562  0.39205850  1
  Te2-  Te123  1  0.49883498  0.50216978  0.38550343  1
  Te2-  Te124  1  0.33525339  0.16924035  0.72043155  1
  Te2-  Te125  1  0.32866566  0.66258546  0.72233465  1
  Te2-  Te126  1  0.83258309  0.16567451  0.71627081  1
  Te2-  Te127  1  0.83272454  0.66866507  0.71826149  1
  Te2-  Te128  1  0.16324749  0.33537884  0.05637915  1
  Te2-  Te129  1  0.16855166  0.83105874  0.06035963  1
  Te2-  Te130  1  0.66381526  0.32860218  0.05754841  1
  Te2-  Te131  1  0.67034459  0.83617845  0.05548621  1
  Te2-  Te132  1  0.49699084  0.24889133  0.88189936  1
  Te2-  Te133  1  0.48751127  0.74168386  0.88626496  1
  Te2-  Te134  1  0.99347173  0.24596046  0.88239860  1
  Te2-  Te135  1  0.99485359  0.74894119  0.88763780  1
  Te2-  Te136  1  0.25498390  0.00267354  0.88609459  1
  Te2-  Te137  1  0.25056406  0.50375271  0.88251217  1
  Te2-  Te138  1  0.74664443  0.00325549  0.88062736  1
  Te2-  Te139  1  0.75454272  0.50668577  0.88597681  1
  Te2-  Te140  1  0.25306848  0.24727973  0.88476052  1
  Te2-  Te141  1  0.24865061  0.74092919  0.88580725  1
  Te2-  Te142  1  0.75418049  0.24795578  0.88409040  1
  Te2-  Te143  1  0.74914448  0.74832187  0.88110233  1
  Te2-  Te144  1  0.32822133  0.41914538  0.21377216  1
  Te2-  Te145  1  0.33045681  0.90917783  0.21636945  1
  Te2-  Te146  1  0.82731870  0.40989725  0.21593993  1
  Te2-  Te147  1  0.83353923  0.91235869  0.21543446  1
  Te2-  Te148  1  0.08667547  0.17341273  0.21272274  1
  Te2-  Te149  1  0.08828967  0.67272636  0.22007887  1
  Te2-  Te150  1  0.58499996  0.16874741  0.21922449  1
  Te2-  Te151  1  0.59342753  0.67266727  0.21417409  1
  Te2-  Te152  1  0.08691166  0.41605630  0.21981712  1
  Te2-  Te153  1  0.09295431  0.91292498  0.21423521  1
  Te2-  Te154  1  0.58220107  0.40665811  0.21594960  1
  Te2-  Te155  1  0.59304092  0.91472255  0.22091204  1
  Te2-  Te156  1  0.16391381  0.08293149  0.54912222  1
  Te2-  Te157  1  0.15196329  0.57661052  0.55285449  1
  Te2-  Te158  1  0.65546600  0.07654847  0.54822512  1
  Te2-  Te159  1  0.65910529  0.58692141  0.54723521  1
  Te2-  Te160  1  0.41990751  0.34438175  0.54944045  1
  Te2-  Te161  1  0.41380460  0.83897954  0.55222107  1
  Te2-  Te162  1  0.91339396  0.33754067  0.54770302  1
  Te2-  Te163  1  0.92512355  0.84335553  0.54900546  1
  Te2-  Te164  1  0.41887345  0.08074023  0.55022416  1
  Te2-  Te165  1  0.41298746  0.58021410  0.54871614  1
  Te2-  Te166  1  0.92203798  0.08165033  0.54700561  1
  Te2-  Te167  1  0.91286943  0.57697548  0.54803709  1
  Te2-  Te168  1  -0.00063405  0.00127580  0.88397790  1
  Te2-  Te169  1  -0.00073503  0.49941340  0.88379438  1
  Te2-  Te170  1  0.50126485  0.00146054  0.88411127  1
  Te2-  Te171  1  0.49998069  0.50066423  0.88256113  1
  Te2-  Te172  1  0.33365127  0.16700359  0.21581574  1
  Te2-  Te173  1  0.33510293  0.66723099  0.21858687  1
  Te2-  Te174  1  0.83546271  0.16549505  0.21697093  1
  Te2-  Te175  1  0.83324350  0.66645703  0.21620091  1
  Te2-  Te176  1  0.16518482  0.33136516  0.54810378  1
  Te2-  Te177  1  0.16640920  0.83439682  0.54908995  1
  Te2-  Te178  1  0.66765456  0.33442081  0.54741976  1
  Te2-  Te179  1  0.66532032  0.83311168  0.54937469  1
  Te2-  Te180  1  0.32795854  0.41392380  0.71230813  1
  Te2-  Te181  1  0.32594051  0.91637572  0.71302214  1
  Te2-  Te182  1  0.82680159  0.41434744  0.71230964  1
  Te2-  Te183  1  0.82975415  0.91577359  0.71197006  1
  Te2-  Te184  1  0.08743688  0.17293298  0.71213498  1
  Te2-  Te185  1  0.08294896  0.67366056  0.71407108  1
  Te2-  Te186  1  0.58700502  0.17103775  0.71333920  1
  Te2-  Te187  1  0.58408664  0.67342643  0.71088997  1
  Te2-  Te188  1  0.08294414  0.41264195  0.71241743  1
  Te2-  Te189  1  0.08785208  0.91636001  0.71432497  1
  Te2-  Te190  1  0.58870032  0.41750739  0.71255231  1
  Te2-  Te191  1  0.58580011  0.91224753  0.71057364  1
  Te2-  Te192  1  0.15836991  0.07979523  0.03934136  1
  Te2-  Te193  1  0.16253185  0.58115229  0.04767963  1
  Te2-  Te194  1  0.66054996  0.08152407  0.04654857  1
  Te2-  Te195  1  0.66030027  0.58079189  0.04180491  1
  Te2-  Te196  1  0.42050861  0.34000755  0.04165710  1
  Te2-  Te197  1  0.42022980  0.84256314  0.04533118  1
  Te2-  Te198  1  0.92002733  0.33838180  0.04595917  1
  Te2-  Te199  1  0.91578667  0.83823987  0.04186913  1
  Te2-  Te200  1  0.42159244  0.08274287  0.04467236  1
  Te2-  Te201  1  0.41766426  0.57959119  0.04272267  1
  Te2-  Te202  1  0.91618103  0.07903360  0.04277970  1
  Te2-  Te203  1  0.92148641  0.57880353  0.04365249  1
  Te2-  Te204  1  0.49083383  0.24461016  0.37434916  1
  Te2-  Te205  1  0.49537584  0.74450987  0.37746026  1
  Te2-  Te206  1  0.99489275  0.24534316  0.37332804  1
  Te2-  Te207  1  0.99467514  0.74945817  0.37507312  1
  Te2-  Te208  1  0.25641169  0.00517237  0.37727301  1
  Te2-  Te209  1  0.25527650  0.50743442  0.37599045  1
  Te2-  Te210  1  0.75883774  0.00739204  0.37274111  1
  Te2-  Te211  1  0.75355419  0.50729155  0.37369850  1
  Te2-  Te212  1  0.25473422  0.24917289  0.37656115  1
  Te2-  Te213  1  0.25619565  0.74579614  0.37700231  1
  Te2-  Te214  1  0.75501854  0.24838534  0.37344588  1
  Te2-  Te215  1  0.75445130  0.74687160  0.37488026  1
