# generated using pymatgen
data_Ti(CuTe)4
_symmetry_space_group_name_H-M   'P 1'
_cell_length_a   16.89053672
_cell_length_b   16.88655374
_cell_length_c   20.70928245
_cell_angle_alpha   89.95044600
_cell_angle_beta   90.00252347
_cell_angle_gamma   120.00936533
_symmetry_Int_Tables_number   1
_chemical_formula_structural   Ti(CuTe)4
_chemical_formula_sum   'Ti24 Cu96 Te96'
_cell_volume   5114.92135934
_cell_formula_units_Z   24
loop_
 _symmetry_equiv_pos_site_id
 _symmetry_equiv_pos_as_xyz
  1  'x, y, z'
loop_
 _atom_type_symbol
 _atom_type_oxidation_number
  Ti4+  4.0
  Cu+  1.0
  Te2-  -2.0
loop_
 _atom_site_type_symbol
 _atom_site_label
 _atom_site_symmetry_multiplicity
 _atom_site_fract_x
 _atom_site_fract_y
 _atom_site_fract_z
 _atom_site_occupancy
  Ti4+  Ti0  1  0.00107989  0.00443356  0.25992779  1
  Ti4+  Ti1  1  0.00208324  0.50253369  0.25629547  1
  Ti4+  Ti2  1  0.50065665  0.00250566  0.25695949  1
  Ti4+  Ti3  1  0.50399298  0.50279793  0.25412793  1
  Ti4+  Ti4  1  0.33132086  0.16700696  0.58758111  1
  Ti4+  Ti5  1  0.33412714  0.66907176  0.59059526  1
  Ti4+  Ti6  1  0.83293842  0.16646464  0.59554142  1
  Ti4+  Ti7  1  0.82983666  0.66628358  0.58912650  1
  Ti4+  Ti8  1  0.16629089  0.32996768  0.92709271  1
  Ti4+  Ti9  1  0.16527507  0.83139717  0.92406723  1
  Ti4+  Ti10  1  0.66681392  0.32874825  0.92289024  1
  Ti4+  Ti11  1  0.66553088  0.83051538  0.92794514  1
  Ti4+  Ti12  1  -0.00044423  -0.00113547  0.75783925  1
  Ti4+  Ti13  1  -0.00108866  0.49895013  0.75418544  1
  Ti4+  Ti14  1  0.49858816  -0.00013755  0.75563119  1
  Ti4+  Ti15  1  0.49874771  0.49847907  0.75716489  1
  Ti4+  Ti16  1  0.33529635  0.16617305  0.08893769  1
  Ti4+  Ti17  1  0.33137239  0.66560167  0.08668599  1
  Ti4+  Ti18  1  0.83461833  0.16514667  0.08984957  1
  Ti4+  Ti19  1  0.83192886  0.66463545  0.08765392  1
  Ti4+  Ti20  1  0.16723133  0.33421573  0.42193521  1
  Ti4+  Ti21  1  0.16874848  0.83539886  0.41941797  1
  Ti4+  Ti22  1  0.66645777  0.33540737  0.42235309  1
  Ti4+  Ti23  1  0.66681350  0.83379737  0.42285692  1
  Cu+  Cu24  1  0.91246984  0.31534043  0.81093793  1
  Cu+  Cu25  1  0.24763613  0.26085311  0.14474021  1
  Cu+  Cu26  1  0.35652635  0.92762901  0.47305578  1
  Cu+  Cu27  1  0.01954621  0.26424519  0.14319760  1
  Cu+  Cu28  1  0.56958356  0.43061400  0.47138132  1
  Cu+  Cu29  1  0.52627575  0.26254917  0.13829565  1
  Cu+  Cu30  1  0.07222535  0.92114917  0.47594237  1
  Cu+  Cu31  1  0.23922418  0.76263868  0.13921970  1
  Cu+  Cu32  1  0.74778862  0.76401045  0.14384232  1
  Cu+  Cu33  1  0.51407912  0.76270884  0.14194513  1
  Cu+  Cu34  1  0.68024328  0.08356729  0.81305502  1
  Cu+  Cu35  1  0.07072907  0.15240600  0.48069844  1
  Cu+  Cu36  1  0.16461613  0.08709602  0.17244536  1
  Cu+  Cu37  1  0.16209860  0.58630463  0.16770615  1
  Cu+  Cu38  1  0.66400857  0.08208720  0.17072919  1
  Cu+  Cu39  1  0.66423174  0.58473144  0.16681954  1
  Cu+  Cu40  1  0.42379404  0.33756199  0.16871569  1
  Cu+  Cu41  1  0.41491712  0.83703405  0.16983050  1
  Cu+  Cu42  1  0.92141709  0.33712977  0.17135954  1
  Cu+  Cu43  1  0.91746137  0.83708899  0.17337476  1
  Cu+  Cu44  1  0.42444704  0.08692127  0.17008796  1
  Cu+  Cu45  1  0.42316496  0.58632320  0.16569335  1
  Cu+  Cu46  1  0.92450335  0.08819856  0.17119944  1
  Cu+  Cu47  1  0.91801035  0.58068749  0.16917463  1
  Cu+  Cu48  1  0.49646169  0.25439153  0.50145969  1
  Cu+  Cu49  1  0.49660592  0.74839650  0.50432709  1
  Cu+  Cu50  1  0.99512471  0.24782428  0.50751362  1
  Cu+  Cu51  1  0.99480833  0.74961327  0.50243791  1
  Cu+  Cu52  1  0.25150075  0.00251770  0.49941041  1
  Cu+  Cu53  1  0.25197417  0.50414048  0.50498834  1
  Cu+  Cu54  1  0.74913858  0.00217626  0.50780230  1
  Cu+  Cu55  1  0.74427258  0.50276620  0.50329486  1
  Cu+  Cu56  1  0.24763960  0.24493848  0.50043792  1
  Cu+  Cu57  1  0.25785139  0.75338145  0.50215014  1
  Cu+  Cu58  1  0.75099762  0.24958662  0.50887428  1
  Cu+  Cu59  1  0.75051275  0.74772959  0.50244790  1
  Cu+  Cu60  1  0.33040654  0.41088132  0.84081536  1
  Cu+  Cu61  1  0.32735662  0.91199901  0.83830006  1
  Cu+  Cu62  1  0.82998314  0.40872608  0.83467299  1
  Cu+  Cu63  1  0.83062963  0.91107855  0.84082218  1
  Cu+  Cu64  1  0.08568929  0.16742532  0.84093859  1
  Cu+  Cu65  1  0.08522712  0.66959237  0.83727118  1
  Cu+  Cu66  1  0.58681830  0.16772827  0.83639066  1
  Cu+  Cu67  1  0.58374831  0.66613474  0.84222092  1
  Cu+  Cu68  1  0.08220211  0.41049718  0.83851837  1
  Cu+  Cu69  1  0.08440414  0.91343531  0.83896960  1
  Cu+  Cu70  1  0.58201211  0.41036303  0.83825427  1
  Cu+  Cu71  1  0.58475430  0.91297870  0.84072654  1
  Cu+  Cu72  1  0.16565265  0.08270997  0.67497576  1
  Cu+  Cu73  1  0.16967269  0.58649228  0.67268136  1
  Cu+  Cu74  1  0.66822331  0.08525472  0.68271570  1
  Cu+  Cu75  1  0.66609071  0.58368239  0.67482837  1
  Cu+  Cu76  1  0.41381710  0.33203832  0.67305258  1
  Cu+  Cu77  1  0.41456579  0.83234426  0.67481085  1
  Cu+  Cu78  1  0.91516761  0.32986141  0.68090990  1
  Cu+  Cu79  1  0.91490445  0.83088146  0.67520821  1
  Cu+  Cu80  1  0.41212624  0.08293584  0.67247847  1
  Cu+  Cu81  1  0.41403310  0.58549054  0.67654581  1
  Cu+  Cu82  1  0.91556158  0.08333198  0.67989464  1
  Cu+  Cu83  1  0.91383771  0.58579933  0.67167414  1
  Cu+  Cu84  1  0.00282411  0.24815587  0.01467723  1
  Cu+  Cu85  1  0.00061599  0.74863362  0.00706422  1
  Cu+  Cu86  1  0.50484806  0.24736080  0.01020467  1
  Cu+  Cu87  1  0.50151176  0.74966153  0.01264507  1
  Cu+  Cu88  1  0.24526309  0.49452387  0.00740459  1
  Cu+  Cu89  1  0.24839539  0.99473129  0.00766067  1
  Cu+  Cu90  1  0.74889035  0.49409638  0.00500978  1
  Cu+  Cu91  1  0.74886120  0.99561058  0.01191650  1
  Cu+  Cu92  1  0.24840757  0.24837111  0.01462668  1
  Cu+  Cu93  1  0.24545978  0.74963913  0.01064922  1
  Cu+  Cu94  1  0.74897850  0.24605248  0.00872671  1
  Cu+  Cu95  1  0.74667756  0.74843821  0.01485083  1
  Cu+  Cu96  1  0.33711989  0.42005715  0.33933787  1
  Cu+  Cu97  1  0.33777644  0.91837756  0.34352373  1
  Cu+  Cu98  1  0.83877511  0.41852169  0.34081501  1
  Cu+  Cu99  1  0.83451514  0.92044634  0.34405118  1
  Cu+  Cu100  1  0.08255355  0.16766539  0.34986094  1
  Cu+  Cu101  1  0.08438421  0.66592785  0.33981487  1
  Cu+  Cu102  1  0.58531482  0.16765109  0.34267462  1
  Cu+  Cu103  1  0.58615038  0.66959678  0.34121448  1
  Cu+  Cu104  1  0.08313747  0.41963976  0.34109728  1
  Cu+  Cu105  1  0.08189667  0.92067759  0.34567299  1
  Cu+  Cu106  1  0.58419585  0.41994166  0.34220665  1
  Cu+  Cu107  1  0.58171654  0.91703772  0.34298772  1
  Cu+  Cu108  1  0.00233059  -0.00264570  0.11648812  1
  Cu+  Cu109  1  -0.00422847  0.49765309  0.11176235  1
  Cu+  Cu110  1  0.50181613  0.00039497  0.11269508  1
  Cu+  Cu111  1  0.49900124  0.49910480  0.10877203  1
  Cu+  Cu112  1  0.33500605  0.16787117  0.44275701  1
  Cu+  Cu113  1  0.33319504  0.66365480  0.44702142  1
  Cu+  Cu114  1  0.82919208  0.16665083  0.45316855  1
  Cu+  Cu115  1  0.83428190  0.66560329  0.44507900  1
  Cu+  Cu116  1  0.16876430  0.33384861  0.78387818  1
  Cu+  Cu117  1  0.16481774  0.83180181  0.78038094  1
  Cu+  Cu118  1  0.66587714  0.33546210  0.77869124  1
  Cu+  Cu119  1  0.66590635  0.82910199  0.78564417  1
  Te2-  Te120  1  -0.00237930  0.00121115  0.39153818  1
  Te2-  Te121  1  0.00236175  0.50266713  0.38528615  1
  Te2-  Te122  1  0.50350620  0.00315367  0.38714502  1
  Te2-  Te123  1  0.50118038  0.50413126  0.38403397  1
  Te2-  Te124  1  0.33142271  0.16682323  0.71578622  1
  Te2-  Te125  1  0.33232559  0.66842784  0.71967457  1
  Te2-  Te126  1  0.83399613  0.16481086  0.72747751  1
  Te2-  Te127  1  0.83087996  0.66578874  0.71773683  1
  Te2-  Te128  1  0.16871129  0.33417108  0.05946654  1
  Te2-  Te129  1  0.16308348  0.83270181  0.05554348  1
  Te2-  Te130  1  0.67113683  0.33217904  0.05373029  1
  Te2-  Te131  1  0.66615550  0.83338410  0.06010387  1
  Te2-  Te132  1  0.49563128  0.24272179  0.88339078  1
  Te2-  Te133  1  0.49512384  0.74627067  0.88569943  1
  Te2-  Te134  1  0.99264225  0.24118286  0.88725751  1
  Te2-  Te135  1  0.99359522  0.74521857  0.88179643  1
  Te2-  Te136  1  0.25209090  0.00369630  0.88252386  1
  Te2-  Te137  1  0.24938836  0.49967503  0.88182998  1
  Te2-  Te138  1  0.75583093  0.00384845  0.88600539  1
  Te2-  Te139  1  0.75189053  0.49834941  0.87915290  1
  Te2-  Te140  1  0.25189307  0.24410360  0.88738410  1
  Te2-  Te141  1  0.25151482  0.74523514  0.88404785  1
  Te2-  Te142  1  0.75560721  0.24069967  0.88333956  1
  Te2-  Te143  1  0.75102338  0.74491578  0.88774798  1
  Te2-  Te144  1  0.33200175  0.41928667  0.21323751  1
  Te2-  Te145  1  0.32792751  0.91861967  0.21623093  1
  Te2-  Te146  1  0.83069370  0.41391841  0.21487976  1
  Te2-  Te147  1  0.82942986  0.92092367  0.21793619  1
  Te2-  Te148  1  0.09068243  0.18121031  0.22133951  1
  Te2-  Te149  1  0.08527223  0.67707803  0.21445249  1
  Te2-  Te150  1  0.59244036  0.17678272  0.21670064  1
  Te2-  Te151  1  0.59028537  0.67914194  0.21520052  1
  Te2-  Te152  1  0.09284928  0.41956787  0.21550005  1
  Te2-  Te153  1  0.08548182  0.91905268  0.21784320  1
  Te2-  Te154  1  0.59243895  0.41829126  0.21500557  1
  Te2-  Te155  1  0.58660581  0.91547241  0.21693618  1
  Te2-  Te156  1  0.15505010  0.07645952  0.54872841  1
  Te2-  Te157  1  0.16349798  0.58494091  0.54674839  1
  Te2-  Te158  1  0.66218259  0.08193517  0.55481944  1
  Te2-  Te159  1  0.65498128  0.58193148  0.54889770  1
  Te2-  Te160  1  0.41415317  0.34070246  0.54703010  1
  Te2-  Te161  1  0.42566567  0.84463235  0.54937335  1
  Te2-  Te162  1  0.91867596  0.33726617  0.55382917  1
  Te2-  Te163  1  0.91661227  0.84113972  0.54937084  1
  Te2-  Te164  1  0.42093179  0.08430876  0.54607560  1
  Te2-  Te165  1  0.41891009  0.58172700  0.55036106  1
  Te2-  Te166  1  0.91659918  0.07685278  0.55357778  1
  Te2-  Te167  1  0.91483050  0.58125161  0.54540308  1
  Te2-  Te168  1  0.00008008  -0.00279987  0.88397855  1
  Te2-  Te169  1  -0.00059317  0.49896465  0.88110981  1
  Te2-  Te170  1  0.49760935  -0.00233765  0.88250834  1
  Te2-  Te171  1  0.49953061  0.49578684  0.88334293  1
  Te2-  Te172  1  0.33531122  0.16804961  0.21654217  1
  Te2-  Te173  1  0.33291533  0.66551450  0.21417137  1
  Te2-  Te174  1  0.83344549  0.16726572  0.21665448  1
  Te2-  Te175  1  0.83317965  0.66545502  0.21466459  1
  Te2-  Te176  1  0.16754331  0.33412331  0.54881070  1
  Te2-  Te177  1  0.16575713  0.83252893  0.54678528  1
  Te2-  Te178  1  0.66440473  0.33362908  0.54907748  1
  Te2-  Te179  1  0.66551270  0.83167121  0.54896846  1
  Te2-  Te180  1  0.32765948  0.41455158  0.71332539  1
  Te2-  Te181  1  0.32665859  0.91395000  0.71151103  1
  Te2-  Te182  1  0.82660478  0.41520554  0.70807725  1
  Te2-  Te183  1  0.82700089  0.91225966  0.71456025  1
  Te2-  Te184  1  0.08598529  0.17188522  0.71452655  1
  Te2-  Te185  1  0.08383678  0.67072037  0.71029661  1
  Te2-  Te186  1  0.58208899  0.17272286  0.70993755  1
  Te2-  Te187  1  0.58398737  0.67056018  0.71487309  1
  Te2-  Te188  1  0.08861588  0.41561818  0.71060100  1
  Te2-  Te189  1  0.08452625  0.91305595  0.71206699  1
  Te2-  Te190  1  0.58339673  0.41320935  0.71077999  1
  Te2-  Te191  1  0.58441108  0.91180441  0.71320954  1
  Te2-  Te192  1  0.16109929  0.07652681  0.04566160  1
  Te2-  Te193  1  0.15784327  0.57682887  0.04171727  1
  Te2-  Te194  1  0.66132430  0.07776324  0.04512468  1
  Te2-  Te195  1  0.65965339  0.57470653  0.04084531  1
  Te2-  Te196  1  0.42233125  0.33811292  0.04097358  1
  Te2-  Te197  1  0.41839136  0.83940494  0.04201063  1
  Te2-  Te198  1  0.91898846  0.33745824  0.04367404  1
  Te2-  Te199  1  0.92021724  0.83811051  0.04509468  1
  Te2-  Te200  1  0.41796347  0.07608709  0.04369081  1
  Te2-  Te201  1  0.41591211  0.57640479  0.04003148  1
  Te2-  Te202  1  0.91929220  0.07571802  0.04546372  1
  Te2-  Te203  1  0.91792761  0.57891300  0.04282850  1
  Te2-  Te204  1  0.49499717  0.24811526  0.37455370  1
  Te2-  Te205  1  0.49466973  0.74737996  0.37802991  1
  Te2-  Te206  1  0.99294683  0.25056088  0.38006640  1
  Te2-  Te207  1  0.99535313  0.74758026  0.37496111  1
  Te2-  Te208  1  0.25509262  0.00899059  0.37251437  1
  Te2-  Te209  1  0.25341120  0.50572079  0.37754647  1
  Te2-  Te210  1  0.75160367  0.00719357  0.38106113  1
  Te2-  Te211  1  0.75582456  0.50654595  0.37583500  1
  Te2-  Te212  1  0.25633808  0.25059052  0.37437596  1
  Te2-  Te213  1  0.25386098  0.74665765  0.37542848  1
  Te2-  Te214  1  0.75418736  0.24997688  0.38141737  1
  Te2-  Te215  1  0.75524028  0.74975419  0.37692363  1
