# generated using pymatgen
data_Ti(CuTe)4
_symmetry_space_group_name_H-M   'P 1'
_cell_length_a   16.87619134
_cell_length_b   16.87749757
_cell_length_c   20.68662968
_cell_angle_alpha   90.03757915
_cell_angle_beta   89.99978284
_cell_angle_gamma   119.99423314
_symmetry_Int_Tables_number   1
_chemical_formula_structural   Ti(CuTe)4
_chemical_formula_sum   'Ti24 Cu96 Te96'
_cell_volume   5103.02830135
_cell_formula_units_Z   24
loop_
 _symmetry_equiv_pos_site_id
 _symmetry_equiv_pos_as_xyz
  1  'x, y, z'
loop_
 _atom_type_symbol
 _atom_type_oxidation_number
  Ti4+  4.0
  Cu+  1.0
  Te2-  -2.0
loop_
 _atom_site_type_symbol
 _atom_site_label
 _atom_site_symmetry_multiplicity
 _atom_site_fract_x
 _atom_site_fract_y
 _atom_site_fract_z
 _atom_site_occupancy
  Ti4+  Ti0  1  0.00157893  0.00029260  0.25682406  1
  Ti4+  Ti1  1  0.00068554  0.49829357  0.25515907  1
  Ti4+  Ti2  1  0.49953364  -0.00086047  0.26299263  1
  Ti4+  Ti3  1  0.49907149  0.49634240  0.25843283  1
  Ti4+  Ti4  1  0.33146797  0.16484530  0.59444031  1
  Ti4+  Ti5  1  0.33762957  0.67018114  0.59410656  1
  Ti4+  Ti6  1  0.83605121  0.16653211  0.58901884  1
  Ti4+  Ti7  1  0.83092890  0.66425316  0.58764432  1
  Ti4+  Ti8  1  0.16673325  0.33534055  0.92369094  1
  Ti4+  Ti9  1  0.16617567  0.83344209  0.92307360  1
  Ti4+  Ti10  1  0.66137983  0.33122266  0.92592464  1
  Ti4+  Ti11  1  0.66709775  0.83548053  0.92355264  1
  Ti4+  Ti12  1  -0.00015777  0.00020194  0.75417101  1
  Ti4+  Ti13  1  0.00095440  0.50092992  0.75434197  1
  Ti4+  Ti14  1  0.50017730  0.00150378  0.75388806  1
  Ti4+  Ti15  1  0.49982774  0.49958655  0.75431560  1
  Ti4+  Ti16  1  0.33344309  0.16825081  0.08997973  1
  Ti4+  Ti17  1  0.33245034  0.66620709  0.09188155  1
  Ti4+  Ti18  1  0.83335978  0.16798524  0.08798356  1
  Ti4+  Ti19  1  0.83292860  0.66703318  0.08663631  1
  Ti4+  Ti20  1  0.16623104  0.33215445  0.42499482  1
  Ti4+  Ti21  1  0.16904877  0.83469857  0.42237389  1
  Ti4+  Ti22  1  0.66762606  0.33471135  0.42302047  1
  Ti4+  Ti23  1  0.66610952  0.83181591  0.41935167  1
  Cu+  Cu24  1  0.40450929  0.31730544  0.81113843  1
  Cu+  Cu25  1  0.41321710  0.58920568  0.81575115  1
  Cu+  Cu26  1  0.41408226  0.82831651  0.81697648  1
  Cu+  Cu27  1  0.35297291  0.93008953  0.47999927  1
  Cu+  Cu28  1  0.51436022  0.25185434  0.14812922  1
  Cu+  Cu29  1  0.18134352  0.59172589  0.81092735  1
  Cu+  Cu30  1  0.07163334  0.13849108  0.47167261  1
  Cu+  Cu31  1  0.74387188  0.48248998  0.14149838  1
  Cu+  Cu32  1  0.56886069  0.64289273  0.47229102  1
  Cu+  Cu33  1  0.40414409  0.08815918  0.81094899  1
  Cu+  Cu34  1  0.23886192  0.47326872  0.14183054  1
  Cu+  Cu35  1  0.58064285  0.92531530  0.48001763  1
  Cu+  Cu36  1  0.16308563  0.08275534  0.17186189  1
  Cu+  Cu37  1  0.16392884  0.57578525  0.17056188  1
  Cu+  Cu38  1  0.66517666  0.07965827  0.17350937  1
  Cu+  Cu39  1  0.66531104  0.57962425  0.17006556  1
  Cu+  Cu40  1  0.42228772  0.33764001  0.16986716  1
  Cu+  Cu41  1  0.41686420  0.83639368  0.17747003  1
  Cu+  Cu42  1  0.92047345  0.33823842  0.16722258  1
  Cu+  Cu43  1  0.92130360  0.83869612  0.16977587  1
  Cu+  Cu44  1  0.41715039  0.07968033  0.17544370  1
  Cu+  Cu45  1  0.41301096  0.57714546  0.17391645  1
  Cu+  Cu46  1  0.92150423  0.08555745  0.17113113  1
  Cu+  Cu47  1  0.91743580  0.58043007  0.16808783  1
  Cu+  Cu48  1  0.49880590  0.25083222  0.50815338  1
  Cu+  Cu49  1  0.49745871  0.74766988  0.50323247  1
  Cu+  Cu50  1  0.99978909  0.24353058  0.50421532  1
  Cu+  Cu51  1  0.99660346  0.74791070  0.50245893  1
  Cu+  Cu52  1  0.25496662  0.00432590  0.50542374  1
  Cu+  Cu53  1  0.25306916  0.50468781  0.50787131  1
  Cu+  Cu54  1  0.75422918  0.00753941  0.50016660  1
  Cu+  Cu55  1  0.75201523  0.50417549  0.50260252  1
  Cu+  Cu56  1  0.24549432  0.24487993  0.50858175  1
  Cu+  Cu57  1  0.25575558  0.75389842  0.50577910  1
  Cu+  Cu58  1  0.75381341  0.25161985  0.50371936  1
  Cu+  Cu59  1  0.74522647  0.74088814  0.49963411  1
  Cu+  Cu60  1  0.32627556  0.41381891  0.83512820  1
  Cu+  Cu61  1  0.32464290  0.91418203  0.83412091  1
  Cu+  Cu62  1  0.82914070  0.41596246  0.83888758  1
  Cu+  Cu63  1  0.83124711  0.91732761  0.83687247  1
  Cu+  Cu64  1  0.08298748  0.16951566  0.83641861  1
  Cu+  Cu65  1  0.08595360  0.66928761  0.83515979  1
  Cu+  Cu66  1  0.57858784  0.17101871  0.83582875  1
  Cu+  Cu67  1  0.58584855  0.67359413  0.83547753  1
  Cu+  Cu68  1  0.08630180  0.41881512  0.83595870  1
  Cu+  Cu69  1  0.08275547  0.91458537  0.83549793  1
  Cu+  Cu70  1  0.57937101  0.40921847  0.83696469  1
  Cu+  Cu71  1  0.58739221  0.91540089  0.83535211  1
  Cu+  Cu72  1  0.16683733  0.08279194  0.67619993  1
  Cu+  Cu73  1  0.17212576  0.58731826  0.68072153  1
  Cu+  Cu74  1  0.67238741  0.08749184  0.67394174  1
  Cu+  Cu75  1  0.66925804  0.58320776  0.67255546  1
  Cu+  Cu76  1  0.41535342  0.32979068  0.68119177  1
  Cu+  Cu77  1  0.41964899  0.83499430  0.68356119  1
  Cu+  Cu78  1  0.91670357  0.33149816  0.67166314  1
  Cu+  Cu79  1  0.91267567  0.82819207  0.66946580  1
  Cu+  Cu80  1  0.41655574  0.08576892  0.68230874  1
  Cu+  Cu81  1  0.41906772  0.58583552  0.68228278  1
  Cu+  Cu82  1  0.91649696  0.08461076  0.67266528  1
  Cu+  Cu83  1  0.91390838  0.58309077  0.67125058  1
  Cu+  Cu84  1  0.00068936  0.25328144  0.00613914  1
  Cu+  Cu85  1  0.00208744  0.75210121  0.00491482  1
  Cu+  Cu86  1  0.49852936  0.24984773  0.01724555  1
  Cu+  Cu87  1  0.50257680  0.75471119  0.01127547  1
  Cu+  Cu88  1  0.25018653  0.49926627  0.01386708  1
  Cu+  Cu89  1  0.24835395  0.99900760  0.00895409  1
  Cu+  Cu90  1  0.74440880  0.49621920  0.01185180  1
  Cu+  Cu91  1  0.74948754  0.99937130  0.00695959  1
  Cu+  Cu92  1  0.24940233  0.25218988  0.00908252  1
  Cu+  Cu93  1  0.25124973  0.75422574  0.01057423  1
  Cu+  Cu94  1  0.74560731  0.24837894  0.00801510  1
  Cu+  Cu95  1  0.74966327  0.75435305  0.00601338  1
  Cu+  Cu96  1  0.33247411  0.41615868  0.34343545  1
  Cu+  Cu97  1  0.33757829  0.91844020  0.35002543  1
  Cu+  Cu98  1  0.83643025  0.41945312  0.33963610  1
  Cu+  Cu99  1  0.83610289  0.91771093  0.33792655  1
  Cu+  Cu100  1  0.08140777  0.16091366  0.34475673  1
  Cu+  Cu101  1  0.08346208  0.66298613  0.33740078  1
  Cu+  Cu102  1  0.58187903  0.16574371  0.34530546  1
  Cu+  Cu103  1  0.58021740  0.66002853  0.34375738  1
  Cu+  Cu104  1  0.08426477  0.41848762  0.34121622  1
  Cu+  Cu105  1  0.08497517  0.91886937  0.33979629  1
  Cu+  Cu106  1  0.58332883  0.41662401  0.34462221  1
  Cu+  Cu107  1  0.58071363  0.91629448  0.34924132  1
  Cu+  Cu108  1  -0.00187734  0.00076873  0.11355353  1
  Cu+  Cu109  1  0.00089172  0.50303475  0.10967289  1
  Cu+  Cu110  1  0.50156752  -0.00096808  0.12026562  1
  Cu+  Cu111  1  0.50250667  0.50625817  0.11496733  1
  Cu+  Cu112  1  0.33564004  0.17192271  0.45244957  1
  Cu+  Cu113  1  0.32893031  0.66400695  0.44963899  1
  Cu+  Cu114  1  0.83784085  0.17480436  0.44584098  1
  Cu+  Cu115  1  0.83826926  0.66927592  0.44335181  1
  Cu+  Cu116  1  0.15892784  0.32976891  0.77888821  1
  Cu+  Cu117  1  0.15759256  0.82965264  0.77750008  1
  Cu+  Cu118  1  0.67208143  0.33598401  0.78121604  1
  Cu+  Cu119  1  0.67307743  0.83608139  0.77839573  1
  Te2-  Te120  1  -0.00209467  -0.00571931  0.38772014  1
  Te2-  Te121  1  0.00086102  0.50004732  0.38400766  1
  Te2-  Te122  1  0.50268919  0.00318186  0.39531733  1
  Te2-  Te123  1  0.49658592  0.49465320  0.38887320  1
  Te2-  Te124  1  0.32913650  0.16442660  0.72625510  1
  Te2-  Te125  1  0.33697999  0.66925659  0.72736272  1
  Te2-  Te126  1  0.83656128  0.16832113  0.71796268  1
  Te2-  Te127  1  0.83315730  0.66572676  0.71699731  1
  Te2-  Te128  1  0.16435572  0.33166592  0.05377939  1
  Te2-  Te129  1  0.16540957  0.83386513  0.05177090  1
  Te2-  Te130  1  0.66526604  0.33077939  0.05795554  1
  Te2-  Te131  1  0.66790175  0.83566460  0.05267490  1
  Te2-  Te132  1  0.48434599  0.24263346  0.88810326  1
  Te2-  Te133  1  0.48979176  0.74664093  0.88506612  1
  Te2-  Te134  1  0.99690511  0.25138987  0.88005555  1
  Te2-  Te135  1  0.99609709  0.74695069  0.87887398  1
  Te2-  Te136  1  0.24930258  0.00702558  0.88263366  1
  Te2-  Te137  1  0.25543419  0.51113332  0.88564483  1
  Te2-  Te138  1  0.75284547  0.00675248  0.88105684  1
  Te2-  Te139  1  0.74599698  0.50115041  0.88386016  1
  Te2-  Te140  1  0.24962401  0.24517453  0.88307444  1
  Te2-  Te141  1  0.25553269  0.74636728  0.88405154  1
  Te2-  Te142  1  0.74574529  0.24630158  0.88178053  1
  Te2-  Te143  1  0.75191491  0.74918027  0.88017987  1
  Te2-  Te144  1  0.32558879  0.40683103  0.21753259  1
  Te2-  Te145  1  0.32801420  0.91411066  0.22275950  1
  Te2-  Te146  1  0.82676125  0.41026504  0.21384970  1
  Te2-  Te147  1  0.83072151  0.91625524  0.21239692  1
  Te2-  Te148  1  0.08778495  0.17313291  0.21801773  1
  Te2-  Te149  1  0.08625023  0.66830542  0.21138680  1
  Te2-  Te150  1  0.58918133  0.17145945  0.21923031  1
  Te2-  Te151  1  0.58328814  0.66595381  0.21591033  1
  Te2-  Te152  1  0.08498138  0.40736819  0.21540342  1
  Te2-  Te153  1  0.08845088  0.91519585  0.21441383  1
  Te2-  Te154  1  0.58973676  0.41078892  0.21825679  1
  Te2-  Te155  1  0.58459647  0.91348806  0.22123154  1
  Te2-  Te156  1  0.15892690  0.07467343  0.55074552  1
  Te2-  Te157  1  0.16771249  0.58688758  0.55281756  1
  Te2-  Te158  1  0.66192060  0.08415900  0.54828033  1
  Te2-  Te159  1  0.65529828  0.57383533  0.54718369  1
  Te2-  Te160  1  0.41490073  0.33486676  0.55300613  1
  Te2-  Te161  1  0.42492496  0.84468416  0.55401934  1
  Te2-  Te162  1  0.92250532  0.33676047  0.54555710  1
  Te2-  Te163  1  0.91397896  0.83471506  0.54350510  1
  Te2-  Te164  1  0.42377958  0.08396349  0.55448215  1
  Te2-  Te165  1  0.41997244  0.58023398  0.55359600  1
  Te2-  Te166  1  0.91857337  0.07447495  0.54749282  1
  Te2-  Te167  1  0.91918693  0.58032112  0.54580386  1
  Te2-  Te168  1  -0.00048241  0.00032385  0.88046074  1
  Te2-  Te169  1  -0.00152030  0.50043946  0.88195111  1
  Te2-  Te170  1  0.49890203  -0.00023989  0.88178976  1
  Te2-  Te171  1  0.49968741  0.50178440  0.88218801  1
  Te2-  Te172  1  0.33317790  0.16742580  0.21699283  1
  Te2-  Te173  1  0.33205269  0.66544075  0.21870775  1
  Te2-  Te174  1  0.83583864  0.16899971  0.21431078  1
  Te2-  Te175  1  0.83607596  0.66863000  0.21370974  1
  Te2-  Te176  1  0.16697529  0.33566292  0.55208697  1
  Te2-  Te177  1  0.16478904  0.83324596  0.54948321  1
  Te2-  Te178  1  0.66963182  0.33585588  0.54923734  1
  Te2-  Te179  1  0.66983334  0.83573264  0.54690755  1
  Te2-  Te180  1  0.32464540  0.41276121  0.70824831  1
  Te2-  Te181  1  0.32384839  0.91220127  0.70760401  1
  Te2-  Te182  1  0.82965124  0.41413410  0.71055452  1
  Te2-  Te183  1  0.82928647  0.91424288  0.70895487  1
  Te2-  Te184  1  0.08606797  0.17263030  0.70958185  1
  Te2-  Te185  1  0.08420726  0.67295339  0.70758602  1
  Te2-  Te186  1  0.58991209  0.17529020  0.70964960  1
  Te2-  Te187  1  0.59102274  0.67400527  0.70916948  1
  Te2-  Te188  1  0.08662431  0.41387266  0.70827208  1
  Te2-  Te189  1  0.08261193  0.91153943  0.70853258  1
  Te2-  Te190  1  0.58805654  0.41395183  0.71040401  1
  Te2-  Te191  1  0.59199360  0.91803292  0.70937543  1
  Te2-  Te192  1  0.16143918  0.08216493  0.04532476  1
  Te2-  Te193  1  0.16131524  0.58315790  0.04332982  1
  Te2-  Te194  1  0.65998544  0.07917134  0.04628503  1
  Te2-  Te195  1  0.65969601  0.58397102  0.04259621  1
  Te2-  Te196  1  0.41843890  0.34269880  0.04426414  1
  Te2-  Te197  1  0.41924689  0.83978402  0.05011143  1
  Te2-  Te198  1  0.91724678  0.33985216  0.04139230  1
  Te2-  Te199  1  0.91962777  0.83915623  0.04271814  1
  Te2-  Te200  1  0.41699100  0.07725279  0.04756983  1
  Te2-  Te201  1  0.42205657  0.58392748  0.04581571  1
  Te2-  Te202  1  0.92002773  0.08324267  0.04337149  1
  Te2-  Te203  1  0.91893995  0.58129923  0.03991521  1
  Te2-  Te204  1  0.49357200  0.24693208  0.38111510  1
  Te2-  Te205  1  0.49045598  0.74260291  0.37603563  1
  Te2-  Te206  1  0.99566261  0.24800150  0.37672976  1
  Te2-  Te207  1  0.99882636  0.74819901  0.37516208  1
  Te2-  Te208  1  0.25382075  0.00859973  0.37869005  1
  Te2-  Te209  1  0.25236239  0.50474272  0.38073074  1
  Te2-  Te210  1  0.75522838  0.00618549  0.37439375  1
  Te2-  Te211  1  0.75413040  0.50648643  0.37671648  1
  Te2-  Te212  1  0.25301570  0.24629734  0.38048223  1
  Te2-  Te213  1  0.25205996  0.74463733  0.37814000  1
  Te2-  Te214  1  0.75362914  0.24933722  0.37714771  1
  Te2-  Te215  1  0.75367956  0.74712244  0.37265296  1
