# generated using pymatgen
data_Ti(CuTe)4
_symmetry_space_group_name_H-M   'P 1'
_cell_length_a   16.87525680
_cell_length_b   16.87898091
_cell_length_c   20.69263341
_cell_angle_alpha   89.98276270
_cell_angle_beta   90.03220542
_cell_angle_gamma   120.01394845
_symmetry_Int_Tables_number   1
_chemical_formula_structural   Ti(CuTe)4
_chemical_formula_sum   'Ti24 Cu96 Te96'
_cell_volume   5103.66171450
_cell_formula_units_Z   24
loop_
 _symmetry_equiv_pos_site_id
 _symmetry_equiv_pos_as_xyz
  1  'x, y, z'
loop_
 _atom_type_symbol
 _atom_type_oxidation_number
  Ti4+  4.0
  Cu+  1.0
  Te2-  -2.0
loop_
 _atom_site_type_symbol
 _atom_site_label
 _atom_site_symmetry_multiplicity
 _atom_site_fract_x
 _atom_site_fract_y
 _atom_site_fract_z
 _atom_site_occupancy
  Ti4+  Ti0  1  0.00308288  0.00350526  0.25874168  1
  Ti4+  Ti1  1  -0.00274927  0.49639632  0.25879312  1
  Ti4+  Ti2  1  0.49729949  -0.00169861  0.25382669  1
  Ti4+  Ti3  1  0.50309684  0.50350533  0.25558751  1
  Ti4+  Ti4  1  0.33623532  0.16744755  0.59276804  1
  Ti4+  Ti5  1  0.32989799  0.66459941  0.58904671  1
  Ti4+  Ti6  1  0.83472832  0.16501902  0.59170316  1
  Ti4+  Ti7  1  0.83676183  0.66973504  0.59266081  1
  Ti4+  Ti8  1  0.16595863  0.33076521  0.92430409  1
  Ti4+  Ti9  1  0.16405027  0.83194655  0.92775558  1
  Ti4+  Ti10  1  0.66686289  0.33607341  0.92576056  1
  Ti4+  Ti11  1  0.66648738  0.83521449  0.92260968  1
  Ti4+  Ti12  1  0.00042074  0.00210791  0.75636071  1
  Ti4+  Ti13  1  -0.00008927  0.50168495  0.75888880  1
  Ti4+  Ti14  1  0.50080134  -0.00162786  0.75597444  1
  Ti4+  Ti15  1  0.50024707  0.49808225  0.75450963  1
  Ti4+  Ti16  1  0.33209620  0.16489150  0.08702810  1
  Ti4+  Ti17  1  0.33447617  0.66737801  0.08689922  1
  Ti4+  Ti18  1  0.83469658  0.16813228  0.08889168  1
  Ti4+  Ti19  1  0.83128791  0.66587841  0.08887602  1
  Ti4+  Ti20  1  0.16769332  0.33469627  0.42140903  1
  Ti4+  Ti21  1  0.16629416  0.83143131  0.42193466  1
  Ti4+  Ti22  1  0.66579620  0.33257190  0.42346669  1
  Ti4+  Ti23  1  0.66976192  0.83555629  0.42229879  1
  Cu+  Cu24  1  0.40536501  0.30917502  0.80829248  1
  Cu+  Cu25  1  0.23688182  0.75089420  0.14414096  1
  Cu+  Cu26  1  0.86265036  0.93043277  0.47378952  1
  Cu+  Cu27  1  0.07079642  0.41963013  0.47828531  1
  Cu+  Cu28  1  0.23596423  0.98169251  0.14281438  1
  Cu+  Cu29  1  0.73841981  0.48249221  0.14342067  1
  Cu+  Cu30  1  0.07008031  0.64738618  0.47705776  1
  Cu+  Cu31  1  0.02488770  0.26245631  0.14073930  1
  Cu+  Cu32  1  0.90362336  0.59769438  0.81009298  1
  Cu+  Cu33  1  0.90423673  0.09609667  0.80818464  1
  Cu+  Cu34  1  0.73852836  0.25574971  0.14186699  1
  Cu+  Cu35  1  0.52489661  0.76269857  0.13707371  1
  Cu+  Cu36  1  0.16278992  0.08045650  0.17071735  1
  Cu+  Cu37  1  0.16069481  0.57906141  0.17120551  1
  Cu+  Cu38  1  0.66106895  0.08297963  0.16797098  1
  Cu+  Cu39  1  0.66166228  0.57965746  0.16857254  1
  Cu+  Cu40  1  0.41860896  0.33718487  0.16862873  1
  Cu+  Cu41  1  0.41786525  0.83525469  0.16569929  1
  Cu+  Cu42  1  0.91829490  0.33421481  0.17013621  1
  Cu+  Cu43  1  0.91560860  0.83680190  0.17222528  1
  Cu+  Cu44  1  0.41340345  0.07752912  0.16608667  1
  Cu+  Cu45  1  0.42513267  0.58853408  0.16833995  1
  Cu+  Cu46  1  0.92397511  0.08809551  0.17211633  1
  Cu+  Cu47  1  0.91368915  0.57839762  0.17051427  1
  Cu+  Cu48  1  0.49772912  0.24894329  0.50661600  1
  Cu+  Cu49  1  0.49613714  0.74915087  0.50397592  1
  Cu+  Cu50  1  0.99547870  0.24739924  0.50461086  1
  Cu+  Cu51  1  0.99624842  0.74546793  0.50477001  1
  Cu+  Cu52  1  0.25410584  0.00367101  0.50627086  1
  Cu+  Cu53  1  0.24741948  0.50368365  0.50114224  1
  Cu+  Cu54  1  0.75793671  0.00116734  0.50463897  1
  Cu+  Cu55  1  0.75251493  0.50183088  0.50647085  1
  Cu+  Cu56  1  0.25601121  0.25089650  0.50599611  1
  Cu+  Cu57  1  0.24640788  0.74246793  0.50181276  1
  Cu+  Cu58  1  0.74873341  0.24588293  0.50546851  1
  Cu+  Cu59  1  0.75885723  0.75724825  0.50540703  1
  Cu+  Cu60  1  0.33155309  0.40973942  0.83701003  1
  Cu+  Cu61  1  0.33095731  0.91410493  0.84138099  1
  Cu+  Cu62  1  0.83168716  0.42262473  0.84062268  1
  Cu+  Cu63  1  0.83059938  0.92097010  0.83710803  1
  Cu+  Cu64  1  0.07976999  0.17029978  0.83686482  1
  Cu+  Cu65  1  0.07897957  0.66917734  0.84139372  1
  Cu+  Cu66  1  0.58751692  0.16823730  0.83849881  1
  Cu+  Cu67  1  0.58411904  0.66968057  0.83672680  1
  Cu+  Cu68  1  0.08316569  0.41342014  0.84016556  1
  Cu+  Cu69  1  0.08576026  0.91664110  0.84003187  1
  Cu+  Cu70  1  0.58312153  0.41334356  0.83652587  1
  Cu+  Cu71  1  0.58354882  0.91241818  0.83652100  1
  Cu+  Cu72  1  0.17165943  0.08627519  0.67571195  1
  Cu+  Cu73  1  0.16717407  0.58343856  0.67667079  1
  Cu+  Cu74  1  0.66886474  0.08010592  0.67468978  1
  Cu+  Cu75  1  0.67017334  0.58556659  0.67386761  1
  Cu+  Cu76  1  0.41737315  0.32898722  0.67966949  1
  Cu+  Cu77  1  0.41308367  0.82888893  0.67281565  1
  Cu+  Cu78  1  0.91665362  0.33225345  0.67696171  1
  Cu+  Cu79  1  0.91945549  0.83392627  0.67720452  1
  Cu+  Cu80  1  0.41804568  0.08398340  0.67615100  1
  Cu+  Cu81  1  0.41376557  0.58331766  0.67137336  1
  Cu+  Cu82  1  0.91681060  0.08578835  0.67949985  1
  Cu+  Cu83  1  0.91717853  0.58736375  0.68218824  1
  Cu+  Cu84  1  0.00417683  0.25034707  0.01356495  1
  Cu+  Cu85  1  -0.00090636  0.75039838  0.01103817  1
  Cu+  Cu86  1  0.50071169  0.25142070  0.00784387  1
  Cu+  Cu87  1  0.50495818  0.75232585  0.00929143  1
  Cu+  Cu88  1  0.24906053  0.49615831  0.00594741  1
  Cu+  Cu89  1  0.24689288  0.99452464  0.01404142  1
  Cu+  Cu90  1  0.74799713  0.49910463  0.01361290  1
  Cu+  Cu91  1  0.75052750  1.00040163  0.00678126  1
  Cu+  Cu92  1  0.24724558  0.24785729  0.00736719  1
  Cu+  Cu93  1  0.24595705  0.74932833  0.01332517  1
  Cu+  Cu94  1  0.75057653  0.25528243  0.01251922  1
  Cu+  Cu95  1  0.74883962  0.75300301  0.00527765  1
  Cu+  Cu96  1  0.33953561  0.42071056  0.33852884  1
  Cu+  Cu97  1  0.33323940  0.91573554  0.34021699  1
  Cu+  Cu98  1  0.83082443  0.41354002  0.34401826  1
  Cu+  Cu99  1  0.84117344  0.92288886  0.34558473  1
  Cu+  Cu100  1  0.08691682  0.16835469  0.34260369  1
  Cu+  Cu101  1  0.08072989  0.66256823  0.34754678  1
  Cu+  Cu102  1  0.57946199  0.16437215  0.34006154  1
  Cu+  Cu103  1  0.58573449  0.66751167  0.33993284  1
  Cu+  Cu104  1  0.08188963  0.41657249  0.34771101  1
  Cu+  Cu105  1  0.08405974  0.91741429  0.34357602  1
  Cu+  Cu106  1  0.58313701  0.41870913  0.34191921  1
  Cu+  Cu107  1  0.58274423  0.91838833  0.33878071  1
  Cu+  Cu108  1  -0.00375262  -0.00246325  0.11545910  1
  Cu+  Cu109  1  -0.00001819  0.50066596  0.11391367  1
  Cu+  Cu110  1  0.50059835  -0.00004018  0.10790395  1
  Cu+  Cu111  1  0.49553583  0.49709373  0.11056030  1
  Cu+  Cu112  1  0.33380522  0.16587600  0.45012571  1
  Cu+  Cu113  1  0.33811557  0.66836278  0.44423796  1
  Cu+  Cu114  1  0.82738075  0.16375101  0.44861198  1
  Cu+  Cu115  1  0.82648761  0.66299975  0.44999649  1
  Cu+  Cu116  1  0.16964148  0.33834402  0.78096046  1
  Cu+  Cu117  1  0.17019838  0.83540640  0.78523731  1
  Cu+  Cu118  1  0.66773522  0.33047110  0.78215458  1
  Cu+  Cu119  1  0.66620863  0.82949866  0.77880277  1
  Te2-  Te120  1  0.00763394  0.00483905  0.38908501  1
  Te2-  Te121  1  -0.00526715  0.49584788  0.39032225  1
  Te2-  Te122  1  0.49862283  -0.00111114  0.38209230  1
  Te2-  Te123  1  0.50296533  0.50345878  0.38432341  1
  Te2-  Te124  1  0.33418391  0.16305688  0.72397078  1
  Te2-  Te125  1  0.33254227  0.66507349  0.71799898  1
  Te2-  Te126  1  0.83212429  0.16790578  0.72196097  1
  Te2-  Te127  1  0.83234718  0.67015589  0.72301579  1
  Te2-  Te128  1  0.17119964  0.33446665  0.05517435  1
  Te2-  Te129  1  0.16123180  0.82909031  0.05994597  1
  Te2-  Te130  1  0.66289390  0.33296390  0.05752798  1
  Te2-  Te131  1  0.67112087  0.83740653  0.05355413  1
  Te2-  Te132  1  0.49436867  0.24409258  0.88202606  1
  Te2-  Te133  1  0.49436765  0.74644976  0.88277887  1
  Te2-  Te134  1  0.99083385  0.24758791  0.88669367  1
  Te2-  Te135  1  0.98964675  0.74978396  0.88537679  1
  Te2-  Te136  1  0.25171504  0.00287469  0.88681351  1
  Te2-  Te137  1  0.25304879  0.50085126  0.88011025  1
  Te2-  Te138  1  0.75021767  0.00999522  0.88166905  1
  Te2-  Te139  1  0.74920963  0.50940235  0.88598656  1
  Te2-  Te140  1  0.24772983  0.23978473  0.88176644  1
  Te2-  Te141  1  0.24766970  0.74546426  0.88571861  1
  Te2-  Te142  1  0.75495660  0.25347255  0.88481356  1
  Te2-  Te143  1  0.75314631  0.75152111  0.87953942  1
  Te2-  Te144  1  0.33254414  0.41946006  0.21234853  1
  Te2-  Te145  1  0.32116987  0.90889199  0.21434960  1
  Te2-  Te146  1  0.82219489  0.40890060  0.21757544  1
  Te2-  Te147  1  0.83185188  0.92010351  0.21808833  1
  Te2-  Te148  1  0.09356975  0.17717458  0.21691149  1
  Te2-  Te149  1  0.08016361  0.66878630  0.21926512  1
  Te2-  Te150  1  0.58007026  0.17196055  0.21393177  1
  Te2-  Te151  1  0.59378496  0.67802127  0.21426759  1
  Te2-  Te152  1  0.08686426  0.41345389  0.21937762  1
  Te2-  Te153  1  0.08309406  0.91022910  0.21765153  1
  Te2-  Te154  1  0.58463125  0.41028940  0.21593522  1
  Te2-  Te155  1  0.58752749  0.91572453  0.21257679  1
  Te2-  Te156  1  0.16484873  0.08273215  0.54981069  1
  Te2-  Te157  1  0.15154210  0.57502613  0.55073331  1
  Te2-  Te158  1  0.66455921  0.07715721  0.54833896  1
  Te2-  Te159  1  0.66741493  0.58680017  0.54745858  1
  Te2-  Te160  1  0.42219118  0.33991024  0.55276364  1
  Te2-  Te161  1  0.41396263  0.83560072  0.54668675  1
  Te2-  Te162  1  0.91623028  0.33850840  0.55089712  1
  Te2-  Te163  1  0.92819665  0.84323298  0.55117204  1
  Te2-  Te164  1  0.42152429  0.08106037  0.55040388  1
  Te2-  Te165  1  0.41539474  0.57965837  0.54540062  1
  Te2-  Te166  1  0.92603498  0.08241808  0.55224815  1
  Te2-  Te167  1  0.91861904  0.57753842  0.55442374  1
  Te2-  Te168  1  -0.00020558  0.00095409  0.88321135  1
  Te2-  Te169  1  0.00069689  0.49972413  0.88572610  1
  Te2-  Te170  1  0.50111955  -0.00112650  0.88248229  1
  Te2-  Te171  1  0.50080547  0.50075312  0.88148803  1
  Te2-  Te172  1  0.33422234  0.16749420  0.21390301  1
  Te2-  Te173  1  0.33249676  0.66595570  0.21457998  1
  Te2-  Te174  1  0.83007531  0.16439124  0.21645426  1
  Te2-  Te175  1  0.83156303  0.66668351  0.21582647  1
  Te2-  Te176  1  0.16783451  0.33403030  0.54821489  1
  Te2-  Te177  1  0.16777063  0.83319274  0.54876802  1
  Te2-  Te178  1  0.66695571  0.33258382  0.54998965  1
  Te2-  Te179  1  0.66475278  0.83235742  0.54908522  1
  Te2-  Te180  1  0.32822722  0.41380675  0.70920191  1
  Te2-  Te181  1  0.32895419  0.91366426  0.71341186  1
  Te2-  Te182  1  0.82796324  0.41388208  0.71293725  1
  Te2-  Te183  1  0.82785804  0.91309579  0.70997120  1
  Te2-  Te184  1  0.08961097  0.17479772  0.71054344  1
  Te2-  Te185  1  0.08914287  0.67453097  0.71413925  1
  Te2-  Te186  1  0.58842646  0.17015097  0.71167760  1
  Te2-  Te187  1  0.58367678  0.66937560  0.70941565  1
  Te2-  Te188  1  0.08498997  0.41453901  0.71371868  1
  Te2-  Te189  1  0.08871493  0.91674879  0.71400168  1
  Te2-  Te190  1  0.59081887  0.41546672  0.70989734  1
  Te2-  Te191  1  0.58350618  0.91019308  0.71022156  1
  Te2-  Te192  1  0.15779440  0.07864388  0.04391605  1
  Te2-  Te193  1  0.16016434  0.57664352  0.04364232  1
  Te2-  Te194  1  0.66228332  0.08193189  0.04113786  1
  Te2-  Te195  1  0.65909329  0.58343001  0.04204651  1
  Te2-  Te196  1  0.41748540  0.33755336  0.04213202  1
  Te2-  Te197  1  0.41991086  0.84016002  0.03874792  1
  Te2-  Te198  1  0.92265966  0.34206779  0.04298544  1
  Te2-  Te199  1  0.91716544  0.83851392  0.04549220  1
  Te2-  Te200  1  0.42091877  0.08079134  0.03999418  1
  Te2-  Te201  1  0.41921519  0.57991006  0.04102488  1
  Te2-  Te202  1  0.91876615  0.07861840  0.04480476  1
  Te2-  Te203  1  0.92028480  0.58055448  0.04397853  1
  Te2-  Te204  1  0.49457218  0.24845761  0.37938099  1
  Te2-  Te205  1  0.49851457  0.74969489  0.37664469  1
  Te2-  Te206  1  0.99287344  0.24406156  0.37787084  1
  Te2-  Te207  1  0.99193728  0.74675733  0.37808696  1
  Te2-  Te208  1  0.25377645  0.00468716  0.37925601  1
  Te2-  Te209  1  0.25570060  0.50698477  0.37439558  1
  Te2-  Te210  1  0.75269392  0.00724808  0.37654059  1
  Te2-  Te211  1  0.75253320  0.50483703  0.37932999  1
  Te2-  Te212  1  0.25711535  0.25153645  0.37884968  1
  Te2-  Te213  1  0.25389307  0.74607633  0.37510879  1
  Te2-  Te214  1  0.74879219  0.24388044  0.37836619  1
  Te2-  Te215  1  0.75574807  0.74953594  0.37724211  1
