# generated using pymatgen
data_Ti(CuTe)4
_symmetry_space_group_name_H-M   'P 1'
_cell_length_a   16.89663788
_cell_length_b   16.89847790
_cell_length_c   20.72422187
_cell_angle_alpha   90.03303434
_cell_angle_beta   89.98321921
_cell_angle_gamma   119.99360816
_symmetry_Int_Tables_number   1
_chemical_formula_structural   Ti(CuTe)4
_chemical_formula_sum   'Ti24 Cu96 Te96'
_cell_volume   5124.89115441
_cell_formula_units_Z   24
loop_
 _symmetry_equiv_pos_site_id
 _symmetry_equiv_pos_as_xyz
  1  'x, y, z'
loop_
 _atom_type_symbol
 _atom_type_oxidation_number
  Ti4+  4.0
  Cu+  1.0
  Te2-  -2.0
loop_
 _atom_site_type_symbol
 _atom_site_label
 _atom_site_symmetry_multiplicity
 _atom_site_fract_x
 _atom_site_fract_y
 _atom_site_fract_z
 _atom_site_occupancy
  Ti4+  Ti0  1  -0.00594423  -0.00237598  0.25886213  1
  Ti4+  Ti1  1  -0.00310267  0.49792262  0.25874474  1
  Ti4+  Ti2  1  0.49780034  0.00106240  0.25572057  1
  Ti4+  Ti3  1  0.49504653  0.49797148  0.25732473  1
  Ti4+  Ti4  1  0.33606814  0.17029278  0.59258321  1
  Ti4+  Ti5  1  0.33504579  0.66671811  0.58843689  1
  Ti4+  Ti6  1  0.83568697  0.16613855  0.59229570  1
  Ti4+  Ti7  1  0.83720691  0.66691722  0.59009663  1
  Ti4+  Ti8  1  0.16572517  0.33240715  0.92541738  1
  Ti4+  Ti9  1  0.16880912  0.83693496  0.92064588  1
  Ti4+  Ti10  1  0.66892627  0.33285488  0.92481293  1
  Ti4+  Ti11  1  0.66873127  0.83143588  0.92590420  1
  Ti4+  Ti12  1  0.00162907  -0.00087483  0.75463047  1
  Ti4+  Ti13  1  0.00108079  0.49876839  0.75641716  1
  Ti4+  Ti14  1  0.50157934  0.00178045  0.75427978  1
  Ti4+  Ti15  1  0.50247635  0.50238653  0.75640405  1
  Ti4+  Ti16  1  0.33278768  0.16626789  0.08902547  1
  Ti4+  Ti17  1  0.33206848  0.66429202  0.08774225  1
  Ti4+  Ti18  1  0.83170738  0.16669199  0.08864727  1
  Ti4+  Ti19  1  0.83406686  0.66784729  0.09002471  1
  Ti4+  Ti20  1  0.16656091  0.33470926  0.42253699  1
  Ti4+  Ti21  1  0.16448636  0.83247859  0.42099139  1
  Ti4+  Ti22  1  0.66489591  0.33250236  0.42293129  1
  Ti4+  Ti23  1  0.66716496  0.83419936  0.42219498  1
  Cu+  Cu24  1  0.18296223  0.09559653  0.80928093  1
  Cu+  Cu25  1  0.73605046  0.98442234  0.14170334  1
  Cu+  Cu26  1  0.85031854  0.42066487  0.47674214  1
  Cu+  Cu27  1  0.35659975  0.42802202  0.47499139  1
  Cu+  Cu28  1  0.41362158  0.09786323  0.80862585  1
  Cu+  Cu29  1  0.90586795  0.81071443  0.80684992  1
  Cu+  Cu30  1  0.73534467  0.75356181  0.14453632  1
  Cu+  Cu31  1  0.85715391  0.92842285  0.47713761  1
  Cu+  Cu32  1  0.73701198  0.26061146  0.14225955  1
  Cu+  Cu33  1  0.23403410  0.47489775  0.14147604  1
  Cu+  Cu34  1  0.90572139  0.30812702  0.80905781  1
  Cu+  Cu35  1  0.07920201  0.64937242  0.47568129  1
  Cu+  Cu36  1  0.16192028  0.08176222  0.17295714  1
  Cu+  Cu37  1  0.16267537  0.57783266  0.17130632  1
  Cu+  Cu38  1  0.65963952  0.08317951  0.16894712  1
  Cu+  Cu39  1  0.66126573  0.58208924  0.17228865  1
  Cu+  Cu40  1  0.41430089  0.33446355  0.17119042  1
  Cu+  Cu41  1  0.41534588  0.83568905  0.16887838  1
  Cu+  Cu42  1  0.91170152  0.33817001  0.17007264  1
  Cu+  Cu43  1  0.91033686  0.83533902  0.17186783  1
  Cu+  Cu44  1  0.41670205  0.08206172  0.16989183  1
  Cu+  Cu45  1  0.40913668  0.57376116  0.16911846  1
  Cu+  Cu46  1  0.91068002  0.07574469  0.17120468  1
  Cu+  Cu47  1  0.91708876  0.58157955  0.17249336  1
  Cu+  Cu48  1  0.49578292  0.24804072  0.50534960  1
  Cu+  Cu49  1  0.49776384  0.74893786  0.50282613  1
  Cu+  Cu50  1  0.99686059  0.24894394  0.50552034  1
  Cu+  Cu51  1  0.99706723  0.74444052  0.50226348  1
  Cu+  Cu52  1  0.25245846  0.00431370  0.50606210  1
  Cu+  Cu53  1  0.25820843  0.50516480  0.50132222  1
  Cu+  Cu54  1  0.75679456  0.00258248  0.50527368  1
  Cu+  Cu55  1  0.75499880  0.50165824  0.50328324  1
  Cu+  Cu56  1  0.25554723  0.25384515  0.50549500  1
  Cu+  Cu57  1  0.25055079  0.74638498  0.50281301  1
  Cu+  Cu58  1  0.75435149  0.25045232  0.50645468  1
  Cu+  Cu59  1  0.75701518  0.75391937  0.50376402  1
  Cu+  Cu60  1  0.33344085  0.41945834  0.83922134  1
  Cu+  Cu61  1  0.33250543  0.92189314  0.83384746  1
  Cu+  Cu62  1  0.83369089  0.41031654  0.83905983  1
  Cu+  Cu63  1  0.83066790  0.90922412  0.83836675  1
  Cu+  Cu64  1  0.08846581  0.17303296  0.83759006  1
  Cu+  Cu65  1  0.08689861  0.67160156  0.83600059  1
  Cu+  Cu66  1  0.58653463  0.17252906  0.83694923  1
  Cu+  Cu67  1  0.58953912  0.67035725  0.83843926  1
  Cu+  Cu68  1  0.08055927  0.41149648  0.83956195  1
  Cu+  Cu69  1  0.08643765  0.91540780  0.83317061  1
  Cu+  Cu70  1  0.58789725  0.41848267  0.83833765  1
  Cu+  Cu71  1  0.58752853  0.91700020  0.83916957  1
  Cu+  Cu72  1  0.17218029  0.08749335  0.67919629  1
  Cu+  Cu73  1  0.17134075  0.58388607  0.67292489  1
  Cu+  Cu74  1  0.67009018  0.08456198  0.67424747  1
  Cu+  Cu75  1  0.67149441  0.58704839  0.67366160  1
  Cu+  Cu76  1  0.41793926  0.33567993  0.67673509  1
  Cu+  Cu77  1  0.41742998  0.83065807  0.67176839  1
  Cu+  Cu78  1  0.91586577  0.32874371  0.68123328  1
  Cu+  Cu79  1  0.91679998  0.83051562  0.67785174  1
  Cu+  Cu80  1  0.41720184  0.08728592  0.67972260  1
  Cu+  Cu81  1  0.41883533  0.58644387  0.67468198  1
  Cu+  Cu82  1  0.91657185  0.08284878  0.67688587  1
  Cu+  Cu83  1  0.91882938  0.58382741  0.67605069  1
  Cu+  Cu84  1  0.00184837  0.25186998  0.01005279  1
  Cu+  Cu85  1  0.00458792  0.75379942  0.00729054  1
  Cu+  Cu86  1  0.50318065  0.25067194  0.00976319  1
  Cu+  Cu87  1  0.50220592  0.74886725  0.00809992  1
  Cu+  Cu88  1  0.24566639  0.49532186  0.01221709  1
  Cu+  Cu89  1  0.24971466  1.00048112  0.00674150  1
  Cu+  Cu90  1  0.75317313  0.49823120  0.00806095  1
  Cu+  Cu91  1  0.74986775  0.99551155  0.01238267  1
  Cu+  Cu92  1  0.24947089  0.25058213  0.00929818  1
  Cu+  Cu93  1  0.24981834  0.75269666  0.00415821  1
  Cu+  Cu94  1  0.74931032  0.25119002  0.01254602  1
  Cu+  Cu95  1  0.75117983  0.75157258  0.01456939  1
  Cu+  Cu96  1  0.33265518  0.41687822  0.34576992  1
  Cu+  Cu97  1  0.33391591  0.91978225  0.33929847  1
  Cu+  Cu98  1  0.83257032  0.41641855  0.34736526  1
  Cu+  Cu99  1  0.83358565  0.91755193  0.34749155  1
  Cu+  Cu100  1  0.07804059  0.16328621  0.34264454  1
  Cu+  Cu101  1  0.07939410  0.66264869  0.34571823  1
  Cu+  Cu102  1  0.57978118  0.16458406  0.34126433  1
  Cu+  Cu103  1  0.57848931  0.66413551  0.34082691  1
  Cu+  Cu104  1  0.07950019  0.41546978  0.34208983  1
  Cu+  Cu105  1  0.07940970  0.91674076  0.34167663  1
  Cu+  Cu106  1  0.57672607  0.41470125  0.34157617  1
  Cu+  Cu107  1  0.58123302  0.92038450  0.34071191  1
  Cu+  Cu108  1  0.00196544  0.00058474  0.11621415  1
  Cu+  Cu109  1  0.00149278  0.50527205  0.11489562  1
  Cu+  Cu110  1  0.49387808  -0.00439631  0.11126898  1
  Cu+  Cu111  1  0.50048453  0.49820965  0.11443224  1
  Cu+  Cu112  1  0.32968799  0.16396410  0.44903790  1
  Cu+  Cu113  1  0.33534017  0.67086404  0.44403784  1
  Cu+  Cu114  1  0.83070277  0.16577594  0.44942962  1
  Cu+  Cu115  1  0.82824120  0.66422948  0.44669261  1
  Cu+  Cu116  1  0.17217679  0.34005302  0.78318570  1
  Cu+  Cu117  1  0.17031149  0.83117135  0.77604459  1
  Cu+  Cu118  1  0.67001069  0.33935161  0.78234610  1
  Cu+  Cu119  1  0.66433287  0.83383990  0.78263508  1
  Te2-  Te120  1  0.00031354  0.00021031  0.38924039  1
  Te2-  Te121  1  -0.00096533  0.49710228  0.39088214  1
  Te2-  Te122  1  0.49730718  0.00043485  0.38474130  1
  Te2-  Te123  1  0.49967862  0.50093965  0.38763433  1
  Te2-  Te124  1  0.33722518  0.17295029  0.72483106  1
  Te2-  Te125  1  0.33524726  0.66748496  0.71736271  1
  Te2-  Te126  1  0.83209058  0.16186809  0.72292353  1
  Te2-  Te127  1  0.83454522  0.66406551  0.72029308  1
  Te2-  Te128  1  0.16488200  0.32946361  0.05594286  1
  Te2-  Te129  1  0.16933704  0.83573761  0.04928113  1
  Te2-  Te130  1  0.66698339  0.33526610  0.05525298  1
  Te2-  Te131  1  0.66373053  0.83036263  0.05835445  1
  Te2-  Te132  1  0.49577473  0.25092550  0.88373051  1
  Te2-  Te133  1  0.49889037  0.74805178  0.88218894  1
  Te2-  Te134  1  0.99168350  0.24146087  0.88437550  1
  Te2-  Te135  1  0.99501982  0.74714954  0.88129191  1
  Te2-  Te136  1  0.25596239  0.01383333  0.88122880  1
  Te2-  Te137  1  0.24864405  0.50240018  0.88480893  1
  Te2-  Te138  1  0.75556305  0.00202250  0.88495144  1
  Te2-  Te139  1  0.75649591  0.50257511  0.88206812  1
  Te2-  Te140  1  0.25750630  0.25110368  0.88369984  1
  Te2-  Te141  1  0.25562650  0.75350676  0.87831087  1
  Te2-  Te142  1  0.75178692  0.24159735  0.88545012  1
  Te2-  Te143  1  0.75465127  0.74277358  0.88720854  1
  Te2-  Te144  1  0.32064357  0.40726476  0.21855332  1
  Te2-  Te145  1  0.32659380  0.91445055  0.21367806  1
  Te2-  Te146  1  0.82276184  0.41514106  0.21986892  1
  Te2-  Te147  1  0.81643560  0.90918524  0.22018472  1
  Te2-  Te148  1  0.07850204  0.16783624  0.21641503  1
  Te2-  Te149  1  0.08443496  0.66760946  0.21802542  1
  Te2-  Te150  1  0.58349588  0.17543311  0.21567013  1
  Te2-  Te151  1  0.57738066  0.67042051  0.21495352  1
  Te2-  Te152  1  0.07888498  0.40743391  0.21602225  1
  Te2-  Te153  1  0.07882808  0.91249809  0.21572506  1
  Te2-  Te154  1  0.58210491  0.41441070  0.21567028  1
  Te2-  Te155  1  0.58271555  0.91261162  0.21490639  1
  Te2-  Te156  1  0.16559154  0.08572149  0.55159404  1
  Te2-  Te157  1  0.16134031  0.57519140  0.54741169  1
  Te2-  Te158  1  0.66646770  0.08173077  0.54827011  1
  Te2-  Te159  1  0.66855519  0.58435480  0.54721791  1
  Te2-  Te160  1  0.42495970  0.34356158  0.55093113  1
  Te2-  Te161  1  0.41848820  0.83769265  0.54605561  1
  Te2-  Te162  1  0.92361371  0.34049135  0.55407914  1
  Te2-  Te163  1  0.92617088  0.84024825  0.55066075  1
  Te2-  Te164  1  0.41969105  0.08248478  0.55268647  1
  Te2-  Te165  1  0.42603070  0.58292609  0.54891572  1
  Te2-  Te166  1  0.92605015  0.08232422  0.55138806  1
  Te2-  Te167  1  0.92400308  0.57675388  0.55020372  1
  Te2-  Te168  1  0.00236205  0.00115988  0.88181699  1
  Te2-  Te169  1  0.00317946  0.50362564  0.88303165  1
  Te2-  Te170  1  0.50155872  0.00151503  0.88112988  1
  Te2-  Te171  1  0.50255322  0.50174552  0.88253310  1
  Te2-  Te172  1  0.33109141  0.16553075  0.21506791  1
  Te2-  Te173  1  0.33232707  0.66688156  0.21454978  1
  Te2-  Te174  1  0.83043375  0.16709960  0.21577328  1
  Te2-  Te175  1  0.83150001  0.66544971  0.21688399  1
  Te2-  Te176  1  0.16768973  0.33608611  0.54917260  1
  Te2-  Te177  1  0.16757026  0.83367451  0.54779030  1
  Te2-  Te178  1  0.66613257  0.33293492  0.54977119  1
  Te2-  Te179  1  0.66680930  0.83278750  0.54891004  1
  Te2-  Te180  1  0.33028836  0.41740211  0.71256611  1
  Te2-  Te181  1  0.33004460  0.91357338  0.70714843  1
  Te2-  Te182  1  0.82835839  0.41408808  0.71170058  1
  Te2-  Te183  1  0.82727632  0.91284227  0.71158979  1
  Te2-  Te184  1  0.08666023  0.17398093  0.71137026  1
  Te2-  Te185  1  0.08832599  0.67007704  0.70973184  1
  Te2-  Te186  1  0.59046287  0.17507332  0.71030735  1
  Te2-  Te187  1  0.58892447  0.67362988  0.71177577  1
  Te2-  Te188  1  0.08915363  0.41476007  0.71191206  1
  Te2-  Te189  1  0.08985146  0.91408978  0.70667183  1
  Te2-  Te190  1  0.58865347  0.41716178  0.71144798  1
  Te2-  Te191  1  0.58665823  0.91472133  0.71168090  1
  Te2-  Te192  1  0.16113808  0.08086254  0.04554623  1
  Te2-  Te193  1  0.16030388  0.58297607  0.04330081  1
  Te2-  Te194  1  0.65857776  0.07776342  0.04165584  1
  Te2-  Te195  1  0.66216402  0.57814386  0.04446953  1
  Te2-  Te196  1  0.41962627  0.33807969  0.04483089  1
  Te2-  Te197  1  0.41868081  0.83600577  0.04236944  1
  Te2-  Te198  1  0.92125293  0.34090263  0.04425242  1
  Te2-  Te199  1  0.92285800  0.84078194  0.04520719  1
  Te2-  Te200  1  0.41905313  0.08084859  0.04361626  1
  Te2-  Te201  1  0.41929988  0.57859324  0.04261589  1
  Te2-  Te202  1  0.92131914  0.08175479  0.04498090  1
  Te2-  Te203  1  0.92188780  0.58396107  0.04565358  1
  Te2-  Te204  1  0.49220634  0.24618975  0.37940823  1
  Te2-  Te205  1  0.49543556  0.75022102  0.37663915  1
  Te2-  Te206  1  0.99269479  0.24688628  0.37973989  1
  Te2-  Te207  1  0.99091911  0.74680262  0.37623653  1
  Te2-  Te208  1  0.24978002  0.00468241  0.37866200  1
  Te2-  Te209  1  0.24995669  0.50702206  0.37521007  1
  Te2-  Te210  1  0.75035188  0.00684733  0.37803559  1
  Te2-  Te211  1  0.74748583  0.50438777  0.37651064  1
  Te2-  Te212  1  0.24879625  0.24437121  0.37820852  1
  Te2-  Te213  1  0.25284533  0.74912005  0.37503960  1
  Te2-  Te214  1  0.74947510  0.24428661  0.37857353  1
  Te2-  Te215  1  0.74902120  0.74420326  0.37627654  1
