# generated using pymatgen
data_Ti(CuTe)4
_symmetry_space_group_name_H-M   'P 1'
_cell_length_a   16.88996144
_cell_length_b   16.89375717
_cell_length_c   20.71539060
_cell_angle_alpha   90.04971216
_cell_angle_beta   89.99392075
_cell_angle_gamma   119.98726777
_symmetry_Int_Tables_number   1
_chemical_formula_structural   Ti(CuTe)4
_chemical_formula_sum   'Ti24 Cu96 Te96'
_cell_volume   5119.57811920
_cell_formula_units_Z   24
loop_
 _symmetry_equiv_pos_site_id
 _symmetry_equiv_pos_as_xyz
  1  'x, y, z'
loop_
 _atom_type_symbol
 _atom_type_oxidation_number
  Ti4+  4.0
  Cu+  1.0
  Te2-  -2.0
loop_
 _atom_site_type_symbol
 _atom_site_label
 _atom_site_symmetry_multiplicity
 _atom_site_fract_x
 _atom_site_fract_y
 _atom_site_fract_z
 _atom_site_occupancy
  Ti4+  Ti0  1  0.00348922  0.00131898  0.25666676  1
  Ti4+  Ti1  1  0.00131447  0.50126674  0.26133060  1
  Ti4+  Ti2  1  0.50248869  0.00300807  0.25687082  1
  Ti4+  Ti3  1  0.49834030  0.49959428  0.25564793  1
  Ti4+  Ti4  1  0.33322560  0.16856418  0.59148119  1
  Ti4+  Ti5  1  0.33491454  0.66928969  0.59154418  1
  Ti4+  Ti6  1  0.83663439  0.16741035  0.59214655  1
  Ti4+  Ti7  1  0.83350161  0.66487117  0.58814945  1
  Ti4+  Ti8  1  0.16215307  0.32959848  0.92482930  1
  Ti4+  Ti9  1  0.16513349  0.83019029  0.92751171  1
  Ti4+  Ti10  1  0.66375975  0.33109604  0.92463129  1
  Ti4+  Ti11  1  0.66420897  0.83204986  0.92080714  1
  Ti4+  Ti12  1  0.00034573  0.00083975  0.75604126  1
  Ti4+  Ti13  1  -0.00035220  0.50083081  0.75672098  1
  Ti4+  Ti14  1  0.50058823  -0.00053288  0.75474395  1
  Ti4+  Ti15  1  0.49941466  0.49838057  0.75508911  1
  Ti4+  Ti16  1  0.33311813  0.16783681  0.08584812  1
  Ti4+  Ti17  1  0.33193569  0.66561823  0.08864115  1
  Ti4+  Ti18  1  0.83210673  0.16558368  0.09019705  1
  Ti4+  Ti19  1  0.83349304  0.66603127  0.08892253  1
  Ti4+  Ti20  1  0.16687214  0.33231713  0.42349080  1
  Ti4+  Ti21  1  0.16874220  0.83466961  0.42182470  1
  Ti4+  Ti22  1  0.66726177  0.33677424  0.42248932  1
  Ti4+  Ti23  1  0.66826107  0.83521594  0.42061271  1
  Cu+  Cu24  1  0.56944553  0.42974754  0.47172338  1
  Cu+  Cu25  1  0.90185135  0.31434641  0.80853814  1
  Cu+  Cu26  1  0.25006642  0.99225219  0.14613684  1
  Cu+  Cu27  1  0.90417486  0.08800157  0.81082396  1
  Cu+  Cu28  1  0.51828614  0.25943361  0.14249204  1
  Cu+  Cu29  1  0.08104996  0.65225041  0.47810258  1
  Cu+  Cu30  1  0.40200597  0.30783858  0.80903083  1
  Cu+  Cu31  1  0.84971091  0.42155607  0.47743161  1
  Cu+  Cu32  1  0.40266037  0.81015138  0.80767910  1
  Cu+  Cu33  1  0.24109261  0.26141392  0.14090369  1
  Cu+  Cu34  1  0.07241987  0.14181485  0.47492154  1
  Cu+  Cu35  1  0.01822320  0.75449892  0.14471803  1
  Cu+  Cu36  1  0.16186174  0.08359623  0.16681495  1
  Cu+  Cu37  1  0.16455845  0.58201825  0.17289533  1
  Cu+  Cu38  1  0.66504928  0.08301561  0.17125914  1
  Cu+  Cu39  1  0.66323713  0.58056694  0.16988524  1
  Cu+  Cu40  1  0.41925633  0.33966871  0.16687684  1
  Cu+  Cu41  1  0.41842963  0.83528082  0.16998877  1
  Cu+  Cu42  1  0.91595329  0.33501539  0.17545127  1
  Cu+  Cu43  1  0.92267627  0.83470855  0.16937773  1
  Cu+  Cu44  1  0.42447488  0.08324516  0.16821730  1
  Cu+  Cu45  1  0.41604445  0.58102324  0.16913661  1
  Cu+  Cu46  1  0.92041719  0.08450658  0.17129924  1
  Cu+  Cu47  1  0.92119435  0.58349564  0.17403766  1
  Cu+  Cu48  1  0.49784677  0.25686382  0.50508002  1
  Cu+  Cu49  1  0.49949918  0.75318692  0.50496863  1
  Cu+  Cu50  1  0.99881066  0.24459121  0.50489016  1
  Cu+  Cu51  1  0.99905149  0.74549034  0.50162027  1
  Cu+  Cu52  1  0.25387707  0.00531831  0.50481749  1
  Cu+  Cu53  1  0.25279128  0.50458504  0.50536859  1
  Cu+  Cu54  1  0.75506769  0.00371231  0.50413451  1
  Cu+  Cu55  1  0.75157874  0.50387378  0.50077226  1
  Cu+  Cu56  1  0.24840960  0.24549811  0.50528548  1
  Cu+  Cu57  1  0.25340336  0.74870914  0.50505293  1
  Cu+  Cu58  1  0.75600223  0.25195001  0.50627648  1
  Cu+  Cu59  1  0.75221308  0.74888304  0.50144986  1
  Cu+  Cu60  1  0.33025909  0.40995211  0.83855487  1
  Cu+  Cu61  1  0.33065049  0.91126255  0.83930734  1
  Cu+  Cu62  1  0.82891152  0.41258914  0.83867218  1
  Cu+  Cu63  1  0.82805140  0.91592682  0.83587971  1
  Cu+  Cu64  1  0.07951840  0.16942748  0.83774789  1
  Cu+  Cu65  1  0.08230033  0.67074764  0.83948057  1
  Cu+  Cu66  1  0.58405338  0.17031838  0.83680374  1
  Cu+  Cu67  1  0.58488959  0.66982957  0.83502511  1
  Cu+  Cu68  1  0.07767907  0.41132690  0.83780064  1
  Cu+  Cu69  1  0.08185810  0.91220753  0.84169189  1
  Cu+  Cu70  1  0.57753409  0.40916006  0.83814915  1
  Cu+  Cu71  1  0.57987594  0.90932274  0.83363312  1
  Cu+  Cu72  1  0.16810037  0.08372494  0.67715346  1
  Cu+  Cu73  1  0.16961595  0.58952686  0.67750693  1
  Cu+  Cu74  1  0.67018157  0.08624398  0.67434411  1
  Cu+  Cu75  1  0.66927311  0.58263333  0.67286954  1
  Cu+  Cu76  1  0.41458320  0.33015412  0.67924622  1
  Cu+  Cu77  1  0.41469863  0.83142717  0.67822858  1
  Cu+  Cu78  1  0.91755226  0.33235903  0.67985355  1
  Cu+  Cu79  1  0.91750366  0.82922774  0.67192835  1
  Cu+  Cu80  1  0.41788814  0.08663670  0.67435640  1
  Cu+  Cu81  1  0.41692511  0.58647250  0.67417099  1
  Cu+  Cu82  1  0.91896529  0.08597698  0.68100850  1
  Cu+  Cu83  1  0.91726772  0.58467659  0.67473441  1
  Cu+  Cu84  1  -0.00226077  0.24919486  0.01153135  1
  Cu+  Cu85  1  0.00253365  0.74963158  0.01567262  1
  Cu+  Cu86  1  0.50154518  0.25213615  0.01253077  1
  Cu+  Cu87  1  0.49967539  0.74971464  0.00590133  1
  Cu+  Cu88  1  0.24600636  0.49547121  0.00795529  1
  Cu+  Cu89  1  0.24709769  0.99498491  0.01378214  1
  Cu+  Cu90  1  0.74765926  0.49682857  0.00708512  1
  Cu+  Cu91  1  0.74670094  0.99616619  0.00611135  1
  Cu+  Cu92  1  0.24660910  0.25091785  0.01172551  1
  Cu+  Cu93  1  0.24781215  0.74802589  0.01000773  1
  Cu+  Cu94  1  0.74773211  0.25029223  0.01056335  1
  Cu+  Cu95  1  0.74678473  0.75105429  0.00472499  1
  Cu+  Cu96  1  0.33342114  0.41633476  0.34072639  1
  Cu+  Cu97  1  0.33907393  0.92134019  0.34116266  1
  Cu+  Cu98  1  0.83758302  0.42167281  0.34770037  1
  Cu+  Cu99  1  0.83712783  0.91973616  0.33936600  1
  Cu+  Cu100  1  0.08412406  0.16441114  0.34633765  1
  Cu+  Cu101  1  0.08444343  0.66559931  0.34869404  1
  Cu+  Cu102  1  0.58282133  0.16645553  0.34118776  1
  Cu+  Cu103  1  0.58178372  0.66616636  0.33927664  1
  Cu+  Cu104  1  0.08281580  0.41755959  0.34412161  1
  Cu+  Cu105  1  0.08771249  0.92116676  0.34165552  1
  Cu+  Cu106  1  0.57945510  0.41810098  0.34396278  1
  Cu+  Cu107  1  0.58425805  0.92074773  0.34099315  1
  Cu+  Cu108  1  -0.00891992  -0.00433028  0.11306424  1
  Cu+  Cu109  1  -0.00050205  0.49653994  0.11922490  1
  Cu+  Cu110  1  0.50313989  -0.00470398  0.11317720  1
  Cu+  Cu111  1  0.50374469  0.50773093  0.11124808  1
  Cu+  Cu112  1  0.33578749  0.16675623  0.44820026  1
  Cu+  Cu113  1  0.33794708  0.66640012  0.44860315  1
  Cu+  Cu114  1  0.83117519  0.16607823  0.44842545  1
  Cu+  Cu115  1  0.83591037  0.67301143  0.44359694  1
  Cu+  Cu116  1  0.16958121  0.34010389  0.78261575  1
  Cu+  Cu117  1  0.16719764  0.83770252  0.78458029  1
  Cu+  Cu118  1  0.66727924  0.33611171  0.78146451  1
  Cu+  Cu119  1  0.66762394  0.83165657  0.77563692  1
  Te2-  Te120  1  -0.00009434  -0.00278665  0.38704049  1
  Te2-  Te121  1  0.00268676  0.49964615  0.39362675  1
  Te2-  Te122  1  0.50278825  0.00297165  0.38599792  1
  Te2-  Te123  1  0.49719057  0.50279932  0.38608551  1
  Te2-  Te124  1  0.33222132  0.16381374  0.72205611  1
  Te2-  Te125  1  0.33333799  0.66558263  0.72210070  1
  Te2-  Te126  1  0.83197443  0.16579673  0.72401395  1
  Te2-  Te127  1  0.83335011  0.66568410  0.71692254  1
  Te2-  Te128  1  0.16252911  0.33271080  0.05513869  1
  Te2-  Te129  1  0.16842778  0.83064708  0.05970869  1
  Te2-  Te130  1  0.66761676  0.33459349  0.05516866  1
  Te2-  Te131  1  0.66408877  0.83188767  0.04969469  1
  Te2-  Te132  1  0.48925757  0.24097200  0.88516945  1
  Te2-  Te133  1  0.48973086  0.74137855  0.88042440  1
  Te2-  Te134  1  0.98523190  0.24314274  0.88537363  1
  Te2-  Te135  1  0.99295949  0.74574663  0.88861406  1
  Te2-  Te136  1  0.25103801  0.00030128  0.88532786  1
  Te2-  Te137  1  0.24748601  0.49798228  0.88128843  1
  Te2-  Te138  1  0.74691610  0.00588157  0.88044112  1
  Te2-  Te139  1  0.74785035  0.50040648  0.88087453  1
  Te2-  Te140  1  0.24643569  0.24056201  0.88468056  1
  Te2-  Te141  1  0.24925189  0.74137638  0.88418027  1
  Te2-  Te142  1  0.74931853  0.24264939  0.88456388  1
  Te2-  Te143  1  0.75217112  0.74837975  0.87912560  1
  Te2-  Te144  1  0.32463706  0.41405327  0.21504684  1
  Te2-  Te145  1  0.32897627  0.91348067  0.21556077  1
  Te2-  Te146  1  0.83031351  0.41721276  0.22055157  1
  Te2-  Te147  1  0.83428931  0.91516598  0.21320001  1
  Te2-  Te148  1  0.08740882  0.17492882  0.21839174  1
  Te2-  Te149  1  0.09081857  0.67440452  0.22093208  1
  Te2-  Te150  1  0.59175841  0.17741232  0.21572581  1
  Te2-  Te151  1  0.58410761  0.66982593  0.21317376  1
  Te2-  Te152  1  0.08499906  0.41459880  0.21824821  1
  Te2-  Te153  1  0.09248366  0.91437153  0.21580105  1
  Te2-  Te154  1  0.58694150  0.41413171  0.21687416  1
  Te2-  Te155  1  0.58606842  0.91553174  0.21494962  1
  Te2-  Te156  1  0.15894615  0.07668482  0.55124993  1
  Te2-  Te157  1  0.16053276  0.57906977  0.55180100  1
  Te2-  Te158  1  0.66695983  0.08421430  0.54831481  1
  Te2-  Te159  1  0.66022495  0.58122518  0.54705320  1
  Te2-  Te160  1  0.41576103  0.34239733  0.55201260  1
  Te2-  Te161  1  0.41938301  0.84057259  0.55116282  1
  Te2-  Te162  1  0.92634009  0.34021453  0.55239524  1
  Te2-  Te163  1  0.92071906  0.83506375  0.54587423  1
  Te2-  Te164  1  0.42212348  0.08730016  0.54843045  1
  Te2-  Te165  1  0.42089613  0.58438476  0.54838430  1
  Te2-  Te166  1  0.92073770  0.07760536  0.55307174  1
  Te2-  Te167  1  0.92200560  0.57647929  0.54900568  1
  Te2-  Te168  1  -0.00267985  -0.00161258  0.88286673  1
  Te2-  Te169  1  -0.00168484  0.50074884  0.88359701  1
  Te2-  Te170  1  0.50127540  -0.00027923  0.88147915  1
  Te2-  Te171  1  0.49982494  0.50106414  0.88186086  1
  Te2-  Te172  1  0.33478793  0.16754173  0.21387534  1
  Te2-  Te173  1  0.33450670  0.66722650  0.21507516  1
  Te2-  Te174  1  0.83332573  0.16552170  0.21675106  1
  Te2-  Te175  1  0.83232788  0.66628576  0.21590049  1
  Te2-  Te176  1  0.16841759  0.33530942  0.55017292  1
  Te2-  Te177  1  0.16860737  0.83527633  0.54862769  1
  Te2-  Te178  1  0.66803017  0.33507648  0.54990458  1
  Te2-  Te179  1  0.66925990  0.83432088  0.54678892  1
  Te2-  Te180  1  0.32735349  0.41590902  0.71062456  1
  Te2-  Te181  1  0.32753139  0.91635580  0.71154909  1
  Te2-  Te182  1  0.82731358  0.41472556  0.71086288  1
  Te2-  Te183  1  0.82949178  0.91198711  0.70833101  1
  Te2-  Te184  1  0.09034716  0.17535126  0.71209402  1
  Te2-  Te185  1  0.08556271  0.67416179  0.71379719  1
  Te2-  Te186  1  0.58722251  0.17274311  0.71119715  1
  Te2-  Te187  1  0.58644352  0.66978499  0.70911691  1
  Te2-  Te188  1  0.08967604  0.41821247  0.71110239  1
  Te2-  Te189  1  0.08536879  0.91351382  0.71388365  1
  Te2-  Te190  1  0.58704323  0.41363761  0.71040102  1
  Te2-  Te191  1  0.58844521  0.91529003  0.70737091  1
  Te2-  Te192  1  0.15724907  0.07831779  0.04094452  1
  Te2-  Te193  1  0.15907859  0.57821696  0.04634546  1
  Te2-  Te194  1  0.66132310  0.07998950  0.04467953  1
  Te2-  Te195  1  0.66248441  0.58163543  0.04315977  1
  Te2-  Te196  1  0.41942087  0.34275044  0.04044452  1
  Te2-  Te197  1  0.41820655  0.83716137  0.04348715  1
  Te2-  Te198  1  0.91695418  0.33788882  0.04825458  1
  Te2-  Te199  1  0.91645286  0.83763311  0.04243582  1
  Te2-  Te200  1  0.42014295  0.07921108  0.04154540  1
  Te2-  Te201  1  0.41670629  0.57980706  0.04258168  1
  Te2-  Te202  1  0.91616717  0.07890637  0.04438745  1
  Te2-  Te203  1  0.91734151  0.57640031  0.04623619  1
  Te2-  Te204  1  0.49422711  0.24719989  0.37784730  1
  Te2-  Te205  1  0.49655329  0.75044918  0.37767442  1
  Te2-  Te206  1  0.99369833  0.24717064  0.37836444  1
  Te2-  Te207  1  0.99590502  0.75056776  0.37497860  1
  Te2-  Te208  1  0.25615679  0.00742519  0.37841304  1
  Te2-  Te209  1  0.25269180  0.50483356  0.37914201  1
  Te2-  Te210  1  0.75467873  0.00687202  0.37727470  1
  Te2-  Te211  1  0.75259791  0.50977758  0.37434428  1
  Te2-  Te212  1  0.25586936  0.24816272  0.37849759  1
  Te2-  Te213  1  0.25797442  0.75070638  0.37801154  1
  Te2-  Te214  1  0.75298117  0.24884982  0.37860944  1
  Te2-  Te215  1  0.75258367  0.74902900  0.37450161  1
