# generated using pymatgen
data_Ti(CuTe)4
_symmetry_space_group_name_H-M   'P 1'
_cell_length_a   16.86765850
_cell_length_b   16.87373882
_cell_length_c   20.68413474
_cell_angle_alpha   90.07565202
_cell_angle_beta   89.99929202
_cell_angle_gamma   119.98746450
_symmetry_Int_Tables_number   1
_chemical_formula_structural   Ti(CuTe)4
_chemical_formula_sum   'Ti24 Cu96 Te96'
_cell_volume   5099.04044535
_cell_formula_units_Z   24
loop_
 _symmetry_equiv_pos_site_id
 _symmetry_equiv_pos_as_xyz
  1  'x, y, z'
loop_
 _atom_type_symbol
 _atom_type_oxidation_number
  Ti4+  4.0
  Cu+  1.0
  Te2-  -2.0
loop_
 _atom_site_type_symbol
 _atom_site_label
 _atom_site_symmetry_multiplicity
 _atom_site_fract_x
 _atom_site_fract_y
 _atom_site_fract_z
 _atom_site_occupancy
  Ti4+  Ti0  1  0.00026680  -0.00445182  0.25651465  1
  Ti4+  Ti1  1  0.00052591  0.49940782  0.25947200  1
  Ti4+  Ti2  1  0.50361383  -0.00070304  0.25769508  1
  Ti4+  Ti3  1  0.50027370  0.49714388  0.25509723  1
  Ti4+  Ti4  1  0.32963135  0.16475285  0.58991339  1
  Ti4+  Ti5  1  0.32841735  0.66546373  0.58930718  1
  Ti4+  Ti6  1  0.83028437  0.16424140  0.58772982  1
  Ti4+  Ti7  1  0.83195474  0.66646583  0.59568947  1
  Ti4+  Ti8  1  0.16700206  0.33632231  0.92478107  1
  Ti4+  Ti9  1  0.16789495  0.83622446  0.92920569  1
  Ti4+  Ti10  1  0.66751789  0.33433268  0.92558778  1
  Ti4+  Ti11  1  0.66881232  0.83441386  0.92380456  1
  Ti4+  Ti12  1  -0.00130472  0.00029053  0.75634273  1
  Ti4+  Ti13  1  -0.00071194  0.50067082  0.75759894  1
  Ti4+  Ti14  1  0.49964945  0.00111567  0.75759887  1
  Ti4+  Ti15  1  0.50053060  0.50168130  0.75362936  1
  Ti4+  Ti16  1  0.33475276  0.16908323  0.08763576  1
  Ti4+  Ti17  1  0.33364538  0.66718007  0.08910741  1
  Ti4+  Ti18  1  0.83344112  0.16635247  0.09070570  1
  Ti4+  Ti19  1  0.83467739  0.66863394  0.08898876  1
  Ti4+  Ti20  1  0.16605100  0.33193855  0.41978628  1
  Ti4+  Ti21  1  0.16834435  0.83321640  0.42193605  1
  Ti4+  Ti22  1  0.66774181  0.33357941  0.42179871  1
  Ti4+  Ti23  1  0.66753333  0.83443195  0.42201655  1
  Cu+  Cu24  1  0.07048326  0.41868286  0.47705831  1
  Cu+  Cu25  1  0.73842365  0.97282132  0.13950477  1
  Cu+  Cu26  1  0.56863507  0.92072097  0.47580467  1
  Cu+  Cu27  1  0.56724172  0.14718464  0.47249060  1
  Cu+  Cu28  1  0.01658236  0.75244267  0.14466432  1
  Cu+  Cu29  1  0.06805337  0.13896639  0.47002134  1
  Cu+  Cu30  1  0.74170205  0.47733679  0.14008613  1
  Cu+  Cu31  1  0.24872786  0.98564911  0.14430961  1
  Cu+  Cu32  1  0.68373068  0.58857655  0.81156623  1
  Cu+  Cu33  1  0.06751660  0.64985021  0.47685998  1
  Cu+  Cu34  1  0.91491085  0.81882726  0.81346759  1
  Cu+  Cu35  1  0.23642113  0.47540858  0.14067014  1
  Cu+  Cu36  1  0.16669060  0.07985163  0.16936324  1
  Cu+  Cu37  1  0.16637119  0.57980452  0.17218728  1
  Cu+  Cu38  1  0.66687249  0.07741068  0.17215628  1
  Cu+  Cu39  1  0.66460684  0.57686978  0.16893627  1
  Cu+  Cu40  1  0.42292947  0.34057028  0.16738448  1
  Cu+  Cu41  1  0.42421668  0.83867780  0.16983809  1
  Cu+  Cu42  1  0.92058623  0.33749171  0.17235134  1
  Cu+  Cu43  1  0.92566552  0.83842386  0.16794185  1
  Cu+  Cu44  1  0.42079100  0.08367451  0.17173989  1
  Cu+  Cu45  1  0.41344906  0.57794192  0.16918005  1
  Cu+  Cu46  1  0.91218359  0.07599847  0.17191325  1
  Cu+  Cu47  1  0.91683228  0.58061069  0.17241596  1
  Cu+  Cu48  1  0.49639254  0.24723008  0.50387849  1
  Cu+  Cu49  1  0.49534751  0.74948069  0.50353313  1
  Cu+  Cu50  1  0.99538222  0.24422761  0.50061178  1
  Cu+  Cu51  1  0.99677362  0.74934499  0.50853557  1
  Cu+  Cu52  1  0.25096994  0.00539640  0.50256957  1
  Cu+  Cu53  1  0.24659486  0.50462825  0.50051673  1
  Cu+  Cu54  1  0.74721314  0.00400424  0.49988655  1
  Cu+  Cu55  1  0.74911700  0.50452618  0.50697549  1
  Cu+  Cu56  1  0.24400462  0.24143373  0.50157269  1
  Cu+  Cu57  1  0.24630065  0.74332520  0.50056144  1
  Cu+  Cu58  1  0.74576091  0.24408590  0.49995933  1
  Cu+  Cu59  1  0.75057702  0.74837500  0.50869753  1
  Cu+  Cu60  1  0.32890190  0.41879055  0.83722059  1
  Cu+  Cu61  1  0.33262741  0.91953929  0.84302498  1
  Cu+  Cu62  1  0.83080820  0.41498088  0.83950317  1
  Cu+  Cu63  1  0.83107728  0.91480739  0.83706386  1
  Cu+  Cu64  1  0.08543142  0.17343849  0.83794147  1
  Cu+  Cu65  1  0.08483714  0.67044881  0.84205995  1
  Cu+  Cu66  1  0.58635624  0.17082676  0.84001569  1
  Cu+  Cu67  1  0.58872245  0.67100434  0.83463007  1
  Cu+  Cu68  1  0.08605954  0.41792228  0.83921761  1
  Cu+  Cu69  1  0.08603929  0.91675071  0.84235274  1
  Cu+  Cu70  1  0.58667580  0.41676254  0.83746878  1
  Cu+  Cu71  1  0.58796922  0.91876213  0.83916341  1
  Cu+  Cu72  1  0.16627484  0.08419812  0.67521897  1
  Cu+  Cu73  1  0.16482417  0.58430337  0.67656615  1
  Cu+  Cu74  1  0.66539690  0.08360786  0.67511410  1
  Cu+  Cu75  1  0.66889816  0.58577601  0.68189129  1
  Cu+  Cu76  1  0.41295855  0.33037169  0.67184253  1
  Cu+  Cu77  1  0.41323819  0.83217782  0.67537917  1
  Cu+  Cu78  1  0.91489259  0.33142761  0.67368949  1
  Cu+  Cu79  1  0.91442162  0.83097515  0.68299918  1
  Cu+  Cu80  1  0.41461624  0.08520767  0.67591129  1
  Cu+  Cu81  1  0.41249229  0.58480214  0.67145643  1
  Cu+  Cu82  1  0.91565125  0.08488222  0.67233565  1
  Cu+  Cu83  1  0.91637457  0.58369135  0.67893354  1
  Cu+  Cu84  1  0.00200139  0.25395804  0.00744915  1
  Cu+  Cu85  1  0.00393398  0.75585990  0.01681458  1
  Cu+  Cu86  1  0.50357919  0.25470149  0.00737967  1
  Cu+  Cu87  1  0.50191662  0.75296821  0.00506374  1
  Cu+  Cu88  1  0.24609337  0.49702298  0.01144969  1
  Cu+  Cu89  1  0.24858816  0.99890066  0.01501741  1
  Cu+  Cu90  1  0.74879435  0.49770657  0.01280446  1
  Cu+  Cu91  1  0.74829153  0.99613659  0.01102627  1
  Cu+  Cu92  1  0.25080054  0.25611741  0.00620561  1
  Cu+  Cu93  1  0.25126218  0.75361204  0.01105234  1
  Cu+  Cu94  1  0.75028431  0.25276267  0.00969214  1
  Cu+  Cu95  1  0.75079318  0.75320118  0.00939588  1
  Cu+  Cu96  1  0.33732850  0.41711661  0.33888269  1
  Cu+  Cu97  1  0.33564593  0.91845312  0.34119171  1
  Cu+  Cu98  1  0.83517679  0.42175642  0.34338947  1
  Cu+  Cu99  1  0.83465995  0.91298039  0.34062918  1
  Cu+  Cu100  1  0.08158648  0.15885840  0.34153713  1
  Cu+  Cu101  1  0.08356087  0.66500296  0.34792501  1
  Cu+  Cu102  1  0.58521833  0.16402385  0.34327337  1
  Cu+  Cu103  1  0.58409185  0.66183022  0.33761737  1
  Cu+  Cu104  1  0.08473522  0.41918021  0.34749408  1
  Cu+  Cu105  1  0.08605705  0.91598364  0.34320599  1
  Cu+  Cu106  1  0.58591921  0.41935899  0.34032525  1
  Cu+  Cu107  1  0.58613559  0.91860695  0.34653017  1
  Cu+  Cu108  1  0.00468068  0.01003351  0.11354867  1
  Cu+  Cu109  1  0.00160021  0.50129603  0.11548750  1
  Cu+  Cu110  1  0.50383161  0.00549324  0.11394256  1
  Cu+  Cu111  1  0.50273166  0.50773237  0.11056027  1
  Cu+  Cu112  1  0.33670392  0.17210781  0.44484509  1
  Cu+  Cu113  1  0.33704352  0.66657543  0.44328935  1
  Cu+  Cu114  1  0.83460738  0.16820247  0.44073324  1
  Cu+  Cu115  1  0.83296173  0.66916861  0.45271667  1
  Cu+  Cu116  1  0.16567477  0.33458794  0.78093477  1
  Cu+  Cu117  1  0.17069255  0.83396167  0.78724734  1
  Cu+  Cu118  1  0.66572668  0.33111270  0.78175272  1
  Cu+  Cu119  1  0.66296070  0.83492424  0.77951287  1
  Te2-  Te120  1  -0.00147483  -0.00649375  0.38669817  1
  Te2-  Te121  1  -0.00175222  0.49865960  0.39118375  1
  Te2-  Te122  1  0.49905568  -0.00161329  0.38933327  1
  Te2-  Te123  1  0.50089285  0.49878476  0.38433648  1
  Te2-  Te124  1  0.33130877  0.16716723  0.71891790  1
  Te2-  Te125  1  0.33086841  0.66676782  0.71805564  1
  Te2-  Te126  1  0.83164538  0.16584312  0.71612969  1
  Te2-  Te127  1  0.83455869  0.66530507  0.72770115  1
  Te2-  Te128  1  0.16435284  0.33141043  0.05560222  1
  Te2-  Te129  1  0.16962469  0.83392847  0.06126169  1
  Te2-  Te130  1  0.66585503  0.33151382  0.05624438  1
  Te2-  Te131  1  0.66399687  0.83006584  0.05445639  1
  Te2-  Te132  1  0.49665672  0.24987045  0.88185498  1
  Te2-  Te133  1  0.49863990  0.74887307  0.87945001  1
  Te2-  Te134  1  0.99503800  0.25005910  0.88214130  1
  Te2-  Te135  1  0.99437417  0.74628513  0.88926585  1
  Te2-  Te136  1  0.25267776  0.00711711  0.88776674  1
  Te2-  Te137  1  0.25290530  0.50853885  0.88431374  1
  Te2-  Te138  1  0.75544813  0.00593478  0.88389981  1
  Te2-  Te139  1  0.75694959  0.50774821  0.88549243  1
  Te2-  Te140  1  0.25344874  0.25136192  0.88071467  1
  Te2-  Te141  1  0.25294695  0.75085236  0.88540185  1
  Te2-  Te142  1  0.75360838  0.24847800  0.88410626  1
  Te2-  Te143  1  0.75676850  0.74616876  0.88353706  1
  Te2-  Te144  1  0.32576256  0.40854927  0.21359920  1
  Te2-  Te145  1  0.33090454  0.91181964  0.21586275  1
  Te2-  Te146  1  0.82774433  0.41199731  0.21761420  1
  Te2-  Te147  1  0.82651871  0.90525195  0.21497801  1
  Te2-  Te148  1  0.08317654  0.16514993  0.21399960  1
  Te2-  Te149  1  0.08902475  0.67103614  0.21954312  1
  Te2-  Te150  1  0.58875460  0.16916441  0.21584761  1
  Te2-  Te151  1  0.58462300  0.66694134  0.21133022  1
  Te2-  Te152  1  0.08594229  0.41146599  0.21972419  1
  Te2-  Te153  1  0.09184276  0.91054753  0.21740089  1
  Te2-  Te154  1  0.58730994  0.40901262  0.21505878  1
  Te2-  Te155  1  0.58813449  0.90933469  0.21891104  1
  Te2-  Te156  1  0.15464177  0.07436675  0.54927885  1
  Te2-  Te157  1  0.15131849  0.57655384  0.55002239  1
  Te2-  Te158  1  0.65359580  0.07748395  0.54873896  1
  Te2-  Te159  1  0.66052120  0.58142724  0.55442601  1
  Te2-  Te160  1  0.41380415  0.33450081  0.54522279  1
  Te2-  Te161  1  0.41300184  0.83858612  0.54869855  1
  Te2-  Te162  1  0.91410479  0.33632256  0.54687438  1
  Te2-  Te163  1  0.91819251  0.83747071  0.55483976  1
  Te2-  Te164  1  0.41619157  0.07698190  0.54988128  1
  Te2-  Te165  1  0.41417979  0.58079811  0.54548447  1
  Te2-  Te166  1  0.91477047  0.07551554  0.54626428  1
  Te2-  Te167  1  0.91579632  0.57755377  0.55297507  1
  Te2-  Te168  1  0.00111195  0.00443937  0.88336478  1
  Te2-  Te169  1  0.00030729  0.50055370  0.88437263  1
  Te2-  Te170  1  0.50292106  0.00226144  0.88446665  1
  Te2-  Te171  1  0.49992700  0.50164092  0.88072006  1
  Te2-  Te172  1  0.33655206  0.17008692  0.21476376  1
  Te2-  Te173  1  0.33685939  0.66901063  0.21613833  1
  Te2-  Te174  1  0.83574124  0.16776597  0.21779267  1
  Te2-  Te175  1  0.83371577  0.66854547  0.21653372  1
  Te2-  Te176  1  0.16582094  0.33419636  0.54721672  1
  Te2-  Te177  1  0.16849172  0.83513231  0.54883795  1
  Te2-  Te178  1  0.66596828  0.33348841  0.54888573  1
  Te2-  Te179  1  0.66509327  0.83477396  0.54917119  1
  Te2-  Te180  1  0.32817258  0.41563426  0.71009817  1
  Te2-  Te181  1  0.32750119  0.91569539  0.71506526  1
  Te2-  Te182  1  0.82704700  0.41292862  0.71287749  1
  Te2-  Te183  1  0.82563665  0.91584554  0.71049881  1
  Te2-  Te184  1  0.08424429  0.17209767  0.71112056  1
  Te2-  Te185  1  0.08583872  0.67407882  0.71520516  1
  Te2-  Te186  1  0.58483188  0.17236287  0.71250285  1
  Te2-  Te187  1  0.58300625  0.67429043  0.70786476  1
  Te2-  Te188  1  0.08417633  0.41420569  0.71204030  1
  Te2-  Te189  1  0.08762966  0.91494161  0.71451312  1
  Te2-  Te190  1  0.58347876  0.41137827  0.70967218  1
  Te2-  Te191  1  0.58362766  0.91425504  0.71150089  1
  Te2-  Te192  1  0.16187300  0.08564578  0.04234254  1
  Te2-  Te193  1  0.16014693  0.58299003  0.04502969  1
  Te2-  Te194  1  0.66174826  0.08194393  0.04432781  1
  Te2-  Te195  1  0.66180877  0.58299417  0.04213939  1
  Te2-  Te196  1  0.42069662  0.34174587  0.04248160  1
  Te2-  Te197  1  0.42171145  0.84078665  0.04459730  1
  Te2-  Te198  1  0.91954004  0.33970191  0.04677693  1
  Te2-  Te199  1  0.91986014  0.84420326  0.04349645  1
  Te2-  Te200  1  0.42286923  0.08410052  0.04350517  1
  Te2-  Te201  1  0.41987137  0.58286036  0.04117520  1
  Te2-  Te202  1  0.92095187  0.08322195  0.04353403  1
  Te2-  Te203  1  0.92181568  0.58137238  0.04419207  1
  Te2-  Te204  1  0.49619105  0.24808019  0.37541441  1
  Te2-  Te205  1  0.49636112  0.74470242  0.37506863  1
  Te2-  Te206  1  0.99354885  0.24432088  0.37212227  1
  Te2-  Te207  1  0.99327057  0.74678769  0.38014619  1
  Te2-  Te208  1  0.25538318  0.00707912  0.37748942  1
  Te2-  Te209  1  0.25701727  0.50623608  0.37442696  1
  Te2-  Te210  1  0.75859481  0.00710236  0.37406688  1
  Te2-  Te211  1  0.75341561  0.50821778  0.38069714  1
  Te2-  Te212  1  0.25354864  0.24680160  0.37428781  1
  Te2-  Te213  1  0.25682718  0.74823089  0.37488957  1
  Te2-  Te214  1  0.75715223  0.25023577  0.37398318  1
  Te2-  Te215  1  0.75142510  0.74497935  0.38074730  1
