# generated using pymatgen
data_Ti(CuTe)4
_symmetry_space_group_name_H-M   'P 1'
_cell_length_a   16.88839066
_cell_length_b   16.88509932
_cell_length_c   20.71168703
_cell_angle_alpha   90.00887484
_cell_angle_beta   89.95333784
_cell_angle_gamma   119.99047584
_symmetry_Int_Tables_number   1
_chemical_formula_structural   Ti(CuTe)4
_chemical_formula_sum   'Ti24 Cu96 Te96'
_cell_volume   5115.39885898
_cell_formula_units_Z   24
loop_
 _symmetry_equiv_pos_site_id
 _symmetry_equiv_pos_as_xyz
  1  'x, y, z'
loop_
 _atom_type_symbol
 _atom_type_oxidation_number
  Ti4+  4.0
  Cu+  1.0
  Te2-  -2.0
loop_
 _atom_site_type_symbol
 _atom_site_label
 _atom_site_symmetry_multiplicity
 _atom_site_fract_x
 _atom_site_fract_y
 _atom_site_fract_z
 _atom_site_occupancy
  Ti4+  Ti0  1  0.00113460  0.00208118  0.25788268  1
  Ti4+  Ti1  1  0.00156279  0.50248801  0.25754164  1
  Ti4+  Ti2  1  0.49793512  0.00022367  0.25708542  1
  Ti4+  Ti3  1  0.50195502  0.49974685  0.26016008  1
  Ti4+  Ti4  1  0.33507830  0.16579021  0.59198533  1
  Ti4+  Ti5  1  0.33239855  0.66666685  0.59193656  1
  Ti4+  Ti6  1  0.83664632  0.16997394  0.58760277  1
  Ti4+  Ti7  1  0.83147973  0.66778746  0.59214690  1
  Ti4+  Ti8  1  0.16665740  0.33305091  0.92537976  1
  Ti4+  Ti9  1  0.16714297  0.83118708  0.92342712  1
  Ti4+  Ti10  1  0.66354777  0.33095099  0.92410333  1
  Ti4+  Ti11  1  0.66697579  0.83039647  0.92153734  1
  Ti4+  Ti12  1  -0.00113640  -0.00061086  0.75428689  1
  Ti4+  Ti13  1  0.00034453  0.50041077  0.75569694  1
  Ti4+  Ti14  1  0.49924320  0.00030619  0.75471835  1
  Ti4+  Ti15  1  0.49947187  0.50053392  0.75408709  1
  Ti4+  Ti16  1  0.33427796  0.16562678  0.08898168  1
  Ti4+  Ti17  1  0.33106727  0.66700164  0.09077863  1
  Ti4+  Ti18  1  0.83485023  0.16584060  0.08800200  1
  Ti4+  Ti19  1  0.83113575  0.66560594  0.09027986  1
  Ti4+  Ti20  1  0.16444427  0.33505083  0.42193853  1
  Ti4+  Ti21  1  0.16899760  0.83585078  0.42459746  1
  Ti4+  Ti22  1  0.66580165  0.33319945  0.42224982  1
  Ti4+  Ti23  1  0.66742959  0.83266340  0.42172993  1
  Cu+  Cu24  1  0.02462532  0.26225493  0.14182976  1
  Cu+  Cu25  1  0.18468744  0.58642227  0.80948363  1
  Cu+  Cu26  1  0.40375792  0.09264618  0.80775477  1
  Cu+  Cu27  1  0.68109054  0.58541566  0.80974386  1
  Cu+  Cu28  1  0.35975202  0.92901123  0.47530209  1
  Cu+  Cu29  1  0.52338797  0.26226803  0.14174061  1
  Cu+  Cu30  1  0.85581599  0.92650365  0.47236632  1
  Cu+  Cu31  1  0.23536087  0.76279720  0.14215264  1
  Cu+  Cu32  1  0.41211480  0.81722539  0.80984024  1
  Cu+  Cu33  1  0.91104163  0.81425076  0.80882839  1
  Cu+  Cu34  1  0.57197460  0.64512344  0.47654305  1
  Cu+  Cu35  1  0.07048435  0.43143820  0.47280643  1
  Cu+  Cu36  1  0.16279380  0.08118655  0.17084725  1
  Cu+  Cu37  1  0.16254311  0.58721713  0.17160281  1
  Cu+  Cu38  1  0.66334474  0.08077731  0.16967669  1
  Cu+  Cu39  1  0.66249740  0.58219441  0.17331640  1
  Cu+  Cu40  1  0.42260163  0.33518542  0.17208570  1
  Cu+  Cu41  1  0.40960044  0.83568064  0.17136447  1
  Cu+  Cu42  1  0.92314420  0.33495239  0.17064421  1
  Cu+  Cu43  1  0.91720226  0.83589957  0.17286351  1
  Cu+  Cu44  1  0.42068890  0.08391841  0.17005433  1
  Cu+  Cu45  1  0.41946675  0.58415923  0.17561121  1
  Cu+  Cu46  1  0.92276736  0.08596766  0.17082679  1
  Cu+  Cu47  1  0.91735393  0.58306169  0.17215350  1
  Cu+  Cu48  1  0.49643863  0.24659115  0.50518754  1
  Cu+  Cu49  1  0.49657143  0.74489215  0.50411820  1
  Cu+  Cu50  1  0.99604016  0.25548347  0.50078595  1
  Cu+  Cu51  1  0.99760173  0.75202843  0.50678821  1
  Cu+  Cu52  1  0.25873445  0.00303693  0.50620095  1
  Cu+  Cu53  1  0.24396246  0.50267224  0.50356913  1
  Cu+  Cu54  1  0.75811935  0.00346037  0.50168585  1
  Cu+  Cu55  1  0.74844603  0.50192871  0.50523485  1
  Cu+  Cu56  1  0.25002900  0.24876348  0.50654123  1
  Cu+  Cu57  1  0.25592945  0.75347859  0.50640446  1
  Cu+  Cu58  1  0.75253404  0.24986466  0.50245073  1
  Cu+  Cu59  1  0.75094935  0.74852028  0.50433256  1
  Cu+  Cu60  1  0.32860872  0.41369659  0.83751812  1
  Cu+  Cu61  1  0.33088313  0.91429385  0.83574151  1
  Cu+  Cu62  1  0.82899364  0.41336074  0.83780341  1
  Cu+  Cu63  1  0.83008751  0.90960936  0.83421258  1
  Cu+  Cu64  1  0.08287017  0.16906817  0.83868553  1
  Cu+  Cu65  1  0.08950245  0.66784395  0.83576646  1
  Cu+  Cu66  1  0.57795215  0.16858267  0.83710101  1
  Cu+  Cu67  1  0.58850793  0.66978179  0.83349133  1
  Cu+  Cu68  1  0.08646566  0.41533239  0.83961280  1
  Cu+  Cu69  1  0.08276588  0.91160540  0.83665294  1
  Cu+  Cu70  1  0.58418787  0.41289366  0.83700465  1
  Cu+  Cu71  1  0.58409072  0.91185980  0.83610025  1
  Cu+  Cu72  1  0.16983089  0.08481460  0.67426376  1
  Cu+  Cu73  1  0.16800318  0.58474025  0.68024211  1
  Cu+  Cu74  1  0.67337644  0.08824823  0.67050349  1
  Cu+  Cu75  1  0.66694007  0.58585025  0.67983572  1
  Cu+  Cu76  1  0.41522182  0.33060583  0.67521219  1
  Cu+  Cu77  1  0.41586134  0.83155618  0.67998141  1
  Cu+  Cu78  1  0.91718465  0.33349394  0.67403634  1
  Cu+  Cu79  1  0.91253622  0.83145508  0.67988240  1
  Cu+  Cu80  1  0.41605105  0.08569083  0.67967981  1
  Cu+  Cu81  1  0.41287127  0.58142886  0.67480251  1
  Cu+  Cu82  1  0.91813653  0.08793725  0.67094110  1
  Cu+  Cu83  1  0.91343561  0.58389850  0.67550255  1
  Cu+  Cu84  1  0.00442238  0.25111068  0.01212309  1
  Cu+  Cu85  1  -0.00064937  0.74848732  0.00879390  1
  Cu+  Cu86  1  0.50185410  0.24948073  0.01245352  1
  Cu+  Cu87  1  0.50230864  0.74983850  0.00716430  1
  Cu+  Cu88  1  0.24803431  0.49798489  0.01106269  1
  Cu+  Cu89  1  0.24940973  0.99734587  0.00861165  1
  Cu+  Cu90  1  0.74483511  0.49689325  0.01054165  1
  Cu+  Cu91  1  0.74955020  0.99497611  0.00502837  1
  Cu+  Cu92  1  0.24813865  0.24930590  0.00864088  1
  Cu+  Cu93  1  0.24830659  0.74983255  0.01312899  1
  Cu+  Cu94  1  0.74695303  0.24814245  0.00652091  1
  Cu+  Cu95  1  0.74825270  0.74806501  0.00857287  1
  Cu+  Cu96  1  0.33706559  0.41885206  0.34249303  1
  Cu+  Cu97  1  0.33633133  0.91934529  0.34620899  1
  Cu+  Cu98  1  0.83568474  0.41844514  0.34054444  1
  Cu+  Cu99  1  0.83799102  0.91919530  0.34345084  1
  Cu+  Cu100  1  0.08123157  0.16674250  0.34242601  1
  Cu+  Cu101  1  0.08405530  0.66846770  0.34400560  1
  Cu+  Cu102  1  0.58057946  0.16574935  0.34185531  1
  Cu+  Cu103  1  0.58247344  0.66239829  0.34794219  1
  Cu+  Cu104  1  0.08205762  0.42044963  0.34434890  1
  Cu+  Cu105  1  0.08299543  0.91981014  0.34239266  1
  Cu+  Cu106  1  0.58219388  0.41655688  0.34372296  1
  Cu+  Cu107  1  0.57951572  0.91632415  0.33899499  1
  Cu+  Cu108  1  -0.00132975  -0.00325776  0.11467072  1
  Cu+  Cu109  1  -0.00763464  0.49608910  0.11478813  1
  Cu+  Cu110  1  0.50293350  -0.00193227  0.11314173  1
  Cu+  Cu111  1  0.49462278  0.49958966  0.11799454  1
  Cu+  Cu112  1  0.32987851  0.16856067  0.44997550  1
  Cu+  Cu113  1  0.33373280  0.66699218  0.44777020  1
  Cu+  Cu114  1  0.82815676  0.16377053  0.44353244  1
  Cu+  Cu115  1  0.83665177  0.66460566  0.44952099  1
  Cu+  Cu116  1  0.16547212  0.32973548  0.78186679  1
  Cu+  Cu117  1  0.16515443  0.83256512  0.77926726  1
  Cu+  Cu118  1  0.66894279  0.33139734  0.78024247  1
  Cu+  Cu119  1  0.66739520  0.83640058  0.77659137  1
  Te2-  Te120  1  0.00327344  0.00330652  0.38871232  1
  Te2-  Te121  1  -0.00111322  0.50382234  0.38796854  1
  Te2-  Te122  1  0.50320108  0.00194149  0.38782605  1
  Te2-  Te123  1  0.49907342  0.49643910  0.39114839  1
  Te2-  Te124  1  0.33199822  0.16783755  0.72298856  1
  Te2-  Te125  1  0.33432852  0.66531457  0.72373597  1
  Te2-  Te126  1  0.83602562  0.16892854  0.71682517  1
  Te2-  Te127  1  0.83274074  0.66527358  0.72444173  1
  Te2-  Te128  1  0.17001218  0.33416674  0.05610860  1
  Te2-  Te129  1  0.16400105  0.83327908  0.05338774  1
  Te2-  Te130  1  0.66835995  0.33237441  0.05445011  1
  Te2-  Te131  1  0.66676613  0.83166251  0.05030072  1
  Te2-  Te132  1  0.48919612  0.24738631  0.88517979  1
  Te2-  Te133  1  0.49334121  0.74096395  0.88142181  1
  Te2-  Te134  1  0.99532700  0.24832971  0.88486356  1
  Te2-  Te135  1  0.99497920  0.74126508  0.88252319  1
  Te2-  Te136  1  0.25012579  0.00357746  0.88234348  1
  Te2-  Te137  1  0.25697628  0.50762985  0.88520405  1
  Te2-  Te138  1  0.75242012  0.00045748  0.87881209  1
  Te2-  Te139  1  0.75367737  0.50479946  0.88440285  1
  Te2-  Te140  1  0.25116381  0.24634773  0.88277070  1
  Te2-  Te141  1  0.25668980  0.74469018  0.88503861  1
  Te2-  Te142  1  0.74709430  0.24454367  0.88048447  1
  Te2-  Te143  1  0.75582471  0.74153798  0.88263791  1
  Te2-  Te144  1  0.33192287  0.41384244  0.21626966  1
  Te2-  Te145  1  0.32373955  0.91766282  0.21878032  1
  Te2-  Te146  1  0.83222114  0.41387018  0.21428652  1
  Te2-  Te147  1  0.83054022  0.91767099  0.21639535  1
  Te2-  Te148  1  0.09152240  0.17650992  0.21688024  1
  Te2-  Te149  1  0.08432695  0.67725069  0.21814381  1
  Te2-  Te150  1  0.58914030  0.17380533  0.21595556  1
  Te2-  Te151  1  0.58673773  0.67207039  0.22100724  1
  Te2-  Te152  1  0.09194356  0.41939706  0.21731278  1
  Te2-  Te153  1  0.08553794  0.91472762  0.21663232  1
  Te2-  Te154  1  0.59138499  0.41524305  0.21809588  1
  Te2-  Te155  1  0.57972278  0.91227454  0.21312876  1
  Te2-  Te156  1  0.16483259  0.07929420  0.54845871  1
  Te2-  Te157  1  0.15953198  0.58524698  0.55240609  1
  Te2-  Te158  1  0.66597194  0.08092126  0.54471020  1
  Te2-  Te159  1  0.65839032  0.57899773  0.55220659  1
  Te2-  Te160  1  0.41887381  0.33687887  0.54961966  1
  Te2-  Te161  1  0.42465340  0.83985891  0.55219327  1
  Te2-  Te162  1  0.91888351  0.34543558  0.54869839  1
  Te2-  Te163  1  0.91972525  0.84130468  0.55256004  1
  Te2-  Te164  1  0.42609520  0.08143805  0.55308963  1
  Te2-  Te165  1  0.41278423  0.57502300  0.54881281  1
  Te2-  Te166  1  0.92749802  0.08706316  0.54555435  1
  Te2-  Te167  1  0.91680873  0.58311115  0.54952962  1
  Te2-  Te168  1  -0.00086353  -0.00150073  0.88117857  1
  Te2-  Te169  1  -0.00177990  0.49840173  0.88259029  1
  Te2-  Te170  1  0.50104527  -0.00153296  0.88215407  1
  Te2-  Te171  1  0.49927818  0.49951941  0.88090327  1
  Te2-  Te172  1  0.33228339  0.16510376  0.21570152  1
  Te2-  Te173  1  0.33238176  0.66705421  0.21752063  1
  Te2-  Te174  1  0.83216700  0.16539110  0.21485053  1
  Te2-  Te175  1  0.83263494  0.66708216  0.21636562  1
  Te2-  Te176  1  0.16461951  0.33325225  0.54879535  1
  Te2-  Te177  1  0.16650885  0.83376785  0.55136979  1
  Te2-  Te178  1  0.66656339  0.33244856  0.54817688  1
  Te2-  Te179  1  0.66638153  0.83475722  0.54908590  1
  Te2-  Te180  1  0.32636127  0.41202161  0.71127944  1
  Te2-  Te181  1  0.32485983  0.91284161  0.70874751  1
  Te2-  Te182  1  0.82843469  0.41433613  0.71124504  1
  Te2-  Te183  1  0.82699552  0.91833261  0.70757029  1
  Te2-  Te184  1  0.08631590  0.17140505  0.71136383  1
  Te2-  Te185  1  0.08380482  0.67343053  0.70940492  1
  Te2-  Te186  1  0.58890764  0.17294075  0.70984950  1
  Te2-  Te187  1  0.58297924  0.67449922  0.70759007  1
  Te2-  Te188  1  0.08591496  0.41259288  0.71199925  1
  Te2-  Te189  1  0.08635331  0.91418973  0.70937654  1
  Te2-  Te190  1  0.58538629  0.41249376  0.71034068  1
  Te2-  Te191  1  0.58919413  0.91832076  0.70841113  1
  Te2-  Te192  1  0.16162763  0.07960579  0.04482387  1
  Te2-  Te193  1  0.15794327  0.57786307  0.04540413  1
  Te2-  Te194  1  0.66325164  0.07859642  0.04300599  1
  Te2-  Te195  1  0.65832792  0.57943090  0.04727169  1
  Te2-  Te196  1  0.41837910  0.33873059  0.04476074  1
  Te2-  Te197  1  0.42077057  0.83835418  0.04376942  1
  Te2-  Te198  1  0.91772668  0.33785642  0.04267275  1
  Te2-  Te199  1  0.91807715  0.83696978  0.04539468  1
  Te2-  Te200  1  0.41891036  0.07685084  0.04358030  1
  Te2-  Te201  1  0.41807187  0.58159162  0.04802273  1
  Te2-  Te202  1  0.91912311  0.07790827  0.04326667  1
  Te2-  Te203  1  0.91600564  0.57887483  0.04536706  1
  Te2-  Te204  1  0.49284702  0.24673120  0.37927801  1
  Te2-  Te205  1  0.49396040  0.74765246  0.37720623  1
  Te2-  Te206  1  0.99199178  0.24767306  0.37475701  1
  Te2-  Te207  1  0.99681259  0.75091263  0.38039705  1
  Te2-  Te208  1  0.25272519  0.00790031  0.37906168  1
  Te2-  Te209  1  0.25462833  0.50754628  0.37670156  1
  Te2-  Te210  1  0.75012802  0.00416904  0.37422595  1
  Te2-  Te211  1  0.75282001  0.50545842  0.37858939  1
  Te2-  Te212  1  0.25113184  0.24900724  0.37943448  1
  Te2-  Te213  1  0.25346513  0.74755612  0.37934637  1
  Te2-  Te214  1  0.75172127  0.24822285  0.37595411  1
  Te2-  Te215  1  0.75599167  0.74718292  0.37704068  1
