# generated using pymatgen
data_Ti(CuTe)4
_symmetry_space_group_name_H-M   'P 1'
_cell_length_a   16.87113408
_cell_length_b   16.86915202
_cell_length_c   20.68049302
_cell_angle_alpha   89.99820533
_cell_angle_beta   89.99882741
_cell_angle_gamma   119.99883680
_symmetry_Int_Tables_number   1
_chemical_formula_structural   Ti(CuTe)4
_chemical_formula_sum   'Ti24 Cu96 Te96'
_cell_volume   5097.22892083
_cell_formula_units_Z   24
loop_
 _symmetry_equiv_pos_site_id
 _symmetry_equiv_pos_as_xyz
  1  'x, y, z'
loop_
 _atom_type_symbol
 _atom_type_oxidation_number
  Ti4+  4.0
  Cu+  1.0
  Te2-  -2.0
loop_
 _atom_site_type_symbol
 _atom_site_label
 _atom_site_symmetry_multiplicity
 _atom_site_fract_x
 _atom_site_fract_y
 _atom_site_fract_z
 _atom_site_occupancy
  Ti4+  Ti0  1  -0.00295355  -0.00086958  0.25811016  1
  Ti4+  Ti1  1  -0.00120308  0.50300326  0.25819734  1
  Ti4+  Ti2  1  0.49868603  -0.00042105  0.26130881  1
  Ti4+  Ti3  1  0.50046826  0.49985252  0.25435418  1
  Ti4+  Ti4  1  0.33144259  0.16367275  0.59283827  1
  Ti4+  Ti5  1  0.33540361  0.66961385  0.59141368  1
  Ti4+  Ti6  1  0.83466096  0.16875667  0.59107217  1
  Ti4+  Ti7  1  0.83658874  0.66782069  0.58886043  1
  Ti4+  Ti8  1  0.16362369  0.32980600  0.92269381  1
  Ti4+  Ti9  1  0.17075595  0.83616471  0.92804573  1
  Ti4+  Ti10  1  0.66718871  0.33078944  0.92501035  1
  Ti4+  Ti11  1  0.66422360  0.83056526  0.92386158  1
  Ti4+  Ti12  1  0.00199467  0.00152830  0.75547432  1
  Ti4+  Ti13  1  -0.00062122  0.49870701  0.75833799  1
  Ti4+  Ti14  1  0.49891996  -0.00172056  0.75475009  1
  Ti4+  Ti15  1  0.50184697  0.50119876  0.75391184  1
  Ti4+  Ti16  1  0.33345456  0.16510575  0.08977261  1
  Ti4+  Ti17  1  0.33242439  0.66790181  0.08896623  1
  Ti4+  Ti18  1  0.83312426  0.16615847  0.08981577  1
  Ti4+  Ti19  1  0.83198958  0.66525394  0.08646729  1
  Ti4+  Ti20  1  0.16518165  0.33309979  0.42163967  1
  Ti4+  Ti21  1  0.16637938  0.83527648  0.42145532  1
  Ti4+  Ti22  1  0.66874073  0.33395782  0.42230309  1
  Ti4+  Ti23  1  0.66563990  0.83273128  0.42156855  1
  Cu+  Cu24  1  0.73994293  0.76023214  0.14028220  1
  Cu+  Cu25  1  0.40263224  0.80860298  0.80747103  1
  Cu+  Cu26  1  0.00860376  0.75831279  0.14775507  1
  Cu+  Cu27  1  0.90119805  0.30464710  0.80639618  1
  Cu+  Cu28  1  0.18487265  0.09468103  0.81041610  1
  Cu+  Cu29  1  0.07438379  0.92896801  0.47426041  1
  Cu+  Cu30  1  0.41299804  0.09224523  0.81157960  1
  Cu+  Cu31  1  0.24458905  0.76497848  0.14621206  1
  Cu+  Cu32  1  0.08540791  0.66153135  0.48218222  1
  Cu+  Cu33  1  0.35294642  0.92808619  0.47790049  1
  Cu+  Cu34  1  0.73986659  0.47905277  0.14006202  1
  Cu+  Cu35  1  0.85532316  0.42445354  0.47501988  1
  Cu+  Cu36  1  0.16470113  0.08267196  0.17217529  1
  Cu+  Cu37  1  0.16560331  0.58870178  0.17037709  1
  Cu+  Cu38  1  0.66497294  0.08201875  0.17432996  1
  Cu+  Cu39  1  0.66009837  0.57933213  0.16477324  1
  Cu+  Cu40  1  0.41661246  0.33504002  0.16942648  1
  Cu+  Cu41  1  0.41578106  0.83748093  0.17356927  1
  Cu+  Cu42  1  0.91542043  0.33606825  0.17182636  1
  Cu+  Cu43  1  0.91645789  0.84075114  0.16855184  1
  Cu+  Cu44  1  0.41827577  0.08172474  0.17426481  1
  Cu+  Cu45  1  0.41713442  0.58055783  0.16848931  1
  Cu+  Cu46  1  0.91638874  0.08221725  0.17120474  1
  Cu+  Cu47  1  0.91765431  0.57956739  0.16783771  1
  Cu+  Cu48  1  0.49826598  0.24706376  0.50560904  1
  Cu+  Cu49  1  0.49888387  0.75098203  0.50420813  1
  Cu+  Cu50  1  0.99685845  0.25029391  0.50364349  1
  Cu+  Cu51  1  0.99417754  0.74980393  0.49934367  1
  Cu+  Cu52  1  0.25264436  0.00586153  0.50346806  1
  Cu+  Cu53  1  0.25170008  0.50130286  0.50398778  1
  Cu+  Cu54  1  0.75148503  0.00256430  0.50559508  1
  Cu+  Cu55  1  0.75674917  0.50173892  0.50213535  1
  Cu+  Cu56  1  0.24739444  0.24658497  0.50512116  1
  Cu+  Cu57  1  0.25978649  0.75116498  0.50256658  1
  Cu+  Cu58  1  0.75608446  0.25189069  0.50454727  1
  Cu+  Cu59  1  0.75133561  0.74850008  0.50248381  1
  Cu+  Cu60  1  0.33136865  0.41576930  0.83539965  1
  Cu+  Cu61  1  0.33105858  0.91335955  0.83717105  1
  Cu+  Cu62  1  0.83206806  0.40973808  0.83997620  1
  Cu+  Cu63  1  0.82987154  0.91464664  0.83812068  1
  Cu+  Cu64  1  0.08751706  0.17188311  0.83491322  1
  Cu+  Cu65  1  0.08652138  0.67025959  0.84267302  1
  Cu+  Cu66  1  0.58602850  0.17235473  0.83525650  1
  Cu+  Cu67  1  0.58684397  0.67028661  0.83665440  1
  Cu+  Cu68  1  0.07671124  0.40780460  0.83770987  1
  Cu+  Cu69  1  0.08723978  0.91884952  0.83981322  1
  Cu+  Cu70  1  0.58579316  0.41659647  0.83744085  1
  Cu+  Cu71  1  0.57896946  0.90810227  0.83564399  1
  Cu+  Cu72  1  0.16879203  0.08198357  0.68151730  1
  Cu+  Cu73  1  0.16869139  0.58723959  0.67602387  1
  Cu+  Cu74  1  0.66862928  0.08494568  0.67345529  1
  Cu+  Cu75  1  0.67094122  0.58474738  0.67135127  1
  Cu+  Cu76  1  0.41722980  0.33187703  0.67411808  1
  Cu+  Cu77  1  0.41545431  0.83040787  0.67931436  1
  Cu+  Cu78  1  0.91328292  0.33003663  0.67974290  1
  Cu+  Cu79  1  0.91668733  0.83171480  0.67339796  1
  Cu+  Cu80  1  0.41403820  0.08171279  0.68175182  1
  Cu+  Cu81  1  0.41947167  0.58747988  0.67404475  1
  Cu+  Cu82  1  0.91635293  0.08467456  0.67360199  1
  Cu+  Cu83  1  0.91908705  0.58631328  0.67630334  1
  Cu+  Cu84  1  0.00014313  0.24904504  0.00785875  1
  Cu+  Cu85  1  0.00369402  0.75139396  0.01600007  1
  Cu+  Cu86  1  0.50158591  0.24814164  0.00927424  1
  Cu+  Cu87  1  0.49985168  0.75001538  0.00796730  1
  Cu+  Cu88  1  0.24542265  0.49465453  0.00502457  1
  Cu+  Cu89  1  0.25294587  1.00067034  0.01226661  1
  Cu+  Cu90  1  0.74912179  0.49403188  0.01071265  1
  Cu+  Cu91  1  0.74735831  0.99551193  0.00628699  1
  Cu+  Cu92  1  0.24677424  0.24792908  0.00751537  1
  Cu+  Cu93  1  0.25013659  0.75265749  0.01671056  1
  Cu+  Cu94  1  0.74989008  0.24904165  0.00941297  1
  Cu+  Cu95  1  0.74734717  0.75083251  0.01055027  1
  Cu+  Cu96  1  0.33454970  0.41633462  0.33883947  1
  Cu+  Cu97  1  0.33590517  0.91920025  0.34983353  1
  Cu+  Cu98  1  0.83583508  0.41919339  0.34675835  1
  Cu+  Cu99  1  0.83326941  0.91649893  0.34170280  1
  Cu+  Cu100  1  0.08071573  0.16558255  0.34102612  1
  Cu+  Cu101  1  0.08165861  0.66715741  0.34977367  1
  Cu+  Cu102  1  0.58222572  0.16428999  0.34378395  1
  Cu+  Cu103  1  0.58116642  0.66406588  0.33817531  1
  Cu+  Cu104  1  0.08247317  0.41829272  0.34000114  1
  Cu+  Cu105  1  0.08053754  0.91977547  0.34612481  1
  Cu+  Cu106  1  0.58072633  0.41653407  0.33909240  1
  Cu+  Cu107  1  0.57947449  0.91676985  0.34307143  1
  Cu+  Cu108  1  0.00405150  0.00882768  0.11483117  1
  Cu+  Cu109  1  0.00377168  0.49562005  0.11450358  1
  Cu+  Cu110  1  0.50500352  0.00309260  0.11848631  1
  Cu+  Cu111  1  0.49332501  0.49582291  0.10924135  1
  Cu+  Cu112  1  0.33730566  0.17595824  0.44951684  1
  Cu+  Cu113  1  0.33733010  0.65984214  0.44795887  1
  Cu+  Cu114  1  0.83326626  0.16274488  0.44754022  1
  Cu+  Cu115  1  0.82392127  0.66281027  0.44432017  1
  Cu+  Cu116  1  0.17140704  0.34101961  0.77798390  1
  Cu+  Cu117  1  0.16188455  0.83048958  0.78474720  1
  Cu+  Cu118  1  0.67019600  0.34079845  0.78173100  1
  Cu+  Cu119  1  0.67013655  0.83456516  0.78007050  1
  Te2-  Te120  1  -0.00325980  0.00232809  0.38857957  1
  Te2-  Te121  1  0.00236431  0.50048128  0.38976982  1
  Te2-  Te122  1  0.50229143  0.00173913  0.39212273  1
  Te2-  Te123  1  0.49923581  0.49965619  0.38321424  1
  Te2-  Te124  1  0.33540364  0.16925858  0.72477580  1
  Te2-  Te125  1  0.33254557  0.66383993  0.72184423  1
  Te2-  Te126  1  0.83117491  0.16241905  0.72144749  1
  Te2-  Te127  1  0.83457503  0.66736525  0.71768425  1
  Te2-  Te128  1  0.16504220  0.33110878  0.05150024  1
  Te2-  Te129  1  0.16879983  0.83725709  0.06019004  1
  Te2-  Te130  1  0.66570343  0.32867284  0.05549213  1
  Te2-  Te131  1  0.66359061  0.83281288  0.05447697  1
  Te2-  Te132  1  0.49422080  0.24877193  0.88324631  1
  Te2-  Te133  1  0.49011306  0.74060359  0.88222800  1
  Te2-  Te134  1  0.98929804  0.23893824  0.88207145  1
  Te2-  Te135  1  1.00005439  0.75183969  0.88778497  1
  Te2-  Te136  1  0.25768514  0.01006445  0.88560791  1
  Te2-  Te137  1  0.24690670  0.49997352  0.87886609  1
  Te2-  Te138  1  0.74721032  0.00112480  0.88038984  1
  Te2-  Te139  1  0.75395671  0.50119130  0.88302733  1
  Te2-  Te140  1  0.25641433  0.24892767  0.88181672  1
  Te2-  Te141  1  0.25395533  0.74632344  0.88837996  1
  Te2-  Te142  1  0.75005952  0.23983265  0.88370510  1
  Te2-  Te143  1  0.75315967  0.74754821  0.88328442  1
  Te2-  Te144  1  0.32832720  0.41398706  0.21316536  1
  Te2-  Te145  1  0.32467133  0.91609069  0.22205443  1
  Te2-  Te146  1  0.82552515  0.41276146  0.21879956  1
  Te2-  Te147  1  0.82361860  0.91497922  0.21591062  1
  Te2-  Te148  1  0.08371045  0.16985106  0.21523742  1
  Te2-  Te149  1  0.08623563  0.67814775  0.21962059  1
  Te2-  Te150  1  0.58565816  0.17046594  0.21813345  1
  Te2-  Te151  1  0.58481789  0.67334273  0.21224540  1
  Te2-  Te152  1  0.08482340  0.41967130  0.21414628  1
  Te2-  Te153  1  0.08630958  0.91515296  0.21828354  1
  Te2-  Te154  1  0.58485800  0.41052662  0.21305883  1
  Te2-  Te155  1  0.58304568  0.91352810  0.21726132  1
  Te2-  Te156  1  0.15849624  0.07951870  0.55308776  1
  Te2-  Te157  1  0.16268773  0.58070988  0.54982549  1
  Te2-  Te158  1  0.66393045  0.08387630  0.54797480  1
  Te2-  Te159  1  0.66618817  0.57997385  0.54537430  1
  Te2-  Te160  1  0.41616653  0.33326533  0.54839874  1
  Te2-  Te161  1  0.42550234  0.84389542  0.55202118  1
  Te2-  Te162  1  0.92461530  0.34317856  0.55241073  1
  Te2-  Te163  1  0.91884611  0.84153988  0.54775488  1
  Te2-  Te164  1  0.42118607  0.08035357  0.55345823  1
  Te2-  Te165  1  0.41959098  0.58339042  0.54808719  1
  Te2-  Te166  1  0.91974034  0.08292113  0.54799600  1
  Te2-  Te167  1  0.92604351  0.58085482  0.54944499  1
  Te2-  Te168  1  -0.00065908  0.00143904  0.88255345  1
  Te2-  Te169  1  0.00084057  0.49982830  0.88532196  1
  Te2-  Te170  1  0.50206197  0.00089795  0.88221419  1
  Te2-  Te171  1  0.50012861  0.50036218  0.88069714  1
  Te2-  Te172  1  0.33337010  0.16751419  0.21653195  1
  Te2-  Te173  1  0.33415911  0.66599917  0.21608106  1
  Te2-  Te174  1  0.83390988  0.16770468  0.21685384  1
  Te2-  Te175  1  0.83118796  0.66664814  0.21437839  1
  Te2-  Te176  1  0.16590322  0.33363173  0.54869308  1
  Te2-  Te177  1  0.16655908  0.83265878  0.54940597  1
  Te2-  Te178  1  0.66761893  0.33368290  0.54948446  1
  Te2-  Te179  1  0.66788140  0.83301695  0.54839705  1
  Te2-  Te180  1  0.33032724  0.41586006  0.70831865  1
  Te2-  Te181  1  0.32287918  0.90958175  0.71053738  1
  Te2-  Te182  1  0.82751662  0.41621087  0.71200437  1
  Te2-  Te183  1  0.83042845  0.91491006  0.71076056  1
  Te2-  Te184  1  0.08654307  0.17440186  0.70866828  1
  Te2-  Te185  1  0.08663502  0.67233399  0.71561200  1
  Te2-  Te186  1  0.58754800  0.17283769  0.70952489  1
  Te2-  Te187  1  0.58949985  0.67323966  0.70976685  1
  Te2-  Te188  1  0.08710957  0.41589883  0.70995682  1
  Te2-  Te189  1  0.08473936  0.91001949  0.71242483  1
  Te2-  Te190  1  0.58749710  0.41494148  0.70980495  1
  Te2-  Te191  1  0.58834853  0.91495166  0.70886096  1
  Te2-  Te192  1  0.16090851  0.07926396  0.04515107  1
  Te2-  Te193  1  0.16004229  0.57860766  0.04288347  1
  Te2-  Te194  1  0.66152603  0.07899743  0.04624240  1
  Te2-  Te195  1  0.65884485  0.57734863  0.03826186  1
  Te2-  Te196  1  0.41755423  0.33549814  0.04288079  1
  Te2-  Te197  1  0.42289002  0.84211106  0.04588578  1
  Te2-  Te198  1  0.91945983  0.33798255  0.04474218  1
  Te2-  Te199  1  0.91968514  0.84091701  0.04185415  1
  Te2-  Te200  1  0.42200669  0.07957834  0.04757343  1
  Te2-  Te201  1  0.41515787  0.57944435  0.04238343  1
  Te2-  Te202  1  0.91709229  0.07889897  0.04426167  1
  Te2-  Te203  1  0.92110633  0.57826431  0.04167108  1
  Te2-  Te204  1  0.49598656  0.24807941  0.37890674  1
  Te2-  Te205  1  0.49371765  0.74608000  0.37715371  1
  Te2-  Te206  1  0.99320865  0.24848032  0.37664510  1
  Te2-  Te207  1  0.98986577  0.74755398  0.37405913  1
  Te2-  Te208  1  0.25314903  0.01045042  0.37681981  1
  Te2-  Te209  1  0.25246289  0.50430206  0.37631941  1
  Te2-  Te210  1  0.75086640  0.00457742  0.37779866  1
  Te2-  Te211  1  0.75025802  0.50600652  0.37506286  1
  Te2-  Te212  1  0.25083628  0.24702540  0.37772546  1
  Te2-  Te213  1  0.25402732  0.74607577  0.37633533  1
  Te2-  Te214  1  0.75347122  0.24576259  0.37707571  1
  Te2-  Te215  1  0.75049787  0.74643619  0.37548492  1
