# generated using pymatgen
data_Ti(CuTe)4
_symmetry_space_group_name_H-M   'P 1'
_cell_length_a   16.90677571
_cell_length_b   16.90066299
_cell_length_c   20.72732569
_cell_angle_alpha   89.96367642
_cell_angle_beta   89.96860562
_cell_angle_gamma   120.00143117
_symmetry_Int_Tables_number   1
_chemical_formula_structural   Ti(CuTe)4
_chemical_formula_sum   'Ti24 Cu96 Te96'
_cell_volume   5128.99019582
_cell_formula_units_Z   24
loop_
 _symmetry_equiv_pos_site_id
 _symmetry_equiv_pos_as_xyz
  1  'x, y, z'
loop_
 _atom_type_symbol
 _atom_type_oxidation_number
  Ti4+  4.0
  Cu+  1.0
  Te2-  -2.0
loop_
 _atom_site_type_symbol
 _atom_site_label
 _atom_site_symmetry_multiplicity
 _atom_site_fract_x
 _atom_site_fract_y
 _atom_site_fract_z
 _atom_site_occupancy
  Ti4+  Ti0  1  -0.00128509  -0.00268418  0.25991372  1
  Ti4+  Ti1  1  -0.00032596  0.49787001  0.26143598  1
  Ti4+  Ti2  1  0.49917240  -0.00235207  0.25718871  1
  Ti4+  Ti3  1  0.49966857  0.49639671  0.25617019  1
  Ti4+  Ti4  1  0.33332401  0.16655763  0.59048474  1
  Ti4+  Ti5  1  0.33240547  0.66545483  0.59480876  1
  Ti4+  Ti6  1  0.83357742  0.16990868  0.58927026  1
  Ti4+  Ti7  1  0.83447795  0.66988088  0.59028926  1
  Ti4+  Ti8  1  0.16446053  0.33189948  0.92218871  1
  Ti4+  Ti9  1  0.16903527  0.83552497  0.92336853  1
  Ti4+  Ti10  1  0.66918571  0.33801589  0.92625665  1
  Ti4+  Ti11  1  0.66792655  0.83545989  0.91977686  1
  Ti4+  Ti12  1  0.00013296  0.00217074  0.75411725  1
  Ti4+  Ti13  1  -0.00110338  0.49970787  0.75527000  1
  Ti4+  Ti14  1  0.49899864  -0.00014120  0.75327738  1
  Ti4+  Ti15  1  0.50271070  0.50080922  0.75349749  1
  Ti4+  Ti16  1  0.33354943  0.16713946  0.08757357  1
  Ti4+  Ti17  1  0.33324957  0.66583218  0.08919818  1
  Ti4+  Ti18  1  0.83272490  0.16615063  0.09033515  1
  Ti4+  Ti19  1  0.83337584  0.66767945  0.08934339  1
  Ti4+  Ti20  1  0.16529922  0.33135269  0.42233204  1
  Ti4+  Ti21  1  0.16555664  0.83181536  0.42239475  1
  Ti4+  Ti22  1  0.66594773  0.33209988  0.42177381  1
  Ti4+  Ti23  1  0.66528389  0.83130935  0.42251069  1
  Cu+  Cu24  1  0.51616791  0.25246966  0.14206139  1
  Cu+  Cu25  1  0.41070278  0.82314910  0.81331780  1
  Cu+  Cu26  1  0.84895417  0.92913469  0.47610848  1
  Cu+  Cu27  1  0.07911144  0.92934203  0.47545258  1
  Cu+  Cu28  1  0.41391159  0.58677034  0.81445924  1
  Cu+  Cu29  1  0.74711873  0.48517721  0.14617222  1
  Cu+  Cu30  1  0.07959740  0.42888733  0.47888291  1
  Cu+  Cu31  1  0.18861954  0.09508805  0.80630507  1
  Cu+  Cu32  1  0.69306240  0.59610792  0.80579275  1
  Cu+  Cu33  1  0.84975916  0.43036115  0.47635675  1
  Cu+  Cu34  1  0.17531579  0.58866501  0.81536238  1
  Cu+  Cu35  1  0.90552371  0.09820524  0.80386968  1
  Cu+  Cu36  1  0.16216700  0.07766238  0.17247193  1
  Cu+  Cu37  1  0.16490433  0.57896362  0.17454467  1
  Cu+  Cu38  1  0.66256666  0.07859932  0.17072046  1
  Cu+  Cu39  1  0.66270842  0.57692982  0.16926336  1
  Cu+  Cu40  1  0.42135610  0.33484545  0.16845839  1
  Cu+  Cu41  1  0.41712281  0.83401470  0.17193318  1
  Cu+  Cu42  1  0.91891896  0.33430468  0.17460499  1
  Cu+  Cu43  1  0.91824987  0.83656964  0.17347124  1
  Cu+  Cu44  1  0.41986937  0.08102085  0.17027326  1
  Cu+  Cu45  1  0.41733963  0.57941638  0.17067514  1
  Cu+  Cu46  1  0.91470885  0.07803069  0.17406222  1
  Cu+  Cu47  1  0.91777436  0.57932981  0.17395338  1
  Cu+  Cu48  1  0.49618990  0.24681470  0.50451915  1
  Cu+  Cu49  1  0.49537444  0.74685064  0.50721945  1
  Cu+  Cu50  1  0.99586672  0.25278531  0.50231191  1
  Cu+  Cu51  1  0.99632844  0.75292633  0.50219195  1
  Cu+  Cu52  1  0.24976821  0.00354901  0.50472941  1
  Cu+  Cu53  1  0.25062274  0.50301435  0.50726645  1
  Cu+  Cu54  1  0.75262659  0.00358272  0.50455258  1
  Cu+  Cu55  1  0.75216946  0.50381414  0.50497531  1
  Cu+  Cu56  1  0.25236597  0.24750919  0.50398455  1
  Cu+  Cu57  1  0.25159947  0.74736484  0.50636386  1
  Cu+  Cu58  1  0.75470186  0.25396446  0.50218093  1
  Cu+  Cu59  1  0.75308880  0.75182235  0.50401193  1
  Cu+  Cu60  1  0.32764103  0.41310571  0.83444953  1
  Cu+  Cu61  1  0.32755594  0.91317325  0.83477987  1
  Cu+  Cu62  1  0.82898320  0.41822071  0.83849133  1
  Cu+  Cu63  1  0.83020394  0.92191745  0.83331545  1
  Cu+  Cu64  1  0.08237753  0.16874445  0.83495486  1
  Cu+  Cu65  1  0.08540519  0.67127156  0.83712902  1
  Cu+  Cu66  1  0.58414422  0.17054546  0.83907354  1
  Cu+  Cu67  1  0.59073924  0.67134691  0.83273819  1
  Cu+  Cu68  1  0.08420201  0.41372905  0.83574531  1
  Cu+  Cu69  1  0.08913392  0.92091449  0.83722497  1
  Cu+  Cu70  1  0.59285290  0.42230851  0.83728511  1
  Cu+  Cu71  1  0.58539830  0.91486940  0.83236017  1
  Cu+  Cu72  1  0.17072847  0.08536914  0.67832377  1
  Cu+  Cu73  1  0.16816686  0.58302317  0.68280738  1
  Cu+  Cu74  1  0.66748295  0.08649854  0.67156232  1
  Cu+  Cu75  1  0.67208795  0.58465718  0.67677542  1
  Cu+  Cu76  1  0.41783678  0.33018798  0.67354547  1
  Cu+  Cu77  1  0.41367072  0.82943606  0.68137539  1
  Cu+  Cu78  1  0.91350149  0.33352839  0.67633401  1
  Cu+  Cu79  1  0.91589280  0.83345098  0.67527255  1
  Cu+  Cu80  1  0.41458344  0.08345668  0.67352448  1
  Cu+  Cu81  1  0.41450415  0.58319908  0.68100587  1
  Cu+  Cu82  1  0.91418565  0.08695219  0.67620544  1
  Cu+  Cu83  1  0.91431201  0.58343015  0.67482903  1
  Cu+  Cu84  1  0.00015268  0.24923449  0.00862452  1
  Cu+  Cu85  1  0.00491000  0.75464426  0.00816517  1
  Cu+  Cu86  1  0.50417971  0.25523805  0.01212557  1
  Cu+  Cu87  1  0.50141586  0.75072249  0.00653028  1
  Cu+  Cu88  1  0.24774350  0.49805585  0.00918040  1
  Cu+  Cu89  1  0.24990494  0.99941398  0.00714358  1
  Cu+  Cu90  1  0.75019431  0.50125834  0.01501919  1
  Cu+  Cu91  1  0.74960789  1.00018536  0.00617223  1
  Cu+  Cu92  1  0.24534062  0.24873952  0.00738729  1
  Cu+  Cu93  1  0.24844021  0.75017674  0.01086167  1
  Cu+  Cu94  1  0.75033365  0.25318514  0.01024265  1
  Cu+  Cu95  1  0.75128893  0.75436290  0.00560455  1
  Cu+  Cu96  1  0.33525154  0.41517381  0.33987835  1
  Cu+  Cu97  1  0.33543184  0.91568726  0.34030599  1
  Cu+  Cu98  1  0.83552138  0.41666504  0.34789188  1
  Cu+  Cu99  1  0.83488510  0.91469622  0.34716047  1
  Cu+  Cu100  1  0.08190749  0.16247373  0.34174650  1
  Cu+  Cu101  1  0.08335046  0.66329995  0.34352296  1
  Cu+  Cu102  1  0.57871617  0.16055833  0.34161037  1
  Cu+  Cu103  1  0.57854103  0.66010251  0.34013717  1
  Cu+  Cu104  1  0.08191217  0.41641301  0.34912753  1
  Cu+  Cu105  1  0.08059845  0.91573085  0.34663960  1
  Cu+  Cu106  1  0.58024372  0.41404003  0.34148224  1
  Cu+  Cu107  1  0.57850139  0.91369295  0.34115892  1
  Cu+  Cu108  1  -0.00038766  0.00085642  0.11723509  1
  Cu+  Cu109  1  0.00220603  0.49989550  0.11922892  1
  Cu+  Cu110  1  0.49946409  -0.00327731  0.11395071  1
  Cu+  Cu111  1  0.49881330  0.50120619  0.11212224  1
  Cu+  Cu112  1  0.33452489  0.16653369  0.44677673  1
  Cu+  Cu113  1  0.33460153  0.66665353  0.45038380  1
  Cu+  Cu114  1  0.82854661  0.16323697  0.44576043  1
  Cu+  Cu115  1  0.82987408  0.66472013  0.44687938  1
  Cu+  Cu116  1  0.16695200  0.33291371  0.77734804  1
  Cu+  Cu117  1  0.16189570  0.83259461  0.77983654  1
  Cu+  Cu118  1  0.66502645  0.32948269  0.78258504  1
  Cu+  Cu119  1  0.66706504  0.83485114  0.77434134  1
  Te2-  Te120  1  0.00044992  0.00118271  0.39262593  1
  Te2-  Te121  1  0.00139938  0.50179164  0.39369568  1
  Te2-  Te122  1  0.49821984  -0.00312280  0.38649022  1
  Te2-  Te123  1  0.49857128  0.49661007  0.38505248  1
  Te2-  Te124  1  0.33688828  0.16796737  0.72135681  1
  Te2-  Te125  1  0.33285909  0.66524629  0.72813141  1
  Te2-  Te126  1  0.82977809  0.16899446  0.71947956  1
  Te2-  Te127  1  0.83781570  0.66996529  0.72070830  1
  Te2-  Te128  1  0.16502614  0.33264804  0.05050993  1
  Te2-  Te129  1  0.16880978  0.83573286  0.05205282  1
  Te2-  Te130  1  0.66931353  0.33497822  0.05819988  1
  Te2-  Te131  1  0.66678567  0.83476579  0.04797543  1
  Te2-  Te132  1  0.49928684  0.25408460  0.88418013  1
  Te2-  Te133  1  0.49214483  0.74507756  0.88073098  1
  Te2-  Te134  1  0.99165961  0.24783703  0.88235106  1
  Te2-  Te135  1  0.99878505  0.75181234  0.88163413  1
  Te2-  Te136  1  0.25834274  0.00894959  0.88177930  1
  Te2-  Te137  1  0.25398966  0.50860623  0.88330848  1
  Te2-  Te138  1  0.75031357  0.00933779  0.88031805  1
  Te2-  Te139  1  0.75889925  0.51277464  0.88728934  1
  Te2-  Te140  1  0.25265650  0.24750460  0.88132436  1
  Te2-  Te141  1  0.25551426  0.74490283  0.88482046  1
  Te2-  Te142  1  0.75264202  0.25085636  0.88393006  1
  Te2-  Te143  1  0.75867268  0.75348119  0.87936753  1
  Te2-  Te144  1  0.32929916  0.41060003  0.21388888  1
  Te2-  Te145  1  0.32800504  0.91373687  0.21446511  1
  Te2-  Te146  1  0.82694611  0.40948987  0.22057021  1
  Te2-  Te147  1  0.82698513  0.91115075  0.22029736  1
  Te2-  Te148  1  0.08393118  0.16756841  0.21612322  1
  Te2-  Te149  1  0.08509367  0.66804975  0.21767140  1
  Te2-  Te150  1  0.58931651  0.17208523  0.21621188  1
  Te2-  Te151  1  0.58550470  0.66718769  0.21421478  1
  Te2-  Te152  1  0.08533132  0.41230377  0.22168620  1
  Te2-  Te153  1  0.08461391  0.91145236  0.21991731  1
  Te2-  Te154  1  0.58910303  0.40807071  0.21609678  1
  Te2-  Te155  1  0.58471317  0.91133665  0.21554150  1
  Te2-  Te156  1  0.15913774  0.08219949  0.55173859  1
  Te2-  Te157  1  0.15949700  0.58167163  0.55466225  1
  Te2-  Te158  1  0.66475932  0.08511743  0.54575400  1
  Te2-  Te159  1  0.66492153  0.58377818  0.54967068  1
  Te2-  Te160  1  0.41980226  0.33811437  0.54819084  1
  Te2-  Te161  1  0.41763440  0.83626958  0.55357805  1
  Te2-  Te162  1  0.92203205  0.34677871  0.55064360  1
  Te2-  Te163  1  0.92218450  0.84638021  0.54978991  1
  Te2-  Te164  1  0.41697294  0.07901357  0.54813826  1
  Te2-  Te165  1  0.41719592  0.57968542  0.55329281  1
  Te2-  Te166  1  0.92321775  0.08639870  0.54968418  1
  Te2-  Te167  1  0.92334304  0.58598277  0.54935972  1
  Te2-  Te168  1  -0.00166483  -0.00044042  0.88119485  1
  Te2-  Te169  1  -0.00022692  0.50010479  0.88223737  1
  Te2-  Te170  1  0.49954962  -0.00074245  0.88032940  1
  Te2-  Te171  1  0.49902618  0.50012116  0.88097933  1
  Te2-  Te172  1  0.33282107  0.16474759  0.21430072  1
  Te2-  Te173  1  0.33450845  0.66462823  0.21532204  1
  Te2-  Te174  1  0.83104319  0.16360840  0.21640693  1
  Te2-  Te175  1  0.83222597  0.66563191  0.21614045  1
  Te2-  Te176  1  0.16594929  0.33142684  0.54904910  1
  Te2-  Te177  1  0.16587560  0.83284018  0.54908637  1
  Te2-  Te178  1  0.66552382  0.33346481  0.54856724  1
  Te2-  Te179  1  0.66558742  0.83368603  0.54932227  1
  Te2-  Te180  1  0.32851342  0.41065625  0.70842586  1
  Te2-  Te181  1  0.32518859  0.91391976  0.70889648  1
  Te2-  Te182  1  0.82592161  0.41504433  0.71252683  1
  Te2-  Te183  1  0.82746124  0.91483662  0.70709368  1
  Te2-  Te184  1  0.08663805  0.17466345  0.70756461  1
  Te2-  Te185  1  0.08439482  0.67271094  0.71015268  1
  Te2-  Te186  1  0.58443147  0.17213491  0.71132666  1
  Te2-  Te187  1  0.58815983  0.67394304  0.70596874  1
  Te2-  Te188  1  0.08325694  0.41039037  0.70961349  1
  Te2-  Te189  1  0.08511242  0.91354001  0.71005244  1
  Te2-  Te190  1  0.58766993  0.41260121  0.71026282  1
  Te2-  Te191  1  0.58762747  0.91631308  0.70607118  1
  Te2-  Te192  1  0.16092285  0.07956062  0.04561676  1
  Te2-  Te193  1  0.16073560  0.58014020  0.04740821  1
  Te2-  Te194  1  0.66183793  0.08183992  0.04440695  1
  Te2-  Te195  1  0.66117314  0.58492736  0.04274180  1
  Te2-  Te196  1  0.41626180  0.33993055  0.04197794  1
  Te2-  Te197  1  0.41902754  0.83748699  0.04497646  1
  Te2-  Te198  1  0.92012560  0.33879231  0.04788766  1
  Te2-  Te199  1  0.92013187  0.83973647  0.04647652  1
  Te2-  Te200  1  0.42052879  0.08148850  0.04273467  1
  Te2-  Te201  1  0.41859556  0.58073277  0.04345442  1
  Te2-  Te202  1  0.91782360  0.07983316  0.04670925  1
  Te2-  Te203  1  0.92303306  0.58418530  0.04619145  1
  Te2-  Te204  1  0.49387925  0.24480591  0.37810060  1
  Te2-  Te205  1  0.49358826  0.74438446  0.37994456  1
  Te2-  Te206  1  0.99216908  0.24285061  0.37657992  1
  Te2-  Te207  1  0.99240817  0.74300085  0.37649709  1
  Te2-  Te208  1  0.25352991  0.00401575  0.37729968  1
  Te2-  Te209  1  0.25500293  0.50451010  0.37943053  1
  Te2-  Te210  1  0.74945050  0.00279360  0.37678580  1
  Te2-  Te211  1  0.75039557  0.50474424  0.37725220  1
  Te2-  Te212  1  0.25162335  0.24565451  0.37794756  1
  Te2-  Te213  1  0.25302070  0.74639795  0.38006547  1
  Te2-  Te214  1  0.74936565  0.24330558  0.37594765  1
  Te2-  Te215  1  0.74821458  0.74225500  0.37725600  1
