# generated using pymatgen
data_Ti(CuTe)4
_symmetry_space_group_name_H-M   'P 1'
_cell_length_a   16.88741850
_cell_length_b   16.88594370
_cell_length_c   20.70995668
_cell_angle_alpha   90.03143485
_cell_angle_beta   89.94214858
_cell_angle_gamma   119.99013362
_symmetry_Int_Tables_number   1
_chemical_formula_structural   Ti(CuTe)4
_chemical_formula_sum   'Ti24 Cu96 Te96'
_cell_volume   5114.94975815
_cell_formula_units_Z   24
loop_
 _symmetry_equiv_pos_site_id
 _symmetry_equiv_pos_as_xyz
  1  'x, y, z'
loop_
 _atom_type_symbol
 _atom_type_oxidation_number
  Ti4+  4.0
  Cu+  1.0
  Te2-  -2.0
loop_
 _atom_site_type_symbol
 _atom_site_label
 _atom_site_symmetry_multiplicity
 _atom_site_fract_x
 _atom_site_fract_y
 _atom_site_fract_z
 _atom_site_occupancy
  Ti4+  Ti0  1  0.00487729  0.00087041  0.25885887  1
  Ti4+  Ti1  1  0.00304711  0.49907474  0.25581626  1
  Ti4+  Ti2  1  0.50196884  -0.00081110  0.25723210  1
  Ti4+  Ti3  1  0.50334027  0.50321248  0.26005280  1
  Ti4+  Ti4  1  0.33239132  0.16544462  0.58976926  1
  Ti4+  Ti5  1  0.33044104  0.66558917  0.59330070  1
  Ti4+  Ti6  1  0.82984650  0.16422736  0.58983362  1
  Ti4+  Ti7  1  0.83078659  0.66930799  0.58918246  1
  Ti4+  Ti8  1  0.16628860  0.33212590  0.92512613  1
  Ti4+  Ti9  1  0.16645752  0.83219391  0.92690175  1
  Ti4+  Ti10  1  0.66822154  0.33527662  0.92114002  1
  Ti4+  Ti11  1  0.66576593  0.83322787  0.92493119  1
  Ti4+  Ti12  1  -0.00126726  0.00056239  0.75770544  1
  Ti4+  Ti13  1  -0.00374077  0.49929365  0.75404077  1
  Ti4+  Ti14  1  0.49801980  -0.00156447  0.75594377  1
  Ti4+  Ti15  1  0.49953089  0.50041022  0.75551234  1
  Ti4+  Ti16  1  0.33312329  0.16557992  0.08866287  1
  Ti4+  Ti17  1  0.33501495  0.66792342  0.08839593  1
  Ti4+  Ti18  1  0.83493375  0.16809050  0.08922489  1
  Ti4+  Ti19  1  0.83274261  0.66637210  0.09041527  1
  Ti4+  Ti20  1  0.16775976  0.33420996  0.42140382  1
  Ti4+  Ti21  1  0.16707918  0.83420010  0.42239218  1
  Ti4+  Ti22  1  0.66603882  0.33188737  0.42072447  1
  Ti4+  Ti23  1  0.66835679  0.83396472  0.42100547  1
  Cu+  Cu24  1  0.57101156  0.65470436  0.47993749  1
  Cu+  Cu25  1  0.69039561  0.59692042  0.80717983  1
  Cu+  Cu26  1  0.40326055  0.80978798  0.80983810  1
  Cu+  Cu27  1  0.68710906  0.09260286  0.80713908  1
  Cu+  Cu28  1  0.24647923  0.98079083  0.14213390  1
  Cu+  Cu29  1  0.02591496  0.26045115  0.14029872  1
  Cu+  Cu30  1  0.56951700  0.14142947  0.47285266  1
  Cu+  Cu31  1  0.01813730  0.75534348  0.14422707  1
  Cu+  Cu32  1  0.57140963  0.41993394  0.47586660  1
  Cu+  Cu33  1  0.07631878  0.92817945  0.47771580  1
  Cu+  Cu34  1  0.52552846  0.76206699  0.14106645  1
  Cu+  Cu35  1  0.84933146  0.92855332  0.47644284  1
  Cu+  Cu36  1  0.16516896  0.07572775  0.16920972  1
  Cu+  Cu37  1  0.16350757  0.58010620  0.16851056  1
  Cu+  Cu38  1  0.66447336  0.08374745  0.17156670  1
  Cu+  Cu39  1  0.66249292  0.58234299  0.17382672  1
  Cu+  Cu40  1  0.42089421  0.33661637  0.17285762  1
  Cu+  Cu41  1  0.42487171  0.83687153  0.16910865  1
  Cu+  Cu42  1  0.92526660  0.33561320  0.16954584  1
  Cu+  Cu43  1  0.92258681  0.83532851  0.17279347  1
  Cu+  Cu44  1  0.41805800  0.08017670  0.17132460  1
  Cu+  Cu45  1  0.42490567  0.58955517  0.17156818  1
  Cu+  Cu46  1  0.92254165  0.08638544  0.17256591  1
  Cu+  Cu47  1  0.92135634  0.58337250  0.17149866  1
  Cu+  Cu48  1  0.49595089  0.24497717  0.50225969  1
  Cu+  Cu49  1  0.49167878  0.74685080  0.50637093  1
  Cu+  Cu50  1  0.99747367  0.24843732  0.50274933  1
  Cu+  Cu51  1  0.99628751  0.75343001  0.50253251  1
  Cu+  Cu52  1  0.24934692  0.00464891  0.50276747  1
  Cu+  Cu53  1  0.24869458  0.50211440  0.50492080  1
  Cu+  Cu54  1  0.75365554  0.00602820  0.50253061  1
  Cu+  Cu55  1  0.74657973  0.50321949  0.50142913  1
  Cu+  Cu56  1  0.25034659  0.24827553  0.50184684  1
  Cu+  Cu57  1  0.25050966  0.74933129  0.50734734  1
  Cu+  Cu58  1  0.74373395  0.24184152  0.50303077  1
  Cu+  Cu59  1  0.75155531  0.74893207  0.50060106  1
  Cu+  Cu60  1  0.32831250  0.41261687  0.83911559  1
  Cu+  Cu61  1  0.32842314  0.91053081  0.83932766  1
  Cu+  Cu62  1  0.82705621  0.41504102  0.83351479  1
  Cu+  Cu63  1  0.82965394  0.91548040  0.83943424  1
  Cu+  Cu64  1  0.08435416  0.16965631  0.84005312  1
  Cu+  Cu65  1  0.08070235  0.66832061  0.83808880  1
  Cu+  Cu66  1  0.58835806  0.17022486  0.83549809  1
  Cu+  Cu67  1  0.58649443  0.66860449  0.83784646  1
  Cu+  Cu68  1  0.08136735  0.41361380  0.83852809  1
  Cu+  Cu69  1  0.08502926  0.91674220  0.84182752  1
  Cu+  Cu70  1  0.58899855  0.42077747  0.83546748  1
  Cu+  Cu71  1  0.58150668  0.91422049  0.83784523  1
  Cu+  Cu72  1  0.16761403  0.08440602  0.67648203  1
  Cu+  Cu73  1  0.16501655  0.58397100  0.67632354  1
  Cu+  Cu74  1  0.66694145  0.08303828  0.67762674  1
  Cu+  Cu75  1  0.66663452  0.58644999  0.67819355  1
  Cu+  Cu76  1  0.41382147  0.33014207  0.67416836  1
  Cu+  Cu77  1  0.41068852  0.82711449  0.68074647  1
  Cu+  Cu78  1  0.91186310  0.33062831  0.67241200  1
  Cu+  Cu79  1  0.91544781  0.83528811  0.67685818  1
  Cu+  Cu80  1  0.41247002  0.08249856  0.67364655  1
  Cu+  Cu81  1  0.41229763  0.58285809  0.67721780  1
  Cu+  Cu82  1  0.91463393  0.08384466  0.67628844  1
  Cu+  Cu83  1  0.91280789  0.58477651  0.67281242  1
  Cu+  Cu84  1  0.00456617  0.25166731  0.01193224  1
  Cu+  Cu85  1  0.00228606  0.75240758  0.01438497  1
  Cu+  Cu86  1  0.50400279  0.25320589  0.00388610  1
  Cu+  Cu87  1  0.50298436  0.75222508  0.01208578  1
  Cu+  Cu88  1  0.24874013  0.49722210  0.00768663  1
  Cu+  Cu89  1  0.24914346  0.99634502  0.01313868  1
  Cu+  Cu90  1  0.74626756  0.49856143  0.00704196  1
  Cu+  Cu91  1  0.74706907  0.99973646  0.00956965  1
  Cu+  Cu92  1  0.24925904  0.25006270  0.00913605  1
  Cu+  Cu93  1  0.24921868  0.74961520  0.00942402  1
  Cu+  Cu94  1  0.74873664  0.25166784  0.00599329  1
  Cu+  Cu95  1  0.74597380  0.74770638  0.01104413  1
  Cu+  Cu96  1  0.33792506  0.42195810  0.34136673  1
  Cu+  Cu97  1  0.33648913  0.91608940  0.34118001  1
  Cu+  Cu98  1  0.83954791  0.41730236  0.33745597  1
  Cu+  Cu99  1  0.83995788  0.92021212  0.34633551  1
  Cu+  Cu100  1  0.08643140  0.16762417  0.34094563  1
  Cu+  Cu101  1  0.08349434  0.66273890  0.34162645  1
  Cu+  Cu102  1  0.58155948  0.16142329  0.34432812  1
  Cu+  Cu103  1  0.58351207  0.66632633  0.34875178  1
  Cu+  Cu104  1  0.08409474  0.41713231  0.34088725  1
  Cu+  Cu105  1  0.08452081  0.91777942  0.34829445  1
  Cu+  Cu106  1  0.58362275  0.41975603  0.34669762  1
  Cu+  Cu107  1  0.58444718  0.91682999  0.34151098  1
  Cu+  Cu108  1  -0.00354540  -0.00127344  0.11589859  1
  Cu+  Cu109  1  -0.00351517  0.49800100  0.11221797  1
  Cu+  Cu110  1  0.50136485  0.00259545  0.11337438  1
  Cu+  Cu111  1  0.49481731  0.49581693  0.11667203  1
  Cu+  Cu112  1  0.33299400  0.16842459  0.44490309  1
  Cu+  Cu113  1  0.32811365  0.66597112  0.45042746  1
  Cu+  Cu114  1  0.83723324  0.17382545  0.44605859  1
  Cu+  Cu115  1  0.83516561  0.66329628  0.44424819  1
  Cu+  Cu116  1  0.16466276  0.33434781  0.78285804  1
  Cu+  Cu117  1  0.16203367  0.83278621  0.78388480  1
  Cu+  Cu118  1  0.66213667  0.33135203  0.77644190  1
  Cu+  Cu119  1  0.66614629  0.83380060  0.78181445  1
  Te2-  Te120  1  0.00525427  0.00518874  0.39049641  1
  Te2-  Te121  1  0.00132117  0.49847252  0.38480783  1
  Te2-  Te122  1  0.49951114  -0.00462020  0.38788019  1
  Te2-  Te123  1  0.49928509  0.50077484  0.39229170  1
  Te2-  Te124  1  0.33265900  0.16615820  0.71845003  1
  Te2-  Te125  1  0.32787981  0.66149737  0.72408507  1
  Te2-  Te126  1  0.83328019  0.16746185  0.71997569  1
  Te2-  Te127  1  0.83400177  0.66969070  0.71895646  1
  Te2-  Te128  1  0.17076923  0.33466330  0.05617203  1
  Te2-  Te129  1  0.16817329  0.83097693  0.05903844  1
  Te2-  Te130  1  0.66692618  0.33400164  0.04996541  1
  Te2-  Te131  1  0.66945612  0.83565553  0.05522189  1
  Te2-  Te132  1  0.49832132  0.25032227  0.87780571  1
  Te2-  Te133  1  0.49346289  0.74405602  0.88461821  1
  Te2-  Te134  1  0.99436095  0.24676894  0.88518143  1
  Te2-  Te135  1  0.99561121  0.74894530  0.88680714  1
  Te2-  Te136  1  0.25336382  0.00278754  0.88590880  1
  Te2-  Te137  1  0.25034482  0.50310152  0.88203258  1
  Te2-  Te138  1  0.75234064  0.00606734  0.88353610  1
  Te2-  Te139  1  0.75741444  0.51055515  0.88149686  1
  Te2-  Te140  1  0.25199448  0.24564937  0.88379106  1
  Te2-  Te141  1  0.24873980  0.74098503  0.88368199  1
  Te2-  Te142  1  0.75709133  0.24917025  0.88043713  1
  Te2-  Te143  1  0.75479898  0.74836026  0.88491214  1
  Te2-  Te144  1  0.33441309  0.42015695  0.21509210  1
  Te2-  Te145  1  0.32935030  0.90887442  0.21547256  1
  Te2-  Te146  1  0.83306867  0.41357386  0.21168458  1
  Te2-  Te147  1  0.83546241  0.91716665  0.21803973  1
  Te2-  Te148  1  0.09345650  0.17194537  0.21518331  1
  Te2-  Te149  1  0.09223794  0.67393307  0.21620026  1
  Te2-  Te150  1  0.58479744  0.17056705  0.21738014  1
  Te2-  Te151  1  0.59235244  0.67798322  0.22086490  1
  Te2-  Te152  1  0.09364544  0.41482012  0.21547273  1
  Te2-  Te153  1  0.09127269  0.91029859  0.22032431  1
  Te2-  Te154  1  0.58758090  0.41594900  0.21968236  1
  Te2-  Te155  1  0.59297176  0.91636004  0.21607526  1
  Te2-  Te156  1  0.15846476  0.08287203  0.55023438  1
  Te2-  Te157  1  0.16003973  0.58087866  0.55035641  1
  Te2-  Te158  1  0.65571801  0.07351772  0.55037045  1
  Te2-  Te159  1  0.65511621  0.58038378  0.55042535  1
  Te2-  Te160  1  0.41716714  0.33814448  0.54814651  1
  Te2-  Te161  1  0.41710127  0.83762409  0.55362149  1
  Te2-  Te162  1  0.91343264  0.33366882  0.54607175  1
  Te2-  Te163  1  0.91965032  0.84546521  0.55062339  1
  Te2-  Te164  1  0.41601719  0.07566977  0.54801930  1
  Te2-  Te165  1  0.41520037  0.57621722  0.55157560  1
  Te2-  Te166  1  0.92200464  0.08217438  0.55033468  1
  Te2-  Te167  1  0.91513361  0.58441764  0.54624142  1
  Te2-  Te168  1  -0.00096622  0.00039036  0.88410077  1
  Te2-  Te169  1  -0.00421712  0.49829789  0.88036555  1
  Te2-  Te170  1  0.49891589  0.00168389  0.88323897  1
  Te2-  Te171  1  0.49836942  0.49869893  0.88217286  1
  Te2-  Te172  1  0.33508232  0.16700067  0.21563639  1
  Te2-  Te173  1  0.33322541  0.66763161  0.21511008  1
  Te2-  Te174  1  0.83406811  0.16751708  0.21604959  1
  Te2-  Te175  1  0.83368864  0.66534903  0.21723413  1
  Te2-  Te176  1  0.16548405  0.33244642  0.54775441  1
  Te2-  Te177  1  0.16537194  0.83470589  0.54922852  1
  Te2-  Te178  1  0.66609616  0.33421481  0.54835433  1
  Te2-  Te179  1  0.66503084  0.83387964  0.54852182  1
  Te2-  Te180  1  0.32686182  0.41260098  0.71265949  1
  Te2-  Te181  1  0.32446229  0.91351384  0.71243904  1
  Te2-  Te182  1  0.82493799  0.41414686  0.70769525  1
  Te2-  Te183  1  0.82636466  0.91499268  0.71326885  1
  Te2-  Te184  1  0.08473614  0.17187188  0.71340717  1
  Te2-  Te185  1  0.08240990  0.67207921  0.71150233  1
  Te2-  Te186  1  0.58221685  0.17041764  0.70857960  1
  Te2-  Te187  1  0.58261663  0.67393127  0.71113152  1
  Te2-  Te188  1  0.08187426  0.41270391  0.71121995  1
  Te2-  Te189  1  0.08493884  0.91493719  0.71423865  1
  Te2-  Te190  1  0.58414299  0.41346443  0.70815745  1
  Te2-  Te191  1  0.58396085  0.91113312  0.71023753  1
  Te2-  Te192  1  0.15959997  0.07971348  0.04356761  1
  Te2-  Te193  1  0.16164589  0.57965195  0.04362140  1
  Te2-  Te194  1  0.66226942  0.08360168  0.04544276  1
  Te2-  Te195  1  0.65935406  0.57921930  0.04808141  1
  Te2-  Te196  1  0.41965338  0.33729867  0.04532525  1
  Te2-  Te197  1  0.41947649  0.84120608  0.04268942  1
  Te2-  Te198  1  0.91891187  0.33903864  0.04234196  1
  Te2-  Te199  1  0.91702050  0.83931587  0.04571970  1
  Te2-  Te200  1  0.42256378  0.08338115  0.04311649  1
  Te2-  Te201  1  0.41924738  0.57941979  0.04403434  1
  Te2-  Te202  1  0.91824465  0.07910292  0.04470550  1
  Te2-  Te203  1  0.91683331  0.57917785  0.04377948  1
  Te2-  Te204  1  0.49304849  0.24599351  0.37450128  1
  Te2-  Te205  1  0.49313608  0.74814029  0.37919731  1
  Te2-  Te206  1  0.99626654  0.24727350  0.37624165  1
  Te2-  Te207  1  0.99504163  0.74473993  0.37588103  1
  Te2-  Te208  1  0.25745550  0.00700181  0.37621662  1
  Te2-  Te209  1  0.25340704  0.50668478  0.37859204  1
  Te2-  Te210  1  0.75453381  0.00789510  0.37639366  1
  Te2-  Te211  1  0.75661440  0.50444372  0.37470516  1
  Te2-  Te212  1  0.25631321  0.25083053  0.37576249  1
  Te2-  Te213  1  0.25260548  0.74728265  0.38009830  1
  Te2-  Te214  1  0.75421376  0.24780981  0.37549157  1
  Te2-  Te215  1  0.75679352  0.74739900  0.37463203  1
