# generated using pymatgen
data_Ti(CuTe)4
_symmetry_space_group_name_H-M   'P 1'
_cell_length_a   16.89204329
_cell_length_b   16.89634125
_cell_length_c   20.71077596
_cell_angle_alpha   89.97025803
_cell_angle_beta   90.06127607
_cell_angle_gamma   120.01350017
_symmetry_Int_Tables_number   1
_chemical_formula_structural   Ti(CuTe)4
_chemical_formula_sum   'Ti24 Cu96 Te96'
_cell_volume   5118.49774047
_cell_formula_units_Z   24
loop_
 _symmetry_equiv_pos_site_id
 _symmetry_equiv_pos_as_xyz
  1  'x, y, z'
loop_
 _atom_type_symbol
 _atom_type_oxidation_number
  Ti4+  4.0
  Cu+  1.0
  Te2-  -2.0
loop_
 _atom_site_type_symbol
 _atom_site_label
 _atom_site_symmetry_multiplicity
 _atom_site_fract_x
 _atom_site_fract_y
 _atom_site_fract_z
 _atom_site_occupancy
  Ti4+  Ti0  1  0.00114640  0.00277265  0.25409326  1
  Ti4+  Ti1  1  0.00106743  0.50383072  0.25918898  1
  Ti4+  Ti2  1  0.49860949  0.00121773  0.25742466  1
  Ti4+  Ti3  1  0.50053125  0.50042352  0.25910952  1
  Ti4+  Ti4  1  0.33426730  0.16645792  0.59134027  1
  Ti4+  Ti5  1  0.33202825  0.66283037  0.58676921  1
  Ti4+  Ti6  1  0.82977550  0.16524773  0.58836511  1
  Ti4+  Ti7  1  0.83278398  0.66482597  0.59241797  1
  Ti4+  Ti8  1  0.16731313  0.33385282  0.92433359  1
  Ti4+  Ti9  1  0.16574185  0.83176562  0.92383412  1
  Ti4+  Ti10  1  0.66856378  0.33555719  0.93177752  1
  Ti4+  Ti11  1  0.66596781  0.83297794  0.92302564  1
  Ti4+  Ti12  1  0.00019400  -0.00024490  0.75306360  1
  Ti4+  Ti13  1  -0.00002647  0.50004643  0.75754289  1
  Ti4+  Ti14  1  0.50028595  -0.00227318  0.75711404  1
  Ti4+  Ti15  1  0.49974441  0.49885115  0.75750215  1
  Ti4+  Ti16  1  0.33319186  0.16759154  0.08677925  1
  Ti4+  Ti17  1  0.33342999  0.66784328  0.09064471  1
  Ti4+  Ti18  1  0.83406603  0.16631990  0.08773522  1
  Ti4+  Ti19  1  0.83519328  0.66782720  0.08836202  1
  Ti4+  Ti20  1  0.16737285  0.33468105  0.41953264  1
  Ti4+  Ti21  1  0.16692369  0.83355050  0.42139547  1
  Ti4+  Ti22  1  0.66695387  0.33296707  0.42258561  1
  Ti4+  Ti23  1  0.66642918  0.83327769  0.41908844  1
  Cu+  Cu24  1  0.23980355  0.26278552  0.13869115  1
  Cu+  Cu25  1  0.74685846  0.49349021  0.15186435  1
  Cu+  Cu26  1  0.57051136  0.92122818  0.47196421  1
  Cu+  Cu27  1  0.23737324  0.76399161  0.13956849  1
  Cu+  Cu28  1  0.34975779  0.41915559  0.47578773  1
  Cu+  Cu29  1  0.07104716  0.64929786  0.47759519  1
  Cu+  Cu30  1  0.57159850  0.15005932  0.47853760  1
  Cu+  Cu31  1  0.57968631  0.64999673  0.47594707  1
  Cu+  Cu32  1  0.74590556  0.25664097  0.14863380  1
  Cu+  Cu33  1  0.50827410  0.25581279  0.14976273  1
  Cu+  Cu34  1  0.06956998  0.41946304  0.47459412  1
  Cu+  Cu35  1  0.90324057  0.59259978  0.81142022  1
  Cu+  Cu36  1  0.16334904  0.08734025  0.16726130  1
  Cu+  Cu37  1  0.16608067  0.58999517  0.17342540  1
  Cu+  Cu38  1  0.66425526  0.08352751  0.17019215  1
  Cu+  Cu39  1  0.66478229  0.58395641  0.17156050  1
  Cu+  Cu40  1  0.41560811  0.33844032  0.16958341  1
  Cu+  Cu41  1  0.41244862  0.83566161  0.17189489  1
  Cu+  Cu42  1  0.91918030  0.33635072  0.17133763  1
  Cu+  Cu43  1  0.92089686  0.83918196  0.16878785  1
  Cu+  Cu44  1  0.42180363  0.08222046  0.16768124  1
  Cu+  Cu45  1  0.41947234  0.58297135  0.17327294  1
  Cu+  Cu46  1  0.92000083  0.08115364  0.16749630  1
  Cu+  Cu47  1  0.92152032  0.58332584  0.17053731  1
  Cu+  Cu48  1  0.49518416  0.24607451  0.50485093  1
  Cu+  Cu49  1  0.49644507  0.74555198  0.49881465  1
  Cu+  Cu50  1  0.99442801  0.24947243  0.50232853  1
  Cu+  Cu51  1  0.99694185  0.74542864  0.50548594  1
  Cu+  Cu52  1  0.25203332  0.00305511  0.50458712  1
  Cu+  Cu53  1  0.25134371  0.50160192  0.49808819  1
  Cu+  Cu54  1  0.74567696  0.00226092  0.49991114  1
  Cu+  Cu55  1  0.75318386  0.50344926  0.50539491  1
  Cu+  Cu56  1  0.25500284  0.24946995  0.50418562  1
  Cu+  Cu57  1  0.24758039  0.74309193  0.49981079  1
  Cu+  Cu58  1  0.74793161  0.24345068  0.50172028  1
  Cu+  Cu59  1  0.75060272  0.74531530  0.50392216  1
  Cu+  Cu60  1  0.33032066  0.41515349  0.83993883  1
  Cu+  Cu61  1  0.33122568  0.91063070  0.83920764  1
  Cu+  Cu62  1  0.83173925  0.41965755  0.84338093  1
  Cu+  Cu63  1  0.83056197  0.91543280  0.83602783  1
  Cu+  Cu64  1  0.08584467  0.16947798  0.83671315  1
  Cu+  Cu65  1  0.08175987  0.66881512  0.83845507  1
  Cu+  Cu66  1  0.58487322  0.16694775  0.84470165  1
  Cu+  Cu67  1  0.58348624  0.66979750  0.83838492  1
  Cu+  Cu68  1  0.08675704  0.41534686  0.83921298  1
  Cu+  Cu69  1  0.08497331  0.91509806  0.83544561  1
  Cu+  Cu70  1  0.58611693  0.41659287  0.84334122  1
  Cu+  Cu71  1  0.58414981  0.91203541  0.83773672  1
  Cu+  Cu72  1  0.16978151  0.08528221  0.67363638  1
  Cu+  Cu73  1  0.16643066  0.58053066  0.67432879  1
  Cu+  Cu74  1  0.66581560  0.08237245  0.67618523  1
  Cu+  Cu75  1  0.66737882  0.58142164  0.67796826  1
  Cu+  Cu76  1  0.41653418  0.32938603  0.67769358  1
  Cu+  Cu77  1  0.41590924  0.82886376  0.67260202  1
  Cu+  Cu78  1  0.91373470  0.33035533  0.67556185  1
  Cu+  Cu79  1  0.91595105  0.82993835  0.67429959  1
  Cu+  Cu80  1  0.41685258  0.08389415  0.67781819  1
  Cu+  Cu81  1  0.41548305  0.58057991  0.67369375  1
  Cu+  Cu82  1  0.91461874  0.08469504  0.67076691  1
  Cu+  Cu83  1  0.91573551  0.58447823  0.68230655  1
  Cu+  Cu84  1  0.00326545  0.24954877  0.00690083  1
  Cu+  Cu85  1  0.00131663  0.75014779  0.00758610  1
  Cu+  Cu86  1  0.50367741  0.25230710  0.01757512  1
  Cu+  Cu87  1  0.50347419  0.75116037  0.00788783  1
  Cu+  Cu88  1  0.25080396  0.49834804  0.00891581  1
  Cu+  Cu89  1  0.24930536  0.99704678  0.00570113  1
  Cu+  Cu90  1  0.75075837  0.49886571  0.01926915  1
  Cu+  Cu91  1  0.74900773  0.99632409  0.00547438  1
  Cu+  Cu92  1  0.24833174  0.25229111  0.01040338  1
  Cu+  Cu93  1  0.24745780  0.75158008  0.01173252  1
  Cu+  Cu94  1  0.74983758  0.25257032  0.01695626  1
  Cu+  Cu95  1  0.74843832  0.75253606  0.00561290  1
  Cu+  Cu96  1  0.33664509  0.41696356  0.34641895  1
  Cu+  Cu97  1  0.33439285  0.92027672  0.34138612  1
  Cu+  Cu98  1  0.83452576  0.41926673  0.34494203  1
  Cu+  Cu99  1  0.83828732  0.91902968  0.33763028  1
  Cu+  Cu100  1  0.08315339  0.16573445  0.33831239  1
  Cu+  Cu101  1  0.08202402  0.66675469  0.34689045  1
  Cu+  Cu102  1  0.58364373  0.16647176  0.34838183  1
  Cu+  Cu103  1  0.58408950  0.66428044  0.34590990  1
  Cu+  Cu104  1  0.08221742  0.42067369  0.34468131  1
  Cu+  Cu105  1  0.08248192  0.92134104  0.33794347  1
  Cu+  Cu106  1  0.58418947  0.41789302  0.34435538  1
  Cu+  Cu107  1  0.58298024  0.92084133  0.34265406  1
  Cu+  Cu108  1  0.00019451  -0.00203453  0.10867421  1
  Cu+  Cu109  1  0.00498581  0.49844227  0.11599558  1
  Cu+  Cu110  1  0.50237285  -0.00391074  0.11339596  1
  Cu+  Cu111  1  0.50172919  0.50520817  0.11472921  1
  Cu+  Cu112  1  0.33032012  0.16387691  0.44741271  1
  Cu+  Cu113  1  0.33424432  0.66809430  0.44142895  1
  Cu+  Cu114  1  0.83527851  0.16409031  0.44335689  1
  Cu+  Cu115  1  0.83568702  0.66891546  0.44834004  1
  Cu+  Cu116  1  0.16607545  0.33247873  0.78142562  1
  Cu+  Cu117  1  0.16988848  0.83532818  0.78089311  1
  Cu+  Cu118  1  0.66489642  0.32899885  0.79019969  1
  Cu+  Cu119  1  0.66814705  0.83229243  0.77950577  1
  Te2-  Te120  1  0.00094864  0.00263151  0.38362789  1
  Te2-  Te121  1  -0.00217012  0.50095160  0.39106242  1
  Te2-  Te122  1  0.49704109  -0.00040860  0.38924971  1
  Te2-  Te123  1  0.50223271  0.49886340  0.39109004  1
  Te2-  Te124  1  0.33275112  0.16470443  0.72018384  1
  Te2-  Te125  1  0.33258784  0.66346882  0.71489456  1
  Te2-  Te126  1  0.83159831  0.16485633  0.71687603  1
  Te2-  Te127  1  0.83177789  0.66749119  0.72262865  1
  Te2-  Te128  1  0.16572698  0.33522566  0.05554891  1
  Te2-  Te129  1  0.16439636  0.83518718  0.05476985  1
  Te2-  Te130  1  0.66759132  0.33416599  0.06539730  1
  Te2-  Te131  1  0.66723544  0.83386895  0.05274701  1
  Te2-  Te132  1  0.49836393  0.24925619  0.88950675  1
  Te2-  Te133  1  0.49258490  0.74566310  0.88265382  1
  Te2-  Te134  1  0.99588548  0.24710080  0.88149012  1
  Te2-  Te135  1  0.99200430  0.74853430  0.88226090  1
  Te2-  Te136  1  0.25286621  0.00209283  0.88002118  1
  Te2-  Te137  1  0.25391352  0.50624339  0.88345623  1
  Te2-  Te138  1  0.75236437  0.00489379  0.88007806  1
  Te2-  Te139  1  0.75255711  0.50879190  0.89078382  1
  Te2-  Te140  1  0.25265559  0.24744960  0.88376083  1
  Te2-  Te141  1  0.24935078  0.74375099  0.88477917  1
  Te2-  Te142  1  0.75391971  0.25134134  0.88892580  1
  Te2-  Te143  1  0.75226670  0.74749692  0.88021423  1
  Te2-  Te144  1  0.32766925  0.41586249  0.21888047  1
  Te2-  Te145  1  0.32569749  0.91848227  0.21565483  1
  Te2-  Te146  1  0.82547090  0.41379025  0.21903824  1
  Te2-  Te147  1  0.82884352  0.91462644  0.21245595  1
  Te2-  Te148  1  0.08612929  0.17835211  0.21339236  1
  Te2-  Te149  1  0.08505332  0.67709080  0.21968008  1
  Te2-  Te150  1  0.58875294  0.17756599  0.22024287  1
  Te2-  Te151  1  0.58681717  0.67095014  0.21850697  1
  Te2-  Te152  1  0.08623651  0.42003057  0.21689994  1
  Te2-  Te153  1  0.08905317  0.91921291  0.21224643  1
  Te2-  Te154  1  0.58747104  0.41245835  0.21855001  1
  Te2-  Te155  1  0.58258289  0.91622361  0.21509746  1
  Te2-  Te156  1  0.16334121  0.08245569  0.54774682  1
  Te2-  Te157  1  0.15579538  0.57461252  0.54804552  1
  Te2-  Te158  1  0.65208022  0.07504459  0.54989669  1
  Te2-  Te159  1  0.65904495  0.57542377  0.55165799  1
  Te2-  Te160  1  0.42465579  0.34090953  0.55168050  1
  Te2-  Te161  1  0.41533453  0.83474119  0.54607840  1
  Te2-  Te162  1  0.91406610  0.33914775  0.54933340  1
  Te2-  Te163  1  0.91800693  0.83478233  0.54819592  1
  Te2-  Te164  1  0.41803906  0.07612367  0.55154355  1
  Te2-  Te165  1  0.42072048  0.57615761  0.54733652  1
  Te2-  Te166  1  0.91479413  0.08071897  0.54420292  1
  Te2-  Te167  1  0.91800980  0.57589763  0.55418072  1
  Te2-  Te168  1  0.00028448  -0.00013549  0.87920723  1
  Te2-  Te169  1  0.00284262  0.50009208  0.88431061  1
  Te2-  Te170  1  0.49979695  -0.00394989  0.88346689  1
  Te2-  Te171  1  0.49981557  0.50119081  0.88369082  1
  Te2-  Te172  1  0.33361542  0.16606731  0.21442179  1
  Te2-  Te173  1  0.33512070  0.66761084  0.21739937  1
  Te2-  Te174  1  0.83483386  0.16559581  0.21490753  1
  Te2-  Te175  1  0.83664573  0.67030424  0.21551046  1
  Te2-  Te176  1  0.16558551  0.33213767  0.54700418  1
  Te2-  Te177  1  0.16811814  0.83254000  0.54826520  1
  Te2-  Te178  1  0.66656989  0.33205070  0.54922506  1
  Te2-  Te179  1  0.66622341  0.83229549  0.54669372  1
  Te2-  Te180  1  0.32818568  0.41184623  0.71295405  1
  Te2-  Te181  1  0.32963870  0.91213321  0.71182748  1
  Te2-  Te182  1  0.82607535  0.41179907  0.71562588  1
  Te2-  Te183  1  0.82866097  0.91413206  0.70872439  1
  Te2-  Te184  1  0.08496508  0.17137074  0.70942497  1
  Te2-  Te185  1  0.08893957  0.67234256  0.71138265  1
  Te2-  Te186  1  0.58599663  0.17086436  0.71681903  1
  Te2-  Te187  1  0.58491267  0.66996121  0.71152160  1
  Te2-  Te188  1  0.08358620  0.41199090  0.71244348  1
  Te2-  Te189  1  0.08672688  0.91415859  0.70924754  1
  Te2-  Te190  1  0.58621939  0.41201303  0.71672898  1
  Te2-  Te191  1  0.58507696  0.91177136  0.71096409  1
  Te2-  Te192  1  0.16099419  0.07924958  0.04043032  1
  Te2-  Te193  1  0.16189361  0.57970650  0.04554631  1
  Te2-  Te194  1  0.66114977  0.07855937  0.04302076  1
  Te2-  Te195  1  0.66146626  0.58360028  0.04467772  1
  Te2-  Te196  1  0.42064057  0.34296449  0.04279557  1
  Te2-  Te197  1  0.42024203  0.83839051  0.04410871  1
  Te2-  Te198  1  0.92349482  0.33987032  0.04418540  1
  Te2-  Te199  1  0.91868264  0.83813202  0.04207968  1
  Te2-  Te200  1  0.41886651  0.07836655  0.04220014  1
  Te2-  Te201  1  0.41976377  0.58234033  0.04670084  1
  Te2-  Te202  1  0.91893676  0.07994501  0.04197249  1
  Te2-  Te203  1  0.92409544  0.58177140  0.04482540  1
  Te2-  Te204  1  0.49263635  0.24796613  0.37814183  1
  Te2-  Te205  1  0.49326590  0.74757284  0.37144656  1
  Te2-  Te206  1  0.99465919  0.24758322  0.37432618  1
  Te2-  Te207  1  0.99456239  0.75169616  0.37747105  1
  Te2-  Te208  1  0.25115626  0.00578163  0.37788382  1
  Te2-  Te209  1  0.25500559  0.50880722  0.37187707  1
  Te2-  Te210  1  0.75504741  0.00591521  0.37315689  1
  Te2-  Te211  1  0.75366428  0.50747395  0.37980970  1
  Te2-  Te212  1  0.25188534  0.24507909  0.37657789  1
  Te2-  Te213  1  0.25534417  0.74980452  0.37364655  1
  Te2-  Te214  1  0.75635394  0.24867870  0.37597640  1
  Te2-  Te215  1  0.75661346  0.74972776  0.37636005  1
