# generated using pymatgen
data_Ti(CuTe)4
_symmetry_space_group_name_H-M   'P 1'
_cell_length_a   16.85368172
_cell_length_b   16.85420780
_cell_length_c   20.66010291
_cell_angle_alpha   90.02090201
_cell_angle_beta   89.98913590
_cell_angle_gamma   119.99665765
_symmetry_Int_Tables_number   1
_chemical_formula_structural   Ti(CuTe)4
_chemical_formula_sum   'Ti24 Cu96 Te96'
_cell_volume   5082.54042062
_cell_formula_units_Z   24
loop_
 _symmetry_equiv_pos_site_id
 _symmetry_equiv_pos_as_xyz
  1  'x, y, z'
loop_
 _atom_type_symbol
 _atom_type_oxidation_number
  Ti4+  4.0
  Cu+  1.0
  Te2-  -2.0
loop_
 _atom_site_type_symbol
 _atom_site_label
 _atom_site_symmetry_multiplicity
 _atom_site_fract_x
 _atom_site_fract_y
 _atom_site_fract_z
 _atom_site_occupancy
  Ti4+  Ti0  1  -0.00189287  -0.00133103  0.25754913  1
  Ti4+  Ti1  1  -0.00031957  0.49973984  0.25907073  1
  Ti4+  Ti2  1  0.49833722  0.00125352  0.25713353  1
  Ti4+  Ti3  1  0.50160905  0.49915615  0.25739938  1
  Ti4+  Ti4  1  0.32824670  0.16225747  0.59282613  1
  Ti4+  Ti5  1  0.33636976  0.66516762  0.59060418  1
  Ti4+  Ti6  1  0.83453091  0.16724620  0.59224482  1
  Ti4+  Ti7  1  0.83159494  0.66291290  0.58958814  1
  Ti4+  Ti8  1  0.16847828  0.33800043  0.92303774  1
  Ti4+  Ti9  1  0.16848645  0.83799668  0.92380215  1
  Ti4+  Ti10  1  0.66897413  0.33218840  0.92344144  1
  Ti4+  Ti11  1  0.66558836  0.83358330  0.92611663  1
  Ti4+  Ti12  1  0.00107206  -0.00047424  0.75633901  1
  Ti4+  Ti13  1  -0.00036110  0.49823474  0.75446245  1
  Ti4+  Ti14  1  0.50054749  0.00104332  0.75389566  1
  Ti4+  Ti15  1  0.49815485  0.50005507  0.75662380  1
  Ti4+  Ti16  1  0.33465653  0.16697566  0.08984755  1
  Ti4+  Ti17  1  0.33333847  0.66790087  0.08876342  1
  Ti4+  Ti18  1  0.83340421  0.16747736  0.08984155  1
  Ti4+  Ti19  1  0.83223837  0.66794122  0.08719930  1
  Ti4+  Ti20  1  0.16536512  0.33053548  0.42227910  1
  Ti4+  Ti21  1  0.16715026  0.83525840  0.42266410  1
  Ti4+  Ti22  1  0.66975062  0.33575168  0.42445394  1
  Ti4+  Ti23  1  0.66355754  0.83055231  0.42418227  1
  Cu+  Cu24  1  0.68392023  0.08809943  0.80991476  1
  Cu+  Cu25  1  0.06703678  0.13786461  0.47355374  1
  Cu+  Cu26  1  0.73904822  0.98436758  0.14583712  1
  Cu+  Cu27  1  0.41475116  0.09789762  0.80980914  1
  Cu+  Cu28  1  0.91184741  0.31372424  0.80724932  1
  Cu+  Cu29  1  0.86361402  0.42893153  0.47478777  1
  Cu+  Cu30  1  0.18655808  0.09840548  0.81095758  1
  Cu+  Cu31  1  0.56856723  0.63547209  0.47380322  1
  Cu+  Cu32  1  0.40541998  0.60044848  0.80633942  1
  Cu+  Cu33  1  0.73581019  0.75569841  0.14306372  1
  Cu+  Cu34  1  0.23742436  0.97783531  0.14213707  1
  Cu+  Cu35  1  0.52645719  0.26210090  0.13882715  1
  Cu+  Cu36  1  0.16212491  0.07860705  0.17137129  1
  Cu+  Cu37  1  0.16475467  0.58267061  0.17220041  1
  Cu+  Cu38  1  0.66209154  0.08071422  0.17057731  1
  Cu+  Cu39  1  0.66181314  0.58159448  0.16917071  1
  Cu+  Cu40  1  0.42373808  0.33558173  0.17058863  1
  Cu+  Cu41  1  0.41617775  0.83635056  0.16977018  1
  Cu+  Cu42  1  0.91820467  0.33885434  0.17305568  1
  Cu+  Cu43  1  0.91326380  0.83664810  0.16749695  1
  Cu+  Cu44  1  0.41749884  0.08254713  0.16990514  1
  Cu+  Cu45  1  0.41770818  0.58232287  0.17123209  1
  Cu+  Cu46  1  0.91592604  0.08081360  0.17140406  1
  Cu+  Cu47  1  0.91615216  0.57987910  0.17116850  1
  Cu+  Cu48  1  0.49715179  0.24554365  0.50786661  1
  Cu+  Cu49  1  0.49706625  0.74069223  0.50495617  1
  Cu+  Cu50  1  0.99762431  0.24388770  0.50394133  1
  Cu+  Cu51  1  0.99761064  0.74919763  0.50381218  1
  Cu+  Cu52  1  0.25028783  0.00339737  0.50612880  1
  Cu+  Cu53  1  0.25508482  0.50274755  0.50380983  1
  Cu+  Cu54  1  0.74793249  0.00253089  0.50693499  1
  Cu+  Cu55  1  0.75834877  0.50273721  0.50303000  1
  Cu+  Cu56  1  0.24250417  0.24038311  0.50460138  1
  Cu+  Cu57  1  0.25204380  0.75037303  0.50558050  1
  Cu+  Cu58  1  0.75608354  0.25430174  0.50755210  1
  Cu+  Cu59  1  0.74336409  0.74142167  0.50493430  1
  Cu+  Cu60  1  0.33147352  0.42425263  0.83591248  1
  Cu+  Cu61  1  0.32946622  0.92094229  0.83418865  1
  Cu+  Cu62  1  0.83233968  0.41171395  0.83534504  1
  Cu+  Cu63  1  0.83088164  0.91434402  0.83992751  1
  Cu+  Cu64  1  0.08696226  0.17100826  0.83660471  1
  Cu+  Cu65  1  0.08537574  0.67020208  0.83709831  1
  Cu+  Cu66  1  0.58869463  0.17175544  0.83478391  1
  Cu+  Cu67  1  0.58002619  0.66752866  0.83960030  1
  Cu+  Cu68  1  0.08458260  0.41517803  0.83550780  1
  Cu+  Cu69  1  0.08939358  0.92056045  0.83648351  1
  Cu+  Cu70  1  0.58454132  0.41533342  0.83768874  1
  Cu+  Cu71  1  0.58884719  0.91616874  0.83576235  1
  Cu+  Cu72  1  0.16726430  0.08149813  0.68113958  1
  Cu+  Cu73  1  0.16986030  0.58465028  0.67250669  1
  Cu+  Cu74  1  0.67001012  0.08665701  0.68002634  1
  Cu+  Cu75  1  0.66710661  0.58062203  0.67374399  1
  Cu+  Cu76  1  0.41353267  0.33015379  0.67381685  1
  Cu+  Cu77  1  0.41875389  0.83184736  0.67285790  1
  Cu+  Cu78  1  0.91556163  0.33014826  0.67943749  1
  Cu+  Cu79  1  0.91187634  0.82758953  0.67286601  1
  Cu+  Cu80  1  0.41168145  0.08176308  0.68008856  1
  Cu+  Cu81  1  0.41703641  0.58640334  0.67951501  1
  Cu+  Cu82  1  0.91523813  0.08043977  0.67579930  1
  Cu+  Cu83  1  0.91533159  0.58361102  0.67404588  1
  Cu+  Cu84  1  0.00324822  0.25534146  0.00901829  1
  Cu+  Cu85  1  0.00230372  0.75226924  0.00644260  1
  Cu+  Cu86  1  0.50531832  0.25242339  0.01214431  1
  Cu+  Cu87  1  0.49962175  0.75058677  0.00936667  1
  Cu+  Cu88  1  0.25011201  0.50127201  0.00778604  1
  Cu+  Cu89  1  0.24753235  0.99977732  0.01415331  1
  Cu+  Cu90  1  0.75069868  0.49916828  0.00537032  1
  Cu+  Cu91  1  0.75059486  0.99910424  0.01500207  1
  Cu+  Cu92  1  0.25048771  0.25425460  0.00723583  1
  Cu+  Cu93  1  0.24944268  0.75368660  0.00592000  1
  Cu+  Cu94  1  0.75150142  0.25113600  0.01015236  1
  Cu+  Cu95  1  0.74716459  0.75138883  0.01312479  1
  Cu+  Cu96  1  0.33416836  0.41569516  0.33972150  1
  Cu+  Cu97  1  0.33495539  0.92158593  0.34197618  1
  Cu+  Cu98  1  0.83928560  0.41946572  0.34632144  1
  Cu+  Cu99  1  0.83157638  0.91845365  0.34498057  1
  Cu+  Cu100  1  0.07905884  0.16094590  0.34459515  1
  Cu+  Cu101  1  0.08285331  0.66556177  0.34109744  1
  Cu+  Cu102  1  0.58256507  0.16661652  0.34207897  1
  Cu+  Cu103  1  0.58019747  0.66225019  0.34612833  1
  Cu+  Cu104  1  0.08410740  0.41769116  0.34162305  1
  Cu+  Cu105  1  0.08470240  0.91906210  0.34115272  1
  Cu+  Cu106  1  0.58400206  0.41701942  0.34324174  1
  Cu+  Cu107  1  0.58066217  0.91805300  0.34279288  1
  Cu+  Cu108  1  0.00145949  0.00272371  0.11261784  1
  Cu+  Cu109  1  0.00353790  0.50437316  0.11608663  1
  Cu+  Cu110  1  0.49896466  -0.00092936  0.11160923  1
  Cu+  Cu111  1  0.49587246  0.49833926  0.11329217  1
  Cu+  Cu112  1  0.33668098  0.17118550  0.45024971  1
  Cu+  Cu113  1  0.33068413  0.66917999  0.44815895  1
  Cu+  Cu114  1  0.83116203  0.16621342  0.44964129  1
  Cu+  Cu115  1  0.83604627  0.67185613  0.44567750  1
  Cu+  Cu116  1  0.16738850  0.33290783  0.77705552  1
  Cu+  Cu117  1  0.16222614  0.82850442  0.77953775  1
  Cu+  Cu118  1  0.66918997  0.33962720  0.77893163  1
  Cu+  Cu119  1  0.66879202  0.82875060  0.78263398  1
  Te2-  Te120  1  -0.00351317  -0.00559415  0.38798659  1
  Te2-  Te121  1  0.00648658  0.50286459  0.38987560  1
  Te2-  Te122  1  0.49956972  0.00188124  0.38610344  1
  Te2-  Te123  1  0.49692470  0.49438940  0.38780423  1
  Te2-  Te124  1  0.33362206  0.16905014  0.72563562  1
  Te2-  Te125  1  0.33231365  0.66945700  0.72121920  1
  Te2-  Te126  1  0.83571042  0.16386081  0.72486476  1
  Te2-  Te127  1  0.83139252  0.66380568  0.71878585  1
  Te2-  Te128  1  0.16854352  0.33659170  0.05200411  1
  Te2-  Te129  1  0.16519352  0.83219004  0.05413558  1
  Te2-  Te130  1  0.67248283  0.33675649  0.05383386  1
  Te2-  Te131  1  0.66263937  0.83263508  0.05871097  1
  Te2-  Te132  1  0.49535385  0.24873840  0.88510913  1
  Te2-  Te133  1  0.49297825  0.75152631  0.88322127  1
  Te2-  Te134  1  0.99493108  0.24535770  0.88291966  1
  Te2-  Te135  1  0.99798546  0.75175762  0.88043959  1
  Te2-  Te136  1  0.25762357  0.01535274  0.88570045  1
  Te2-  Te137  1  0.25069962  0.51198800  0.88186317  1
  Te2-  Te138  1  0.75623826  0.00683622  0.88686053  1
  Te2-  Te139  1  0.75385915  0.50180323  0.87962766  1
  Te2-  Te140  1  0.25885389  0.25563274  0.88148557  1
  Te2-  Te141  1  0.25444415  0.75352476  0.88003099  1
  Te2-  Te142  1  0.75665821  0.24351474  0.88351719  1
  Te2-  Te143  1  0.74852558  0.74626179  0.88548788  1
  Te2-  Te144  1  0.33161055  0.41265155  0.21384655  1
  Te2-  Te145  1  0.32474981  0.91244253  0.21591323  1
  Te2-  Te146  1  0.82686072  0.41377010  0.21938705  1
  Te2-  Te147  1  0.82119834  0.91140777  0.21833500  1
  Te2-  Te148  1  0.08392922  0.16894892  0.21715910  1
  Te2-  Te149  1  0.08421705  0.67065725  0.21519883  1
  Te2-  Te150  1  0.58841742  0.17426680  0.21565735  1
  Te2-  Te151  1  0.58411525  0.67309654  0.21875899  1
  Te2-  Te152  1  0.08611801  0.41453727  0.21600050  1
  Te2-  Te153  1  0.08056872  0.90831576  0.21505510  1
  Te2-  Te154  1  0.59213651  0.41560088  0.21670959  1
  Te2-  Te155  1  0.58226238  0.91118149  0.21710335  1
  Te2-  Te156  1  0.15435622  0.07326723  0.55348355  1
  Te2-  Te157  1  0.16540689  0.58107154  0.54707209  1
  Te2-  Te158  1  0.66368044  0.08551409  0.55280652  1
  Te2-  Te159  1  0.65806339  0.57075803  0.54798631  1
  Te2-  Te160  1  0.41231771  0.33151101  0.54782847  1
  Te2-  Te161  1  0.42220386  0.83569702  0.54710258  1
  Te2-  Te162  1  0.92670624  0.34009810  0.55195284  1
  Te2-  Te163  1  0.91320945  0.83371722  0.54692601  1
  Te2-  Te164  1  0.41658424  0.07857248  0.55332893  1
  Te2-  Te165  1  0.41984350  0.57318053  0.55270755  1
  Te2-  Te166  1  0.91539765  0.07508260  0.55039705  1
  Te2-  Te167  1  0.92586872  0.58227775  0.54895359  1
  Te2-  Te168  1  0.00113619  0.00122966  0.88367421  1
  Te2-  Te169  1  0.00095995  0.50181553  0.88179351  1
  Te2-  Te170  1  0.50022153  0.00016987  0.88150340  1
  Te2-  Te171  1  0.49982426  0.49894126  0.88390804  1
  Te2-  Te172  1  0.33195899  0.16638246  0.21725353  1
  Te2-  Te173  1  0.33340479  0.66728802  0.21548334  1
  Te2-  Te174  1  0.83282589  0.16803208  0.21692384  1
  Te2-  Te175  1  0.83272382  0.66688000  0.21438666  1
  Te2-  Te176  1  0.16704391  0.33349115  0.54943479  1
  Te2-  Te177  1  0.16618795  0.83309297  0.54937787  1
  Te2-  Te178  1  0.66622331  0.33407920  0.55154427  1
  Te2-  Te179  1  0.66598071  0.83285862  0.55118702  1
  Te2-  Te180  1  0.32636300  0.41257134  0.70888522  1
  Te2-  Te181  1  0.32650726  0.90957805  0.70835998  1
  Te2-  Te182  1  0.82642728  0.41378957  0.70840018  1
  Te2-  Te183  1  0.82809959  0.91185727  0.71299175  1
  Te2-  Te184  1  0.08494959  0.17257840  0.70940909  1
  Te2-  Te185  1  0.08544513  0.66985167  0.70976188  1
  Te2-  Te186  1  0.58583373  0.17592965  0.70800462  1
  Te2-  Te187  1  0.58941776  0.67227329  0.71147641  1
  Te2-  Te188  1  0.08930749  0.41498573  0.70834542  1
  Te2-  Te189  1  0.08209964  0.90838755  0.70958887  1
  Te2-  Te190  1  0.58232794  0.41199200  0.71103083  1
  Te2-  Te191  1  0.58760766  0.91336246  0.70955908  1
  Te2-  Te192  1  0.16141358  0.08578875  0.04402451  1
  Te2-  Te193  1  0.16188572  0.58354948  0.04420029  1
  Te2-  Te194  1  0.65982890  0.08139057  0.04341835  1
  Te2-  Te195  1  0.65898429  0.57749523  0.04200604  1
  Te2-  Te196  1  0.41968815  0.33948900  0.04330424  1
  Te2-  Te197  1  0.41870365  0.84005338  0.04318308  1
  Te2-  Te198  1  0.92044532  0.34093017  0.04650923  1
  Te2-  Te199  1  0.92093832  0.84132680  0.04117286  1
  Te2-  Te200  1  0.42109326  0.08010178  0.04225196  1
  Te2-  Te201  1  0.41951384  0.58122409  0.04432529  1
  Te2-  Te202  1  0.92344585  0.08476978  0.04400940  1
  Te2-  Te203  1  0.91955186  0.58245640  0.04402371  1
  Te2-  Te204  1  0.49662323  0.24836052  0.38076346  1
  Te2-  Te205  1  0.49172515  0.74702644  0.37761581  1
  Te2-  Te206  1  0.99245386  0.24717545  0.37697997  1
  Te2-  Te207  1  0.99567095  0.74851668  0.37682397  1
  Te2-  Te208  1  0.25315874  0.00864290  0.37952190  1
  Te2-  Te209  1  0.25371599  0.50370001  0.37779518  1
  Te2-  Te210  1  0.74897013  0.00442164  0.38066979  1
  Te2-  Te211  1  0.75432873  0.50794123  0.37682690  1
  Te2-  Te212  1  0.25252132  0.24552938  0.37668975  1
  Te2-  Te213  1  0.25336901  0.75028431  0.37765428  1
  Te2-  Te214  1  0.75256824  0.24651792  0.37938611  1
  Te2-  Te215  1  0.75262654  0.74747094  0.37727948  1
