# generated using pymatgen
data_Ti(CuTe)4
_symmetry_space_group_name_H-M   'P 1'
_cell_length_a   16.84986234
_cell_length_b   16.84901403
_cell_length_c   20.65109760
_cell_angle_alpha   89.98166907
_cell_angle_beta   90.00941809
_cell_angle_gamma   119.99575073
_symmetry_Int_Tables_number   1
_chemical_formula_structural   Ti(CuTe)4
_chemical_formula_sum   'Ti24 Cu96 Te96'
_cell_volume   5077.65503260
_cell_formula_units_Z   24
loop_
 _symmetry_equiv_pos_site_id
 _symmetry_equiv_pos_as_xyz
  1  'x, y, z'
loop_
 _atom_type_symbol
 _atom_type_oxidation_number
  Ti4+  4.0
  Cu+  1.0
  Te2-  -2.0
loop_
 _atom_site_type_symbol
 _atom_site_label
 _atom_site_symmetry_multiplicity
 _atom_site_fract_x
 _atom_site_fract_y
 _atom_site_fract_z
 _atom_site_occupancy
  Ti4+  Ti0  1  -0.00157302  0.00222132  0.25913307  1
  Ti4+  Ti1  1  -0.00245501  0.50080721  0.25968076  1
  Ti4+  Ti2  1  0.50031328  0.00161283  0.25622149  1
  Ti4+  Ti3  1  0.49710556  0.50198017  0.25924134  1
  Ti4+  Ti4  1  0.32930065  0.16350608  0.59212920  1
  Ti4+  Ti5  1  0.33416145  0.66338629  0.58742193  1
  Ti4+  Ti6  1  0.83309474  0.16675272  0.59183825  1
  Ti4+  Ti7  1  0.83559696  0.66652676  0.59066915  1
  Ti4+  Ti8  1  0.16389850  0.33148586  0.92633155  1
  Ti4+  Ti9  1  0.16939117  0.83581129  0.92185574  1
  Ti4+  Ti10  1  0.66733116  0.33312832  0.92415524  1
  Ti4+  Ti11  1  0.67083731  0.83284420  0.92335114  1
  Ti4+  Ti12  1  -0.00112739  -0.00048058  0.75283102  1
  Ti4+  Ti13  1  0.00010541  0.49934954  0.75590877  1
  Ti4+  Ti14  1  0.49829699  -0.00052112  0.75322980  1
  Ti4+  Ti15  1  0.50261259  0.49898659  0.75678945  1
  Ti4+  Ti16  1  0.33234790  0.16689470  0.09092259  1
  Ti4+  Ti17  1  0.33430460  0.66664038  0.08900086  1
  Ti4+  Ti18  1  0.83321265  0.16596457  0.08871821  1
  Ti4+  Ti19  1  0.83367161  0.66753863  0.09266943  1
  Ti4+  Ti20  1  0.16685741  0.33429978  0.42167087  1
  Ti4+  Ti21  1  0.16490608  0.83470343  0.42231232  1
  Ti4+  Ti22  1  0.66709808  0.33388395  0.42187789  1
  Ti4+  Ti23  1  0.66566961  0.83222708  0.42344190  1
  Cu+  Cu24  1  0.34952509  0.41753250  0.47711725  1
  Cu+  Cu25  1  0.23495066  0.26361778  0.14259253  1
  Cu+  Cu26  1  0.17796421  0.09468486  0.81208744  1
  Cu+  Cu27  1  0.90649482  0.09408792  0.80792625  1
  Cu+  Cu28  1  0.07751969  0.65032222  0.47537399  1
  Cu+  Cu29  1  0.41040383  0.09880894  0.80675205  1
  Cu+  Cu30  1  0.85252525  0.42279752  0.47578062  1
  Cu+  Cu31  1  0.69000329  0.59094597  0.81048239  1
  Cu+  Cu32  1  0.73656105  0.76441952  0.14350420  1
  Cu+  Cu33  1  0.58128239  0.64593252  0.47766559  1
  Cu+  Cu34  1  0.06873411  0.93081605  0.47339548  1
  Cu+  Cu35  1  0.91550250  0.82194708  0.81114242  1
  Cu+  Cu36  1  0.16463643  0.08808712  0.17354684  1
  Cu+  Cu37  1  0.16472065  0.58551120  0.17332951  1
  Cu+  Cu38  1  0.66413244  0.08359867  0.16957262  1
  Cu+  Cu39  1  0.66424986  0.58952545  0.17372505  1
  Cu+  Cu40  1  0.40909848  0.33474220  0.17328890  1
  Cu+  Cu41  1  0.41809013  0.83628149  0.16973358  1
  Cu+  Cu42  1  0.91282728  0.33511623  0.17330493  1
  Cu+  Cu43  1  0.91283645  0.83565598  0.17423768  1
  Cu+  Cu44  1  0.41961328  0.08190015  0.17092410  1
  Cu+  Cu45  1  0.41740065  0.58180685  0.17225860  1
  Cu+  Cu46  1  0.91791698  0.08231515  0.17049982  1
  Cu+  Cu47  1  0.91773234  0.58127926  0.17513723  1
  Cu+  Cu48  1  0.49724618  0.24434369  0.50371229  1
  Cu+  Cu49  1  0.49869182  0.74148519  0.50140074  1
  Cu+  Cu50  1  0.99640116  0.24635959  0.50464275  1
  Cu+  Cu51  1  0.99922152  0.75091682  0.50208016  1
  Cu+  Cu52  1  0.24447250  0.00195909  0.50439608  1
  Cu+  Cu53  1  0.25651917  0.50307637  0.49958524  1
  Cu+  Cu54  1  0.75273540  0.00208698  0.50638742  1
  Cu+  Cu55  1  0.75324593  0.50076590  0.50182938  1
  Cu+  Cu56  1  0.25084068  0.24623433  0.50477324  1
  Cu+  Cu57  1  0.25117575  0.74597606  0.50189326  1
  Cu+  Cu58  1  0.75317310  0.25018024  0.50449847  1
  Cu+  Cu59  1  0.75207300  0.74702156  0.50595167  1
  Cu+  Cu60  1  0.33167791  0.41440280  0.84018146  1
  Cu+  Cu61  1  0.33260866  0.92006921  0.83332308  1
  Cu+  Cu62  1  0.83173638  0.41555137  0.83728942  1
  Cu+  Cu63  1  0.82752868  0.91299067  0.83238739  1
  Cu+  Cu64  1  0.08271632  0.17408178  0.83643443  1
  Cu+  Cu65  1  0.08640176  0.66821920  0.83601370  1
  Cu+  Cu66  1  0.58303131  0.16864964  0.83643588  1
  Cu+  Cu67  1  0.59083807  0.66787707  0.83710089  1
  Cu+  Cu68  1  0.08449442  0.41674264  0.83969225  1
  Cu+  Cu69  1  0.09108800  0.91473707  0.83118002  1
  Cu+  Cu70  1  0.58984283  0.41696299  0.83720176  1
  Cu+  Cu71  1  0.58526273  0.91513603  0.83501570  1
  Cu+  Cu72  1  0.16638792  0.08286049  0.68122728  1
  Cu+  Cu73  1  0.16900381  0.58199115  0.67200470  1
  Cu+  Cu74  1  0.66748067  0.08325079  0.67341940  1
  Cu+  Cu75  1  0.67055104  0.58326838  0.68038920  1
  Cu+  Cu76  1  0.41543917  0.33199905  0.67574029  1
  Cu+  Cu77  1  0.41620239  0.82807671  0.66949055  1
  Cu+  Cu78  1  0.91561696  0.33139041  0.67573219  1
  Cu+  Cu79  1  0.91395815  0.82990153  0.68004540  1
  Cu+  Cu80  1  0.41032617  0.08265113  0.67817274  1
  Cu+  Cu81  1  0.41530176  0.58096454  0.67574044  1
  Cu+  Cu82  1  0.91352612  0.08566332  0.67912622  1
  Cu+  Cu83  1  0.91763494  0.58349345  0.67480892  1
  Cu+  Cu84  1  0.00053803  0.24964563  0.01112210  1
  Cu+  Cu85  1  0.00333910  0.74946093  0.00812879  1
  Cu+  Cu86  1  0.50229962  0.25084666  0.00976969  1
  Cu+  Cu87  1  0.50371400  0.74737479  0.00698086  1
  Cu+  Cu88  1  0.25016029  0.49859018  0.01006358  1
  Cu+  Cu89  1  0.25075409  0.99856245  0.00885342  1
  Cu+  Cu90  1  0.75136897  0.49864077  0.01092698  1
  Cu+  Cu91  1  0.75198398  0.99760983  0.00767455  1
  Cu+  Cu92  1  0.24541985  0.24952670  0.01479557  1
  Cu+  Cu93  1  0.25054595  0.75206967  0.00491793  1
  Cu+  Cu94  1  0.74862062  0.25085192  0.00662874  1
  Cu+  Cu95  1  0.75205355  0.75200001  0.01483344  1
  Cu+  Cu96  1  0.33490998  0.41829281  0.34796506  1
  Cu+  Cu97  1  0.33623821  0.92087985  0.33941438  1
  Cu+  Cu98  1  0.83539969  0.42030506  0.34675738  1
  Cu+  Cu99  1  0.83331243  0.91702707  0.34371407  1
  Cu+  Cu100  1  0.08226439  0.16668744  0.34342562  1
  Cu+  Cu101  1  0.07964216  0.66450148  0.34653784  1
  Cu+  Cu102  1  0.58127352  0.16468997  0.33923675  1
  Cu+  Cu103  1  0.58182537  0.66446200  0.34819228  1
  Cu+  Cu104  1  0.07970752  0.41535921  0.34052476  1
  Cu+  Cu105  1  0.08179934  0.92383733  0.34514024  1
  Cu+  Cu106  1  0.57935680  0.41589326  0.33975618  1
  Cu+  Cu107  1  0.58329134  0.92174704  0.33934086  1
  Cu+  Cu108  1  0.00157174  -0.00204085  0.11623239  1
  Cu+  Cu109  1  0.00355721  0.49741388  0.11820112  1
  Cu+  Cu110  1  0.50210647  -0.00303873  0.11226643  1
  Cu+  Cu111  1  0.50232624  0.49714764  0.11650646  1
  Cu+  Cu112  1  0.33555259  0.16640871  0.44848083  1
  Cu+  Cu113  1  0.33547763  0.67131340  0.44191331  1
  Cu+  Cu114  1  0.82951825  0.16472253  0.44853951  1
  Cu+  Cu115  1  0.83389602  0.66642900  0.44586289  1
  Cu+  Cu116  1  0.17000361  0.34158571  0.78343817  1
  Cu+  Cu117  1  0.17162904  0.82628040  0.77679394  1
  Cu+  Cu118  1  0.66980669  0.32964264  0.77843775  1
  Cu+  Cu119  1  0.65856531  0.82931005  0.77859530  1
  Te2-  Te120  1  -0.00373984  0.00384990  0.39038945  1
  Te2-  Te121  1  0.00129694  0.49856856  0.39241013  1
  Te2-  Te122  1  0.49960872  0.00143940  0.38618644  1
  Te2-  Te123  1  0.50114873  0.49784310  0.39168526  1
  Te2-  Te124  1  0.33233641  0.16991180  0.72451540  1
  Te2-  Te125  1  0.33349455  0.66508203  0.71640269  1
  Te2-  Te126  1  0.82969218  0.16800998  0.72290644  1
  Te2-  Te127  1  0.83678279  0.66463330  0.72288056  1
  Te2-  Te128  1  0.16410791  0.33571471  0.05699065  1
  Te2-  Te129  1  0.16841987  0.83323744  0.05085720  1
  Te2-  Te130  1  0.66739340  0.33318199  0.05332873  1
  Te2-  Te131  1  0.66629544  0.83440923  0.05405146  1
  Te2-  Te132  1  0.49366477  0.25046827  0.88316375  1
  Te2-  Te133  1  0.50055747  0.74670492  0.88054975  1
  Te2-  Te134  1  0.99017451  0.24786806  0.88466087  1
  Te2-  Te135  1  0.99587675  0.74623293  0.88179378  1
  Te2-  Te136  1  0.25620453  0.01281658  0.88213257  1
  Te2-  Te137  1  0.25233162  0.50289237  0.88425354  1
  Te2-  Te138  1  0.75312377  0.00576059  0.88150880  1
  Te2-  Te139  1  0.75866749  0.50829695  0.88507642  1
  Te2-  Te140  1  0.25217754  0.24636971  0.88691769  1
  Te2-  Te141  1  0.25565343  0.75165608  0.87876558  1
  Te2-  Te142  1  0.75104203  0.24623404  0.88030830  1
  Te2-  Te143  1  0.76045917  0.74608830  0.88540187  1
  Te2-  Te144  1  0.32236045  0.41558032  0.22083270  1
  Te2-  Te145  1  0.32763023  0.91441428  0.21391250  1
  Te2-  Te146  1  0.82483395  0.41414257  0.22019902  1
  Te2-  Te147  1  0.82410262  0.91666315  0.21823949  1
  Te2-  Te148  1  0.08342959  0.17648776  0.21807571  1
  Te2-  Te149  1  0.08494884  0.67336700  0.22001959  1
  Te2-  Te150  1  0.58711390  0.17443106  0.21388734  1
  Te2-  Te151  1  0.58376773  0.67671364  0.22083405  1
  Te2-  Te152  1  0.08246688  0.41539605  0.21476926  1
  Te2-  Te153  1  0.08404921  0.91766051  0.21768508  1
  Te2-  Te154  1  0.58086949  0.41720316  0.21330537  1
  Te2-  Te155  1  0.58660089  0.91567058  0.21354253  1
  Te2-  Te156  1  0.15518705  0.08122757  0.55300154  1
  Te2-  Te157  1  0.16072123  0.57456298  0.54632540  1
  Te2-  Te158  1  0.66250230  0.08211358  0.54747076  1
  Te2-  Te159  1  0.66251929  0.57522678  0.55274184  1
  Te2-  Te160  1  0.42192588  0.33630212  0.55021771  1
  Te2-  Te161  1  0.42037847  0.83366897  0.54343616  1
  Te2-  Te162  1  0.92363770  0.34064121  0.55010968  1
  Te2-  Te163  1  0.91905042  0.83950251  0.55179176  1
  Te2-  Te164  1  0.41312172  0.07676489  0.55065193  1
  Te2-  Te165  1  0.42323429  0.57401588  0.54976564  1
  Te2-  Te166  1  0.91990864  0.08057461  0.55282957  1
  Te2-  Te167  1  0.92308240  0.57964985  0.54867733  1
  Te2-  Te168  1  0.00087708  -0.00128289  0.88099628  1
  Te2-  Te169  1  0.00043280  0.50126052  0.88240751  1
  Te2-  Te170  1  0.50066541  -0.00148071  0.88056178  1
  Te2-  Te171  1  0.50131381  0.49923545  0.88403137  1
  Te2-  Te172  1  0.33431473  0.16568684  0.21786749  1
  Te2-  Te173  1  0.33366287  0.66852661  0.21542099  1
  Te2-  Te174  1  0.83197893  0.16595967  0.21498107  1
  Te2-  Te175  1  0.83282331  0.66648103  0.21971206  1
  Te2-  Te176  1  0.16709307  0.33389535  0.54898904  1
  Te2-  Te177  1  0.16805308  0.83181010  0.55009422  1
  Te2-  Te178  1  0.66544242  0.33173754  0.54947455  1
  Te2-  Te179  1  0.66658944  0.83237467  0.55074578  1
  Te2-  Te180  1  0.32859381  0.41295290  0.71358625  1
  Te2-  Te181  1  0.32676953  0.90904683  0.70568592  1
  Te2-  Te182  1  0.82788884  0.41396407  0.71010396  1
  Te2-  Te183  1  0.82324328  0.91182625  0.70646746  1
  Te2-  Te184  1  0.08652541  0.17615247  0.70991376  1
  Te2-  Te185  1  0.08754695  0.67015865  0.70834095  1
  Te2-  Te186  1  0.58496290  0.17198976  0.70799474  1
  Te2-  Te187  1  0.58579498  0.67131748  0.70959318  1
  Te2-  Te188  1  0.08604149  0.41337717  0.71176569  1
  Te2-  Te189  1  0.08660289  0.90994584  0.70572779  1
  Te2-  Te190  1  0.58610673  0.40971565  0.70988675  1
  Te2-  Te191  1  0.58440543  0.91330267  0.70842181  1
  Te2-  Te192  1  0.15958012  0.07689522  0.04565537  1
  Te2-  Te193  1  0.16233058  0.58240583  0.04531763  1
  Te2-  Te194  1  0.66219380  0.07981893  0.04214373  1
  Te2-  Te195  1  0.66163956  0.57919789  0.04604988  1
  Te2-  Te196  1  0.41960702  0.33910209  0.04517030  1
  Te2-  Te197  1  0.42113610  0.83701716  0.04200019  1
  Te2-  Te198  1  0.91808448  0.33881942  0.04573810  1
  Te2-  Te199  1  0.92428586  0.83946634  0.04627103  1
  Te2-  Te200  1  0.41970407  0.08141817  0.04511251  1
  Te2-  Te201  1  0.42028923  0.57886471  0.04598485  1
  Te2-  Te202  1  0.92073641  0.07935559  0.04476060  1
  Te2-  Te203  1  0.92042302  0.58141203  0.04878671  1
  Te2-  Te204  1  0.49463628  0.24704201  0.37730336  1
  Te2-  Te205  1  0.49468714  0.75095561  0.37458692  1
  Te2-  Te206  1  0.99277613  0.24692788  0.37865728  1
  Te2-  Te207  1  0.99166973  0.74995537  0.37486328  1
  Te2-  Te208  1  0.25403694  0.00778025  0.37751905  1
  Te2-  Te209  1  0.25030180  0.50766819  0.37376173  1
  Te2-  Te210  1  0.75143650  0.00470258  0.37963915  1
  Te2-  Te211  1  0.74908584  0.50719439  0.37539003  1
  Te2-  Te212  1  0.25208565  0.24478701  0.37763297  1
  Te2-  Te213  1  0.25327279  0.75096449  0.37496428  1
  Te2-  Te214  1  0.75157610  0.24611283  0.37666281  1
  Te2-  Te215  1  0.75452014  0.74757446  0.37842426  1
