# generated using pymatgen
data_Ti(CuTe)4
_symmetry_space_group_name_H-M   'P 1'
_cell_length_a   16.88428764
_cell_length_b   16.89130649
_cell_length_c   20.70556762
_cell_angle_alpha   90.06292034
_cell_angle_beta   90.01681259
_cell_angle_gamma   119.99128466
_symmetry_Int_Tables_number   1
_chemical_formula_structural   Ti(CuTe)4
_chemical_formula_sum   'Ti24 Cu96 Te96'
_cell_volume   5114.47927566
_cell_formula_units_Z   24
loop_
 _symmetry_equiv_pos_site_id
 _symmetry_equiv_pos_as_xyz
  1  'x, y, z'
loop_
 _atom_type_symbol
 _atom_type_oxidation_number
  Ti4+  4.0
  Cu+  1.0
  Te2-  -2.0
loop_
 _atom_site_type_symbol
 _atom_site_label
 _atom_site_symmetry_multiplicity
 _atom_site_fract_x
 _atom_site_fract_y
 _atom_site_fract_z
 _atom_site_occupancy
  Ti4+  Ti0  1  -0.00369298  -0.00214304  0.26263269  1
  Ti4+  Ti1  1  -0.00261869  0.49871788  0.25584455  1
  Ti4+  Ti2  1  0.49642617  -0.00462123  0.25820181  1
  Ti4+  Ti3  1  0.49942986  0.49903988  0.25434670  1
  Ti4+  Ti4  1  0.33613223  0.16592733  0.58797463  1
  Ti4+  Ti5  1  0.33433856  0.66741295  0.59132258  1
  Ti4+  Ti6  1  0.83381963  0.16699206  0.59057495  1
  Ti4+  Ti7  1  0.83594102  0.66914498  0.59261062  1
  Ti4+  Ti8  1  0.16500323  0.33189938  0.92190951  1
  Ti4+  Ti9  1  0.16666180  0.83285555  0.92794866  1
  Ti4+  Ti10  1  0.66685381  0.33423997  0.92375627  1
  Ti4+  Ti11  1  0.66764676  0.83448505  0.92488667  1
  Ti4+  Ti12  1  0.00106050  0.00244766  0.75677034  1
  Ti4+  Ti13  1  0.00172327  0.50187565  0.75512728  1
  Ti4+  Ti14  1  0.50071852  0.00022167  0.75798151  1
  Ti4+  Ti15  1  0.50200822  0.50077708  0.75344984  1
  Ti4+  Ti16  1  0.33284869  0.16729697  0.08882933  1
  Ti4+  Ti17  1  0.33389424  0.66892077  0.08718011  1
  Ti4+  Ti18  1  0.83298858  0.16551532  0.09051047  1
  Ti4+  Ti19  1  0.83293828  0.66566228  0.08914412  1
  Ti4+  Ti20  1  0.16637045  0.33391412  0.41953897  1
  Ti4+  Ti21  1  0.16712945  0.83335823  0.42106514  1
  Ti4+  Ti22  1  0.66599162  0.33261557  0.42079989  1
  Ti4+  Ti23  1  0.66671243  0.83407644  0.42242549  1
  Cu+  Cu24  1  0.40417282  0.80940703  0.81011342  1
  Cu+  Cu25  1  0.73660519  0.97373145  0.14249403  1
  Cu+  Cu26  1  0.08176951  0.91951288  0.48575217  1
  Cu+  Cu27  1  0.23482112  0.98231078  0.14549361  1
  Cu+  Cu28  1  0.73678812  0.47513672  0.13876328  1
  Cu+  Cu29  1  0.84415755  0.92210151  0.48411283  1
  Cu+  Cu30  1  0.07898375  0.15625795  0.47918509  1
  Cu+  Cu31  1  0.23706333  0.75444569  0.14466190  1
  Cu+  Cu32  1  0.90354254  0.09472041  0.80834351  1
  Cu+  Cu33  1  0.90909760  0.81620606  0.81265317  1
  Cu+  Cu34  1  0.34813492  0.92006350  0.47885329  1
  Cu+  Cu35  1  0.57857461  0.14575680  0.47164222  1
  Cu+  Cu36  1  0.16265698  0.08085260  0.17503006  1
  Cu+  Cu37  1  0.16234274  0.58321459  0.16969661  1
  Cu+  Cu38  1  0.66438806  0.07658973  0.17234954  1
  Cu+  Cu39  1  0.66328590  0.57728154  0.16896847  1
  Cu+  Cu40  1  0.41847771  0.33930538  0.16771332  1
  Cu+  Cu41  1  0.41298705  0.83700520  0.16910532  1
  Cu+  Cu42  1  0.91788974  0.33644165  0.17029221  1
  Cu+  Cu43  1  0.91626681  0.83679652  0.17393544  1
  Cu+  Cu44  1  0.41168179  0.07806505  0.17116300  1
  Cu+  Cu45  1  0.41892965  0.58287905  0.16894130  1
  Cu+  Cu46  1  0.91063648  0.07647754  0.17476150  1
  Cu+  Cu47  1  0.91200031  0.57571931  0.16914218  1
  Cu+  Cu48  1  0.49996826  0.24392918  0.50024796  1
  Cu+  Cu49  1  0.49691734  0.75008847  0.50449749  1
  Cu+  Cu50  1  0.99773949  0.24838066  0.50233351  1
  Cu+  Cu51  1  0.99461798  0.74779342  0.50428410  1
  Cu+  Cu52  1  0.25810544  0.00754464  0.49982477  1
  Cu+  Cu53  1  0.25177619  0.50434477  0.50331759  1
  Cu+  Cu54  1  0.75474344  0.00654573  0.50280933  1
  Cu+  Cu55  1  0.75353630  0.50374516  0.50532379  1
  Cu+  Cu56  1  0.25243266  0.24895330  0.50013645  1
  Cu+  Cu57  1  0.25620622  0.74864571  0.50361396  1
  Cu+  Cu58  1  0.74885302  0.24640051  0.50355980  1
  Cu+  Cu59  1  0.75393655  0.75025166  0.50499378  1
  Cu+  Cu60  1  0.33135826  0.41255783  0.83552315  1
  Cu+  Cu61  1  0.33232564  0.91315829  0.84200409  1
  Cu+  Cu62  1  0.83169166  0.41697075  0.83813855  1
  Cu+  Cu63  1  0.83168192  0.91834478  0.83815113  1
  Cu+  Cu64  1  0.08035683  0.17179157  0.83612211  1
  Cu+  Cu65  1  0.08663272  0.67075677  0.83883609  1
  Cu+  Cu66  1  0.58591105  0.17228625  0.83930946  1
  Cu+  Cu67  1  0.58643043  0.66973512  0.83616067  1
  Cu+  Cu68  1  0.08321347  0.41335705  0.83558680  1
  Cu+  Cu69  1  0.08414590  0.91462958  0.84105303  1
  Cu+  Cu70  1  0.58626604  0.41633694  0.83696703  1
  Cu+  Cu71  1  0.58220574  0.91403784  0.83918170  1
  Cu+  Cu72  1  0.17138848  0.08603959  0.67536779  1
  Cu+  Cu73  1  0.17019939  0.58729885  0.67449026  1
  Cu+  Cu74  1  0.66886562  0.08516101  0.67616729  1
  Cu+  Cu75  1  0.67156415  0.58680960  0.67520792  1
  Cu+  Cu76  1  0.41918700  0.33172159  0.67007415  1
  Cu+  Cu77  1  0.41509340  0.83048546  0.68115437  1
  Cu+  Cu78  1  0.91658618  0.33335688  0.67306497  1
  Cu+  Cu79  1  0.91833162  0.83351569  0.68288002  1
  Cu+  Cu80  1  0.41770074  0.08371934  0.67585004  1
  Cu+  Cu81  1  0.41755692  0.58563017  0.67386740  1
  Cu+  Cu82  1  0.91801392  0.08769948  0.68048704  1
  Cu+  Cu83  1  0.91888442  0.58816816  0.67633409  1
  Cu+  Cu84  1  0.00225447  0.25013180  0.00823911  1
  Cu+  Cu85  1  0.00080108  0.75187451  0.01138187  1
  Cu+  Cu86  1  0.50189401  0.25333928  0.00710751  1
  Cu+  Cu87  1  0.50258005  0.75327607  0.00929755  1
  Cu+  Cu88  1  0.24873366  0.49661883  0.00412103  1
  Cu+  Cu89  1  0.24817013  0.99735286  0.01476216  1
  Cu+  Cu90  1  0.74821111  0.49646965  0.01034585  1
  Cu+  Cu91  1  0.75008785  0.99750467  0.01326973  1
  Cu+  Cu92  1  0.24704292  0.25076575  0.00528094  1
  Cu+  Cu93  1  0.25082427  0.75391798  0.01505669  1
  Cu+  Cu94  1  0.75016901  0.25263868  0.00751467  1
  Cu+  Cu95  1  0.75300493  0.75367261  0.00910451  1
  Cu+  Cu96  1  0.33615781  0.42002271  0.33739032  1
  Cu+  Cu97  1  0.33289363  0.91534284  0.34826144  1
  Cu+  Cu98  1  0.83390976  0.41809474  0.34076706  1
  Cu+  Cu99  1  0.83344949  0.91779711  0.35049664  1
  Cu+  Cu100  1  0.07945317  0.16293267  0.34710172  1
  Cu+  Cu101  1  0.07996296  0.66207599  0.34046766  1
  Cu+  Cu102  1  0.57935973  0.16031079  0.34337576  1
  Cu+  Cu103  1  0.58151353  0.66210712  0.33835404  1
  Cu+  Cu104  1  0.08252213  0.42021098  0.33866895  1
  Cu+  Cu105  1  0.08087227  0.91689731  0.35125572  1
  Cu+  Cu106  1  0.58346409  0.41941134  0.33912913  1
  Cu+  Cu107  1  0.58130614  0.91394676  0.34154594  1
  Cu+  Cu108  1  0.00108124  0.00369701  0.11937204  1
  Cu+  Cu109  1  0.00117709  0.49824187  0.11160800  1
  Cu+  Cu110  1  0.50342813  0.00723722  0.11547939  1
  Cu+  Cu111  1  0.49969984  0.50352657  0.10996299  1
  Cu+  Cu112  1  0.33827208  0.17520486  0.44291018  1
  Cu+  Cu113  1  0.33551640  0.66358411  0.44639547  1
  Cu+  Cu114  1  0.83511218  0.17191732  0.44607781  1
  Cu+  Cu115  1  0.82876295  0.66245389  0.44809071  1
  Cu+  Cu116  1  0.17188662  0.33974314  0.77773724  1
  Cu+  Cu117  1  0.16905126  0.83668535  0.78496002  1
  Cu+  Cu118  1  0.66908240  0.33510258  0.78093179  1
  Cu+  Cu119  1  0.66570310  0.83298693  0.78123424  1
  Te2-  Te120  1  -0.00157634  -0.00043271  0.39574084  1
  Te2-  Te121  1  -0.00194609  0.49854743  0.38506645  1
  Te2-  Te122  1  0.49953962  -0.00491021  0.38999782  1
  Te2-  Te123  1  0.49926118  0.49893092  0.38362645  1
  Te2-  Te124  1  0.33682236  0.16856310  0.71642577  1
  Te2-  Te125  1  0.33292830  0.66385662  0.72212086  1
  Te2-  Te126  1  0.83320025  0.17023993  0.72065911  1
  Te2-  Te127  1  0.83435089  0.66692447  0.72302627  1
  Te2-  Te128  1  0.16686102  0.33387858  0.05109469  1
  Te2-  Te129  1  0.16359715  0.83232395  0.06015214  1
  Te2-  Te130  1  0.66475881  0.33036987  0.05459179  1
  Te2-  Te131  1  0.66638950  0.83075428  0.05532438  1
  Te2-  Te132  1  0.49483998  0.24915001  0.88173635  1
  Te2-  Te133  1  0.49447617  0.74468971  0.88332224  1
  Te2-  Te134  1  0.98878106  0.24751724  0.88275396  1
  Te2-  Te135  1  0.99356511  0.74460803  0.88542252  1
  Te2-  Te136  1  0.25223279  0.00264931  0.88673532  1
  Te2-  Te137  1  0.25187131  0.50239841  0.87827136  1
  Te2-  Te138  1  0.75072107  0.00698002  0.88545234  1
  Te2-  Te139  1  0.75315840  0.50595896  0.88343620  1
  Te2-  Te140  1  0.24872801  0.24430187  0.87961091  1
  Te2-  Te141  1  0.25189047  0.74449651  0.88755590  1
  Te2-  Te142  1  0.75379704  0.24913342  0.88210527  1
  Te2-  Te143  1  0.75324337  0.74743497  0.88317779  1
  Te2-  Te144  1  0.32736843  0.41508546  0.21210610  1
  Te2-  Te145  1  0.31959019  0.90990151  0.22003898  1
  Te2-  Te146  1  0.82284131  0.40801789  0.21534552  1
  Te2-  Te147  1  0.82254932  0.90848988  0.22219409  1
  Te2-  Te148  1  0.08003978  0.16668977  0.21916206  1
  Te2-  Te149  1  0.07991501  0.67212605  0.21494095  1
  Te2-  Te150  1  0.58130492  0.16398386  0.21551196  1
  Te2-  Te151  1  0.58727165  0.67043169  0.21255918  1
  Te2-  Te152  1  0.08592974  0.41597330  0.21304545  1
  Te2-  Te153  1  0.08195712  0.91044969  0.22232526  1
  Te2-  Te154  1  0.58421971  0.40850122  0.21389964  1
  Te2-  Te155  1  0.57981713  0.90651702  0.21599508  1
  Te2-  Te156  1  0.15980877  0.07910590  0.54935505  1
  Te2-  Te157  1  0.16297134  0.58288377  0.54871179  1
  Te2-  Te158  1  0.66059769  0.07715136  0.55024548  1
  Te2-  Te159  1  0.66559057  0.58396590  0.54921810  1
  Te2-  Te160  1  0.42077675  0.33456648  0.54345083  1
  Te2-  Te161  1  0.42423470  0.84225821  0.55346998  1
  Te2-  Te162  1  0.91770595  0.33618225  0.54672896  1
  Te2-  Te163  1  0.92419555  0.84604496  0.55477943  1
  Te2-  Te164  1  0.42422961  0.07709389  0.54961945  1
  Te2-  Te165  1  0.41987425  0.58220111  0.54788379  1
  Te2-  Te166  1  0.92351947  0.08011807  0.55272518  1
  Te2-  Te167  1  0.92120650  0.58339199  0.55038797  1
  Te2-  Te168  1  0.00190632  0.00273456  0.88401288  1
  Te2-  Te169  1  0.00119224  0.50020941  0.88137312  1
  Te2-  Te170  1  0.50238375  0.00339217  0.88471628  1
  Te2-  Te171  1  0.50024694  0.49998024  0.87976604  1
  Te2-  Te172  1  0.33409598  0.17014813  0.21575474  1
  Te2-  Te173  1  0.33286358  0.66621804  0.21406852  1
  Te2-  Te174  1  0.83288760  0.16834074  0.21740289  1
  Te2-  Te175  1  0.83196227  0.66516852  0.21581888  1
  Te2-  Te176  1  0.16870477  0.33476061  0.54681038  1
  Te2-  Te177  1  0.16919539  0.83446755  0.54877835  1
  Te2-  Te178  1  0.66785036  0.33471647  0.54777545  1
  Te2-  Te179  1  0.66737398  0.83536622  0.54951963  1
  Te2-  Te180  1  0.33127088  0.41419520  0.70791402  1
  Te2-  Te181  1  0.32767316  0.91507827  0.71404402  1
  Te2-  Te182  1  0.83001968  0.41671096  0.71093126  1
  Te2-  Te183  1  0.82696115  0.91539393  0.71076213  1
  Te2-  Te184  1  0.09046316  0.17515803  0.70999493  1
  Te2-  Te185  1  0.08871184  0.67502425  0.71290989  1
  Te2-  Te186  1  0.58681212  0.17214635  0.71294143  1
  Te2-  Te187  1  0.58771892  0.67342935  0.71010787  1
  Te2-  Te188  1  0.08681710  0.41587832  0.70907404  1
  Te2-  Te189  1  0.09057108  0.91754679  0.71358698  1
  Te2-  Te190  1  0.58858311  0.41558736  0.70979477  1
  Te2-  Te191  1  0.58838612  0.91553182  0.71218259  1
  Te2-  Te192  1  0.15961505  0.08181739  0.04630080  1
  Te2-  Te193  1  0.16153281  0.57944769  0.04198310  1
  Te2-  Te194  1  0.66162493  0.08232673  0.04445197  1
  Te2-  Te195  1  0.66139512  0.58226297  0.04192326  1
  Te2-  Te196  1  0.41712103  0.33833149  0.04228311  1
  Te2-  Te197  1  0.42347360  0.84392870  0.04355884  1
  Te2-  Te198  1  0.91905412  0.33683360  0.04445438  1
  Te2-  Te199  1  0.92068121  0.84068333  0.04832845  1
  Te2-  Te200  1  0.42141094  0.08317988  0.04390175  1
  Te2-  Te201  1  0.41839108  0.58194606  0.04215974  1
  Te2-  Te202  1  0.92157197  0.08125535  0.04684938  1
  Te2-  Te203  1  0.92053154  0.58046889  0.04292170  1
  Te2-  Te204  1  0.49469515  0.24842233  0.37321595  1
  Te2-  Te205  1  0.49480229  0.74477370  0.37798989  1
  Te2-  Te206  1  0.99322971  0.24985993  0.37517960  1
  Te2-  Te207  1  0.99219311  0.74382249  0.37811081  1
  Te2-  Te208  1  0.25421189  0.00941175  0.37419130  1
  Te2-  Te209  1  0.25222914  0.50532758  0.37616429  1
  Te2-  Te210  1  0.75081251  0.00809631  0.37679050  1
  Te2-  Te211  1  0.75185616  0.50489700  0.37815510  1
  Te2-  Te212  1  0.25375920  0.24932626  0.37294864  1
  Te2-  Te213  1  0.25007799  0.74258286  0.37683845  1
  Te2-  Te214  1  0.75229655  0.24693333  0.37552081  1
  Te2-  Te215  1  0.75042540  0.74462123  0.37799963  1
