# generated using pymatgen
data_Ti(CuTe)4
_symmetry_space_group_name_H-M   'P 1'
_cell_length_a   16.86931875
_cell_length_b   16.86852157
_cell_length_c   20.68127239
_cell_angle_alpha   90.04126895
_cell_angle_beta   89.95601053
_cell_angle_gamma   119.99086572
_symmetry_Int_Tables_number   1
_chemical_formula_structural   Ti(CuTe)4
_chemical_formula_sum   'Ti24 Cu96 Te96'
_cell_volume   5097.08947367
_cell_formula_units_Z   24
loop_
 _symmetry_equiv_pos_site_id
 _symmetry_equiv_pos_as_xyz
  1  'x, y, z'
loop_
 _atom_type_symbol
 _atom_type_oxidation_number
  Ti4+  4.0
  Cu+  1.0
  Te2-  -2.0
loop_
 _atom_site_type_symbol
 _atom_site_label
 _atom_site_symmetry_multiplicity
 _atom_site_fract_x
 _atom_site_fract_y
 _atom_site_fract_z
 _atom_site_occupancy
  Ti4+  Ti0  1  -0.00261290  0.00226323  0.25847058  1
  Ti4+  Ti1  1  0.00436227  0.50521343  0.25683641  1
  Ti4+  Ti2  1  0.50078169  0.00253886  0.25604036  1
  Ti4+  Ti3  1  0.50165241  0.50223567  0.25837925  1
  Ti4+  Ti4  1  0.33164322  0.16515209  0.58990607  1
  Ti4+  Ti5  1  0.33061333  0.66282291  0.59258944  1
  Ti4+  Ti6  1  0.83395079  0.16377100  0.59092843  1
  Ti4+  Ti7  1  0.83165333  0.66431495  0.59095052  1
  Ti4+  Ti8  1  0.16728348  0.33196949  0.92669660  1
  Ti4+  Ti9  1  0.16844326  0.83111820  0.92711862  1
  Ti4+  Ti10  1  0.66906201  0.33393443  0.92027517  1
  Ti4+  Ti11  1  0.66693381  0.83266546  0.92613540  1
  Ti4+  Ti12  1  -0.00153657  -0.00073023  0.75922790  1
  Ti4+  Ti13  1  -0.00156016  0.49888959  0.75627110  1
  Ti4+  Ti14  1  0.49948253  -0.00228204  0.75463082  1
  Ti4+  Ti15  1  0.50143818  0.50037602  0.75577894  1
  Ti4+  Ti16  1  0.33378387  0.16679475  0.08697335  1
  Ti4+  Ti17  1  0.33349192  0.66876331  0.08784124  1
  Ti4+  Ti18  1  0.83504157  0.16689834  0.08907065  1
  Ti4+  Ti19  1  0.83246313  0.66720404  0.08937581  1
  Ti4+  Ti20  1  0.16596271  0.33322421  0.42063414  1
  Ti4+  Ti21  1  0.16535173  0.83323658  0.42281199  1
  Ti4+  Ti22  1  0.66719400  0.33510592  0.42083241  1
  Ti4+  Ti23  1  0.66559428  0.83373644  0.42358946  1
  Cu+  Cu24  1  0.02510153  0.26347026  0.14110469  1
  Cu+  Cu25  1  0.40587090  0.80788464  0.80690469  1
  Cu+  Cu26  1  0.07743097  0.14797589  0.47509618  1
  Cu+  Cu27  1  0.24561043  0.76417896  0.14388013  1
  Cu+  Cu28  1  0.01510065  0.76465986  0.14386340  1
  Cu+  Cu29  1  0.68991488  0.09196105  0.80617202  1
  Cu+  Cu30  1  0.07141773  0.64130784  0.47567805  1
  Cu+  Cu31  1  0.69378737  0.59779969  0.80719781  1
  Cu+  Cu32  1  0.73722559  0.75636492  0.14503998  1
  Cu+  Cu33  1  0.56970976  0.64228036  0.47614869  1
  Cu+  Cu34  1  0.73925682  0.98468579  0.14360441  1
  Cu+  Cu35  1  0.84466781  0.91750724  0.48070027  1
  Cu+  Cu36  1  0.16456597  0.08646199  0.16923513  1
  Cu+  Cu37  1  0.16444449  0.58869552  0.16843269  1
  Cu+  Cu38  1  0.66276370  0.08048785  0.16933990  1
  Cu+  Cu39  1  0.66080619  0.58441047  0.17087094  1
  Cu+  Cu40  1  0.41941725  0.33629838  0.17069040  1
  Cu+  Cu41  1  0.41816938  0.84047564  0.16807887  1
  Cu+  Cu42  1  0.92457772  0.33772153  0.17041652  1
  Cu+  Cu43  1  0.91382319  0.83704616  0.17091817  1
  Cu+  Cu44  1  0.42080847  0.08562697  0.16785413  1
  Cu+  Cu45  1  0.41972561  0.58473209  0.17107922  1
  Cu+  Cu46  1  0.91809422  0.08435211  0.17065385  1
  Cu+  Cu47  1  0.92319832  0.58784302  0.16967286  1
  Cu+  Cu48  1  0.49600150  0.24721934  0.50355111  1
  Cu+  Cu49  1  0.49562285  0.74315513  0.50599309  1
  Cu+  Cu50  1  0.99728402  0.24357667  0.50199022  1
  Cu+  Cu51  1  0.99733487  0.74360589  0.50349163  1
  Cu+  Cu52  1  0.25090987  0.00439433  0.50332954  1
  Cu+  Cu53  1  0.25112889  0.50366407  0.50360609  1
  Cu+  Cu54  1  0.75576333  0.00520352  0.50377662  1
  Cu+  Cu55  1  0.75067966  0.50293729  0.50294769  1
  Cu+  Cu56  1  0.24869783  0.24467884  0.50226843  1
  Cu+  Cu57  1  0.24600769  0.74424763  0.50637061  1
  Cu+  Cu58  1  0.74967404  0.24756150  0.50482881  1
  Cu+  Cu59  1  0.74751052  0.74407711  0.50499695  1
  Cu+  Cu60  1  0.32961038  0.41323594  0.83973452  1
  Cu+  Cu61  1  0.32986456  0.90728205  0.83722246  1
  Cu+  Cu62  1  0.82848127  0.41350275  0.83460355  1
  Cu+  Cu63  1  0.82987927  0.91423176  0.84059381  1
  Cu+  Cu64  1  0.08431613  0.16906099  0.84182970  1
  Cu+  Cu65  1  0.08552480  0.66837799  0.84042726  1
  Cu+  Cu66  1  0.59030075  0.16970061  0.83342954  1
  Cu+  Cu67  1  0.59050069  0.66789559  0.83788463  1
  Cu+  Cu68  1  0.08326748  0.41353413  0.84114149  1
  Cu+  Cu69  1  0.08283811  0.91440066  0.84231051  1
  Cu+  Cu70  1  0.59050363  0.42089805  0.83476648  1
  Cu+  Cu71  1  0.58359972  0.91558464  0.83757131  1
  Cu+  Cu72  1  0.16761421  0.08432189  0.67633575  1
  Cu+  Cu73  1  0.16558235  0.58338918  0.67756281  1
  Cu+  Cu74  1  0.67090757  0.08377703  0.67707224  1
  Cu+  Cu75  1  0.66924913  0.58600693  0.67892148  1
  Cu+  Cu76  1  0.41205741  0.32850028  0.67225466  1
  Cu+  Cu77  1  0.41186425  0.82633731  0.67809394  1
  Cu+  Cu78  1  0.91504608  0.32982293  0.67394439  1
  Cu+  Cu79  1  0.91445913  0.83234993  0.67631713  1
  Cu+  Cu80  1  0.41216832  0.08245108  0.67249164  1
  Cu+  Cu81  1  0.41541680  0.58282163  0.67725216  1
  Cu+  Cu82  1  0.91607667  0.08118037  0.67823847  1
  Cu+  Cu83  1  0.91638653  0.58327093  0.67638047  1
  Cu+  Cu84  1  0.00634340  0.25221814  0.01364271  1
  Cu+  Cu85  1  0.00347022  0.75044893  0.01471595  1
  Cu+  Cu86  1  0.50458809  0.25232026  0.00108071  1
  Cu+  Cu87  1  0.50076542  0.74990133  0.00778271  1
  Cu+  Cu88  1  0.24899657  0.49643126  0.00920129  1
  Cu+  Cu89  1  0.24990133  0.99778665  0.00728689  1
  Cu+  Cu90  1  0.74718974  0.49710482  0.00640458  1
  Cu+  Cu91  1  0.74867546  0.99744028  0.01446867  1
  Cu+  Cu92  1  0.24940283  0.24975480  0.00789264  1
  Cu+  Cu93  1  0.24971024  0.75099879  0.01433071  1
  Cu+  Cu94  1  0.74988503  0.25162384  0.00522319  1
  Cu+  Cu95  1  0.74757690  0.74949067  0.01597031  1
  Cu+  Cu96  1  0.33643486  0.42016410  0.34066501  1
  Cu+  Cu97  1  0.33545209  0.92062790  0.34101797  1
  Cu+  Cu98  1  0.83719335  0.42066707  0.33914646  1
  Cu+  Cu99  1  0.83234392  0.92023429  0.35057503  1
  Cu+  Cu100  1  0.07972408  0.16629213  0.34683358  1
  Cu+  Cu101  1  0.08346102  0.66745706  0.34770764  1
  Cu+  Cu102  1  0.58348368  0.16612692  0.33803828  1
  Cu+  Cu103  1  0.58071779  0.66473897  0.34781092  1
  Cu+  Cu104  1  0.08577020  0.42160985  0.34099951  1
  Cu+  Cu105  1  0.08168263  0.91905563  0.34254396  1
  Cu+  Cu106  1  0.58452752  0.42093232  0.34029888  1
  Cu+  Cu107  1  0.58021855  0.91938036  0.34137736  1
  Cu+  Cu108  1  0.00242902  0.00127252  0.11381621  1
  Cu+  Cu109  1  -0.00362581  0.49757548  0.11278343  1
  Cu+  Cu110  1  0.50110894  0.00442364  0.10993172  1
  Cu+  Cu111  1  0.49411343  0.49549690  0.11466240  1
  Cu+  Cu112  1  0.33682212  0.16920563  0.44474443  1
  Cu+  Cu113  1  0.33372124  0.67036497  0.44919260  1
  Cu+  Cu114  1  0.83376906  0.17384566  0.44736883  1
  Cu+  Cu115  1  0.83452039  0.66709226  0.44625314  1
  Cu+  Cu116  1  0.16609147  0.33389158  0.78471504  1
  Cu+  Cu117  1  0.16372195  0.83518318  0.78503823  1
  Cu+  Cu118  1  0.66165227  0.33029206  0.77509431  1
  Cu+  Cu119  1  0.66443382  0.83264277  0.78217323  1
  Te2-  Te120  1  -0.00085757  -0.00016985  0.38992895  1
  Te2-  Te121  1  0.00015175  0.49983409  0.38706201  1
  Te2-  Te122  1  0.49970937  0.00310510  0.38482660  1
  Te2-  Te123  1  0.49906164  0.49798766  0.38916017  1
  Te2-  Te124  1  0.33246807  0.16564696  0.71912539  1
  Te2-  Te125  1  0.32990520  0.66117977  0.72309543  1
  Te2-  Te126  1  0.83616550  0.16638612  0.72183347  1
  Te2-  Te127  1  0.83602066  0.66794429  0.72103741  1
  Te2-  Te128  1  0.17193786  0.33414588  0.05779054  1
  Te2-  Te129  1  0.16897098  0.83638399  0.05885627  1
  Te2-  Te130  1  0.66677828  0.33260421  0.04917411  1
  Te2-  Te131  1  0.66323126  0.83168243  0.05788555  1
  Te2-  Te132  1  0.49966674  0.24973095  0.87507898  1
  Te2-  Te133  1  0.49598973  0.74343673  0.88175877  1
  Te2-  Te134  1  0.99500531  0.24654073  0.88681343  1
  Te2-  Te135  1  0.99737543  0.74680222  0.88726126  1
  Te2-  Te136  1  0.25365284  0.00014211  0.88148622  1
  Te2-  Te137  1  0.25206533  0.50320312  0.88359974  1
  Te2-  Te138  1  0.75358202  0.00530259  0.88604470  1
  Te2-  Te139  1  0.75860904  0.50936108  0.88100944  1
  Te2-  Te140  1  0.25280712  0.24592262  0.88294351  1
  Te2-  Te141  1  0.25258888  0.74065871  0.88647738  1
  Te2-  Te142  1  0.75806876  0.24761005  0.87996869  1
  Te2-  Te143  1  0.75685010  0.74824562  0.88791209  1
  Te2-  Te144  1  0.33156025  0.41704853  0.21485442  1
  Te2-  Te145  1  0.32711671  0.91933089  0.21500852  1
  Te2-  Te146  1  0.83452181  0.41825193  0.21286940  1
  Te2-  Te147  1  0.82216831  0.91404674  0.22054456  1
  Te2-  Te148  1  0.08715305  0.17470256  0.21883415  1
  Te2-  Te149  1  0.09021870  0.68169960  0.21938331  1
  Te2-  Te150  1  0.58783148  0.17321054  0.21239087  1
  Te2-  Te151  1  0.58495135  0.67736714  0.21998553  1
  Te2-  Te152  1  0.09396771  0.42164409  0.21525330  1
  Te2-  Te153  1  0.08608230  0.91920969  0.21644143  1
  Te2-  Te154  1  0.58743838  0.41747470  0.21479595  1
  Te2-  Te155  1  0.58363641  0.91082183  0.21567689  1
  Te2-  Te156  1  0.15643508  0.07536041  0.55032620  1
  Te2-  Te157  1  0.15678151  0.57450233  0.55159851  1
  Te2-  Te158  1  0.66336180  0.07932814  0.54989505  1
  Te2-  Te159  1  0.65803238  0.57609165  0.55137703  1
  Te2-  Te160  1  0.41595243  0.33591344  0.54648483  1
  Te2-  Te161  1  0.41609251  0.83327769  0.55027660  1
  Te2-  Te162  1  0.91917326  0.33340130  0.54778253  1
  Te2-  Te163  1  0.92105345  0.83652707  0.54988742  1
  Te2-  Te164  1  0.41743599  0.07926100  0.54705659  1
  Te2-  Te165  1  0.41624442  0.57418077  0.55150114  1
  Te2-  Te166  1  0.92312259  0.07573468  0.55167644  1
  Te2-  Te167  1  0.91667665  0.57566553  0.55022555  1
  Te2-  Te168  1  -0.00052003  -0.00032100  0.88538782  1
  Te2-  Te169  1  -0.00265316  0.49776907  0.88251780  1
  Te2-  Te170  1  0.49972012  0.00175663  0.88215110  1
  Te2-  Te171  1  0.49974660  0.49808913  0.88253043  1
  Te2-  Te172  1  0.33417774  0.16785263  0.21370494  1
  Te2-  Te173  1  0.33464113  0.67041108  0.21476293  1
  Te2-  Te174  1  0.83222745  0.16897579  0.21675815  1
  Te2-  Te175  1  0.83180344  0.66606585  0.21722025  1
  Te2-  Te176  1  0.16648007  0.33257077  0.54758166  1
  Te2-  Te177  1  0.16624301  0.83451633  0.54951829  1
  Te2-  Te178  1  0.66539567  0.33252853  0.54736212  1
  Te2-  Te179  1  0.66626477  0.83406755  0.55110558  1
  Te2-  Te180  1  0.32819786  0.41274587  0.71321565  1
  Te2-  Te181  1  0.32608412  0.91293519  0.71045880  1
  Te2-  Te182  1  0.82678803  0.41204741  0.70927605  1
  Te2-  Te183  1  0.82559895  0.91196836  0.71438773  1
  Te2-  Te184  1  0.08567403  0.17139323  0.71499877  1
  Te2-  Te185  1  0.08562831  0.67277845  0.71399137  1
  Te2-  Te186  1  0.58320129  0.16903310  0.70658439  1
  Te2-  Te187  1  0.58571211  0.67411586  0.71098035  1
  Te2-  Te188  1  0.08448326  0.41242807  0.71347636  1
  Te2-  Te189  1  0.08435249  0.91401666  0.71434231  1
  Te2-  Te190  1  0.58339137  0.41198859  0.70728221  1
  Te2-  Te191  1  0.58558463  0.91102556  0.70905644  1
  Te2-  Te192  1  0.16087155  0.07945660  0.04303230  1
  Te2-  Te193  1  0.15964461  0.57789390  0.04294904  1
  Te2-  Te194  1  0.66190702  0.08310010  0.04242003  1
  Te2-  Te195  1  0.65860360  0.57720208  0.04440221  1
  Te2-  Te196  1  0.42061590  0.33771751  0.04274400  1
  Te2-  Te197  1  0.42314868  0.84227401  0.04139544  1
  Te2-  Te198  1  0.91936603  0.33866454  0.04308981  1
  Te2-  Te199  1  0.92110058  0.84146045  0.04343191  1
  Te2-  Te200  1  0.42091469  0.08290695  0.04099081  1
  Te2-  Te201  1  0.41921495  0.58091382  0.04494606  1
  Te2-  Te202  1  0.92149364  0.07910464  0.04354708  1
  Te2-  Te203  1  0.91662657  0.57827035  0.04363111  1
  Te2-  Te204  1  0.49647107  0.24946849  0.37577835  1
  Te2-  Te205  1  0.49322087  0.74969280  0.37874520  1
  Te2-  Te206  1  0.99227615  0.25113239  0.37527953  1
  Te2-  Te207  1  0.99231820  0.74925856  0.37650023  1
  Te2-  Te208  1  0.25128385  0.00606164  0.37778055  1
  Te2-  Te209  1  0.25453724  0.50740535  0.37842528  1
  Te2-  Te210  1  0.74896188  0.00851468  0.37835608  1
  Te2-  Te211  1  0.75442855  0.50770079  0.37665803  1
  Te2-  Te212  1  0.25393926  0.24862718  0.37469818  1
  Te2-  Te213  1  0.25576897  0.75092268  0.37845187  1
  Te2-  Te214  1  0.75326104  0.25010089  0.37635972  1
  Te2-  Te215  1  0.75325642  0.74722420  0.37717530  1
