# generated using pymatgen
data_Ti(CuTe)4
_symmetry_space_group_name_H-M   'P 1'
_cell_length_a   16.89526684
_cell_length_b   16.89402334
_cell_length_c   20.71224805
_cell_angle_alpha   89.98371889
_cell_angle_beta   89.98697651
_cell_angle_gamma   119.99715574
_symmetry_Int_Tables_number   1
_chemical_formula_structural   Ti(CuTe)4
_chemical_formula_sum   'Ti24 Cu96 Te96'
_cell_volume   5119.98165404
_cell_formula_units_Z   24
loop_
 _symmetry_equiv_pos_site_id
 _symmetry_equiv_pos_as_xyz
  1  'x, y, z'
loop_
 _atom_type_symbol
 _atom_type_oxidation_number
  Ti4+  4.0
  Cu+  1.0
  Te2-  -2.0
loop_
 _atom_site_type_symbol
 _atom_site_label
 _atom_site_symmetry_multiplicity
 _atom_site_fract_x
 _atom_site_fract_y
 _atom_site_fract_z
 _atom_site_occupancy
  Ti4+  Ti0  1  -0.00187615  0.00015833  0.25738971  1
  Ti4+  Ti1  1  0.00033595  0.50062006  0.25670722  1
  Ti4+  Ti2  1  0.49841407  -0.00088297  0.26390702  1
  Ti4+  Ti3  1  0.49947660  0.50132988  0.25825020  1
  Ti4+  Ti4  1  0.33417452  0.16923800  0.59118704  1
  Ti4+  Ti5  1  0.33411930  0.66458306  0.59565466  1
  Ti4+  Ti6  1  0.83006756  0.16349926  0.59153006  1
  Ti4+  Ti7  1  0.83457936  0.66897443  0.58710112  1
  Ti4+  Ti8  1  0.16674884  0.33295179  0.92213796  1
  Ti4+  Ti9  1  0.17021783  0.83717641  0.92109322  1
  Ti4+  Ti10  1  0.66879084  0.33168913  0.92147480  1
  Ti4+  Ti11  1  0.66540021  0.83246751  0.92605688  1
  Ti4+  Ti12  1  0.00137985  0.00067270  0.75452106  1
  Ti4+  Ti13  1  -0.00067070  0.49812763  0.75181065  1
  Ti4+  Ti14  1  0.49979582  0.00034441  0.75187922  1
  Ti4+  Ti15  1  0.50029163  0.49970720  0.75460586  1
  Ti4+  Ti16  1  0.33420689  0.16641440  0.09043586  1
  Ti4+  Ti17  1  0.33236781  0.66573509  0.09030775  1
  Ti4+  Ti18  1  0.83363297  0.16672730  0.09044347  1
  Ti4+  Ti19  1  0.83335680  0.66779622  0.08645244  1
  Ti4+  Ti20  1  0.16725478  0.33427618  0.42412358  1
  Ti4+  Ti21  1  0.16466438  0.83262234  0.42257323  1
  Ti4+  Ti22  1  0.66453307  0.33163907  0.42062123  1
  Ti4+  Ti23  1  0.66716712  0.83358050  0.42201310  1
  Cu+  Cu24  1  0.67680987  0.08499280  0.81342092  1
  Cu+  Cu25  1  0.41531076  0.09274448  0.81096410  1
  Cu+  Cu26  1  0.41184994  0.58949017  0.81468303  1
  Cu+  Cu27  1  0.18858990  0.09772840  0.80552029  1
  Cu+  Cu28  1  0.35855719  0.43070239  0.47401197  1
  Cu+  Cu29  1  0.41656278  0.83050172  0.81915904  1
  Cu+  Cu30  1  0.90990857  0.31278509  0.80507902  1
  Cu+  Cu31  1  0.17617902  0.58869856  0.81198582  1
  Cu+  Cu32  1  0.57173941  0.14988805  0.47970193  1
  Cu+  Cu33  1  0.85473408  0.92850629  0.47270938  1
  Cu+  Cu34  1  0.57224125  0.91805320  0.48165010  1
  Cu+  Cu35  1  0.73816946  0.76010352  0.14345620  1
  Cu+  Cu36  1  0.16374580  0.08211215  0.17225296  1
  Cu+  Cu37  1  0.16199244  0.58139524  0.17131892  1
  Cu+  Cu38  1  0.66359970  0.08166245  0.17715995  1
  Cu+  Cu39  1  0.66351206  0.58613997  0.16980681  1
  Cu+  Cu40  1  0.41546458  0.33552866  0.17278344  1
  Cu+  Cu41  1  0.41732336  0.83481992  0.17654376  1
  Cu+  Cu42  1  0.91992160  0.33747260  0.17210664  1
  Cu+  Cu43  1  0.91284372  0.83628460  0.16953120  1
  Cu+  Cu44  1  0.41846786  0.08282414  0.17632043  1
  Cu+  Cu45  1  0.41485508  0.57893052  0.17224970  1
  Cu+  Cu46  1  0.91826191  0.08232972  0.17176114  1
  Cu+  Cu47  1  0.91983541  0.58253600  0.16931720  1
  Cu+  Cu48  1  0.49385504  0.24520404  0.50304137  1
  Cu+  Cu49  1  0.49335487  0.74560268  0.50703567  1
  Cu+  Cu50  1  0.99595225  0.24852713  0.50529582  1
  Cu+  Cu51  1  0.99519524  0.74952885  0.50162088  1
  Cu+  Cu52  1  0.24805923  0.00226290  0.50485596  1
  Cu+  Cu53  1  0.25606752  0.50090400  0.50819535  1
  Cu+  Cu54  1  0.75033323  0.00231882  0.50325014  1
  Cu+  Cu55  1  0.74988214  0.50366926  0.50180888  1
  Cu+  Cu56  1  0.25539159  0.25504619  0.50523196  1
  Cu+  Cu57  1  0.24893275  0.74834769  0.50778658  1
  Cu+  Cu58  1  0.74601945  0.24411387  0.50402307  1
  Cu+  Cu59  1  0.75752037  0.75308771  0.50115758  1
  Cu+  Cu60  1  0.32932002  0.41570182  0.83462981  1
  Cu+  Cu61  1  0.32516599  0.91574191  0.83130236  1
  Cu+  Cu62  1  0.83141036  0.40896958  0.83281803  1
  Cu+  Cu63  1  0.83197561  0.91517854  0.83929692  1
  Cu+  Cu64  1  0.08836087  0.17030592  0.83542961  1
  Cu+  Cu65  1  0.08643011  0.67118700  0.83306104  1
  Cu+  Cu66  1  0.59104718  0.17646039  0.83166245  1
  Cu+  Cu67  1  0.58421612  0.66860000  0.83839996  1
  Cu+  Cu68  1  0.08414671  0.41257775  0.83328638  1
  Cu+  Cu69  1  0.09145638  0.92289620  0.83419716  1
  Cu+  Cu70  1  0.58633396  0.41471919  0.83535842  1
  Cu+  Cu71  1  0.58963530  0.91075923  0.83559424  1
  Cu+  Cu72  1  0.17089807  0.08680577  0.67702069  1
  Cu+  Cu73  1  0.16921941  0.58214841  0.68003497  1
  Cu+  Cu74  1  0.66662441  0.08230976  0.68118144  1
  Cu+  Cu75  1  0.67249044  0.58744003  0.67064346  1
  Cu+  Cu76  1  0.41881476  0.33398184  0.67405163  1
  Cu+  Cu77  1  0.41514692  0.82966697  0.68460357  1
  Cu+  Cu78  1  0.91092876  0.32756329  0.67695685  1
  Cu+  Cu79  1  0.91564821  0.83176077  0.67233267  1
  Cu+  Cu80  1  0.41474408  0.08459249  0.67994692  1
  Cu+  Cu81  1  0.41689672  0.58470796  0.68290536  1
  Cu+  Cu82  1  0.91286849  0.08040001  0.67558042  1
  Cu+  Cu83  1  0.91454775  0.58552083  0.66910125  1
  Cu+  Cu84  1  0.00185045  0.25059489  0.00767766  1
  Cu+  Cu85  1  0.00442135  0.75353740  0.00400847  1
  Cu+  Cu86  1  0.50378388  0.24966638  0.00872125  1
  Cu+  Cu87  1  0.49978382  0.74935954  0.01255985  1
  Cu+  Cu88  1  0.24825527  0.49825141  0.00920795  1
  Cu+  Cu89  1  0.25354280  1.00090198  0.00923439  1
  Cu+  Cu90  1  0.75088164  0.49754832  0.00456748  1
  Cu+  Cu91  1  0.74766725  0.99831075  0.01150195  1
  Cu+  Cu92  1  0.24988523  0.25079411  0.00793583  1
  Cu+  Cu93  1  0.25107273  0.75224407  0.00911512  1
  Cu+  Cu94  1  0.74931458  0.24859840  0.00873478  1
  Cu+  Cu95  1  0.74749459  0.75102216  0.01269771  1
  Cu+  Cu96  1  0.33690870  0.41949505  0.34672674  1
  Cu+  Cu97  1  0.33376181  0.91652773  0.34565895  1
  Cu+  Cu98  1  0.83666113  0.41758260  0.33905965  1
  Cu+  Cu99  1  0.83545770  0.91768125  0.34454557  1
  Cu+  Cu100  1  0.08057099  0.16511278  0.34187029  1
  Cu+  Cu101  1  0.08164474  0.66338362  0.34067752  1
  Cu+  Cu102  1  0.58041461  0.16172554  0.34985406  1
  Cu+  Cu103  1  0.58114155  0.66517642  0.34170227  1
  Cu+  Cu104  1  0.08255074  0.41956969  0.34137251  1
  Cu+  Cu105  1  0.07952616  0.91628733  0.34008455  1
  Cu+  Cu106  1  0.58056115  0.41693007  0.33957809  1
  Cu+  Cu107  1  0.58046012  0.91768792  0.35069825  1
  Cu+  Cu108  1  0.00247714  0.00053740  0.11429970  1
  Cu+  Cu109  1  -0.00120501  0.50005035  0.11293458  1
  Cu+  Cu110  1  0.49931010  -0.00123786  0.12271041  1
  Cu+  Cu111  1  0.50012400  0.49621528  0.11509303  1
  Cu+  Cu112  1  0.32738908  0.16404434  0.44806064  1
  Cu+  Cu113  1  0.32597441  0.66383189  0.45306261  1
  Cu+  Cu114  1  0.83632874  0.17116024  0.44753977  1
  Cu+  Cu115  1  0.83170406  0.66258429  0.44248149  1
  Cu+  Cu116  1  0.16642384  0.33154354  0.77735489  1
  Cu+  Cu117  1  0.15824403  0.82950322  0.77551431  1
  Cu+  Cu118  1  0.67088790  0.34195173  0.77578258  1
  Cu+  Cu119  1  0.67351495  0.82888638  0.78221858  1
  Te2-  Te120  1  0.00188989  0.00148789  0.38790821  1
  Te2-  Te121  1  -0.00076132  0.49990209  0.38632692  1
  Te2-  Te122  1  0.49529671  -0.00286039  0.39725837  1
  Te2-  Te123  1  0.50389000  0.50226401  0.38903261  1
  Te2-  Te124  1  0.33665447  0.17199473  0.72322795  1
  Te2-  Te125  1  0.33263800  0.66491991  0.72880498  1
  Te2-  Te126  1  0.83232004  0.16230222  0.72354643  1
  Te2-  Te127  1  0.83528309  0.66811545  0.71658216  1
  Te2-  Te128  1  0.16674502  0.33273062  0.05054567  1
  Te2-  Te129  1  0.16784027  0.83498208  0.04952516  1
  Te2-  Te130  1  0.66926268  0.33395765  0.05002060  1
  Te2-  Te131  1  0.66449522  0.83390017  0.05586142  1
  Te2-  Te132  1  0.49550071  0.24813455  0.88233819  1
  Te2-  Te133  1  0.48884924  0.74425199  0.88647151  1
  Te2-  Te134  1  0.99460005  0.24405717  0.88125621  1
  Te2-  Te135  1  1.00089433  0.75292601  0.87718930  1
  Te2-  Te136  1  0.25919176  0.01397869  0.88293263  1
  Te2-  Te137  1  0.25317745  0.50911838  0.88299015  1
  Te2-  Te138  1  0.75490621  0.00566055  0.88520155  1
  Te2-  Te139  1  0.75555569  0.50157141  0.87806571  1
  Te2-  Te140  1  0.25747484  0.25070546  0.88194433  1
  Te2-  Te141  1  0.25660935  0.74752499  0.88282946  1
  Te2-  Te142  1  0.75683998  0.24198673  0.88287935  1
  Te2-  Te143  1  0.75037979  0.74737121  0.88476110  1
  Te2-  Te144  1  0.32709050  0.41367385  0.21990801  1
  Te2-  Te145  1  0.32847589  0.91440793  0.21986251  1
  Te2-  Te146  1  0.82842552  0.41474980  0.21356086  1
  Te2-  Te147  1  0.82404381  0.91551874  0.21778547  1
  Te2-  Te148  1  0.08541242  0.17193262  0.21611955  1
  Te2-  Te149  1  0.08645747  0.67321801  0.21512037  1
  Te2-  Te150  1  0.58503987  0.17017481  0.22286953  1
  Te2-  Te151  1  0.58246840  0.67475598  0.21619930  1
  Te2-  Te152  1  0.08732031  0.41456873  0.21599502  1
  Te2-  Te153  1  0.08114912  0.91284147  0.21406413  1
  Te2-  Te154  1  0.58532828  0.41728238  0.21363696  1
  Te2-  Te155  1  0.58444916  0.91409379  0.22312543  1
  Te2-  Te156  1  0.16455720  0.08628501  0.54993703  1
  Te2-  Te157  1  0.16555015  0.57960979  0.55220120  1
  Te2-  Te158  1  0.65420275  0.07528692  0.55316360  1
  Te2-  Te159  1  0.66288833  0.58498142  0.54525308  1
  Te2-  Te160  1  0.42504590  0.34230610  0.54867733  1
  Te2-  Te161  1  0.41639857  0.83727714  0.55555249  1
  Te2-  Te162  1  0.91299593  0.33329368  0.55004033  1
  Te2-  Te163  1  0.92497607  0.84511913  0.54755407  1
  Te2-  Te164  1  0.41519059  0.07700451  0.55207981  1
  Te2-  Te165  1  0.42441458  0.58123944  0.55510959  1
  Te2-  Te166  1  0.91904777  0.08043014  0.54965395  1
  Te2-  Te167  1  0.91840795  0.58126523  0.54405874  1
  Te2-  Te168  1  0.00148583  0.00106142  0.88143194  1
  Te2-  Te169  1  0.00119963  0.50099236  0.87961411  1
  Te2-  Te170  1  0.50117603  0.00148307  0.88039827  1
  Te2-  Te171  1  0.50009322  0.49759569  0.88158563  1
  Te2-  Te172  1  0.33220227  0.16710845  0.21678112  1
  Te2-  Te173  1  0.33055103  0.66419818  0.21652689  1
  Te2-  Te174  1  0.83483381  0.16813225  0.21668027  1
  Te2-  Te175  1  0.83369261  0.66629940  0.21332985  1
  Te2-  Te176  1  0.16361117  0.33147073  0.55094662  1
  Te2-  Te177  1  0.16332173  0.83291823  0.54868572  1
  Te2-  Te178  1  0.66514562  0.33422903  0.54744050  1
  Te2-  Te179  1  0.66594581  0.83115617  0.54927754  1
  Te2-  Te180  1  0.32685206  0.41136675  0.70845423  1
  Te2-  Te181  1  0.32320537  0.91157374  0.70588537  1
  Te2-  Te182  1  0.82704423  0.41599738  0.70597464  1
  Te2-  Te183  1  0.82853022  0.91215883  0.71214558  1
  Te2-  Te184  1  0.08405337  0.17249474  0.70832819  1
  Te2-  Te185  1  0.08421378  0.67109026  0.70599029  1
  Te2-  Te186  1  0.58769646  0.17637030  0.70590602  1
  Te2-  Te187  1  0.58972597  0.67281030  0.71104360  1
  Te2-  Te188  1  0.08439042  0.40877901  0.70604076  1
  Te2-  Te189  1  0.08579050  0.91416590  0.70707413  1
  Te2-  Te190  1  0.58869430  0.41762346  0.70846272  1
  Te2-  Te191  1  0.58777192  0.91015897  0.70962318  1
  Te2-  Te192  1  0.16329053  0.08116608  0.04517672  1
  Te2-  Te193  1  0.16112788  0.58153286  0.04460392  1
  Te2-  Te194  1  0.66034098  0.08025567  0.04967245  1
  Te2-  Te195  1  0.66078813  0.57771708  0.04206514  1
  Te2-  Te196  1  0.41989661  0.33706078  0.04531752  1
  Te2-  Te197  1  0.41963899  0.83922904  0.04917429  1
  Te2-  Te198  1  0.91957952  0.33790582  0.04508851  1
  Te2-  Te199  1  0.92125764  0.84033776  0.04175162  1
  Te2-  Te200  1  0.42182804  0.08115156  0.04901602  1
  Te2-  Te201  1  0.41788313  0.57851097  0.04632982  1
  Te2-  Te202  1  0.91913872  0.08061413  0.04549904  1
  Te2-  Te203  1  0.92074567  0.58347305  0.04219744  1
  Te2-  Te204  1  0.49117452  0.24703718  0.37649623  1
  Te2-  Te205  1  0.49168331  0.74444907  0.38052288  1
  Te2-  Te206  1  0.99600919  0.24977619  0.37881299  1
  Te2-  Te207  1  0.99430180  0.74666817  0.37578586  1
  Te2-  Te208  1  0.24974126  0.00421740  0.37820388  1
  Te2-  Te209  1  0.25192991  0.50665148  0.38045323  1
  Te2-  Te210  1  0.75405329  0.00833237  0.37672893  1
  Te2-  Te211  1  0.75098775  0.50253111  0.37502800  1
  Te2-  Te212  1  0.25077169  0.24640570  0.37794166  1
  Te2-  Te213  1  0.25075541  0.74607007  0.38081675  1
  Te2-  Te214  1  0.75423893  0.24803664  0.37711632  1
  Te2-  Te215  1  0.75145808  0.74528744  0.37491165  1
