# generated using pymatgen
data_Ti(CuTe)4
_symmetry_space_group_name_H-M   'P 1'
_cell_length_a   16.87021984
_cell_length_b   16.87288014
_cell_length_c   20.67862103
_cell_angle_alpha   89.97484559
_cell_angle_beta   90.04942565
_cell_angle_gamma   120.01494551
_symmetry_Int_Tables_number   1
_chemical_formula_structural   Ti(CuTe)4
_chemical_formula_sum   'Ti24 Cu96 Te96'
_cell_volume   5096.78815637
_cell_formula_units_Z   24
loop_
 _symmetry_equiv_pos_site_id
 _symmetry_equiv_pos_as_xyz
  1  'x, y, z'
loop_
 _atom_type_symbol
 _atom_type_oxidation_number
  Ti4+  4.0
  Cu+  1.0
  Te2-  -2.0
loop_
 _atom_site_type_symbol
 _atom_site_label
 _atom_site_symmetry_multiplicity
 _atom_site_fract_x
 _atom_site_fract_y
 _atom_site_fract_z
 _atom_site_occupancy
  Ti4+  Ti0  1  -0.00009200  0.00110895  0.25987845  1
  Ti4+  Ti1  1  -0.00024818  0.50430109  0.25650413  1
  Ti4+  Ti2  1  0.50278304  0.00594030  0.25509506  1
  Ti4+  Ti3  1  0.50247980  0.50423801  0.26006842  1
  Ti4+  Ti4  1  0.32985719  0.16446781  0.59311846  1
  Ti4+  Ti5  1  0.33174396  0.66308546  0.58676335  1
  Ti4+  Ti6  1  0.83420685  0.16696980  0.58910287  1
  Ti4+  Ti7  1  0.83445231  0.66708872  0.59179957  1
  Ti4+  Ti8  1  0.16690708  0.33241533  0.92596746  1
  Ti4+  Ti9  1  0.16643383  0.83141113  0.92805357  1
  Ti4+  Ti10  1  0.66278468  0.32960867  0.92319488  1
  Ti4+  Ti11  1  0.66685825  0.83118908  0.92540372  1
  Ti4+  Ti12  1  0.00027115  -0.00076145  0.75719510  1
  Ti4+  Ti13  1  0.00098159  0.49970730  0.75800367  1
  Ti4+  Ti14  1  0.49955832  -0.00070786  0.75418261  1
  Ti4+  Ti15  1  0.49944188  0.49819492  0.75515358  1
  Ti4+  Ti16  1  0.33362024  0.16491218  0.09137063  1
  Ti4+  Ti17  1  0.33348519  0.66581747  0.08937132  1
  Ti4+  Ti18  1  0.83292731  0.16759839  0.08894620  1
  Ti4+  Ti19  1  0.83362243  0.66711129  0.08880716  1
  Ti4+  Ti20  1  0.16754219  0.33511456  0.41718256  1
  Ti4+  Ti21  1  0.16685799  0.83369709  0.42199125  1
  Ti4+  Ti22  1  0.66781163  0.33511967  0.42249826  1
  Ti4+  Ti23  1  0.66757599  0.83311287  0.41975750  1
  Cu+  Cu24  1  0.01584895  0.76533592  0.14389986  1
  Cu+  Cu25  1  0.07163134  0.92105070  0.47688519  1
  Cu+  Cu26  1  0.24536810  0.76304861  0.14375647  1
  Cu+  Cu27  1  0.07217858  0.41945402  0.47246583  1
  Cu+  Cu28  1  0.40321051  0.08465438  0.81114481  1
  Cu+  Cu29  1  0.57893508  0.64913658  0.47662966  1
  Cu+  Cu30  1  0.73940597  0.76430361  0.14093871  1
  Cu+  Cu31  1  0.40218369  0.31404817  0.81024040  1
  Cu+  Cu32  1  0.07491063  0.15574065  0.47805451  1
  Cu+  Cu33  1  0.07101793  0.65054320  0.47741899  1
  Cu+  Cu34  1  0.34479948  0.41663968  0.47707155  1
  Cu+  Cu35  1  0.73943165  0.26784445  0.13686997  1
  Cu+  Cu36  1  0.16602481  0.08390778  0.17496770  1
  Cu+  Cu37  1  0.16520575  0.58722299  0.17072326  1
  Cu+  Cu38  1  0.66625131  0.09209257  0.16867537  1
  Cu+  Cu39  1  0.66475515  0.58910709  0.17110397  1
  Cu+  Cu40  1  0.41649285  0.33456025  0.17528505  1
  Cu+  Cu41  1  0.41766952  0.83763255  0.17014154  1
  Cu+  Cu42  1  0.91246376  0.33656269  0.17058593  1
  Cu+  Cu43  1  0.91620566  0.83746281  0.17195069  1
  Cu+  Cu44  1  0.42217083  0.08420927  0.16969392  1
  Cu+  Cu45  1  0.42087814  0.58295587  0.17310187  1
  Cu+  Cu46  1  0.92172808  0.08591094  0.17248645  1
  Cu+  Cu47  1  0.92503558  0.58807422  0.16668578  1
  Cu+  Cu48  1  0.49852059  0.24769185  0.50689795  1
  Cu+  Cu49  1  0.49818861  0.74539981  0.49963015  1
  Cu+  Cu50  1  0.98994784  0.24542915  0.49796191  1
  Cu+  Cu51  1  0.99529600  0.74784681  0.50420586  1
  Cu+  Cu52  1  0.24773506  0.00188589  0.50473325  1
  Cu+  Cu53  1  0.25311720  0.50625666  0.49443160  1
  Cu+  Cu54  1  0.75171655  0.00299875  0.50149379  1
  Cu+  Cu55  1  0.75233551  0.50279888  0.50364287  1
  Cu+  Cu56  1  0.25143306  0.24323573  0.50070470  1
  Cu+  Cu57  1  0.24810373  0.74300514  0.49994575  1
  Cu+  Cu58  1  0.75084074  0.24881093  0.50287033  1
  Cu+  Cu59  1  0.75121140  0.74658925  0.50246469  1
  Cu+  Cu60  1  0.32864089  0.41196821  0.83846214  1
  Cu+  Cu61  1  0.32944035  0.91290300  0.83943600  1
  Cu+  Cu62  1  0.83030456  0.41263076  0.84034737  1
  Cu+  Cu63  1  0.83077621  0.91227035  0.84016404  1
  Cu+  Cu64  1  0.08405569  0.16872409  0.83884193  1
  Cu+  Cu65  1  0.08499757  0.66815466  0.84284246  1
  Cu+  Cu66  1  0.58111798  0.16828209  0.83532691  1
  Cu+  Cu67  1  0.58739047  0.67020703  0.83894836  1
  Cu+  Cu68  1  0.08571468  0.41503893  0.84044801  1
  Cu+  Cu69  1  0.08184517  0.91164746  0.84097043  1
  Cu+  Cu70  1  0.57957391  0.40912716  0.83583698  1
  Cu+  Cu71  1  0.58464987  0.91236786  0.83720154  1
  Cu+  Cu72  1  0.16484660  0.08143432  0.67913162  1
  Cu+  Cu73  1  0.16722344  0.58333954  0.67470432  1
  Cu+  Cu74  1  0.66949900  0.08313746  0.67223630  1
  Cu+  Cu75  1  0.66993450  0.58604626  0.67658702  1
  Cu+  Cu76  1  0.41477023  0.33042820  0.68152808  1
  Cu+  Cu77  1  0.41602515  0.82956812  0.67025502  1
  Cu+  Cu78  1  0.91713799  0.33112784  0.67420731  1
  Cu+  Cu79  1  0.91735321  0.83157192  0.67625581  1
  Cu+  Cu80  1  0.41424933  0.08284166  0.68087789  1
  Cu+  Cu81  1  0.41751391  0.58386854  0.67412571  1
  Cu+  Cu82  1  0.91627855  0.08436246  0.67431012  1
  Cu+  Cu83  1  0.91832543  0.58575485  0.67772957  1
  Cu+  Cu84  1  0.00353389  0.25027525  0.00814900  1
  Cu+  Cu85  1  0.00258666  0.74835594  0.01493494  1
  Cu+  Cu86  1  0.49792136  0.24766212  0.01023854  1
  Cu+  Cu87  1  0.50277759  0.74688558  0.00762241  1
  Cu+  Cu88  1  0.25078005  0.49459034  0.00894747  1
  Cu+  Cu89  1  0.24961389  0.99836809  0.01120268  1
  Cu+  Cu90  1  0.74696417  0.49695680  0.00618485  1
  Cu+  Cu91  1  0.75142583  0.99647960  0.00762637  1
  Cu+  Cu92  1  0.24779889  0.24944000  0.01091439  1
  Cu+  Cu93  1  0.24672390  0.74895326  0.01434696  1
  Cu+  Cu94  1  0.74665741  0.25182715  0.00931409  1
  Cu+  Cu95  1  0.74793764  0.75152649  0.01263990  1
  Cu+  Cu96  1  0.33855644  0.42110966  0.34702080  1
  Cu+  Cu97  1  0.33920181  0.92173929  0.34040983  1
  Cu+  Cu98  1  0.83414937  0.41946144  0.33938228  1
  Cu+  Cu99  1  0.83564723  0.91782525  0.34162001  1
  Cu+  Cu100  1  0.08422539  0.16513110  0.34745715  1
  Cu+  Cu101  1  0.08489477  0.66733044  0.34770129  1
  Cu+  Cu102  1  0.58420184  0.16884900  0.34038738  1
  Cu+  Cu103  1  0.58352549  0.66578255  0.34719755  1
  Cu+  Cu104  1  0.08162464  0.42106612  0.34233626  1
  Cu+  Cu105  1  0.08403768  0.92059134  0.34900209  1
  Cu+  Cu106  1  0.58350434  0.41896915  0.34113396  1
  Cu+  Cu107  1  0.58441346  0.92322602  0.33593578  1
  Cu+  Cu108  1  0.00184822  0.00298227  0.11718688  1
  Cu+  Cu109  1  0.00288334  0.49539572  0.11311808  1
  Cu+  Cu110  1  0.50439669  -0.00338420  0.11062279  1
  Cu+  Cu111  1  0.49944214  0.49419343  0.11829883  1
  Cu+  Cu112  1  0.33961617  0.16491459  0.44924556  1
  Cu+  Cu113  1  0.33883916  0.67441833  0.44065497  1
  Cu+  Cu114  1  0.82357522  0.16289979  0.44353828  1
  Cu+  Cu115  1  0.83188993  0.66499093  0.44521257  1
  Cu+  Cu116  1  0.16299149  0.33264840  0.78195208  1
  Cu+  Cu117  1  0.16513339  0.83049637  0.78536220  1
  Cu+  Cu118  1  0.67126780  0.33510424  0.78027661  1
  Cu+  Cu119  1  0.66872048  0.83569947  0.78244861  1
  Te2-  Te120  1  -0.00244018  0.00003011  0.39213859  1
  Te2-  Te121  1  -0.00309109  0.50073314  0.38855523  1
  Te2-  Te122  1  0.50336256  0.00429146  0.38415252  1
  Te2-  Te123  1  0.50315196  0.50015082  0.39240227  1
  Te2-  Te124  1  0.32930432  0.16368774  0.72486699  1
  Te2-  Te125  1  0.33344590  0.66558012  0.71535245  1
  Te2-  Te126  1  0.83340672  0.16628298  0.71784593  1
  Te2-  Te127  1  0.83452856  0.66708816  0.72039575  1
  Te2-  Te128  1  0.16611723  0.33167304  0.05550303  1
  Te2-  Te129  1  0.16785516  0.83550018  0.06039937  1
  Te2-  Te130  1  0.66292927  0.33437638  0.05364178  1
  Te2-  Te131  1  0.66500333  0.83454842  0.05652995  1
  Te2-  Te132  1  0.48579582  0.24113785  0.88386578  1
  Te2-  Te133  1  0.49511727  0.74516856  0.88221352  1
  Te2-  Te134  1  0.99527733  0.24679549  0.88273387  1
  Te2-  Te135  1  0.99508251  0.74570730  0.88784098  1
  Te2-  Te136  1  0.24965594  0.00414501  0.88522892  1
  Te2-  Te137  1  0.25425476  0.50394488  0.88315779  1
  Te2-  Te138  1  0.75222458  0.00239922  0.88189471  1
  Te2-  Te139  1  0.74754855  0.50009843  0.88059187  1
  Te2-  Te140  1  0.25032748  0.24183077  0.88493001  1
  Te2-  Te141  1  0.25292379  0.74721411  0.88694676  1
  Te2-  Te142  1  0.74794120  0.24378321  0.88244497  1
  Te2-  Te143  1  0.75346443  0.74518974  0.88576048  1
  Te2-  Te144  1  0.33100393  0.41682706  0.21975238  1
  Te2-  Te145  1  0.32799795  0.91867920  0.21532651  1
  Te2-  Te146  1  0.82702859  0.42172084  0.21386344  1
  Te2-  Te147  1  0.82737885  0.91775859  0.21616710  1
  Te2-  Te148  1  0.08731382  0.17227679  0.22017458  1
  Te2-  Te149  1  0.08977086  0.68063531  0.21913952  1
  Te2-  Te150  1  0.58762261  0.18110530  0.21494142  1
  Te2-  Te151  1  0.58696452  0.67834090  0.21967806  1
  Te2-  Te152  1  0.08241991  0.41782110  0.21456583  1
  Te2-  Te153  1  0.08785799  0.91622452  0.22093097  1
  Te2-  Te154  1  0.58741772  0.42009398  0.21524430  1
  Te2-  Te155  1  0.58766571  0.92148347  0.21010076  1
  Te2-  Te156  1  0.15425357  0.07730047  0.55213257  1
  Te2-  Te157  1  0.15495821  0.57457787  0.54769621  1
  Te2-  Te158  1  0.66298521  0.08087100  0.54640006  1
  Te2-  Te159  1  0.66107951  0.57772042  0.55052912  1
  Te2-  Te160  1  0.41922651  0.33710931  0.55305671  1
  Te2-  Te161  1  0.41693703  0.83295595  0.54406602  1
  Te2-  Te162  1  0.91889006  0.34087341  0.54786612  1
  Te2-  Te163  1  0.91747813  0.83999108  0.55003595  1
  Te2-  Te164  1  0.41455015  0.07922421  0.55269907  1
  Te2-  Te165  1  0.42023273  0.57548340  0.54730250  1
  Te2-  Te166  1  0.91865085  0.07760706  0.54802559  1
  Te2-  Te167  1  0.91876414  0.57811761  0.55109182  1
  Te2-  Te168  1  -0.00020040  -0.00060362  0.88368795  1
  Te2-  Te169  1  -0.00053362  0.49772376  0.88456860  1
  Te2-  Te170  1  0.50094529  -0.00191924  0.88139419  1
  Te2-  Te171  1  0.50010356  0.49906083  0.88202110  1
  Te2-  Te172  1  0.33579763  0.16633292  0.21803522  1
  Te2-  Te173  1  0.33519332  0.66853303  0.21651577  1
  Te2-  Te174  1  0.83446683  0.16852073  0.21610110  1
  Te2-  Te175  1  0.83453516  0.66670877  0.21663642  1
  Te2-  Te176  1  0.16614146  0.33357811  0.54531228  1
  Te2-  Te177  1  0.16778934  0.83115162  0.54972286  1
  Te2-  Te178  1  0.66804890  0.33345321  0.54919417  1
  Te2-  Te179  1  0.66682801  0.83338160  0.54690482  1
  Te2-  Te180  1  0.32557298  0.41416412  0.71091861  1
  Te2-  Te181  1  0.32624871  0.90902490  0.71100795  1
  Te2-  Te182  1  0.83041490  0.41433508  0.71238819  1
  Te2-  Te183  1  0.82917350  0.91401804  0.71245784  1
  Te2-  Te184  1  0.08530753  0.17205140  0.71237844  1
  Te2-  Te185  1  0.08758232  0.67210123  0.71489731  1
  Te2-  Te186  1  0.58828359  0.17225158  0.70860188  1
  Te2-  Te187  1  0.58632327  0.67165326  0.71243516  1
  Te2-  Te188  1  0.08614450  0.41394416  0.71257962  1
  Te2-  Te189  1  0.08625578  0.91164541  0.71410444  1
  Te2-  Te190  1  0.58864258  0.41435943  0.70928648  1
  Te2-  Te191  1  0.58518048  0.91331375  0.70985102  1
  Te2-  Te192  1  0.16102897  0.07963557  0.04806047  1
  Te2-  Te193  1  0.16107378  0.57615514  0.04356997  1
  Te2-  Te194  1  0.66218214  0.07909670  0.04118101  1
  Te2-  Te195  1  0.66034149  0.57901297  0.04436433  1
  Te2-  Te196  1  0.41754185  0.33671522  0.04752368  1
  Te2-  Te197  1  0.42113174  0.83686123  0.04205175  1
  Te2-  Te198  1  0.91984967  0.33839617  0.04217470  1
  Te2-  Te199  1  0.92152829  0.84117794  0.04409837  1
  Te2-  Te200  1  0.41983312  0.07826346  0.04476183  1
  Te2-  Te201  1  0.41987093  0.57879514  0.04721562  1
  Te2-  Te202  1  0.92012258  0.08142093  0.04624107  1
  Te2-  Te203  1  0.91631318  0.57579505  0.04194795  1
  Te2-  Te204  1  0.49579772  0.24941173  0.37910429  1
  Te2-  Te205  1  0.49632569  0.75282387  0.37235842  1
  Te2-  Te206  1  0.99230563  0.24804522  0.37146952  1
  Te2-  Te207  1  0.99210351  0.74711370  0.37609770  1
  Te2-  Te208  1  0.25663723  0.00782521  0.37808502  1
  Te2-  Te209  1  0.25434230  0.51077015  0.36949237  1
  Te2-  Te210  1  0.75286848  0.00549674  0.37503944  1
  Te2-  Te211  1  0.75323403  0.50724406  0.37716502  1
  Te2-  Te212  1  0.25739921  0.24768581  0.37453342  1
  Te2-  Te213  1  0.25728686  0.75193388  0.37366898  1
  Te2-  Te214  1  0.75384886  0.25017142  0.37578123  1
  Te2-  Te215  1  0.75679968  0.74812657  0.37527715  1
