# generated using pymatgen
data_Ti(CuTe)4
_symmetry_space_group_name_H-M   'P 1'
_cell_length_a   16.89073898
_cell_length_b   16.90134886
_cell_length_c   20.71950256
_cell_angle_alpha   89.99860353
_cell_angle_beta   90.10482303
_cell_angle_gamma   120.02005645
_symmetry_Int_Tables_number   1
_chemical_formula_structural   Ti(CuTe)4
_chemical_formula_sum   'Ti24 Cu96 Te96'
_cell_volume   5121.42962193
_cell_formula_units_Z   24
loop_
 _symmetry_equiv_pos_site_id
 _symmetry_equiv_pos_as_xyz
  1  'x, y, z'
loop_
 _atom_type_symbol
 _atom_type_oxidation_number
  Ti4+  4.0
  Cu+  1.0
  Te2-  -2.0
loop_
 _atom_site_type_symbol
 _atom_site_label
 _atom_site_symmetry_multiplicity
 _atom_site_fract_x
 _atom_site_fract_y
 _atom_site_fract_z
 _atom_site_occupancy
  Ti4+  Ti0  1  0.00194602  0.00254957  0.26071567  1
  Ti4+  Ti1  1  0.00378918  0.50331137  0.25675955  1
  Ti4+  Ti2  1  0.50051242  0.00100064  0.25837661  1
  Ti4+  Ti3  1  0.50228864  0.50230645  0.26101264  1
  Ti4+  Ti4  1  0.33179078  0.16309482  0.58881560  1
  Ti4+  Ti5  1  0.33477423  0.66706617  0.59373396  1
  Ti4+  Ti6  1  0.83271546  0.16661569  0.59137329  1
  Ti4+  Ti7  1  0.83164398  0.66586208  0.58972366  1
  Ti4+  Ti8  1  0.16393009  0.32865992  0.92171426  1
  Ti4+  Ti9  1  0.16360484  0.83108103  0.92444046  1
  Ti4+  Ti10  1  0.66477569  0.33439101  0.92123093  1
  Ti4+  Ti11  1  0.66289956  0.83199520  0.92450770  1
  Ti4+  Ti12  1  0.00072169  0.00124214  0.75520549  1
  Ti4+  Ti13  1  -0.00030144  0.50150280  0.75270776  1
  Ti4+  Ti14  1  0.50073009  -0.00170610  0.75515882  1
  Ti4+  Ti15  1  0.49972922  0.49721451  0.75399513  1
  Ti4+  Ti16  1  0.33428131  0.16710102  0.09103234  1
  Ti4+  Ti17  1  0.33198890  0.66689293  0.08894808  1
  Ti4+  Ti18  1  0.83450320  0.16714179  0.08947413  1
  Ti4+  Ti19  1  0.83257291  0.66613997  0.08981201  1
  Ti4+  Ti20  1  0.16939422  0.33541202  0.42270757  1
  Ti4+  Ti21  1  0.16879413  0.83553666  0.42256598  1
  Ti4+  Ti22  1  0.66848949  0.33312192  0.42149996  1
  Ti4+  Ti23  1  0.66895285  0.83427482  0.42191986  1
  Cu+  Cu24  1  0.40157586  0.30516418  0.80390409  1
  Cu+  Cu25  1  0.90375342  0.31906481  0.80695096  1
  Cu+  Cu26  1  0.07151940  0.15103656  0.47668497  1
  Cu+  Cu27  1  0.57084441  0.65088523  0.47665678  1
  Cu+  Cu28  1  0.06891650  0.92012592  0.47457531  1
  Cu+  Cu29  1  0.90151498  0.08626579  0.80929396  1
  Cu+  Cu30  1  0.23957640  0.76449619  0.14068556  1
  Cu+  Cu31  1  0.40686019  0.58350837  0.81286207  1
  Cu+  Cu32  1  0.40286143  0.81488679  0.81061187  1
  Cu+  Cu33  1  0.57271199  0.14327398  0.47355832  1
  Cu+  Cu34  1  0.57317923  0.41892067  0.47649475  1
  Cu+  Cu35  1  0.90390837  0.59588350  0.80553854  1
  Cu+  Cu36  1  0.16559784  0.08423876  0.17577631  1
  Cu+  Cu37  1  0.16487113  0.58807579  0.16995654  1
  Cu+  Cu38  1  0.66624914  0.08381650  0.17342949  1
  Cu+  Cu39  1  0.66468559  0.58405745  0.17485989  1
  Cu+  Cu40  1  0.42091575  0.33769792  0.17471605  1
  Cu+  Cu41  1  0.41417791  0.83697362  0.17104977  1
  Cu+  Cu42  1  0.92244894  0.33794281  0.17139780  1
  Cu+  Cu43  1  0.91973313  0.83648998  0.17379338  1
  Cu+  Cu44  1  0.42120335  0.08422719  0.17243389  1
  Cu+  Cu45  1  0.42141051  0.58479106  0.17367347  1
  Cu+  Cu46  1  0.92205096  0.08533507  0.17361806  1
  Cu+  Cu47  1  0.92038823  0.58298764  0.17039348  1
  Cu+  Cu48  1  0.49738314  0.24501552  0.50302860  1
  Cu+  Cu49  1  0.49793269  0.74840882  0.50715564  1
  Cu+  Cu50  1  0.99801314  0.24883009  0.50593266  1
  Cu+  Cu51  1  0.99731218  0.74965499  0.50531422  1
  Cu+  Cu52  1  0.24734331  0.00238408  0.50143014  1
  Cu+  Cu53  1  0.25458667  0.50556200  0.50583982  1
  Cu+  Cu54  1  0.75419765  0.00521182  0.50274516  1
  Cu+  Cu55  1  0.75032946  0.50322217  0.50271968  1
  Cu+  Cu56  1  0.24802505  0.24477417  0.50228678  1
  Cu+  Cu57  1  0.25573141  0.75236518  0.50710167  1
  Cu+  Cu58  1  0.74871181  0.24468067  0.50363545  1
  Cu+  Cu59  1  0.74791221  0.74407190  0.50132462  1
  Cu+  Cu60  1  0.32902606  0.40855200  0.83508454  1
  Cu+  Cu61  1  0.33027037  0.91278384  0.83918721  1
  Cu+  Cu62  1  0.82949421  0.41938812  0.83431917  1
  Cu+  Cu63  1  0.82931943  0.91620869  0.83875652  1
  Cu+  Cu64  1  0.08087752  0.16877385  0.83452398  1
  Cu+  Cu65  1  0.07991810  0.67121486  0.83483801  1
  Cu+  Cu66  1  0.58345159  0.17050928  0.83492593  1
  Cu+  Cu67  1  0.58198103  0.66934917  0.83664469  1
  Cu+  Cu68  1  0.08000318  0.40978300  0.83254457  1
  Cu+  Cu69  1  0.08435379  0.91482998  0.83804237  1
  Cu+  Cu70  1  0.57943880  0.40871936  0.83361357  1
  Cu+  Cu71  1  0.57977300  0.90948708  0.83605082  1
  Cu+  Cu72  1  0.16755280  0.08220522  0.67600589  1
  Cu+  Cu73  1  0.17038986  0.58723095  0.67443813  1
  Cu+  Cu74  1  0.66823719  0.08349184  0.67525841  1
  Cu+  Cu75  1  0.66853715  0.58225544  0.67506827  1
  Cu+  Cu76  1  0.41637569  0.32682559  0.67628081  1
  Cu+  Cu77  1  0.41737929  0.82877540  0.68113198  1
  Cu+  Cu78  1  0.91609621  0.33118511  0.67677060  1
  Cu+  Cu79  1  0.91709466  0.83241102  0.67448683  1
  Cu+  Cu80  1  0.41740741  0.08176040  0.67254749  1
  Cu+  Cu81  1  0.41751042  0.58478098  0.68215794  1
  Cu+  Cu82  1  0.91794859  0.08728796  0.68037999  1
  Cu+  Cu83  1  0.91633066  0.58760732  0.67631128  1
  Cu+  Cu84  1  -0.00032480  0.24795698  0.00820356  1
  Cu+  Cu85  1  -0.00183027  0.74854357  0.00923088  1
  Cu+  Cu86  1  0.50044042  0.25139484  0.00835012  1
  Cu+  Cu87  1  0.49899860  0.74903168  0.01029283  1
  Cu+  Cu88  1  0.24876966  0.49484705  0.00750331  1
  Cu+  Cu89  1  0.24958134  0.99758835  0.00976674  1
  Cu+  Cu90  1  0.74711082  0.49897368  0.00613750  1
  Cu+  Cu91  1  0.74832693  0.99741810  0.00968756  1
  Cu+  Cu92  1  0.24975802  0.24921371  0.00793221  1
  Cu+  Cu93  1  0.24640683  0.74999282  0.01192451  1
  Cu+  Cu94  1  0.74964802  0.25280881  0.00681206  1
  Cu+  Cu95  1  0.74644951  0.75136594  0.00900042  1
  Cu+  Cu96  1  0.33817727  0.42157277  0.34273365  1
  Cu+  Cu97  1  0.33706685  0.91806204  0.34247452  1
  Cu+  Cu98  1  0.84164402  0.41983805  0.33949230  1
  Cu+  Cu99  1  0.83711904  0.92019370  0.34212194  1
  Cu+  Cu100  1  0.08409286  0.16634996  0.34765990  1
  Cu+  Cu101  1  0.08672321  0.66673652  0.34153917  1
  Cu+  Cu102  1  0.58482966  0.16346957  0.34555251  1
  Cu+  Cu103  1  0.58405005  0.66521360  0.34782227  1
  Cu+  Cu104  1  0.08674139  0.42297853  0.34001713  1
  Cu+  Cu105  1  0.08387559  0.92088770  0.34679189  1
  Cu+  Cu106  1  0.58608728  0.42171991  0.34718649  1
  Cu+  Cu107  1  0.58402117  0.91878641  0.34081702  1
  Cu+  Cu108  1  0.00054693  -0.00080679  0.11873270  1
  Cu+  Cu109  1  -0.00100161  0.49814072  0.11291232  1
  Cu+  Cu110  1  0.50424879  0.00182338  0.11596973  1
  Cu+  Cu111  1  0.49981951  0.49992460  0.11856527  1
  Cu+  Cu112  1  0.33543131  0.16852244  0.44447591  1
  Cu+  Cu113  1  0.33342468  0.66926424  0.45023956  1
  Cu+  Cu114  1  0.83680200  0.16980391  0.44662329  1
  Cu+  Cu115  1  0.83665502  0.66664321  0.44568614  1
  Cu+  Cu116  1  0.16687101  0.33521726  0.77658221  1
  Cu+  Cu117  1  0.16911112  0.83822072  0.78106906  1
  Cu+  Cu118  1  0.66662642  0.33076094  0.77606415  1
  Cu+  Cu119  1  0.66961674  0.83179217  0.78086307  1
  Te2-  Te120  1  -0.00162232  0.00085594  0.39336258  1
  Te2-  Te121  1  0.00416690  0.50313776  0.38622041  1
  Te2-  Te122  1  0.50032757  -0.00270766  0.38918546  1
  Te2-  Te123  1  0.49945822  0.49983812  0.39374531  1
  Te2-  Te124  1  0.33239578  0.16015418  0.71898667  1
  Te2-  Te125  1  0.33095728  0.66365304  0.72600953  1
  Te2-  Te126  1  0.83102604  0.16658170  0.72314201  1
  Te2-  Te127  1  0.83204853  0.66896532  0.72016671  1
  Te2-  Te128  1  0.16527251  0.33002693  0.04989336  1
  Te2-  Te129  1  0.16301885  0.83318055  0.05433067  1
  Te2-  Te130  1  0.66632366  0.33441207  0.04943484  1
  Te2-  Te131  1  0.66393025  0.83293727  0.05287219  1
  Te2-  Te132  1  0.48955938  0.24230173  0.88219401  1
  Te2-  Te133  1  0.48559854  0.74175929  0.88432265  1
  Te2-  Te134  1  0.98690490  0.24284917  0.88199615  1
  Te2-  Te135  1  0.98953025  0.74780818  0.88326773  1
  Te2-  Te136  1  0.25174918  0.00211542  0.88332191  1
  Te2-  Te137  1  0.24782882  0.50071365  0.88069701  1
  Te2-  Te138  1  0.74677738  0.00501094  0.88340633  1
  Te2-  Te139  1  0.74773526  0.50734461  0.87994031  1
  Te2-  Te140  1  0.24853073  0.24015123  0.88152858  1
  Te2-  Te141  1  0.24657309  0.74126764  0.88424478  1
  Te2-  Te142  1  0.75067411  0.24712492  0.88058549  1
  Te2-  Te143  1  0.74930913  0.74803274  0.88244500  1
  Te2-  Te144  1  0.33152563  0.41707403  0.21728297  1
  Te2-  Te145  1  0.32607996  0.91722556  0.21700201  1
  Te2-  Te146  1  0.83212038  0.41572799  0.21417870  1
  Te2-  Te147  1  0.83157571  0.91701286  0.21670628  1
  Te2-  Te148  1  0.08834335  0.17412639  0.22069433  1
  Te2-  Te149  1  0.08717411  0.67848199  0.21605984  1
  Te2-  Te150  1  0.58782928  0.17261970  0.21866613  1
  Te2-  Te151  1  0.58766795  0.67392414  0.22082953  1
  Te2-  Te152  1  0.09112501  0.41971728  0.21428038  1
  Te2-  Te153  1  0.08699669  0.91648057  0.21991425  1
  Te2-  Te154  1  0.58834839  0.41712371  0.22009571  1
  Te2-  Te155  1  0.58348516  0.91410776  0.21485308  1
  Te2-  Te156  1  0.15505573  0.07673599  0.55004799  1
  Te2-  Te157  1  0.16469415  0.58358994  0.54901566  1
  Te2-  Te158  1  0.65910454  0.07600605  0.54946583  1
  Te2-  Te159  1  0.65518444  0.57648235  0.54948812  1
  Te2-  Te160  1  0.41573733  0.33513544  0.54918507  1
  Te2-  Te161  1  0.42205559  0.83848164  0.55400628  1
  Te2-  Te162  1  0.91715477  0.33660319  0.54940513  1
  Te2-  Te163  1  0.91452023  0.83827000  0.54897302  1
  Te2-  Te164  1  0.41560289  0.07499190  0.54699152  1
  Te2-  Te165  1  0.41991742  0.57846607  0.55418309  1
  Te2-  Te166  1  0.91848696  0.07887715  0.55273364  1
  Te2-  Te167  1  0.91781496  0.58150790  0.54899837  1
  Te2-  Te168  1  -0.00009459  -0.00001635  0.88203059  1
  Te2-  Te169  1  0.00062085  0.49999881  0.88001359  1
  Te2-  Te170  1  0.50122173  0.00125275  0.88190976  1
  Te2-  Te171  1  0.49996798  0.49889048  0.88136794  1
  Te2-  Te172  1  0.33632742  0.16849510  0.21724435  1
  Te2-  Te173  1  0.33435001  0.66783711  0.21557584  1
  Te2-  Te174  1  0.83636796  0.16941667  0.21564133  1
  Te2-  Te175  1  0.83545797  0.66704858  0.21596132  1
  Te2-  Te176  1  0.16873012  0.33488454  0.54952914  1
  Te2-  Te177  1  0.16766707  0.83414718  0.54945390  1
  Te2-  Te178  1  0.66798187  0.33351447  0.54915390  1
  Te2-  Te179  1  0.66974570  0.83507439  0.54873328  1
  Te2-  Te180  1  0.32689144  0.41047233  0.70728608  1
  Te2-  Te181  1  0.32789614  0.91264730  0.71093355  1
  Te2-  Te182  1  0.82673876  0.41453972  0.70631274  1
  Te2-  Te183  1  0.82818703  0.91376877  0.71056771  1
  Te2-  Te184  1  0.09024269  0.17451714  0.70869909  1
  Te2-  Te185  1  0.08857920  0.67540277  0.70873826  1
  Te2-  Te186  1  0.58582174  0.17052623  0.70908124  1
  Te2-  Te187  1  0.58962834  0.67226570  0.71028577  1
  Te2-  Te188  1  0.08848179  0.41652996  0.70654562  1
  Te2-  Te189  1  0.08559631  0.91332442  0.71166581  1
  Te2-  Te190  1  0.58819624  0.41251713  0.70755144  1
  Te2-  Te191  1  0.59006116  0.91393464  0.71026659  1
  Te2-  Te192  1  0.16208407  0.08013811  0.04827493  1
  Te2-  Te193  1  0.15988005  0.57705476  0.04284110  1
  Te2-  Te194  1  0.66294312  0.08282534  0.04584087  1
  Te2-  Te195  1  0.66045098  0.58136345  0.04726687  1
  Te2-  Te196  1  0.41884882  0.33860980  0.04729588  1
  Te2-  Te197  1  0.41906017  0.83980907  0.04391417  1
  Te2-  Te198  1  0.91949548  0.33787784  0.04405921  1
  Te2-  Te199  1  0.91729086  0.83787132  0.04652920  1
  Te2-  Te200  1  0.42000693  0.08146228  0.04615235  1
  Te2-  Te201  1  0.41783098  0.57955998  0.04682343  1
  Te2-  Te202  1  0.91869050  0.07907413  0.04666388  1
  Te2-  Te203  1  0.91682535  0.57897841  0.04414069  1
  Te2-  Te204  1  0.49562135  0.24790913  0.37503163  1
  Te2-  Te205  1  0.49520054  0.74925877  0.37927618  1
  Te2-  Te206  1  0.99731708  0.25259266  0.37793220  1
  Te2-  Te207  1  0.99681005  0.74756941  0.37742197  1
  Te2-  Te208  1  0.25683115  0.00809222  0.37574611  1
  Te2-  Te209  1  0.25553448  0.50796106  0.37973225  1
  Te2-  Te210  1  0.75410616  0.00693502  0.37735933  1
  Te2-  Te211  1  0.75860717  0.50629568  0.37645483  1
  Te2-  Te212  1  0.25740460  0.25095436  0.37615651  1
  Te2-  Te213  1  0.25538235  0.74962167  0.38016127  1
  Te2-  Te214  1  0.75769369  0.25004650  0.37663553  1
  Te2-  Te215  1  0.75756792  0.74979492  0.37566677  1
