# generated using pymatgen
data_Ti(CuTe)4
_symmetry_space_group_name_H-M   'P 1'
_cell_length_a   16.85099197
_cell_length_b   16.85174251
_cell_length_c   20.65505719
_cell_angle_alpha   89.96876068
_cell_angle_beta   90.03249540
_cell_angle_gamma   120.00885296
_symmetry_Int_Tables_number   1
_chemical_formula_structural   Ti(CuTe)4
_chemical_formula_sum   'Ti24 Cu96 Te96'
_cell_volume   5079.12007832
_cell_formula_units_Z   24
loop_
 _symmetry_equiv_pos_site_id
 _symmetry_equiv_pos_as_xyz
  1  'x, y, z'
loop_
 _atom_type_symbol
 _atom_type_oxidation_number
  Ti4+  4.0
  Cu+  1.0
  Te2-  -2.0
loop_
 _atom_site_type_symbol
 _atom_site_label
 _atom_site_symmetry_multiplicity
 _atom_site_fract_x
 _atom_site_fract_y
 _atom_site_fract_z
 _atom_site_occupancy
  Ti4+  Ti0  1  0.00244260  0.00388747  0.25934583  1
  Ti4+  Ti1  1  0.00179210  0.50169080  0.25624814  1
  Ti4+  Ti2  1  0.50014862  0.00407553  0.25434431  1
  Ti4+  Ti3  1  0.50069575  0.50141587  0.26069131  1
  Ti4+  Ti4  1  0.33211027  0.16538382  0.59415489  1
  Ti4+  Ti5  1  0.33302514  0.66311123  0.58715309  1
  Ti4+  Ti6  1  0.83384232  0.16544178  0.59246127  1
  Ti4+  Ti7  1  0.83762387  0.66728513  0.59027100  1
  Ti4+  Ti8  1  0.16378056  0.33125410  0.92548803  1
  Ti4+  Ti9  1  0.16306446  0.83056677  0.92384230  1
  Ti4+  Ti10  1  0.66215377  0.33421314  0.92548346  1
  Ti4+  Ti11  1  0.66610816  0.83317966  0.92312109  1
  Ti4+  Ti12  1  -0.00057255  0.00084587  0.75503226  1
  Ti4+  Ti13  1  0.00031245  0.50068955  0.75775538  1
  Ti4+  Ti14  1  0.49935230  -0.00145498  0.75459965  1
  Ti4+  Ti15  1  0.50077531  0.49710627  0.75644687  1
  Ti4+  Ti16  1  0.33364057  0.16561115  0.08944760  1
  Ti4+  Ti17  1  0.33102622  0.66664852  0.08936657  1
  Ti4+  Ti18  1  0.83469426  0.16708469  0.08728744  1
  Ti4+  Ti19  1  0.83202332  0.66579148  0.09041560  1
  Ti4+  Ti20  1  0.16922894  0.33535312  0.42208909  1
  Ti4+  Ti21  1  0.16570078  0.83276496  0.42352209  1
  Ti4+  Ti22  1  0.66799799  0.33351166  0.42485279  1
  Ti4+  Ti23  1  0.66738121  0.83376434  0.41965157  1
  Cu+  Cu24  1  0.40100130  0.31193338  0.81154847  1
  Cu+  Cu25  1  0.74827556  0.26512969  0.13938247  1
  Cu+  Cu26  1  0.58089966  0.64967398  0.47632296  1
  Cu+  Cu27  1  0.90187957  0.59454952  0.80745220  1
  Cu+  Cu28  1  0.90273933  0.09664769  0.80785270  1
  Cu+  Cu29  1  0.23610304  0.76509256  0.13904886  1
  Cu+  Cu30  1  0.06990510  0.64054084  0.47299141  1
  Cu+  Cu31  1  0.02620476  0.26364480  0.14131280  1
  Cu+  Cu32  1  0.51617567  0.26445831  0.14565226  1
  Cu+  Cu33  1  0.07250665  0.92938821  0.47422507  1
  Cu+  Cu34  1  0.35351970  0.42002525  0.47672428  1
  Cu+  Cu35  1  0.40334755  0.08665028  0.81140570  1
  Cu+  Cu36  1  0.16390539  0.08171998  0.17274705  1
  Cu+  Cu37  1  0.16444595  0.58826646  0.16955836  1
  Cu+  Cu38  1  0.66405605  0.08772997  0.16611751  1
  Cu+  Cu39  1  0.66473962  0.58559988  0.17352826  1
  Cu+  Cu40  1  0.41871585  0.33826109  0.17419611  1
  Cu+  Cu41  1  0.41206373  0.83620077  0.16895511  1
  Cu+  Cu42  1  0.92154247  0.33669718  0.16908484  1
  Cu+  Cu43  1  0.91899921  0.83527971  0.17417352  1
  Cu+  Cu44  1  0.42480777  0.08662841  0.16698219  1
  Cu+  Cu45  1  0.41833923  0.58260649  0.17452420  1
  Cu+  Cu46  1  0.92609621  0.08822299  0.16983254  1
  Cu+  Cu47  1  0.91987039  0.58404404  0.17040238  1
  Cu+  Cu48  1  0.49902771  0.24751344  0.50889169  1
  Cu+  Cu49  1  0.49823748  0.74520512  0.49924712  1
  Cu+  Cu50  1  0.99719597  0.24678034  0.50560424  1
  Cu+  Cu51  1  0.99938352  0.74782003  0.50402709  1
  Cu+  Cu52  1  0.24780866  0.00152627  0.50718003  1
  Cu+  Cu53  1  0.25717631  0.50356998  0.49981683  1
  Cu+  Cu54  1  0.75395047  0.00405755  0.50381556  1
  Cu+  Cu55  1  0.75563536  0.50182583  0.50522404  1
  Cu+  Cu56  1  0.25349356  0.24920481  0.50634129  1
  Cu+  Cu57  1  0.24645525  0.74126974  0.50131351  1
  Cu+  Cu58  1  0.75160209  0.24796911  0.50714240  1
  Cu+  Cu59  1  0.75302159  0.74816157  0.50203857  1
  Cu+  Cu60  1  0.33028802  0.41322630  0.83992040  1
  Cu+  Cu61  1  0.32931708  0.91335414  0.83753743  1
  Cu+  Cu62  1  0.83061926  0.42133808  0.84034731  1
  Cu+  Cu63  1  0.83084391  0.91950391  0.83601356  1
  Cu+  Cu64  1  0.07813359  0.16852734  0.83742835  1
  Cu+  Cu65  1  0.07908500  0.66792210  0.83801784  1
  Cu+  Cu66  1  0.57866752  0.16783516  0.83791094  1
  Cu+  Cu67  1  0.58547902  0.66908516  0.83755969  1
  Cu+  Cu68  1  0.08320832  0.41346455  0.83967339  1
  Cu+  Cu69  1  0.08279745  0.91180339  0.83594938  1
  Cu+  Cu70  1  0.57889177  0.40892073  0.83698048  1
  Cu+  Cu71  1  0.58352454  0.91048311  0.83518960  1
  Cu+  Cu72  1  0.16667072  0.08379850  0.67783379  1
  Cu+  Cu73  1  0.16918217  0.58119888  0.67255776  1
  Cu+  Cu74  1  0.66858082  0.08215612  0.67492015  1
  Cu+  Cu75  1  0.67029801  0.58290362  0.67527789  1
  Cu+  Cu76  1  0.41748005  0.33003067  0.68291677  1
  Cu+  Cu77  1  0.41621201  0.82816656  0.66900929  1
  Cu+  Cu78  1  0.91763620  0.33169791  0.67561179  1
  Cu+  Cu79  1  0.91948626  0.83314532  0.67425255  1
  Cu+  Cu80  1  0.41464836  0.08318026  0.68087898  1
  Cu+  Cu81  1  0.41771404  0.58290702  0.67469329  1
  Cu+  Cu82  1  0.91458067  0.08627569  0.67855331  1
  Cu+  Cu83  1  0.91898618  0.58668307  0.67983290  1
  Cu+  Cu84  1  0.00264748  0.24922466  0.01315608  1
  Cu+  Cu85  1  -0.00282325  0.74634104  0.00834333  1
  Cu+  Cu86  1  0.49879044  0.24961038  0.01647874  1
  Cu+  Cu87  1  0.50185916  0.74840603  0.00650739  1
  Cu+  Cu88  1  0.24926466  0.49704952  0.00902043  1
  Cu+  Cu89  1  0.24787445  0.99706986  0.00855034  1
  Cu+  Cu90  1  0.74673412  0.50021315  0.00978294  1
  Cu+  Cu91  1  0.74975369  0.99614619  0.00696645  1
  Cu+  Cu92  1  0.24621236  0.24691683  0.01033525  1
  Cu+  Cu93  1  0.24443558  0.75015215  0.00999084  1
  Cu+  Cu94  1  0.74486642  0.25103690  0.01072510  1
  Cu+  Cu95  1  0.74833188  0.75167612  0.00632357  1
  Cu+  Cu96  1  0.33768205  0.41921676  0.34747051  1
  Cu+  Cu97  1  0.33543573  0.92041133  0.33920771  1
  Cu+  Cu98  1  0.83480873  0.41633995  0.34133157  1
  Cu+  Cu99  1  0.83664068  0.92098365  0.33990932  1
  Cu+  Cu100  1  0.08404302  0.16747879  0.34345586  1
  Cu+  Cu101  1  0.08296359  0.66434929  0.34504540  1
  Cu+  Cu102  1  0.58313547  0.16749935  0.34251189  1
  Cu+  Cu103  1  0.58236981  0.66477613  0.34674845  1
  Cu+  Cu104  1  0.08265174  0.41710658  0.34060930  1
  Cu+  Cu105  1  0.08221673  0.92139761  0.34668160  1
  Cu+  Cu106  1  0.58472173  0.41634301  0.34496765  1
  Cu+  Cu107  1  0.58428575  0.92284742  0.33577722  1
  Cu+  Cu108  1  -0.00320870  -0.00537326  0.11666100  1
  Cu+  Cu109  1  0.00003614  0.49970863  0.11120836  1
  Cu+  Cu110  1  0.50132700  -0.00526194  0.10927584  1
  Cu+  Cu111  1  0.50035581  0.50237343  0.11768369  1
  Cu+  Cu112  1  0.33573147  0.16500733  0.45169124  1
  Cu+  Cu113  1  0.33664768  0.67243440  0.44118555  1
  Cu+  Cu114  1  0.83288339  0.16808718  0.44956919  1
  Cu+  Cu115  1  0.83375135  0.66705367  0.44548372  1
  Cu+  Cu116  1  0.16912800  0.33562453  0.78193311  1
  Cu+  Cu117  1  0.16907236  0.83072220  0.77936384  1
  Cu+  Cu118  1  0.67118279  0.33049430  0.78198428  1
  Cu+  Cu119  1  0.66791579  0.83019331  0.77829308  1
  Te2-  Te120  1  -0.00165087  0.00400209  0.39031258  1
  Te2-  Te121  1  -0.00116815  0.49700356  0.38659721  1
  Te2-  Te122  1  0.50001066  0.00147695  0.38338869  1
  Te2-  Te123  1  0.50391904  0.49904583  0.39308141  1
  Te2-  Te124  1  0.32944820  0.16346162  0.72666684  1
  Te2-  Te125  1  0.33415352  0.66493074  0.71624935  1
  Te2-  Te126  1  0.83096717  0.16899498  0.72354063  1
  Te2-  Te127  1  0.83400784  0.66944298  0.72066965  1
  Te2-  Te128  1  0.16956018  0.33405290  0.05615779  1
  Te2-  Te129  1  0.16102797  0.83315621  0.05448107  1
  Te2-  Te130  1  0.66612648  0.33718982  0.05758566  1
  Te2-  Te131  1  0.66555590  0.83258499  0.05264861  1
  Te2-  Te132  1  0.48543987  0.24266194  0.88797803  1
  Te2-  Te133  1  0.49353012  0.74451511  0.88100630  1
  Te2-  Te134  1  0.98912767  0.24725804  0.88641040  1
  Te2-  Te135  1  0.98849806  0.74668465  0.88284779  1
  Te2-  Te136  1  0.24839561  0.00419983  0.88288916  1
  Te2-  Te137  1  0.25179971  0.50244107  0.88306338  1
  Te2-  Te138  1  0.74955742  0.00766093  0.88145259  1
  Te2-  Te139  1  0.74594055  0.50737085  0.88370401  1
  Te2-  Te140  1  0.24589836  0.24069326  0.88401652  1
  Te2-  Te141  1  0.24845534  0.74549205  0.88231636  1
  Te2-  Te142  1  0.74802094  0.25062000  0.88302656  1
  Te2-  Te143  1  0.75449371  0.75048503  0.88003068  1
  Te2-  Te144  1  0.32893216  0.41425753  0.22009935  1
  Te2-  Te145  1  0.32633452  0.92041719  0.21368687  1
  Te2-  Te146  1  0.82928101  0.41597191  0.21536326  1
  Te2-  Te147  1  0.83234030  0.92001033  0.21384902  1
  Te2-  Te148  1  0.09360337  0.17823778  0.21782833  1
  Te2-  Te149  1  0.08546670  0.67645170  0.21815128  1
  Te2-  Te150  1  0.59214226  0.18221543  0.21622745  1
  Te2-  Te151  1  0.58582465  0.67313991  0.21969932  1
  Te2-  Te152  1  0.09107847  0.41855344  0.21431225  1
  Te2-  Te153  1  0.08703781  0.91577621  0.22004817  1
  Te2-  Te154  1  0.59010588  0.41825302  0.21893777  1
  Te2-  Te155  1  0.58407224  0.91855286  0.20935809  1
  Te2-  Te156  1  0.15903957  0.08295295  0.55170654  1
  Te2-  Te157  1  0.15916287  0.57219084  0.54673070  1
  Te2-  Te158  1  0.66219058  0.07924910  0.54909887  1
  Te2-  Te159  1  0.66456112  0.57819165  0.54966735  1
  Te2-  Te160  1  0.42300380  0.33879657  0.55533447  1
  Te2-  Te161  1  0.41706104  0.83307498  0.54287055  1
  Te2-  Te162  1  0.92011956  0.33727227  0.54990635  1
  Te2-  Te163  1  0.91972786  0.83991042  0.54810708  1
  Te2-  Te164  1  0.41576601  0.07848920  0.55323743  1
  Te2-  Te165  1  0.42447245  0.57710553  0.54873761  1
  Te2-  Te166  1  0.92035946  0.07970700  0.55139327  1
  Te2-  Te167  1  0.92232968  0.57798186  0.55226121  1
  Te2-  Te168  1  -0.00036980  -0.00192459  0.88201943  1
  Te2-  Te169  1  -0.00026370  0.49935574  0.88496886  1
  Te2-  Te170  1  0.49972704  -0.00332677  0.88177062  1
  Te2-  Te171  1  0.50025817  0.50033148  0.88370235  1
  Te2-  Te172  1  0.33510607  0.16636425  0.21663382  1
  Te2-  Te173  1  0.33365937  0.66839860  0.21653142  1
  Te2-  Te174  1  0.83350023  0.16614125  0.21479867  1
  Te2-  Te175  1  0.83406106  0.66666650  0.21736047  1
  Te2-  Te176  1  0.16739142  0.33468374  0.54930356  1
  Te2-  Te177  1  0.16878891  0.83122765  0.55100058  1
  Te2-  Te178  1  0.66882605  0.33309458  0.55186059  1
  Te2-  Te179  1  0.66717751  0.83316172  0.54697359  1
  Te2-  Te180  1  0.32751047  0.41369200  0.71159862  1
  Te2-  Te181  1  0.32751745  0.90893097  0.70874620  1
  Te2-  Te182  1  0.82875087  0.41324424  0.71159857  1
  Te2-  Te183  1  0.82750501  0.91217609  0.70817897  1
  Te2-  Te184  1  0.08748570  0.17507380  0.71053836  1
  Te2-  Te185  1  0.09112254  0.67212407  0.71041594  1
  Te2-  Te186  1  0.58788812  0.17210806  0.71029950  1
  Te2-  Te187  1  0.58699100  0.66913253  0.71069631  1
  Te2-  Te188  1  0.08603726  0.41377696  0.71317711  1
  Te2-  Te189  1  0.08745811  0.91405329  0.71068367  1
  Te2-  Te190  1  0.59090685  0.41335349  0.71072543  1
  Te2-  Te191  1  0.58457686  0.91166532  0.70903744  1
  Te2-  Te192  1  0.15982567  0.07784092  0.04643393  1
  Te2-  Te193  1  0.15911813  0.57771325  0.04234397  1
  Te2-  Te194  1  0.66155547  0.07879435  0.03971353  1
  Te2-  Te195  1  0.65966681  0.58255421  0.04631779  1
  Te2-  Te196  1  0.41624051  0.34024192  0.04610523  1
  Te2-  Te197  1  0.41832431  0.83645093  0.04060271  1
  Te2-  Te198  1  0.91867482  0.34042886  0.04063659  1
  Te2-  Te199  1  0.91788972  0.83677084  0.04586885  1
  Te2-  Te200  1  0.41770390  0.07590818  0.04128546  1
  Te2-  Te201  1  0.41821849  0.58052894  0.04722374  1
  Te2-  Te202  1  0.91868684  0.07685488  0.04320832  1
  Te2-  Te203  1  0.91666579  0.57793103  0.04423826  1
  Te2-  Te204  1  0.49488023  0.24740052  0.38164615  1
  Te2-  Te205  1  0.49571446  0.75232824  0.37208228  1
  Te2-  Te206  1  0.99557485  0.24858594  0.37890935  1
  Te2-  Te207  1  0.99305639  0.74718773  0.37612900  1
  Te2-  Te208  1  0.25438169  0.00662358  0.37965538  1
  Te2-  Te209  1  0.25301240  0.50832253  0.37388927  1
  Te2-  Te210  1  0.75262077  0.00668569  0.37673292  1
  Te2-  Te211  1  0.75521080  0.50560469  0.37867036  1
  Te2-  Te212  1  0.25446167  0.24604037  0.37895325  1
  Te2-  Te213  1  0.25512999  0.75102738  0.37417687  1
  Te2-  Te214  1  0.75308413  0.24740791  0.37928058  1
  Te2-  Te215  1  0.75672873  0.74999585  0.37439036  1
