# generated using pymatgen
data_Ti(CuTe)4
_symmetry_space_group_name_H-M   'P 1'
_cell_length_a   16.90330514
_cell_length_b   16.90077272
_cell_length_c   20.72362874
_cell_angle_alpha   89.98195791
_cell_angle_beta   89.98317578
_cell_angle_gamma   120.00110743
_symmetry_Int_Tables_number   1
_chemical_formula_structural   Ti(CuTe)4
_chemical_formula_sum   'Ti24 Cu96 Te96'
_cell_volume   5127.07535881
_cell_formula_units_Z   24
loop_
 _symmetry_equiv_pos_site_id
 _symmetry_equiv_pos_as_xyz
  1  'x, y, z'
loop_
 _atom_type_symbol
 _atom_type_oxidation_number
  Ti4+  4.0
  Cu+  1.0
  Te2-  -2.0
loop_
 _atom_site_type_symbol
 _atom_site_label
 _atom_site_symmetry_multiplicity
 _atom_site_fract_x
 _atom_site_fract_y
 _atom_site_fract_z
 _atom_site_occupancy
  Ti4+  Ti0  1  -0.00371931  -0.00297395  0.25467621  1
  Ti4+  Ti1  1  0.00104362  0.50133512  0.26048006  1
  Ti4+  Ti2  1  0.50068514  -0.00030552  0.25437469  1
  Ti4+  Ti3  1  0.50117794  0.49755583  0.25949701  1
  Ti4+  Ti4  1  0.33352744  0.16850625  0.58904974  1
  Ti4+  Ti5  1  0.33450585  0.66878539  0.58959015  1
  Ti4+  Ti6  1  0.83015910  0.16484948  0.58786981  1
  Ti4+  Ti7  1  0.83557518  0.66429144  0.59475226  1
  Ti4+  Ti8  1  0.16559462  0.33438573  0.92231209  1
  Ti4+  Ti9  1  0.16655757  0.83408106  0.92930834  1
  Ti4+  Ti10  1  0.66835566  0.33696878  0.92523745  1
  Ti4+  Ti11  1  0.66548099  0.83198949  0.92343744  1
  Ti4+  Ti12  1  -0.00044446  0.00030604  0.75467170  1
  Ti4+  Ti13  1  0.00019693  0.49973525  0.75660781  1
  Ti4+  Ti14  1  0.49945972  0.00089821  0.75697512  1
  Ti4+  Ti15  1  0.50022258  0.50051420  0.75429945  1
  Ti4+  Ti16  1  0.33584290  0.16969855  0.08689205  1
  Ti4+  Ti17  1  0.33237456  0.66591908  0.08885829  1
  Ti4+  Ti18  1  0.83140222  0.16400125  0.08732192  1
  Ti4+  Ti19  1  0.83364162  0.66736739  0.09001623  1
  Ti4+  Ti20  1  0.16753905  0.33185417  0.41869287  1
  Ti4+  Ti21  1  0.16616114  0.83212560  0.42291379  1
  Ti4+  Ti22  1  0.66727864  0.33196134  0.42085627  1
  Ti4+  Ti23  1  0.66496808  0.83311469  0.42248151  1
  Cu+  Cu24  1  0.68117131  0.59356998  0.81312341  1
  Cu+  Cu25  1  0.58152687  0.42413351  0.48078967  1
  Cu+  Cu26  1  0.24669297  0.99360929  0.14689363  1
  Cu+  Cu27  1  0.91434327  0.59463217  0.81649288  1
  Cu+  Cu28  1  0.84737159  0.42127024  0.47981360  1
  Cu+  Cu29  1  0.01030761  0.75364663  0.15010780  1
  Cu+  Cu30  1  0.07726170  0.64897660  0.47920598  1
  Cu+  Cu31  1  0.73730917  0.97332248  0.13762824  1
  Cu+  Cu32  1  0.24258051  0.75501580  0.14749604  1
  Cu+  Cu33  1  0.56930428  0.92993566  0.47135368  1
  Cu+  Cu34  1  0.52457137  0.26438231  0.13995885  1
  Cu+  Cu35  1  0.35012860  0.42746828  0.47517105  1
  Cu+  Cu36  1  0.16127040  0.08072808  0.16740838  1
  Cu+  Cu37  1  0.16235261  0.58357407  0.17205035  1
  Cu+  Cu38  1  0.66346596  0.07532518  0.16698884  1
  Cu+  Cu39  1  0.66278309  0.57908768  0.17281315  1
  Cu+  Cu40  1  0.42512547  0.33825436  0.17069646  1
  Cu+  Cu41  1  0.41767562  0.83675570  0.16844808  1
  Cu+  Cu42  1  0.91513425  0.33399643  0.17308098  1
  Cu+  Cu43  1  0.91967450  0.83816959  0.16892798  1
  Cu+  Cu44  1  0.42255780  0.08605137  0.16668815  1
  Cu+  Cu45  1  0.41678190  0.57919889  0.17264868  1
  Cu+  Cu46  1  0.91038390  0.07447805  0.16827569  1
  Cu+  Cu47  1  0.92023823  0.58169114  0.17365947  1
  Cu+  Cu48  1  0.49416723  0.24850736  0.50141933  1
  Cu+  Cu49  1  0.49747486  0.75577035  0.50245177  1
  Cu+  Cu50  1  0.99665801  0.24646827  0.50025727  1
  Cu+  Cu51  1  0.99891755  0.74404644  0.50664111  1
  Cu+  Cu52  1  0.25191741  0.00365429  0.50421189  1
  Cu+  Cu53  1  0.25396551  0.50346586  0.50184533  1
  Cu+  Cu54  1  0.74366647  0.00147614  0.50247942  1
  Cu+  Cu55  1  0.75628661  0.50521061  0.50550124  1
  Cu+  Cu56  1  0.25494584  0.25093912  0.50017533  1
  Cu+  Cu57  1  0.25084336  0.74659967  0.50402025  1
  Cu+  Cu58  1  0.75418477  0.24660495  0.50116637  1
  Cu+  Cu59  1  0.75083278  0.74881880  0.50763321  1
  Cu+  Cu60  1  0.32812147  0.41720078  0.83593343  1
  Cu+  Cu61  1  0.33132471  0.91581288  0.84220377  1
  Cu+  Cu62  1  0.83088274  0.41925618  0.83785127  1
  Cu+  Cu63  1  0.83033634  0.91607335  0.83620224  1
  Cu+  Cu64  1  0.08366513  0.17093042  0.83609763  1
  Cu+  Cu65  1  0.08548502  0.67195751  0.84214645  1
  Cu+  Cu66  1  0.58324172  0.17024927  0.83984177  1
  Cu+  Cu67  1  0.58679358  0.67189092  0.83664377  1
  Cu+  Cu68  1  0.08574288  0.41492600  0.83705068  1
  Cu+  Cu69  1  0.08416487  0.91659229  0.84038302  1
  Cu+  Cu70  1  0.58781461  0.41940994  0.83749776  1
  Cu+  Cu71  1  0.58354055  0.91553513  0.83899592  1
  Cu+  Cu72  1  0.16835062  0.08506962  0.67264175  1
  Cu+  Cu73  1  0.17009782  0.58467617  0.67556786  1
  Cu+  Cu74  1  0.66693373  0.08453044  0.67392279  1
  Cu+  Cu75  1  0.67022303  0.58239068  0.68252812  1
  Cu+  Cu76  1  0.41434859  0.33238873  0.67429152  1
  Cu+  Cu77  1  0.41504905  0.83293666  0.67554007  1
  Cu+  Cu78  1  0.91554832  0.32958758  0.67396594  1
  Cu+  Cu79  1  0.91730964  0.83065490  0.67761251  1
  Cu+  Cu80  1  0.41385204  0.08536857  0.67469252  1
  Cu+  Cu81  1  0.41596451  0.58543501  0.67280933  1
  Cu+  Cu82  1  0.91340069  0.08290070  0.67080196  1
  Cu+  Cu83  1  0.91694214  0.58330616  0.68427598  1
  Cu+  Cu84  1  0.00214376  0.25197294  0.00587111  1
  Cu+  Cu85  1  0.00263030  0.75157658  0.01771223  1
  Cu+  Cu86  1  0.50564357  0.25748601  0.01153818  1
  Cu+  Cu87  1  0.50012722  0.74760682  0.00642458  1
  Cu+  Cu88  1  0.24755819  0.49675128  0.00713448  1
  Cu+  Cu89  1  0.24933468  0.99918288  0.01461691  1
  Cu+  Cu90  1  0.74985637  0.50067916  0.01127301  1
  Cu+  Cu91  1  0.74679500  0.99442304  0.00965726  1
  Cu+  Cu92  1  0.25001564  0.25558896  0.00442341  1
  Cu+  Cu93  1  0.24731349  0.75063795  0.01598360  1
  Cu+  Cu94  1  0.74929373  0.25226874  0.00764456  1
  Cu+  Cu95  1  0.74720989  0.74889472  0.00863288  1
  Cu+  Cu96  1  0.33726460  0.41453097  0.34511064  1
  Cu+  Cu97  1  0.33371264  0.91730827  0.34122644  1
  Cu+  Cu98  1  0.83744591  0.41847456  0.34847762  1
  Cu+  Cu99  1  0.83355192  0.91473786  0.34043743  1
  Cu+  Cu100  1  0.07995443  0.16103467  0.33660822  1
  Cu+  Cu101  1  0.08147830  0.66394989  0.35006663  1
  Cu+  Cu102  1  0.58417529  0.16450733  0.33824596  1
  Cu+  Cu103  1  0.58250909  0.66246998  0.34325893  1
  Cu+  Cu104  1  0.08305127  0.41719454  0.34087320  1
  Cu+  Cu105  1  0.08045304  0.91610521  0.34267890  1
  Cu+  Cu106  1  0.58173391  0.41491396  0.34850851  1
  Cu+  Cu107  1  0.58104266  0.91678335  0.34317283  1
  Cu+  Cu108  1  0.00162041  0.00498905  0.10966596  1
  Cu+  Cu109  1  -0.00181276  0.49392947  0.11700831  1
  Cu+  Cu110  1  0.50044357  -0.00003701  0.10953118  1
  Cu+  Cu111  1  0.50003626  0.50359326  0.11565171  1
  Cu+  Cu112  1  0.33043941  0.16236102  0.44487726  1
  Cu+  Cu113  1  0.33329142  0.66525980  0.44617796  1
  Cu+  Cu114  1  0.83614469  0.16301338  0.44384069  1
  Cu+  Cu115  1  0.83545971  0.67401289  0.45267181  1
  Cu+  Cu116  1  0.16600277  0.33234325  0.77808126  1
  Cu+  Cu117  1  0.16923627  0.83785846  0.78671203  1
  Cu+  Cu118  1  0.66571490  0.33017800  0.78227722  1
  Cu+  Cu119  1  0.66626234  0.83657872  0.77990441  1
  Te2-  Te120  1  -0.00218727  -0.00132337  0.38351544  1
  Te2-  Te121  1  0.00271407  0.49766256  0.39259809  1
  Te2-  Te122  1  0.49828367  0.00139240  0.38423113  1
  Te2-  Te123  1  0.50191959  0.50060372  0.39200737  1
  Te2-  Te124  1  0.33194091  0.16812235  0.71754489  1
  Te2-  Te125  1  0.33488709  0.66805356  0.71810826  1
  Te2-  Te126  1  0.83181320  0.16471216  0.71651342  1
  Te2-  Te127  1  0.83607635  0.66865372  0.72648778  1
  Te2-  Te128  1  0.16531596  0.33301344  0.05184629  1
  Te2-  Te129  1  0.16756417  0.83519362  0.06338048  1
  Te2-  Te130  1  0.67145158  0.33666483  0.05558487  1
  Te2-  Te131  1  0.66276836  0.82824285  0.05403477  1
  Te2-  Te132  1  0.49762459  0.25336895  0.88473172  1
  Te2-  Te133  1  0.49458809  0.74589534  0.88075279  1
  Te2-  Te134  1  0.99313110  0.24782622  0.88061832  1
  Te2-  Te135  1  0.99390806  0.74999998  0.88945909  1
  Te2-  Te136  1  0.25131132  0.00380579  0.88716945  1
  Te2-  Te137  1  0.25228563  0.50759973  0.88190221  1
  Te2-  Te138  1  0.75131236  0.00338506  0.88325775  1
  Te2-  Te139  1  0.75668773  0.51374090  0.88562925  1
  Te2-  Te140  1  0.25240123  0.24945482  0.87913535  1
  Te2-  Te141  1  0.25073124  0.74800467  0.88843986  1
  Te2-  Te142  1  0.75295756  0.25171953  0.88178220  1
  Te2-  Te143  1  0.75657139  0.74932793  0.88320711  1
  Te2-  Te144  1  0.33096972  0.41097061  0.21789516  1
  Te2-  Te145  1  0.32563945  0.91474776  0.21552904  1
  Te2-  Te146  1  0.82995879  0.41619727  0.22076261  1
  Te2-  Te147  1  0.82229289  0.90569440  0.21493561  1
  Te2-  Te148  1  0.08030206  0.16654188  0.21069193  1
  Te2-  Te149  1  0.08915295  0.67789381  0.22259680  1
  Te2-  Te150  1  0.59061989  0.17165935  0.21248452  1
  Te2-  Te151  1  0.58479002  0.66846613  0.21743237  1
  Te2-  Te152  1  0.08511463  0.41622718  0.21502164  1
  Te2-  Te153  1  0.08846168  0.91186042  0.21718606  1
  Te2-  Te154  1  0.59146076  0.41341696  0.22091050  1
  Te2-  Te155  1  0.58287485  0.90845270  0.21605809  1
  Te2-  Te156  1  0.16321800  0.08386263  0.54667108  1
  Te2-  Te157  1  0.16085497  0.57622152  0.54961665  1
  Te2-  Te158  1  0.65538066  0.08224847  0.54800278  1
  Te2-  Te159  1  0.66321506  0.58053874  0.55428646  1
  Te2-  Te160  1  0.42323793  0.34651409  0.54886209  1
  Te2-  Te161  1  0.41679299  0.84293113  0.54943095  1
  Te2-  Te162  1  0.92316443  0.33926500  0.54840643  1
  Te2-  Te163  1  0.91987938  0.83300330  0.55125330  1
  Te2-  Te164  1  0.41966833  0.08304059  0.54860357  1
  Te2-  Te165  1  0.42446492  0.58663657  0.54702985  1
  Te2-  Te166  1  0.91359310  0.07828902  0.54471709  1
  Te2-  Te167  1  0.92311110  0.57585499  0.55569866  1
  Te2-  Te168  1  -0.00076480  0.00201855  0.88086362  1
  Te2-  Te169  1  0.00078369  0.49918333  0.88339024  1
  Te2-  Te170  1  0.50081324  0.00149450  0.88334361  1
  Te2-  Te171  1  0.49805736  0.50090016  0.88096872  1
  Te2-  Te172  1  0.33222689  0.16624623  0.21443896  1
  Te2-  Te173  1  0.33398824  0.66654333  0.21581541  1
  Te2-  Te174  1  0.83140959  0.16424575  0.21414349  1
  Te2-  Te175  1  0.83327260  0.66745307  0.21690529  1
  Te2-  Te176  1  0.16614476  0.33222768  0.54558160  1
  Te2-  Te177  1  0.16920829  0.83502508  0.54965090  1
  Te2-  Te178  1  0.66628598  0.33066171  0.54817919  1
  Te2-  Te179  1  0.66589500  0.83326333  0.54933228  1
  Te2-  Te180  1  0.32823290  0.41614282  0.70958930  1
  Te2-  Te181  1  0.32804154  0.91554341  0.71464572  1
  Te2-  Te182  1  0.82716137  0.41021879  0.71133542  1
  Te2-  Te183  1  0.82803199  0.91344967  0.70983159  1
  Te2-  Te184  1  0.08342542  0.17061550  0.70904252  1
  Te2-  Te185  1  0.08993210  0.67381825  0.71452348  1
  Te2-  Te186  1  0.58398761  0.17133667  0.71241479  1
  Te2-  Te187  1  0.58623309  0.67325842  0.70939610  1
  Te2-  Te188  1  0.08555490  0.41408498  0.71065403  1
  Te2-  Te189  1  0.08764449  0.91546125  0.71335037  1
  Te2-  Te190  1  0.58377569  0.40984425  0.71097599  1
  Te2-  Te191  1  0.58480150  0.91535337  0.71208545  1
  Te2-  Te192  1  0.16282012  0.08567938  0.04092599  1
  Te2-  Te193  1  0.15920007  0.57794134  0.04526940  1
  Te2-  Te194  1  0.66036357  0.08108532  0.04039389  1
  Te2-  Te195  1  0.66065027  0.58049637  0.04673656  1
  Te2-  Te196  1  0.41893648  0.34284973  0.04402800  1
  Te2-  Te197  1  0.42096362  0.83817634  0.04204415  1
  Te2-  Te198  1  0.91810956  0.33675249  0.04591124  1
  Te2-  Te199  1  0.91743240  0.84023619  0.04295251  1
  Te2-  Te200  1  0.42283275  0.08320481  0.03993362  1
  Te2-  Te201  1  0.41694320  0.57896179  0.04562713  1
  Te2-  Te202  1  0.91946512  0.08128875  0.04093601  1
  Te2-  Te203  1  0.91959750  0.57871398  0.04687984  1
  Te2-  Te204  1  0.49346328  0.24225693  0.37533891  1
  Te2-  Te205  1  0.49348683  0.74464447  0.37577958  1
  Te2-  Te206  1  0.99577913  0.24630155  0.37395525  1
  Te2-  Te207  1  0.99230701  0.74722669  0.37952135  1
  Te2-  Te208  1  0.25063680  0.00342058  0.37720888  1
  Te2-  Te209  1  0.25365431  0.50516534  0.37455322  1
  Te2-  Te210  1  0.75282689  0.00394430  0.37525533  1
  Te2-  Te211  1  0.75459791  0.50815235  0.37876716  1
  Te2-  Te212  1  0.24957012  0.24147433  0.37354317  1
  Te2-  Te213  1  0.25511102  0.74822771  0.37704897  1
  Te2-  Te214  1  0.75287136  0.24441947  0.37486384  1
  Te2-  Te215  1  0.75153279  0.74659434  0.38055555  1
