# generated using pymatgen
data_Ti(CuTe)4
_symmetry_space_group_name_H-M   'P 1'
_cell_length_a   16.87604097
_cell_length_b   16.87508449
_cell_length_c   20.68771644
_cell_angle_alpha   89.95981093
_cell_angle_beta   90.03932181
_cell_angle_gamma   120.01800698
_symmetry_Int_Tables_number   1
_chemical_formula_structural   Ti(CuTe)4
_chemical_formula_sum   'Ti24 Cu96 Te96'
_cell_volume   5101.29857154
_cell_formula_units_Z   24
loop_
 _symmetry_equiv_pos_site_id
 _symmetry_equiv_pos_as_xyz
  1  'x, y, z'
loop_
 _atom_type_symbol
 _atom_type_oxidation_number
  Ti4+  4.0
  Cu+  1.0
  Te2-  -2.0
loop_
 _atom_site_type_symbol
 _atom_site_label
 _atom_site_symmetry_multiplicity
 _atom_site_fract_x
 _atom_site_fract_y
 _atom_site_fract_z
 _atom_site_occupancy
  Ti4+  Ti0  1  -0.00288562  -0.00123802  0.25749474  1
  Ti4+  Ti1  1  -0.00009021  0.49985870  0.25877689  1
  Ti4+  Ti2  1  0.49802142  0.00287564  0.25369119  1
  Ti4+  Ti3  1  0.50097766  0.50174203  0.25983656  1
  Ti4+  Ti4  1  0.33574960  0.16913196  0.59236801  1
  Ti4+  Ti5  1  0.33115542  0.66625219  0.59127275  1
  Ti4+  Ti6  1  0.83382352  0.16292953  0.58888357  1
  Ti4+  Ti7  1  0.83460068  0.66590618  0.59445178  1
  Ti4+  Ti8  1  0.16851665  0.33346190  0.92203451  1
  Ti4+  Ti9  1  0.16616706  0.83279472  0.92722501  1
  Ti4+  Ti10  1  0.66787325  0.33632242  0.92510826  1
  Ti4+  Ti11  1  0.66512950  0.83081773  0.92380221  1
  Ti4+  Ti12  1  0.00122420  -0.00152081  0.75584251  1
  Ti4+  Ti13  1  0.00006028  0.49977806  0.75588405  1
  Ti4+  Ti14  1  0.50104590  0.00011128  0.75650309  1
  Ti4+  Ti15  1  0.49892092  0.49920894  0.75324483  1
  Ti4+  Ti16  1  0.33533832  0.16596210  0.08738373  1
  Ti4+  Ti17  1  0.33259627  0.66642832  0.08852783  1
  Ti4+  Ti18  1  0.83356350  0.16704619  0.08683462  1
  Ti4+  Ti19  1  0.83204356  0.66707220  0.09094984  1
  Ti4+  Ti20  1  0.16723092  0.33323516  0.42085489  1
  Ti4+  Ti21  1  0.16564805  0.83007238  0.42401572  1
  Ti4+  Ti22  1  0.66429073  0.33414238  0.42422650  1
  Ti4+  Ti23  1  0.66899040  0.83599210  0.42272328  1
  Cu+  Cu24  1  0.23662749  0.98447422  0.14259738  1
  Cu+  Cu25  1  0.51776687  0.26494906  0.14199396  1
  Cu+  Cu26  1  0.23538421  0.75509103  0.14204865  1
  Cu+  Cu27  1  0.91312985  0.59616105  0.81146426  1
  Cu+  Cu28  1  0.40639337  0.59342007  0.80615820  1
  Cu+  Cu29  1  0.67645788  0.59045165  0.81249625  1
  Cu+  Cu30  1  0.57218409  0.43275161  0.47814202  1
  Cu+  Cu31  1  0.74597046  0.26501157  0.14122002  1
  Cu+  Cu32  1  0.40808054  0.31420748  0.80861349  1
  Cu+  Cu33  1  0.73469182  0.76179660  0.14154244  1
  Cu+  Cu34  1  0.85979373  0.92664291  0.47462061  1
  Cu+  Cu35  1  0.06770172  0.63709491  0.47592119  1
  Cu+  Cu36  1  0.16229461  0.07989405  0.17075514  1
  Cu+  Cu37  1  0.16386390  0.58404538  0.17186112  1
  Cu+  Cu38  1  0.66413200  0.08706613  0.16589222  1
  Cu+  Cu39  1  0.66433598  0.58628390  0.17291584  1
  Cu+  Cu40  1  0.42172778  0.33798802  0.17216687  1
  Cu+  Cu41  1  0.41242519  0.83591657  0.16729459  1
  Cu+  Cu42  1  0.91707522  0.33617864  0.17115978  1
  Cu+  Cu43  1  0.91077641  0.83538717  0.17097107  1
  Cu+  Cu44  1  0.41926242  0.08255577  0.16454707  1
  Cu+  Cu45  1  0.41778674  0.58087815  0.17202058  1
  Cu+  Cu46  1  0.91671934  0.07964235  0.16985400  1
  Cu+  Cu47  1  0.91979118  0.58256134  0.17220922  1
  Cu+  Cu48  1  0.49733846  0.25484494  0.50602026  1
  Cu+  Cu49  1  0.49691514  0.75133852  0.50597241  1
  Cu+  Cu50  1  0.99629484  0.24606980  0.50184257  1
  Cu+  Cu51  1  0.99909239  0.74172295  0.50635141  1
  Cu+  Cu52  1  0.25370887  0.00231265  0.50697703  1
  Cu+  Cu53  1  0.25250203  0.50335546  0.50416134  1
  Cu+  Cu54  1  0.75758893  0.00345081  0.50192459  1
  Cu+  Cu55  1  0.74705312  0.50139283  0.50794439  1
  Cu+  Cu56  1  0.25266837  0.24901588  0.50426843  1
  Cu+  Cu57  1  0.24534905  0.74224875  0.50445320  1
  Cu+  Cu58  1  0.74948433  0.24457469  0.50492262  1
  Cu+  Cu59  1  0.75576945  0.75344914  0.50670346  1
  Cu+  Cu60  1  0.32839090  0.41384847  0.83315089  1
  Cu+  Cu61  1  0.33207276  0.91526758  0.84130382  1
  Cu+  Cu62  1  0.83317900  0.41936880  0.83734905  1
  Cu+  Cu63  1  0.83251564  0.91179028  0.83742677  1
  Cu+  Cu64  1  0.08511957  0.16826989  0.83640928  1
  Cu+  Cu65  1  0.08437159  0.67023195  0.84001447  1
  Cu+  Cu66  1  0.58563947  0.16959715  0.83887809  1
  Cu+  Cu67  1  0.58428842  0.67273539  0.83469374  1
  Cu+  Cu68  1  0.08639659  0.41500757  0.83601050  1
  Cu+  Cu69  1  0.08692786  0.91622467  0.83947503  1
  Cu+  Cu70  1  0.58584305  0.41306159  0.83432292  1
  Cu+  Cu71  1  0.58360361  0.91420603  0.83711897  1
  Cu+  Cu72  1  0.17118025  0.08422627  0.67550572  1
  Cu+  Cu73  1  0.16700579  0.58364433  0.67580569  1
  Cu+  Cu74  1  0.67012034  0.08268639  0.67219439  1
  Cu+  Cu75  1  0.66900825  0.58415679  0.68246633  1
  Cu+  Cu76  1  0.41563111  0.33050490  0.67976148  1
  Cu+  Cu77  1  0.41367543  0.83105828  0.67415532  1
  Cu+  Cu78  1  0.91485821  0.32661114  0.67215837  1
  Cu+  Cu79  1  0.92008577  0.83170996  0.67703654  1
  Cu+  Cu80  1  0.41854593  0.08632490  0.67494187  1
  Cu+  Cu81  1  0.41370800  0.58590513  0.67744826  1
  Cu+  Cu82  1  0.91508884  0.08059262  0.67334311  1
  Cu+  Cu83  1  0.91492551  0.58227721  0.68271895  1
  Cu+  Cu84  1  0.00439060  0.25057702  0.00563464  1
  Cu+  Cu85  1  -0.00133051  0.74906674  0.01084371  1
  Cu+  Cu86  1  0.50335673  0.25263008  0.01292323  1
  Cu+  Cu87  1  0.50081672  0.74703921  0.00764934  1
  Cu+  Cu88  1  0.25035464  0.49683620  0.00646076  1
  Cu+  Cu89  1  0.24943066  0.99639055  0.01373572  1
  Cu+  Cu90  1  0.75165223  0.50243083  0.01021435  1
  Cu+  Cu91  1  0.75121975  0.99708639  0.00515267  1
  Cu+  Cu92  1  0.25088638  0.25219651  0.00615541  1
  Cu+  Cu93  1  0.24635313  0.75006659  0.01267697  1
  Cu+  Cu94  1  0.75039072  0.25360040  0.01184684  1
  Cu+  Cu95  1  0.74559950  0.74917651  0.01336184  1
  Cu+  Cu96  1  0.33606520  0.41687384  0.34208676  1
  Cu+  Cu97  1  0.33240411  0.91721313  0.34110487  1
  Cu+  Cu98  1  0.83326203  0.41705348  0.34348639  1
  Cu+  Cu99  1  0.83538715  0.91821608  0.34651198  1
  Cu+  Cu100  1  0.08305928  0.16450952  0.33999477  1
  Cu+  Cu101  1  0.08242140  0.66195971  0.34825689  1
  Cu+  Cu102  1  0.58000511  0.16738505  0.34082208  1
  Cu+  Cu103  1  0.58364630  0.66798585  0.34414871  1
  Cu+  Cu104  1  0.08444172  0.41862969  0.34066265  1
  Cu+  Cu105  1  0.08075712  0.91474885  0.34238317  1
  Cu+  Cu106  1  0.58187369  0.42033317  0.34875231  1
  Cu+  Cu107  1  0.58044940  0.91988958  0.33663483  1
  Cu+  Cu108  1  0.00076554  0.00143529  0.11307812  1
  Cu+  Cu109  1  0.00176491  0.49771109  0.11459732  1
  Cu+  Cu110  1  0.50460414  -0.00339393  0.10796158  1
  Cu+  Cu111  1  0.49856169  0.50018583  0.11562741  1
  Cu+  Cu112  1  0.33047451  0.16199328  0.44949914  1
  Cu+  Cu113  1  0.33707365  0.66859503  0.44795069  1
  Cu+  Cu114  1  0.83256930  0.16900954  0.44421473  1
  Cu+  Cu115  1  0.83381880  0.66720657  0.45136043  1
  Cu+  Cu116  1  0.16060094  0.32884398  0.77733821  1
  Cu+  Cu117  1  0.17150686  0.83604061  0.78441052  1
  Cu+  Cu118  1  0.67026096  0.32885602  0.78108574  1
  Cu+  Cu119  1  0.67243199  0.84338296  0.78013304  1
  Te2-  Te120  1  0.00282905  0.00086037  0.38765940  1
  Te2-  Te121  1  -0.00251293  0.49457237  0.38906204  1
  Te2-  Te122  1  0.49827811  0.00154178  0.38193299  1
  Te2-  Te123  1  0.49905005  0.50408006  0.39036063  1
  Te2-  Te124  1  0.33434230  0.16479693  0.72314511  1
  Te2-  Te125  1  0.33053106  0.66815739  0.72204210  1
  Te2-  Te126  1  0.83369902  0.16320465  0.71805085  1
  Te2-  Te127  1  0.83495881  0.66864235  0.72585411  1
  Te2-  Te128  1  0.16802505  0.33292882  0.05117120  1
  Te2-  Te129  1  0.16201046  0.83093507  0.05892378  1
  Te2-  Te130  1  0.66939152  0.33833593  0.05683565  1
  Te2-  Te131  1  0.66408111  0.83474353  0.05426837  1
  Te2-  Te132  1  0.49502361  0.24640640  0.88494667  1
  Te2-  Te133  1  0.49147287  0.74686001  0.88203969  1
  Te2-  Te134  1  0.99697864  0.24776248  0.87987804  1
  Te2-  Te135  1  0.99235100  0.74926783  0.88515405  1
  Te2-  Te136  1  0.25286615  0.00368226  0.88621818  1
  Te2-  Te137  1  0.25338765  0.50773755  0.88076330  1
  Te2-  Te138  1  0.75250134  0.00071557  0.87926339  1
  Te2-  Te139  1  0.75527504  0.51139773  0.88400285  1
  Te2-  Te140  1  0.25316869  0.24427560  0.88051028  1
  Te2-  Te141  1  0.25096789  0.74709053  0.88540622  1
  Te2-  Te142  1  0.75382871  0.25200457  0.88396760  1
  Te2-  Te143  1  0.75345262  0.74551882  0.88530520  1
  Te2-  Te144  1  0.33031849  0.41361226  0.21627230  1
  Te2-  Te145  1  0.32160216  0.91373931  0.21469341  1
  Te2-  Te146  1  0.82647168  0.41628065  0.21750869  1
  Te2-  Te147  1  0.82259740  0.91478337  0.21869934  1
  Te2-  Te148  1  0.08444318  0.16941754  0.21410392  1
  Te2-  Te149  1  0.08475526  0.67400922  0.22040422  1
  Te2-  Te150  1  0.58752029  0.17927067  0.21424038  1
  Te2-  Te151  1  0.58405305  0.67544461  0.21816901  1
  Te2-  Te152  1  0.08551986  0.41550582  0.21469179  1
  Te2-  Te153  1  0.07976141  0.90856442  0.21616521  1
  Te2-  Te154  1  0.59119819  0.41875027  0.22024118  1
  Te2-  Te155  1  0.58215806  0.91758269  0.21010738  1
  Te2-  Te156  1  0.16497373  0.08189606  0.54965994  1
  Te2-  Te157  1  0.15653804  0.57380082  0.55020024  1
  Te2-  Te158  1  0.66228545  0.07633556  0.54650884  1
  Te2-  Te159  1  0.66176957  0.58577146  0.55405525  1
  Te2-  Te160  1  0.41827206  0.34401873  0.55225850  1
  Te2-  Te161  1  0.41413096  0.83690459  0.54841892  1
  Te2-  Te162  1  0.91807391  0.33470405  0.54655455  1
  Te2-  Te163  1  0.92632382  0.83775601  0.55087319  1
  Te2-  Te164  1  0.42236432  0.08542115  0.54901820  1
  Te2-  Te165  1  0.41928320  0.58326792  0.55002003  1
  Te2-  Te166  1  0.92578560  0.07994254  0.54781267  1
  Te2-  Te167  1  0.91512350  0.57364781  0.55454430  1
  Te2-  Te168  1  0.00091383  0.00004146  0.88216979  1
  Te2-  Te169  1  0.00209357  0.49923752  0.88297574  1
  Te2-  Te170  1  0.50213735  0.00050085  0.88287274  1
  Te2-  Te171  1  0.49982241  0.49925403  0.88141569  1
  Te2-  Te172  1  0.33333337  0.16597794  0.21534683  1
  Te2-  Te173  1  0.33411210  0.66744774  0.21558874  1
  Te2-  Te174  1  0.83220406  0.16560867  0.21399289  1
  Te2-  Te175  1  0.83401236  0.66659290  0.21773466  1
  Te2-  Te176  1  0.16594962  0.33252410  0.54693227  1
  Te2-  Te177  1  0.16866339  0.83348224  0.55101289  1
  Te2-  Te178  1  0.66675154  0.33046629  0.55091369  1
  Te2-  Te179  1  0.66672961  0.83512166  0.54959491  1
  Te2-  Te180  1  0.32470664  0.41304286  0.70668270  1
  Te2-  Te181  1  0.32917750  0.91584956  0.71305846  1
  Te2-  Te182  1  0.82741435  0.40870079  0.71034419  1
  Te2-  Te183  1  0.82908691  0.91130572  0.71044098  1
  Te2-  Te184  1  0.08552797  0.16934839  0.70985926  1
  Te2-  Te185  1  0.08817024  0.67414874  0.71240654  1
  Te2-  Te186  1  0.58866082  0.17115623  0.71130071  1
  Te2-  Te187  1  0.58616822  0.67491733  0.70821542  1
  Te2-  Te188  1  0.08443654  0.41296103  0.70989924  1
  Te2-  Te189  1  0.09001006  0.91411739  0.71288353  1
  Te2-  Te190  1  0.58805357  0.41142681  0.70837980  1
  Te2-  Te191  1  0.58440149  0.91295224  0.71009408  1
  Te2-  Te192  1  0.16191811  0.08215033  0.04306344  1
  Te2-  Te193  1  0.16020039  0.57724500  0.04365560  1
  Te2-  Te194  1  0.66230618  0.07953066  0.03851099  1
  Te2-  Te195  1  0.65842791  0.57804639  0.04596931  1
  Te2-  Te196  1  0.41947457  0.34036242  0.04428026  1
  Te2-  Te197  1  0.42006338  0.83783414  0.04033869  1
  Te2-  Te198  1  0.92321184  0.33991996  0.04278066  1
  Te2-  Te199  1  0.91853911  0.83947217  0.04435578  1
  Te2-  Te200  1  0.42302997  0.07917609  0.03906005  1
  Te2-  Te201  1  0.41856761  0.57905257  0.04560200  1
  Te2-  Te202  1  0.91999960  0.08085723  0.04328834  1
  Te2-  Te203  1  0.92008852  0.58056986  0.04699155  1
  Te2-  Te204  1  0.49147701  0.24733855  0.37866080  1
  Te2-  Te205  1  0.49686182  0.75174321  0.37843131  1
  Te2-  Te206  1  0.99533604  0.24735136  0.37543369  1
  Te2-  Te207  1  0.99248291  0.74512746  0.37930588  1
  Te2-  Te208  1  0.24992660  0.00268166  0.37969271  1
  Te2-  Te209  1  0.25434886  0.50618531  0.37750998  1
  Te2-  Te210  1  0.75031356  0.00707241  0.37482259  1
  Te2-  Te211  1  0.75452708  0.50773168  0.38062333  1
  Te2-  Te212  1  0.25306707  0.24629850  0.37756899  1
  Te2-  Te213  1  0.25531888  0.74760824  0.37737372  1
  Te2-  Te214  1  0.74903620  0.24726327  0.37809172  1
  Te2-  Te215  1  0.75338697  0.74620837  0.37944490  1
