# generated using pymatgen
data_Ti(CuTe)4
_symmetry_space_group_name_H-M   'P 1'
_cell_length_a   16.89678928
_cell_length_b   16.89370961
_cell_length_c   20.71274814
_cell_angle_alpha   89.98167753
_cell_angle_beta   89.98731686
_cell_angle_gamma   120.00222439
_symmetry_Int_Tables_number   1
_chemical_formula_structural   Ti(CuTe)4
_chemical_formula_sum   'Ti24 Cu96 Te96'
_cell_volume   5120.20995517
_cell_formula_units_Z   24
loop_
 _symmetry_equiv_pos_site_id
 _symmetry_equiv_pos_as_xyz
  1  'x, y, z'
loop_
 _atom_type_symbol
 _atom_type_oxidation_number
  Ti4+  4.0
  Cu+  1.0
  Te2-  -2.0
loop_
 _atom_site_type_symbol
 _atom_site_label
 _atom_site_symmetry_multiplicity
 _atom_site_fract_x
 _atom_site_fract_y
 _atom_site_fract_z
 _atom_site_occupancy
  Ti4+  Ti0  1  -0.00060805  0.00027019  0.25859311  1
  Ti4+  Ti1  1  -0.00071514  0.49985356  0.25866804  1
  Ti4+  Ti2  1  0.49579434  -0.00214582  0.25852807  1
  Ti4+  Ti3  1  0.49810728  0.49999872  0.25878239  1
  Ti4+  Ti4  1  0.33553166  0.16806077  0.59314816  1
  Ti4+  Ti5  1  0.33050292  0.66192374  0.59565196  1
  Ti4+  Ti6  1  0.83330922  0.16345945  0.59076075  1
  Ti4+  Ti7  1  0.83634500  0.66595855  0.58734800  1
  Ti4+  Ti8  1  0.16737046  0.33454003  0.92371124  1
  Ti4+  Ti9  1  0.17042383  0.83740852  0.92577606  1
  Ti4+  Ti10  1  0.66861819  0.33544837  0.92156174  1
  Ti4+  Ti11  1  0.66767879  0.83585800  0.92011919  1
  Ti4+  Ti12  1  0.00118435  0.00004728  0.75449281  1
  Ti4+  Ti13  1  0.00018119  0.49869190  0.75471397  1
  Ti4+  Ti14  1  0.50045066  -0.00016361  0.75110760  1
  Ti4+  Ti15  1  0.50047294  0.49958518  0.75278747  1
  Ti4+  Ti16  1  0.33345482  0.16728993  0.08901171  1
  Ti4+  Ti17  1  0.33343585  0.66779582  0.08940064  1
  Ti4+  Ti18  1  0.83278243  0.16679579  0.08923818  1
  Ti4+  Ti19  1  0.83370318  0.66823154  0.08804928  1
  Ti4+  Ti20  1  0.16756428  0.33371504  0.42404471  1
  Ti4+  Ti21  1  0.16322479  0.82969184  0.42504036  1
  Ti4+  Ti22  1  0.66400396  0.33106475  0.42064316  1
  Ti4+  Ti23  1  0.66744767  0.83453664  0.42272581  1
  Cu+  Cu24  1  0.07196661  0.63845361  0.47517275  1
  Cu+  Cu25  1  0.35781295  0.42867130  0.47594774  1
  Cu+  Cu26  1  0.23831377  0.75443012  0.14727823  1
  Cu+  Cu27  1  0.18660121  0.09805633  0.80741119  1
  Cu+  Cu28  1  0.68071095  0.09515096  0.80704418  1
  Cu+  Cu29  1  0.41322008  0.58908924  0.81389259  1
  Cu+  Cu30  1  0.41493824  0.09253227  0.81248487  1
  Cu+  Cu31  1  0.23831071  0.98548234  0.14751648  1
  Cu+  Cu32  1  0.85837112  0.92819222  0.47402964  1
  Cu+  Cu33  1  0.91295020  0.09652903  0.80732967  1
  Cu+  Cu34  1  0.17835549  0.59087838  0.81468141  1
  Cu+  Cu35  1  0.41497102  0.83088372  0.81844249  1
  Cu+  Cu36  1  0.16070090  0.07994521  0.17176901  1
  Cu+  Cu37  1  0.16091422  0.58259815  0.17237600  1
  Cu+  Cu38  1  0.66231308  0.08076959  0.17213571  1
  Cu+  Cu39  1  0.66274401  0.58242921  0.17121594  1
  Cu+  Cu40  1  0.41497889  0.33759791  0.17249797  1
  Cu+  Cu41  1  0.41363785  0.83684476  0.17125439  1
  Cu+  Cu42  1  0.91833422  0.33522045  0.17276573  1
  Cu+  Cu43  1  0.91567667  0.83651050  0.17103638  1
  Cu+  Cu44  1  0.41292654  0.07728469  0.17037585  1
  Cu+  Cu45  1  0.41599854  0.57917225  0.17275669  1
  Cu+  Cu46  1  0.91658475  0.08199267  0.17259410  1
  Cu+  Cu47  1  0.91804587  0.58367528  0.17073814  1
  Cu+  Cu48  1  0.49602444  0.24479520  0.50421209  1
  Cu+  Cu49  1  0.49671322  0.74753755  0.50775695  1
  Cu+  Cu50  1  0.99596899  0.24487642  0.50468469  1
  Cu+  Cu51  1  0.99585435  0.74005253  0.50252492  1
  Cu+  Cu52  1  0.25024979  0.00143659  0.50934490  1
  Cu+  Cu53  1  0.25429113  0.50140209  0.50709436  1
  Cu+  Cu54  1  0.75617056  0.00178442  0.50478996  1
  Cu+  Cu55  1  0.75146880  0.50057746  0.50093693  1
  Cu+  Cu56  1  0.25542827  0.25261113  0.50628577  1
  Cu+  Cu57  1  0.24399352  0.74137419  0.50934855  1
  Cu+  Cu58  1  0.74812464  0.24538853  0.50375008  1
  Cu+  Cu59  1  0.75810438  0.75452719  0.50233115  1
  Cu+  Cu60  1  0.32970693  0.41572066  0.83486613  1
  Cu+  Cu61  1  0.32489656  0.91589237  0.83416008  1
  Cu+  Cu62  1  0.83078429  0.41572109  0.83529812  1
  Cu+  Cu63  1  0.83096590  0.91940521  0.83323579  1
  Cu+  Cu64  1  0.08603205  0.17083814  0.83693219  1
  Cu+  Cu65  1  0.08613198  0.67021946  0.83783103  1
  Cu+  Cu66  1  0.58984046  0.17824716  0.83239808  1
  Cu+  Cu67  1  0.58645989  0.67121557  0.83309221  1
  Cu+  Cu68  1  0.08678761  0.41594967  0.83566828  1
  Cu+  Cu69  1  0.09075246  0.92285127  0.83678082  1
  Cu+  Cu70  1  0.58793554  0.41754905  0.83443816  1
  Cu+  Cu71  1  0.59132155  0.91660966  0.82973014  1
  Cu+  Cu72  1  0.17269555  0.08512186  0.67930953  1
  Cu+  Cu73  1  0.16727945  0.58104289  0.68236937  1
  Cu+  Cu74  1  0.66905339  0.08129780  0.67611927  1
  Cu+  Cu75  1  0.67243396  0.58517283  0.66899191  1
  Cu+  Cu76  1  0.41835361  0.33200264  0.67517161  1
  Cu+  Cu77  1  0.41169240  0.82716319  0.68268638  1
  Cu+  Cu78  1  0.91338582  0.32830360  0.67333350  1
  Cu+  Cu79  1  0.91779277  0.82844048  0.67137032  1
  Cu+  Cu80  1  0.41554378  0.08389553  0.68041284  1
  Cu+  Cu81  1  0.41434628  0.58180946  0.68235948  1
  Cu+  Cu82  1  0.91419639  0.08123577  0.67895469  1
  Cu+  Cu83  1  0.91644543  0.58288133  0.67297952  1
  Cu+  Cu84  1  0.00275591  0.25137983  0.00891996  1
  Cu+  Cu85  1  0.00318710  0.75384310  0.00868508  1
  Cu+  Cu86  1  0.50458606  0.25427268  0.00708226  1
  Cu+  Cu87  1  0.50228944  0.75089184  0.00799084  1
  Cu+  Cu88  1  0.25008348  0.49969581  0.01084300  1
  Cu+  Cu89  1  0.25193389  1.00129549  0.01582310  1
  Cu+  Cu90  1  0.75054292  0.50037263  0.00622795  1
  Cu+  Cu91  1  0.74956853  1.00044047  0.00671707  1
  Cu+  Cu92  1  0.24972170  0.25248945  0.00875707  1
  Cu+  Cu93  1  0.25113014  0.75295474  0.01648643  1
  Cu+  Cu94  1  0.74911699  0.25172205  0.00708682  1
  Cu+  Cu95  1  0.74958820  0.75219800  0.00463582  1
  Cu+  Cu96  1  0.33654842  0.41933051  0.34729538  1
  Cu+  Cu97  1  0.33212946  0.91570299  0.34556837  1
  Cu+  Cu98  1  0.83340259  0.41557930  0.34048313  1
  Cu+  Cu99  1  0.83706064  0.92117724  0.34547513  1
  Cu+  Cu100  1  0.08293252  0.16561794  0.34139215  1
  Cu+  Cu101  1  0.08065847  0.66161448  0.34720208  1
  Cu+  Cu102  1  0.57806923  0.16181937  0.34075959  1
  Cu+  Cu103  1  0.57948236  0.66467099  0.34136136  1
  Cu+  Cu104  1  0.08283423  0.41793812  0.34261819  1
  Cu+  Cu105  1  0.08105250  0.91674994  0.34345797  1
  Cu+  Cu106  1  0.57764056  0.41481635  0.34105291  1
  Cu+  Cu107  1  0.57916824  0.91746732  0.34233367  1
  Cu+  Cu108  1  -0.00345218  -0.00005166  0.11513581  1
  Cu+  Cu109  1  -0.00537881  0.49734769  0.11579656  1
  Cu+  Cu110  1  0.50317565  0.00234290  0.11475216  1
  Cu+  Cu111  1  0.50119708  0.50083020  0.11565078  1
  Cu+  Cu112  1  0.32939756  0.16232263  0.45061017  1
  Cu+  Cu113  1  0.33535795  0.66960836  0.45275770  1
  Cu+  Cu114  1  0.83236722  0.16833804  0.44765287  1
  Cu+  Cu115  1  0.82580437  0.66192205  0.44349929  1
  Cu+  Cu116  1  0.16611525  0.33228977  0.77901225  1
  Cu+  Cu117  1  0.15816128  0.82947873  0.78075832  1
  Cu+  Cu118  1  0.67152670  0.34151766  0.77552431  1
  Cu+  Cu119  1  0.67092723  0.83077103  0.77397993  1
  Te2-  Te120  1  0.00334625  0.00281916  0.38907891  1
  Te2-  Te121  1  -0.00375585  0.49441537  0.38911832  1
  Te2-  Te122  1  0.49710786  -0.00111620  0.38739034  1
  Te2-  Te123  1  0.50291738  0.50226636  0.38990638  1
  Te2-  Te124  1  0.33758518  0.17045049  0.72585355  1
  Te2-  Te125  1  0.33156137  0.66375818  0.72892791  1
  Te2-  Te126  1  0.83354791  0.16677043  0.72316699  1
  Te2-  Te127  1  0.83464139  0.66526512  0.71658477  1
  Te2-  Te128  1  0.16719529  0.33433474  0.05228853  1
  Te2-  Te129  1  0.16564074  0.83449885  0.05716024  1
  Te2-  Te130  1  0.66890918  0.33608877  0.05043252  1
  Te2-  Te131  1  0.66804404  0.83508911  0.04841225  1
  Te2-  Te132  1  0.49450263  0.25101546  0.88121595  1
  Te2-  Te133  1  0.49153839  0.74741684  0.88192936  1
  Te2-  Te134  1  0.99514350  0.25007789  0.88268204  1
  Te2-  Te135  1  1.00148775  0.75369101  0.88176144  1
  Te2-  Te136  1  0.25770360  0.01307466  0.88702418  1
  Te2-  Te137  1  0.25592627  0.51110105  0.88454846  1
  Te2-  Te138  1  0.75563197  0.01245964  0.88080937  1
  Te2-  Te139  1  0.75478027  0.50713537  0.88007237  1
  Te2-  Te140  1  0.25604002  0.25060231  0.88285071  1
  Te2-  Te141  1  0.25666845  0.74840209  0.88749175  1
  Te2-  Te142  1  0.75681577  0.24939671  0.88137230  1
  Te2-  Te143  1  0.75307286  0.75104528  0.87816299  1
  Te2-  Te144  1  0.32517166  0.41345691  0.22035304  1
  Te2-  Te145  1  0.31765713  0.90912014  0.21936969  1
  Te2-  Te146  1  0.82912916  0.41512068  0.21448164  1
  Te2-  Te147  1  0.82789719  0.91504186  0.21822183  1
  Te2-  Te148  1  0.08530058  0.17138848  0.21564149  1
  Te2-  Te149  1  0.08334675  0.67396757  0.21994786  1
  Te2-  Te150  1  0.58018003  0.16776623  0.21476899  1
  Te2-  Te151  1  0.58368357  0.67133250  0.21577579  1
  Te2-  Te152  1  0.08658893  0.41581010  0.21670310  1
  Te2-  Te153  1  0.08217642  0.90951675  0.21757980  1
  Te2-  Te154  1  0.58288978  0.41391438  0.21525633  1
  Te2-  Te155  1  0.58081405  0.91235880  0.21614433  1
  Te2-  Te156  1  0.16461026  0.08433444  0.55237642  1
  Te2-  Te157  1  0.15786248  0.57211715  0.55458476  1
  Te2-  Te158  1  0.66304715  0.07741743  0.54900853  1
  Te2-  Te159  1  0.66623643  0.58436936  0.54335922  1
  Te2-  Te160  1  0.42501589  0.34066314  0.54977941  1
  Te2-  Te161  1  0.41294683  0.83151476  0.55378588  1
  Te2-  Te162  1  0.91679025  0.33383326  0.54766644  1
  Te2-  Te163  1  0.92776342  0.83997309  0.54639382  1
  Te2-  Te164  1  0.41828644  0.07934114  0.55297459  1
  Te2-  Te165  1  0.42188058  0.58042591  0.55440307  1
  Te2-  Te166  1  0.92364329  0.07953482  0.55220610  1
  Te2-  Te167  1  0.91770320  0.57238240  0.54795441  1
  Te2-  Te168  1  -0.00116573  0.00005850  0.88199051  1
  Te2-  Te169  1  -0.00017548  0.49948551  0.88187469  1
  Te2-  Te170  1  0.50219328  0.00281952  0.87966766  1
  Te2-  Te171  1  0.50154375  0.50123037  0.87987550  1
  Te2-  Te172  1  0.33170795  0.16678601  0.21574081  1
  Te2-  Te173  1  0.33228854  0.66604479  0.21603837  1
  Te2-  Te174  1  0.83116813  0.16574963  0.21532752  1
  Te2-  Te175  1  0.83185187  0.66685194  0.21413137  1
  Te2-  Te176  1  0.16483713  0.33116138  0.55078265  1
  Te2-  Te177  1  0.16389168  0.83141081  0.55175656  1
  Te2-  Te178  1  0.66608790  0.33208628  0.54670537  1
  Te2-  Te179  1  0.66722629  0.83205491  0.54945809  1
  Te2-  Te180  1  0.32568321  0.40899688  0.70878343  1
  Te2-  Te181  1  0.32302596  0.91112196  0.70847226  1
  Te2-  Te182  1  0.82917411  0.41334245  0.70887451  1
  Te2-  Te183  1  0.82913772  0.90914525  0.70684842  1
  Te2-  Te184  1  0.08754691  0.17342394  0.70873825  1
  Te2-  Te185  1  0.08529733  0.67194281  0.71038556  1
  Te2-  Te186  1  0.58949717  0.17453996  0.70566766  1
  Te2-  Te187  1  0.58895865  0.67138292  0.70613594  1
  Te2-  Te188  1  0.08274471  0.40802190  0.70934394  1
  Te2-  Te189  1  0.08648692  0.91251535  0.70962427  1
  Te2-  Te190  1  0.58879922  0.41633722  0.70793502  1
  Te2-  Te191  1  0.58557079  0.90910663  0.70436840  1
  Te2-  Te192  1  0.15999339  0.08246968  0.04437790  1
  Te2-  Te193  1  0.15952923  0.57968788  0.04518513  1
  Te2-  Te194  1  0.66177907  0.08196136  0.04446998  1
  Te2-  Te195  1  0.66261263  0.58264581  0.04380069  1
  Te2-  Te196  1  0.41965281  0.33943418  0.04564202  1
  Te2-  Te197  1  0.42364641  0.84164041  0.04448108  1
  Te2-  Te198  1  0.91914189  0.33821688  0.04544493  1
  Te2-  Te199  1  0.91898508  0.84024593  0.04397798  1
  Te2-  Te200  1  0.42424100  0.08462848  0.04379844  1
  Te2-  Te201  1  0.41997077  0.58156878  0.04615490  1
  Te2-  Te202  1  0.91886205  0.08134802  0.04519239  1
  Te2-  Te203  1  0.92061950  0.58309639  0.04390889  1
  Te2-  Te204  1  0.49139228  0.24487417  0.37812620  1
  Te2-  Te205  1  0.49440924  0.74805813  0.38097932  1
  Te2-  Te206  1  0.99578103  0.24761604  0.37874381  1
  Te2-  Te207  1  0.99172428  0.74606030  0.37679912  1
  Te2-  Te208  1  0.24964392  0.00252666  0.38226911  1
  Te2-  Te209  1  0.25206994  0.50718515  0.38052798  1
  Te2-  Te210  1  0.75021780  0.00667740  0.37770123  1
  Te2-  Te211  1  0.74935140  0.50222535  0.37462769  1
  Te2-  Te212  1  0.25225010  0.24610258  0.37895470  1
  Te2-  Te213  1  0.25223721  0.74562209  0.38158290  1
  Te2-  Te214  1  0.74929561  0.24496512  0.37658017  1
  Te2-  Te215  1  0.75095677  0.74738518  0.37492833  1
