# generated using pymatgen
data_Ti(CuTe)4
_symmetry_space_group_name_H-M   'P 1'
_cell_length_a   16.84618195
_cell_length_b   16.84724787
_cell_length_c   20.64710180
_cell_angle_alpha   90.02808295
_cell_angle_beta   89.99799152
_cell_angle_gamma   119.99472525
_symmetry_Int_Tables_number   1
_chemical_formula_structural   Ti(CuTe)4
_chemical_formula_sum   'Ti24 Cu96 Te96'
_cell_volume   5075.08358791
_cell_formula_units_Z   24
loop_
 _symmetry_equiv_pos_site_id
 _symmetry_equiv_pos_as_xyz
  1  'x, y, z'
loop_
 _atom_type_symbol
 _atom_type_oxidation_number
  Ti4+  4.0
  Cu+  1.0
  Te2-  -2.0
loop_
 _atom_site_type_symbol
 _atom_site_label
 _atom_site_symmetry_multiplicity
 _atom_site_fract_x
 _atom_site_fract_y
 _atom_site_fract_z
 _atom_site_occupancy
  Ti4+  Ti0  1  0.00189446  0.00244662  0.25599816  1
  Ti4+  Ti1  1  -0.00223516  0.49789202  0.25697082  1
  Ti4+  Ti2  1  0.49945968  -0.00065763  0.26365584  1
  Ti4+  Ti3  1  0.50206291  0.49871481  0.25629987  1
  Ti4+  Ti4  1  0.33414971  0.16916455  0.59414089  1
  Ti4+  Ti5  1  0.33124647  0.66776369  0.58930479  1
  Ti4+  Ti6  1  0.83474810  0.17209078  0.59084365  1
  Ti4+  Ti7  1  0.83356509  0.66934056  0.59044043  1
  Ti4+  Ti8  1  0.16497895  0.32804578  0.92442933  1
  Ti4+  Ti9  1  0.16595802  0.83081136  0.92282105  1
  Ti4+  Ti10  1  0.66755193  0.33060627  0.92535178  1
  Ti4+  Ti11  1  0.66417709  0.82968188  0.92244462  1
  Ti4+  Ti12  1  0.00039940  0.00121362  0.75413834  1
  Ti4+  Ti13  1  -0.00102376  0.49926120  0.75707548  1
  Ti4+  Ti14  1  0.49916586  -0.00024202  0.75610237  1
  Ti4+  Ti15  1  0.49985662  0.50105723  0.75455534  1
  Ti4+  Ti16  1  0.33267888  0.16668404  0.08931687  1
  Ti4+  Ti17  1  0.33326742  0.66653668  0.09037187  1
  Ti4+  Ti18  1  0.83484955  0.16633180  0.08931538  1
  Ti4+  Ti19  1  0.83209699  0.66370121  0.08813270  1
  Ti4+  Ti20  1  0.16591221  0.33491526  0.42588049  1
  Ti4+  Ti21  1  0.16734189  0.83384226  0.42098084  1
  Ti4+  Ti22  1  0.66751037  0.33391056  0.42207028  1
  Ti4+  Ti23  1  0.66725528  0.83384545  0.42065591  1
  Cu+  Cu24  1  0.18202478  0.08670787  0.81127240  1
  Cu+  Cu25  1  0.73586317  0.47052431  0.13793659  1
  Cu+  Cu26  1  0.90588336  0.80945827  0.80607295  1
  Cu+  Cu27  1  0.57765787  0.92423606  0.48007958  1
  Cu+  Cu28  1  0.06762760  0.43268597  0.47320117  1
  Cu+  Cu29  1  0.90310493  0.30558838  0.80904856  1
  Cu+  Cu30  1  0.02020065  0.26449608  0.14242038  1
  Cu+  Cu31  1  0.40332421  0.80640590  0.80647017  1
  Cu+  Cu32  1  0.24578072  0.26253894  0.14473530  1
  Cu+  Cu33  1  0.34447120  0.92506378  0.48146798  1
  Cu+  Cu34  1  0.57913888  0.15891966  0.48237652  1
  Cu+  Cu35  1  0.41402226  0.31583145  0.81089670  1
  Cu+  Cu36  1  0.16309919  0.08484557  0.16857536  1
  Cu+  Cu37  1  0.16541457  0.58196312  0.17152497  1
  Cu+  Cu38  1  0.66386742  0.08164005  0.17553879  1
  Cu+  Cu39  1  0.66565651  0.57604536  0.16935486  1
  Cu+  Cu40  1  0.41921449  0.33904448  0.16932904  1
  Cu+  Cu41  1  0.41690968  0.83552402  0.17673254  1
  Cu+  Cu42  1  0.92111498  0.33808632  0.17002709  1
  Cu+  Cu43  1  0.91881105  0.83670455  0.16962612  1
  Cu+  Cu44  1  0.41794515  0.08154155  0.17582600  1
  Cu+  Cu45  1  0.41903884  0.58352817  0.17047842  1
  Cu+  Cu46  1  0.92283839  0.08649302  0.16836964  1
  Cu+  Cu47  1  0.91148538  0.57675859  0.17035380  1
  Cu+  Cu48  1  0.49758014  0.25198852  0.50566909  1
  Cu+  Cu49  1  0.49706446  0.74942297  0.50187915  1
  Cu+  Cu50  1  0.99893709  0.25876280  0.50644416  1
  Cu+  Cu51  1  0.99658574  0.75143192  0.50292096  1
  Cu+  Cu52  1  0.24993332  0.00437158  0.50552090  1
  Cu+  Cu53  1  0.24343847  0.50180109  0.50504531  1
  Cu+  Cu54  1  0.75137248  0.00349740  0.50288064  1
  Cu+  Cu55  1  0.75185058  0.50531226  0.50324813  1
  Cu+  Cu56  1  0.25297705  0.25085485  0.50926950  1
  Cu+  Cu57  1  0.25333183  0.74928277  0.50036472  1
  Cu+  Cu58  1  0.75435239  0.25106218  0.50288994  1
  Cu+  Cu59  1  0.75400406  0.75041208  0.50275453  1
  Cu+  Cu60  1  0.33179260  0.40969088  0.83591438  1
  Cu+  Cu61  1  0.33048649  0.90796470  0.83614161  1
  Cu+  Cu62  1  0.83212740  0.40947446  0.83971553  1
  Cu+  Cu63  1  0.82950206  0.90993979  0.83403258  1
  Cu+  Cu64  1  0.08984201  0.17204929  0.83502610  1
  Cu+  Cu65  1  0.08592285  0.66982802  0.83663637  1
  Cu+  Cu66  1  0.58680029  0.17039480  0.83837809  1
  Cu+  Cu67  1  0.58514957  0.67202227  0.83396662  1
  Cu+  Cu68  1  0.07757050  0.40850727  0.83860409  1
  Cu+  Cu69  1  0.08232775  0.91236391  0.83568211  1
  Cu+  Cu70  1  0.58490307  0.41482885  0.83968221  1
  Cu+  Cu71  1  0.57802019  0.90906268  0.83667674  1
  Cu+  Cu72  1  0.17031361  0.08947919  0.68104327  1
  Cu+  Cu73  1  0.16694711  0.58577856  0.67526170  1
  Cu+  Cu74  1  0.66780720  0.08803320  0.67699971  1
  Cu+  Cu75  1  0.66843146  0.58792855  0.67264103  1
  Cu+  Cu76  1  0.41564871  0.33195495  0.68092843  1
  Cu+  Cu77  1  0.41460203  0.83202088  0.67890544  1
  Cu+  Cu78  1  0.91487239  0.33224024  0.68040631  1
  Cu+  Cu79  1  0.91268957  0.82987009  0.67667561  1
  Cu+  Cu80  1  0.41843259  0.08667294  0.67862330  1
  Cu+  Cu81  1  0.41635577  0.58724404  0.67184402  1
  Cu+  Cu82  1  0.91753793  0.08870239  0.67258165  1
  Cu+  Cu83  1  0.91670625  0.58701701  0.67326418  1
  Cu+  Cu84  1  0.00184879  0.24850646  0.01294059  1
  Cu+  Cu85  1  0.00231778  0.75147015  0.00721633  1
  Cu+  Cu86  1  0.49994401  0.24788977  0.01061969  1
  Cu+  Cu87  1  0.50026347  0.75172186  0.00853507  1
  Cu+  Cu88  1  0.24808270  0.49669772  0.00632768  1
  Cu+  Cu89  1  0.25107749  0.99676004  0.00749838  1
  Cu+  Cu90  1  0.74746535  0.49246627  0.01054166  1
  Cu+  Cu91  1  0.74485823  0.99521456  0.00519665  1
  Cu+  Cu92  1  0.24867215  0.24860573  0.01497160  1
  Cu+  Cu93  1  0.25053343  0.75088451  0.00926126  1
  Cu+  Cu94  1  0.75046193  0.24789473  0.01086502  1
  Cu+  Cu95  1  0.74871507  0.75048637  0.00631252  1
  Cu+  Cu96  1  0.33639073  0.41576053  0.34244852  1
  Cu+  Cu97  1  0.33480248  0.91740273  0.34985933  1
  Cu+  Cu98  1  0.83351668  0.41660100  0.34133865  1
  Cu+  Cu99  1  0.83794880  0.91845536  0.33772568  1
  Cu+  Cu100  1  0.08465280  0.16617545  0.34462613  1
  Cu+  Cu101  1  0.08077045  0.66469524  0.33906188  1
  Cu+  Cu102  1  0.58286182  0.16501157  0.35026178  1
  Cu+  Cu103  1  0.58526383  0.66294239  0.33791261  1
  Cu+  Cu104  1  0.08066744  0.41828254  0.34606571  1
  Cu+  Cu105  1  0.08239015  0.91892903  0.33813636  1
  Cu+  Cu106  1  0.58384527  0.41792570  0.34107962  1
  Cu+  Cu107  1  0.58192774  0.91684061  0.34886390  1
  Cu+  Cu108  1  -0.00303491  -0.00425683  0.11113404  1
  Cu+  Cu109  1  0.00390081  0.50739445  0.11362548  1
  Cu+  Cu110  1  0.49991072  -0.00137363  0.12193326  1
  Cu+  Cu111  1  0.50342267  0.50770494  0.11179179  1
  Cu+  Cu112  1  0.33176569  0.16783246  0.45035842  1
  Cu+  Cu113  1  0.33516971  0.66239149  0.44441772  1
  Cu+  Cu114  1  0.83736829  0.16431085  0.44681542  1
  Cu+  Cu115  1  0.83394876  0.66671002  0.44692135  1
  Cu+  Cu116  1  0.17052137  0.34262664  0.78015337  1
  Cu+  Cu117  1  0.16697190  0.83547307  0.77740767  1
  Cu+  Cu118  1  0.67021711  0.34044371  0.78214092  1
  Cu+  Cu119  1  0.66902539  0.83982288  0.77719933  1
  Te2-  Te120  1  0.00059788  0.00006001  0.38543849  1
  Te2-  Te121  1  -0.00304351  0.50271734  0.38762387  1
  Te2-  Te122  1  0.49987546  -0.00018671  0.39791213  1
  Te2-  Te123  1  0.50153690  0.50025604  0.38561982  1
  Te2-  Te124  1  0.33536595  0.16658091  0.72657050  1
  Te2-  Te125  1  0.33094552  0.66391531  0.71986363  1
  Te2-  Te126  1  0.83193684  0.16454068  0.72146442  1
  Te2-  Te127  1  0.83076699  0.66371290  0.72191309  1
  Te2-  Te128  1  0.16848284  0.33568274  0.05660278  1
  Te2-  Te129  1  0.16651300  0.83204487  0.05188796  1
  Te2-  Te130  1  0.66410663  0.32566878  0.05575431  1
  Te2-  Te131  1  0.66552008  0.83148945  0.05162915  1
  Te2-  Te132  1  0.49357646  0.24294323  0.88501276  1
  Te2-  Te133  1  0.48895271  0.74060898  0.88260595  1
  Te2-  Te134  1  0.99152141  0.23925885  0.88502783  1
  Te2-  Te135  1  0.99203327  0.74345450  0.88158074  1
  Te2-  Te136  1  0.25562828  0.00279274  0.88076642  1
  Te2-  Te137  1  0.24905157  0.49716436  0.87957879  1
  Te2-  Te138  1  0.74891795  -0.00031800  0.87829822  1
  Te2-  Te139  1  0.75341015  0.50148240  0.88325422  1
  Te2-  Te140  1  0.25619772  0.24226883  0.88632181  1
  Te2-  Te141  1  0.25132977  0.74085485  0.88368410  1
  Te2-  Te142  1  0.75200691  0.24014561  0.88532447  1
  Te2-  Te143  1  0.75095422  0.74173695  0.88083607  1
  Te2-  Te144  1  0.32737233  0.41635766  0.21691063  1
  Te2-  Te145  1  0.32761176  0.91446226  0.22246951  1
  Te2-  Te146  1  0.82404517  0.40704062  0.21530024  1
  Te2-  Te147  1  0.83087434  0.91806293  0.21214111  1
  Te2-  Te148  1  0.09068985  0.18045755  0.21761336  1
  Te2-  Te149  1  0.08123884  0.66838855  0.21306441  1
  Te2-  Te150  1  0.58549209  0.17092595  0.22245966  1
  Te2-  Te151  1  0.58940851  0.66944232  0.21192678  1
  Te2-  Te152  1  0.08970992  0.41530086  0.21937504  1
  Te2-  Te153  1  0.08795157  0.91716054  0.21264506  1
  Te2-  Te154  1  0.58446858  0.40661558  0.21513219  1
  Te2-  Te155  1  0.58551023  0.91398816  0.22150392  1
  Te2-  Te156  1  0.16229172  0.08194023  0.55387808  1
  Te2-  Te157  1  0.15718659  0.58522799  0.54922532  1
  Te2-  Te158  1  0.65880031  0.08134133  0.55134154  1
  Te2-  Te159  1  0.66157332  0.58283466  0.54709781  1
  Te2-  Te160  1  0.42183116  0.34093258  0.55384112  1
  Te2-  Te161  1  0.42144784  0.84390102  0.55146612  1
  Te2-  Te162  1  0.91770616  0.34665016  0.55286459  1
  Te2-  Te163  1  0.92045172  0.84217975  0.55005131  1
  Te2-  Te164  1  0.42160295  0.08148519  0.55240286  1
  Te2-  Te165  1  0.41519129  0.58122349  0.54561278  1
  Te2-  Te166  1  0.91974834  0.08682622  0.54646514  1
  Te2-  Te167  1  0.91958462  0.58349849  0.54755355  1
  Te2-  Te168  1  -0.00052478  0.00020321  0.88176510  1
  Te2-  Te169  1  0.00186531  0.50105031  0.88424059  1
  Te2-  Te170  1  0.50004040  -0.00008293  0.88317740  1
  Te2-  Te171  1  0.50073073  0.50231746  0.88187267  1
  Te2-  Te172  1  0.33255608  0.16775589  0.21652269  1
  Te2-  Te173  1  0.33347363  0.66555919  0.21702681  1
  Te2-  Te174  1  0.83478439  0.16706510  0.21655697  1
  Te2-  Te175  1  0.83449068  0.66852681  0.21518173  1
  Te2-  Te176  1  0.16725597  0.33458810  0.55303984  1
  Te2-  Te177  1  0.16615169  0.83304192  0.54859384  1
  Te2-  Te178  1  0.66872971  0.33701280  0.54971248  1
  Te2-  Te179  1  0.66726613  0.83353619  0.54824720  1
  Te2-  Te180  1  0.32715680  0.41722985  0.70853382  1
  Te2-  Te181  1  0.32573031  0.91575627  0.70886188  1
  Te2-  Te182  1  0.82699704  0.41727586  0.71147284  1
  Te2-  Te183  1  0.82806768  0.91844318  0.70719649  1
  Te2-  Te184  1  0.08537785  0.17703949  0.70936257  1
  Te2-  Te185  1  0.08489749  0.67222239  0.71094112  1
  Te2-  Te186  1  0.58738962  0.17567798  0.71276753  1
  Te2-  Te187  1  0.58511317  0.67394321  0.70847821  1
  Te2-  Te188  1  0.08768712  0.41605089  0.71048929  1
  Te2-  Te189  1  0.08681030  0.91445827  0.70762442  1
  Te2-  Te190  1  0.58941889  0.41751051  0.71084925  1
  Te2-  Te191  1  0.58803514  0.91665269  0.70852204  1
  Te2-  Te192  1  0.15946547  0.07541675  0.04190963  1
  Te2-  Te193  1  0.16196959  0.57986483  0.04409711  1
  Te2-  Te194  1  0.66073440  0.07843442  0.04846570  1
  Te2-  Te195  1  0.66055605  0.57960990  0.04131531  1
  Te2-  Te196  1  0.42243747  0.34087129  0.04278074  1
  Te2-  Te197  1  0.41939999  0.83957598  0.04903084  1
  Te2-  Te198  1  0.92088126  0.34058097  0.04355108  1
  Te2-  Te199  1  0.91770766  0.83589177  0.04296997  1
  Te2-  Te200  1  0.41911812  0.07876407  0.04871286  1
  Te2-  Te201  1  0.41791903  0.58050213  0.04302702  1
  Te2-  Te202  1  0.91565567  0.07525704  0.04130590  1
  Te2-  Te203  1  0.92093406  0.58061583  0.04225452  1
  Te2-  Te204  1  0.49272984  0.24875839  0.37855379  1
  Te2-  Te205  1  0.49446118  0.74263573  0.37463792  1
  Te2-  Te206  1  0.99454562  0.24660641  0.37863093  1
  Te2-  Te207  1  0.99545871  0.74933523  0.37633861  1
  Te2-  Te208  1  0.25120613  0.00821417  0.37790002  1
  Te2-  Te209  1  0.25405156  0.50464845  0.37683309  1
  Te2-  Te210  1  0.75646241  0.00678566  0.37518889  1
  Te2-  Te211  1  0.75342577  0.50618308  0.37686118  1
  Te2-  Te212  1  0.25302453  0.24886982  0.38250335  1
  Te2-  Te213  1  0.25057714  0.74288206  0.37442168  1
  Te2-  Te214  1  0.75661675  0.24777373  0.37669274  1
  Te2-  Te215  1  0.75450634  0.74914205  0.37631784  1
