# generated using pymatgen
data_Ti(CuTe)4
_symmetry_space_group_name_H-M   'P 1'
_cell_length_a   16.88435392
_cell_length_b   16.88707832
_cell_length_c   20.70712928
_cell_angle_alpha   89.99695862
_cell_angle_beta   90.00623252
_cell_angle_gamma   120.00537467
_symmetry_Int_Tables_number   1
_chemical_formula_structural   Ti(CuTe)4
_chemical_formula_sum   'Ti24 Cu96 Te96'
_cell_volume   5112.88430026
_cell_formula_units_Z   24
loop_
 _symmetry_equiv_pos_site_id
 _symmetry_equiv_pos_as_xyz
  1  'x, y, z'
loop_
 _atom_type_symbol
 _atom_type_oxidation_number
  Ti4+  4.0
  Cu+  1.0
  Te2-  -2.0
loop_
 _atom_site_type_symbol
 _atom_site_label
 _atom_site_symmetry_multiplicity
 _atom_site_fract_x
 _atom_site_fract_y
 _atom_site_fract_z
 _atom_site_occupancy
  Ti4+  Ti0  1  0.00041842  -0.00251042  0.25819088  1
  Ti4+  Ti1  1  -0.00317888  0.49635554  0.25473334  1
  Ti4+  Ti2  1  0.49871532  0.00121959  0.26087254  1
  Ti4+  Ti3  1  0.49735996  0.49831750  0.25902325  1
  Ti4+  Ti4  1  0.33584689  0.16922174  0.59506095  1
  Ti4+  Ti5  1  0.33363050  0.66537874  0.59062841  1
  Ti4+  Ti6  1  0.83066291  0.16334868  0.58921064  1
  Ti4+  Ti7  1  0.83652775  0.66886274  0.58979779  1
  Ti4+  Ti8  1  0.16825776  0.33592439  0.92405191  1
  Ti4+  Ti9  1  0.16901034  0.83569998  0.92556379  1
  Ti4+  Ti10  1  0.66712060  0.33454120  0.92267368  1
  Ti4+  Ti11  1  0.66803802  0.83470239  0.92191297  1
  Ti4+  Ti12  1  0.00093438  0.00004783  0.75517623  1
  Ti4+  Ti13  1  -0.00021018  0.49916564  0.75459154  1
  Ti4+  Ti14  1  0.50107604  0.00062898  0.75574345  1
  Ti4+  Ti15  1  0.50123824  0.50257386  0.75355054  1
  Ti4+  Ti16  1  0.33348363  0.16577450  0.09020832  1
  Ti4+  Ti17  1  0.33399035  0.66500844  0.08951546  1
  Ti4+  Ti18  1  0.83256966  0.16911563  0.08982812  1
  Ti4+  Ti19  1  0.83371570  0.66819737  0.08762652  1
  Ti4+  Ti20  1  0.16764848  0.33364466  0.42312465  1
  Ti4+  Ti21  1  0.16509584  0.83120844  0.42253347  1
  Ti4+  Ti22  1  0.66442226  0.33135440  0.42340806  1
  Ti4+  Ti23  1  0.66779311  0.83428458  0.42015626  1
  Cu+  Cu24  1  0.23834486  0.97614207  0.14330361  1
  Cu+  Cu25  1  0.35816690  0.42785280  0.47598172  1
  Cu+  Cu26  1  0.40783546  0.59593301  0.80751441  1
  Cu+  Cu27  1  0.73328918  0.26130005  0.14134859  1
  Cu+  Cu28  1  0.57308245  0.91914510  0.47854982  1
  Cu+  Cu29  1  0.40862797  0.08877384  0.81399929  1
  Cu+  Cu30  1  0.69047394  0.59639251  0.80378954  1
  Cu+  Cu31  1  0.69073379  0.09561938  0.80677664  1
  Cu+  Cu32  1  0.85552774  0.92742325  0.47342977  1
  Cu+  Cu33  1  0.23653375  0.47387115  0.14134138  1
  Cu+  Cu34  1  0.40961490  0.32568111  0.81426883  1
  Cu+  Cu35  1  0.56863373  0.14769086  0.47894424  1
  Cu+  Cu36  1  0.16349223  0.07593796  0.17143320  1
  Cu+  Cu37  1  0.16354181  0.57532141  0.16970844  1
  Cu+  Cu38  1  0.66370518  0.08824337  0.17428757  1
  Cu+  Cu39  1  0.66380428  0.58132045  0.17234221  1
  Cu+  Cu40  1  0.41629431  0.33664276  0.17288058  1
  Cu+  Cu41  1  0.41956118  0.83544505  0.17335454  1
  Cu+  Cu42  1  0.91131344  0.33680023  0.16857951  1
  Cu+  Cu43  1  0.91800608  0.83648499  0.17051261  1
  Cu+  Cu44  1  0.41502878  0.07877666  0.17247553  1
  Cu+  Cu45  1  0.41137874  0.57473881  0.17170447  1
  Cu+  Cu46  1  0.91735310  0.08175861  0.17354602  1
  Cu+  Cu47  1  0.91703573  0.58147710  0.16813103  1
  Cu+  Cu48  1  0.49473630  0.24537336  0.50795783  1
  Cu+  Cu49  1  0.49291082  0.74655372  0.50291794  1
  Cu+  Cu50  1  0.99620674  0.24755294  0.50317537  1
  Cu+  Cu51  1  0.99686012  0.74709328  0.50294608  1
  Cu+  Cu52  1  0.25050771  0.00000849  0.50720319  1
  Cu+  Cu53  1  0.25598941  0.50111122  0.50455815  1
  Cu+  Cu54  1  0.75187937  0.00333819  0.50074746  1
  Cu+  Cu55  1  0.75180793  0.50296976  0.50558129  1
  Cu+  Cu56  1  0.25701445  0.25585934  0.50738378  1
  Cu+  Cu57  1  0.24861189  0.74602501  0.50353606  1
  Cu+  Cu58  1  0.74482461  0.24262566  0.50328641  1
  Cu+  Cu59  1  0.75804223  0.75304335  0.50240769  1
  Cu+  Cu60  1  0.32687967  0.41820858  0.83527288  1
  Cu+  Cu61  1  0.32852756  0.91681042  0.83883885  1
  Cu+  Cu62  1  0.83053896  0.41382223  0.83565403  1
  Cu+  Cu63  1  0.83091557  0.91526556  0.83573722  1
  Cu+  Cu64  1  0.08460749  0.16883750  0.83732587  1
  Cu+  Cu65  1  0.08605577  0.66909575  0.83885827  1
  Cu+  Cu66  1  0.58687935  0.16991206  0.83591517  1
  Cu+  Cu67  1  0.58594921  0.67131661  0.83387515  1
  Cu+  Cu68  1  0.08624920  0.41809102  0.83704294  1
  Cu+  Cu69  1  0.08820540  0.91942214  0.83789971  1
  Cu+  Cu70  1  0.58745560  0.41811071  0.83365107  1
  Cu+  Cu71  1  0.59048569  0.91973564  0.83581442  1
  Cu+  Cu72  1  0.17092734  0.08657919  0.67631515  1
  Cu+  Cu73  1  0.16805776  0.58203953  0.67352763  1
  Cu+  Cu74  1  0.66856678  0.08186141  0.67833452  1
  Cu+  Cu75  1  0.67454149  0.58969760  0.67539233  1
  Cu+  Cu76  1  0.41760145  0.33309011  0.68241014  1
  Cu+  Cu77  1  0.41450489  0.83020055  0.67532339  1
  Cu+  Cu78  1  0.91399124  0.32938325  0.67270297  1
  Cu+  Cu79  1  0.91912580  0.83327105  0.67428201  1
  Cu+  Cu80  1  0.41609319  0.08545935  0.68396153  1
  Cu+  Cu81  1  0.41531235  0.58555875  0.67822821  1
  Cu+  Cu82  1  0.91501414  0.08154176  0.67440678  1
  Cu+  Cu83  1  0.91659402  0.58405000  0.67404308  1
  Cu+  Cu84  1  0.00246673  0.25280758  0.00805464  1
  Cu+  Cu85  1  0.00371319  0.75530139  0.00795762  1
  Cu+  Cu86  1  0.50065017  0.25142871  0.00932403  1
  Cu+  Cu87  1  0.50388158  0.75143959  0.00693445  1
  Cu+  Cu88  1  0.25157287  0.49763587  0.01196104  1
  Cu+  Cu89  1  0.25128677  0.99807684  0.01457401  1
  Cu+  Cu90  1  0.74963597  0.50109242  0.00684877  1
  Cu+  Cu91  1  0.74922597  0.99963835  0.00821030  1
  Cu+  Cu92  1  0.25119964  0.25224528  0.00889344  1
  Cu+  Cu93  1  0.25221033  0.75412587  0.00866819  1
  Cu+  Cu94  1  0.74695555  0.25088558  0.01256044  1
  Cu+  Cu95  1  0.74898209  0.75116633  0.00706683  1
  Cu+  Cu96  1  0.33619039  0.41880142  0.34753349  1
  Cu+  Cu97  1  0.33255046  0.91620081  0.34426699  1
  Cu+  Cu98  1  0.83333505  0.41637311  0.34023112  1
  Cu+  Cu99  1  0.83763987  0.91720131  0.34457997  1
  Cu+  Cu100  1  0.08278297  0.16240236  0.34149685  1
  Cu+  Cu101  1  0.08017788  0.66089991  0.33828589  1
  Cu+  Cu102  1  0.57906043  0.16368473  0.34885443  1
  Cu+  Cu103  1  0.58040688  0.66397976  0.34003284  1
  Cu+  Cu104  1  0.08044286  0.41579269  0.33917735  1
  Cu+  Cu105  1  0.08190880  0.91465086  0.34293821  1
  Cu+  Cu106  1  0.57979519  0.41636652  0.34304426  1
  Cu+  Cu107  1  0.58240930  0.92001550  0.34765260  1
  Cu+  Cu108  1  -0.00068954  0.00404807  0.11545282  1
  Cu+  Cu109  1  0.00201128  0.50495422  0.11078142  1
  Cu+  Cu110  1  0.50065947  -0.00309251  0.11766247  1
  Cu+  Cu111  1  0.50271956  0.50125439  0.11619389  1
  Cu+  Cu112  1  0.32541205  0.16161836  0.45303739  1
  Cu+  Cu113  1  0.32694643  0.66288096  0.44709110  1
  Cu+  Cu114  1  0.83652328  0.17173269  0.44480231  1
  Cu+  Cu115  1  0.83220861  0.66232406  0.44627173  1
  Cu+  Cu116  1  0.15877602  0.32978479  0.78069405  1
  Cu+  Cu117  1  0.16193870  0.82929187  0.78278460  1
  Cu+  Cu118  1  0.66963812  0.33572253  0.77769793  1
  Cu+  Cu119  1  0.66918504  0.83561506  0.77717155  1
  Te2-  Te120  1  0.00337552  -0.00026998  0.38894782  1
  Te2-  Te121  1  -0.00210188  0.49725804  0.38364041  1
  Te2-  Te122  1  0.49529997  -0.00213748  0.39301923  1
  Te2-  Te123  1  0.50277554  0.50241022  0.39009528  1
  Te2-  Te124  1  0.33256839  0.16797730  0.72702849  1
  Te2-  Te125  1  0.33077968  0.66687216  0.72132719  1
  Te2-  Te126  1  0.83565488  0.16638179  0.71957596  1
  Te2-  Te127  1  0.83965426  0.67009084  0.72070915  1
  Te2-  Te128  1  0.16596851  0.33084562  0.05445127  1
  Te2-  Te129  1  0.16639413  0.83111406  0.05617428  1
  Te2-  Te130  1  0.66527347  0.33690688  0.05270468  1
  Te2-  Te131  1  0.66806373  0.83470225  0.05062056  1
  Te2-  Te132  1  0.49198683  0.24728734  0.88285436  1
  Te2-  Te133  1  0.49485821  0.75084592  0.88091507  1
  Te2-  Te134  1  0.99777907  0.24999767  0.88183985  1
  Te2-  Te135  1  0.99888083  0.75127883  0.88178037  1
  Te2-  Te136  1  0.25377048  0.01064993  0.88728833  1
  Te2-  Te137  1  0.25321082  0.51008156  0.88449728  1
  Te2-  Te138  1  0.75839010  0.00958578  0.88236018  1
  Te2-  Te139  1  0.75531139  0.50685492  0.88070275  1
  Te2-  Te140  1  0.25252592  0.24704239  0.88298230  1
  Te2-  Te141  1  0.25477622  0.75032390  0.88282622  1
  Te2-  Te142  1  0.75426803  0.24809143  0.88464276  1
  Te2-  Te143  1  0.75478843  0.74785547  0.88107911  1
  Te2-  Te144  1  0.32214677  0.40788931  0.22045172  1
  Te2-  Te145  1  0.32597285  0.90989467  0.21817198  1
  Te2-  Te146  1  0.82166239  0.41494732  0.21478306  1
  Te2-  Te147  1  0.82875984  0.91350265  0.21775833  1
  Te2-  Te148  1  0.08705050  0.16813447  0.21542017  1
  Te2-  Te149  1  0.08540352  0.66676114  0.21215726  1
  Te2-  Te150  1  0.58123343  0.17462307  0.22092937  1
  Te2-  Te151  1  0.58096422  0.66811529  0.21435319  1
  Te2-  Te152  1  0.07977535  0.40537052  0.21369887  1
  Te2-  Te153  1  0.08414614  0.90703138  0.21723702  1
  Te2-  Te154  1  0.58351861  0.41310044  0.21728071  1
  Te2-  Te155  1  0.58678742  0.91929898  0.21960402  1
  Te2-  Te156  1  0.16718801  0.08619850  0.55007241  1
  Te2-  Te157  1  0.16386689  0.57821503  0.54761639  1
  Te2-  Te158  1  0.65388795  0.07429645  0.55126284  1
  Te2-  Te159  1  0.66516595  0.58541607  0.54863157  1
  Te2-  Te160  1  0.42577793  0.34266043  0.55450169  1
  Te2-  Te161  1  0.41583742  0.83900610  0.54970641  1
  Te2-  Te162  1  0.91374974  0.33326487  0.54658747  1
  Te2-  Te163  1  0.92630084  0.84318375  0.54871648  1
  Te2-  Te164  1  0.41708427  0.07677856  0.55590937  1
  Te2-  Te165  1  0.42477193  0.58221045  0.55126909  1
  Te2-  Te166  1  0.92039198  0.08019511  0.54847484  1
  Te2-  Te167  1  0.91983839  0.58053737  0.54853010  1
  Te2-  Te168  1  -0.00017868  0.00040963  0.88154175  1
  Te2-  Te169  1  -0.00067343  0.49978679  0.88095995  1
  Te2-  Te170  1  0.50040607  -0.00045726  0.88312256  1
  Te2-  Te171  1  0.49926635  0.50054459  0.88180143  1
  Te2-  Te172  1  0.33276725  0.16645993  0.21691940  1
  Te2-  Te173  1  0.33255926  0.66549524  0.21630747  1
  Te2-  Te174  1  0.83412726  0.16809488  0.21661016  1
  Te2-  Te175  1  0.83354055  0.66627180  0.21390038  1
  Te2-  Te176  1  0.16395248  0.33261914  0.55002032  1
  Te2-  Te177  1  0.16516721  0.83045812  0.54897147  1
  Te2-  Te178  1  0.66691345  0.33371083  0.55027136  1
  Te2-  Te179  1  0.66573911  0.83219761  0.54748316  1
  Te2-  Te180  1  0.32516894  0.41361311  0.70885574  1
  Te2-  Te181  1  0.32656920  0.91196032  0.71214329  1
  Te2-  Te182  1  0.82857072  0.41364727  0.70916853  1
  Te2-  Te183  1  0.82900361  0.91269950  0.70971380  1
  Te2-  Te184  1  0.08557030  0.17177805  0.71058393  1
  Te2-  Te185  1  0.08670800  0.67065860  0.71133548  1
  Te2-  Te186  1  0.58944560  0.17492573  0.70904984  1
  Te2-  Te187  1  0.58844205  0.67581037  0.70682056  1
  Te2-  Te188  1  0.08432926  0.41242992  0.70992215  1
  Te2-  Te189  1  0.08927386  0.91610620  0.71141691  1
  Te2-  Te190  1  0.59091840  0.41736695  0.70720719  1
  Te2-  Te191  1  0.58400638  0.91034903  0.70943000  1
  Te2-  Te192  1  0.16110066  0.08166377  0.04435985  1
  Te2-  Te193  1  0.16286412  0.58250333  0.04234835  1
  Te2-  Te194  1  0.65953918  0.07931042  0.04627872  1
  Te2-  Te195  1  0.66135885  0.58170569  0.04478910  1
  Te2-  Te196  1  0.41942809  0.33921084  0.04667407  1
  Te2-  Te197  1  0.42113626  0.83777525  0.04658393  1
  Te2-  Te198  1  0.92038512  0.34102349  0.04232368  1
  Te2-  Te199  1  0.91921964  0.84064735  0.04441449  1
  Te2-  Te200  1  0.42364320  0.08216194  0.04585937  1
  Te2-  Te201  1  0.42323672  0.58186721  0.04435461  1
  Te2-  Te202  1  0.91872431  0.08326147  0.04619612  1
  Te2-  Te203  1  0.92029107  0.58364389  0.04165019  1
  Te2-  Te204  1  0.49006131  0.24697754  0.38118669  1
  Te2-  Te205  1  0.49310221  0.74622708  0.37646508  1
  Te2-  Te206  1  0.99662604  0.24654943  0.37682465  1
  Te2-  Te207  1  0.99392599  0.74410466  0.37688967  1
  Te2-  Te208  1  0.25142452  0.00443838  0.38033455  1
  Te2-  Te209  1  0.24989921  0.50527187  0.37698610  1
  Te2-  Te210  1  0.75576232  0.00860113  0.37423931  1
  Te2-  Te211  1  0.75030906  0.50258655  0.37858325  1
  Te2-  Te212  1  0.25252056  0.24577265  0.37953136  1
  Te2-  Te213  1  0.24983498  0.74487949  0.37692269  1
  Te2-  Te214  1  0.75229903  0.24710688  0.37647909  1
  Te2-  Te215  1  0.75101809  0.74432665  0.37563780  1
