# generated using pymatgen
data_Ti(CuTe)4
_symmetry_space_group_name_H-M   'P 1'
_cell_length_a   16.88993412
_cell_length_b   16.88540546
_cell_length_c   20.70569705
_cell_angle_alpha   90.00684049
_cell_angle_beta   89.97299339
_cell_angle_gamma   119.99860853
_symmetry_Int_Tables_number   1
_chemical_formula_structural   Ti(CuTe)4
_chemical_formula_sum   'Ti24 Cu96 Te96'
_cell_volume   5114.06181647
_cell_formula_units_Z   24
loop_
 _symmetry_equiv_pos_site_id
 _symmetry_equiv_pos_as_xyz
  1  'x, y, z'
loop_
 _atom_type_symbol
 _atom_type_oxidation_number
  Ti4+  4.0
  Cu+  1.0
  Te2-  -2.0
loop_
 _atom_site_type_symbol
 _atom_site_label
 _atom_site_symmetry_multiplicity
 _atom_site_fract_x
 _atom_site_fract_y
 _atom_site_fract_z
 _atom_site_occupancy
  Ti4+  Ti0  1  0.00053718  0.00159636  0.25896437  1
  Ti4+  Ti1  1  0.00370670  0.50298250  0.25626094  1
  Ti4+  Ti2  1  0.50048864  0.00170854  0.25842669  1
  Ti4+  Ti3  1  0.50021899  0.50375215  0.25486603  1
  Ti4+  Ti4  1  0.32961789  0.16388038  0.59242395  1
  Ti4+  Ti5  1  0.33007097  0.66510903  0.59579589  1
  Ti4+  Ti6  1  0.83164802  0.16291794  0.59000918  1
  Ti4+  Ti7  1  0.83181444  0.66302450  0.58985696  1
  Ti4+  Ti8  1  0.17046132  0.33440176  0.92311489  1
  Ti4+  Ti9  1  0.16615782  0.83338646  0.92781718  1
  Ti4+  Ti10  1  0.66673509  0.33023332  0.91991918  1
  Ti4+  Ti11  1  0.66823145  0.83472796  0.92562890  1
  Ti4+  Ti12  1  -0.00122419  -0.00211976  0.75645137  1
  Ti4+  Ti13  1  -0.00063202  0.49897124  0.75547154  1
  Ti4+  Ti14  1  0.50065731  0.00011196  0.75499797  1
  Ti4+  Ti15  1  0.49726224  0.49825208  0.75369961  1
  Ti4+  Ti16  1  0.33429424  0.16766320  0.08918081  1
  Ti4+  Ti17  1  0.33338534  0.66572607  0.08567747  1
  Ti4+  Ti18  1  0.83479049  0.16780414  0.08865713  1
  Ti4+  Ti19  1  0.83426174  0.66832657  0.08705621  1
  Ti4+  Ti20  1  0.16622084  0.33229286  0.42436757  1
  Ti4+  Ti21  1  0.16541198  0.83155711  0.42389287  1
  Ti4+  Ti22  1  0.66667131  0.33554056  0.42051876  1
  Ti4+  Ti23  1  0.66591684  0.83458651  0.42314787  1
  Cu+  Cu24  1  0.18372638  0.08687239  0.81008131  1
  Cu+  Cu25  1  0.24952690  0.75876898  0.14842994  1
  Cu+  Cu26  1  0.24098436  0.48240499  0.14213699  1
  Cu+  Cu27  1  0.69152481  0.09356877  0.80508812  1
  Cu+  Cu28  1  0.06959061  0.14020699  0.47610823  1
  Cu+  Cu29  1  0.41109150  0.31562655  0.80687782  1
  Cu+  Cu30  1  0.74682827  0.76473343  0.14209938  1
  Cu+  Cu31  1  0.41396154  0.59508913  0.81228512  1
  Cu+  Cu32  1  0.07011629  0.63964025  0.47504485  1
  Cu+  Cu33  1  0.18240888  0.59546913  0.81345896  1
  Cu+  Cu34  1  0.51076193  0.75998626  0.14561546  1
  Cu+  Cu35  1  0.01673881  0.76422591  0.14356040  1
  Cu+  Cu36  1  0.16566590  0.08590502  0.17240329  1
  Cu+  Cu37  1  0.16097796  0.58081081  0.16637166  1
  Cu+  Cu38  1  0.66666721  0.08388507  0.17136773  1
  Cu+  Cu39  1  0.66480949  0.58878552  0.16670486  1
  Cu+  Cu40  1  0.41815059  0.33820554  0.16935852  1
  Cu+  Cu41  1  0.42297074  0.84552727  0.16949709  1
  Cu+  Cu42  1  0.92080771  0.33749572  0.16972596  1
  Cu+  Cu43  1  0.92011973  0.84104745  0.17078078  1
  Cu+  Cu44  1  0.41725799  0.08361136  0.17176067  1
  Cu+  Cu45  1  0.41976907  0.58065277  0.16505719  1
  Cu+  Cu46  1  0.92068363  0.08624347  0.17156625  1
  Cu+  Cu47  1  0.92399415  0.58898878  0.16792339  1
  Cu+  Cu48  1  0.49645821  0.24988198  0.50488388  1
  Cu+  Cu49  1  0.49668942  0.74756171  0.50871004  1
  Cu+  Cu50  1  0.99607392  0.24113321  0.50454671  1
  Cu+  Cu51  1  0.99556942  0.74106737  0.50378414  1
  Cu+  Cu52  1  0.24825335  0.00173585  0.50608682  1
  Cu+  Cu53  1  0.25036183  0.50301281  0.50923941  1
  Cu+  Cu54  1  0.74888447  0.00246771  0.50422419  1
  Cu+  Cu55  1  0.75108724  0.50345995  0.50216827  1
  Cu+  Cu56  1  0.24413777  0.24169965  0.50640388  1
  Cu+  Cu57  1  0.24388127  0.74199372  0.50735507  1
  Cu+  Cu58  1  0.74832690  0.24716186  0.50395918  1
  Cu+  Cu59  1  0.75108658  0.74884168  0.50488819  1
  Cu+  Cu60  1  0.33014830  0.41460645  0.83420843  1
  Cu+  Cu61  1  0.33005370  0.91454128  0.83870628  1
  Cu+  Cu62  1  0.82856080  0.41193337  0.83463328  1
  Cu+  Cu63  1  0.82966420  0.91217982  0.83826313  1
  Cu+  Cu64  1  0.08832541  0.16749011  0.83627375  1
  Cu+  Cu65  1  0.08542262  0.66984432  0.84159002  1
  Cu+  Cu66  1  0.59021808  0.16914635  0.83313378  1
  Cu+  Cu67  1  0.58499846  0.67145341  0.83908655  1
  Cu+  Cu68  1  0.08867454  0.41945027  0.83637882  1
  Cu+  Cu69  1  0.08499758  0.91511142  0.84058559  1
  Cu+  Cu70  1  0.58230183  0.40991095  0.83420298  1
  Cu+  Cu71  1  0.58903237  0.91948336  0.83715654  1
  Cu+  Cu72  1  0.16611777  0.08129781  0.68125107  1
  Cu+  Cu73  1  0.16794231  0.58522380  0.68328270  1
  Cu+  Cu74  1  0.66921512  0.08316277  0.67717806  1
  Cu+  Cu75  1  0.66831544  0.58427893  0.67215315  1
  Cu+  Cu76  1  0.41072724  0.32798449  0.67774220  1
  Cu+  Cu77  1  0.41353883  0.83111894  0.67647029  1
  Cu+  Cu78  1  0.91343269  0.32776235  0.67195633  1
  Cu+  Cu79  1  0.91292680  0.82607479  0.67349057  1
  Cu+  Cu80  1  0.41355086  0.08216031  0.67458005  1
  Cu+  Cu81  1  0.41327366  0.58515603  0.68275245  1
  Cu+  Cu82  1  0.91210620  0.07841206  0.67498365  1
  Cu+  Cu83  1  0.91441284  0.58287430  0.67468574  1
  Cu+  Cu84  1  0.00463395  0.25246493  0.00638098  1
  Cu+  Cu85  1  0.00310430  0.75150264  0.01361071  1
  Cu+  Cu86  1  0.50276713  0.24912518  0.00457085  1
  Cu+  Cu87  1  0.50350638  0.75232210  0.01369999  1
  Cu+  Cu88  1  0.25052840  0.49731851  0.01248203  1
  Cu+  Cu89  1  0.24818253  0.99837269  0.01180154  1
  Cu+  Cu90  1  0.74723102  0.49341701  0.00268491  1
  Cu+  Cu91  1  0.75166412  1.00035146  0.00952488  1
  Cu+  Cu92  1  0.25213531  0.25096953  0.00866113  1
  Cu+  Cu93  1  0.24711778  0.74963802  0.01669841  1
  Cu+  Cu94  1  0.74997871  0.24942364  0.00605578  1
  Cu+  Cu95  1  0.74816591  0.75126813  0.01256095  1
  Cu+  Cu96  1  0.33567144  0.42024304  0.34159397  1
  Cu+  Cu97  1  0.33649729  0.91867391  0.34425071  1
  Cu+  Cu98  1  0.83643950  0.42077700  0.33951965  1
  Cu+  Cu99  1  0.83422699  0.91960664  0.34281559  1
  Cu+  Cu100  1  0.08286105  0.16376855  0.34728936  1
  Cu+  Cu101  1  0.08469071  0.66554265  0.34598913  1
  Cu+  Cu102  1  0.58150919  0.16640405  0.34092220  1
  Cu+  Cu103  1  0.58144523  0.66809493  0.34091540  1
  Cu+  Cu104  1  0.08697265  0.41996419  0.34243896  1
  Cu+  Cu105  1  0.08279741  0.91767650  0.34324614  1
  Cu+  Cu106  1  0.58277881  0.42094397  0.33848421  1
  Cu+  Cu107  1  0.58007681  0.91805563  0.34347490  1
  Cu+  Cu108  1  0.00300639  0.00670876  0.11567590  1
  Cu+  Cu109  1  -0.00787552  0.49633505  0.11141331  1
  Cu+  Cu110  1  0.50687782  0.01262783  0.11542181  1
  Cu+  Cu111  1  0.50441981  0.49686568  0.10974428  1
  Cu+  Cu112  1  0.33527459  0.16751173  0.44942248  1
  Cu+  Cu113  1  0.33536193  0.66806901  0.45345208  1
  Cu+  Cu114  1  0.83327439  0.17161634  0.44708374  1
  Cu+  Cu115  1  0.83119274  0.66870524  0.44633067  1
  Cu+  Cu116  1  0.15970243  0.32890921  0.77944969  1
  Cu+  Cu117  1  0.16611898  0.83295482  0.78451171  1
  Cu+  Cu118  1  0.66697912  0.33428714  0.77445970  1
  Cu+  Cu119  1  0.66745220  0.83287911  0.78116521  1
  Te2-  Te120  1  -0.00209120  -0.00341204  0.38916792  1
  Te2-  Te121  1  0.00005499  0.49798066  0.38625785  1
  Te2-  Te122  1  0.50089434  0.00311309  0.38726591  1
  Te2-  Te123  1  0.50089122  0.50301546  0.38324451  1
  Te2-  Te124  1  0.33255830  0.16311327  0.72459208  1
  Te2-  Te125  1  0.33338775  0.67016104  0.72835344  1
  Te2-  Te126  1  0.83570565  0.16557236  0.72064502  1
  Te2-  Te127  1  0.83071791  0.66297147  0.71934657  1
  Te2-  Te128  1  0.16767298  0.33089266  0.05319720  1
  Te2-  Te129  1  0.16761280  0.83555462  0.05977736  1
  Te2-  Te130  1  0.66673016  0.33088925  0.04881831  1
  Te2-  Te131  1  0.66888287  0.83742787  0.05743782  1
  Te2-  Te132  1  0.49283994  0.23971081  0.87914838  1
  Te2-  Te133  1  0.49532650  0.75227047  0.88553227  1
  Te2-  Te134  1  1.00154133  0.25015397  0.87998343  1
  Te2-  Te135  1  0.99605470  0.74797040  0.88647091  1
  Te2-  Te136  1  0.25541205  0.00619766  0.88568789  1
  Te2-  Te137  1  0.25758878  0.51047053  0.88470630  1
  Te2-  Te138  1  0.75775002  0.00742987  0.88329693  1
  Te2-  Te139  1  0.75007075  0.50160978  0.87720460  1
  Te2-  Te140  1  0.25754246  0.24591143  0.88270314  1
  Te2-  Te141  1  0.25554061  0.74922229  0.88827102  1
  Te2-  Te142  1  0.75774858  0.24615425  0.88058887  1
  Te2-  Te143  1  0.75105367  0.74634961  0.88546218  1
  Te2-  Te144  1  0.32618469  0.41358139  0.21522650  1
  Te2-  Te145  1  0.32615031  0.91635292  0.21817861  1
  Te2-  Te146  1  0.83455388  0.42064853  0.21281034  1
  Te2-  Te147  1  0.82780645  0.91838470  0.21660928  1
  Te2-  Te148  1  0.08664732  0.17293645  0.21969032  1
  Te2-  Te149  1  0.09159195  0.67947326  0.21821890  1
  Te2-  Te150  1  0.58579299  0.17187674  0.21468638  1
  Te2-  Te151  1  0.58836021  0.68066579  0.21503723  1
  Te2-  Te152  1  0.08788425  0.41380189  0.21619754  1
  Te2-  Te153  1  0.08992189  0.91782527  0.21729112  1
  Te2-  Te154  1  0.58722855  0.42081626  0.21201984  1
  Te2-  Te155  1  0.58972224  0.91663618  0.21758024  1
  Te2-  Te156  1  0.15500923  0.07367530  0.55398430  1
  Te2-  Te157  1  0.15586486  0.57488508  0.55564509  1
  Te2-  Te158  1  0.66002913  0.07972930  0.55041559  1
  Te2-  Te159  1  0.66046464  0.58004794  0.54683061  1
  Te2-  Te160  1  0.41274684  0.33402402  0.55058293  1
  Te2-  Te161  1  0.41342417  0.83416470  0.55065849  1
  Te2-  Te162  1  0.91793761  0.33294304  0.54614306  1
  Te2-  Te163  1  0.91983266  0.83414038  0.54768002  1
  Te2-  Te164  1  0.41639878  0.08065145  0.54886641  1
  Te2-  Te165  1  0.41685409  0.58054879  0.55543029  1
  Te2-  Te166  1  0.91514139  0.07174016  0.54962075  1
  Te2-  Te167  1  0.91690287  0.57270065  0.54925072  1
  Te2-  Te168  1  -0.00124201  -0.00083330  0.88346158  1
  Te2-  Te169  1  -0.00238137  0.49768357  0.88235065  1
  Te2-  Te170  1  0.50065534  0.00100720  0.88180639  1
  Te2-  Te171  1  0.50108851  0.49909076  0.88131385  1
  Te2-  Te172  1  0.33517199  0.17038298  0.21544714  1
  Te2-  Te173  1  0.33455954  0.66843706  0.21382151  1
  Te2-  Te174  1  0.83526685  0.16984747  0.21503399  1
  Te2-  Te175  1  0.83375477  0.66842286  0.21477346  1
  Te2-  Te176  1  0.16462049  0.33167242  0.55109258  1
  Te2-  Te177  1  0.16397810  0.83203016  0.55057647  1
  Te2-  Te178  1  0.66582967  0.33388811  0.54681014  1
  Te2-  Te179  1  0.66646222  0.83294798  0.54939479  1
  Te2-  Te180  1  0.32208458  0.41127972  0.70832350  1
  Te2-  Te181  1  0.32646968  0.91337971  0.71290413  1
  Te2-  Te182  1  0.82856044  0.41218227  0.70879143  1
  Te2-  Te183  1  0.82700654  0.90949505  0.71203828  1
  Te2-  Te184  1  0.08218898  0.17007782  0.70958321  1
  Te2-  Te185  1  0.08328781  0.67299830  0.71377741  1
  Te2-  Te186  1  0.58450923  0.17170974  0.70702725  1
  Te2-  Te187  1  0.58696614  0.67220444  0.71130948  1
  Te2-  Te188  1  0.08327712  0.41088153  0.70937300  1
  Te2-  Te189  1  0.08236041  0.90867835  0.71297405  1
  Te2-  Te190  1  0.58423389  0.41338586  0.70696183  1
  Te2-  Te191  1  0.58443014  0.91086049  0.71040677  1
  Te2-  Te192  1  0.16156440  0.08177260  0.04587470  1
  Te2-  Te193  1  0.15713116  0.57661555  0.04065800  1
  Te2-  Te194  1  0.66273726  0.08105105  0.04452754  1
  Te2-  Te195  1  0.66234026  0.57810419  0.04009039  1
  Te2-  Te196  1  0.42205809  0.33792443  0.04245759  1
  Te2-  Te197  1  0.42081544  0.84227364  0.04290046  1
  Te2-  Te198  1  0.92013970  0.33808467  0.04265178  1
  Te2-  Te199  1  0.92122487  0.84293616  0.04289172  1
  Te2-  Te200  1  0.41912712  0.08075940  0.04490607  1
  Te2-  Te201  1  0.42306638  0.57960883  0.03936509  1
  Te2-  Te202  1  0.92193472  0.08299434  0.04463410  1
  Te2-  Te203  1  0.91664850  0.57814864  0.04111535  1
  Te2-  Te204  1  0.49514842  0.25060032  0.37732166  1
  Te2-  Te205  1  0.49348778  0.74837725  0.38104683  1
  Te2-  Te206  1  0.99482384  0.24893228  0.37728202  1
  Te2-  Te207  1  0.99342548  0.74704548  0.37677786  1
  Te2-  Te208  1  0.25206641  0.00464424  0.38034357  1
  Te2-  Te209  1  0.25407623  0.50622101  0.38282420  1
  Te2-  Te210  1  0.75117066  0.00677321  0.37863479  1
  Te2-  Te211  1  0.75284681  0.50729617  0.37573624  1
  Te2-  Te212  1  0.25539076  0.24948938  0.37902088  1
  Te2-  Te213  1  0.25568153  0.74840883  0.38014751  1
  Te2-  Te214  1  0.75245315  0.24994143  0.37636207  1
  Te2-  Te215  1  0.75148920  0.74905036  0.37763674  1
