# generated using pymatgen
data_Ti(CuTe)4
_symmetry_space_group_name_H-M   'P 1'
_cell_length_a   16.89455351
_cell_length_b   16.89250715
_cell_length_c   20.71513499
_cell_angle_alpha   89.92161029
_cell_angle_beta   90.05857228
_cell_angle_gamma   120.00949265
_symmetry_Int_Tables_number   1
_chemical_formula_structural   Ti(CuTe)4
_chemical_formula_sum   'Ti24 Cu96 Te96'
_cell_volume   5119.37849505
_cell_formula_units_Z   24
loop_
 _symmetry_equiv_pos_site_id
 _symmetry_equiv_pos_as_xyz
  1  'x, y, z'
loop_
 _atom_type_symbol
 _atom_type_oxidation_number
  Ti4+  4.0
  Cu+  1.0
  Te2-  -2.0
loop_
 _atom_site_type_symbol
 _atom_site_label
 _atom_site_symmetry_multiplicity
 _atom_site_fract_x
 _atom_site_fract_y
 _atom_site_fract_z
 _atom_site_occupancy
  Ti4+  Ti0  1  -0.00343877  -0.00081146  0.25973979  1
  Ti4+  Ti1  1  0.00066772  0.50248843  0.26256887  1
  Ti4+  Ti2  1  0.49776308  0.00001142  0.25700306  1
  Ti4+  Ti3  1  0.50017068  0.50142987  0.25502130  1
  Ti4+  Ti4  1  0.33221488  0.16499996  0.59002839  1
  Ti4+  Ti5  1  0.33482017  0.66811490  0.59041544  1
  Ti4+  Ti6  1  0.83339715  0.16363301  0.58853522  1
  Ti4+  Ti7  1  0.83495431  0.66501394  0.59149583  1
  Ti4+  Ti8  1  0.16459872  0.33501011  0.92271672  1
  Ti4+  Ti9  1  0.16777712  0.83589592  0.92750466  1
  Ti4+  Ti10  1  0.66644492  0.33417674  0.92228845  1
  Ti4+  Ti11  1  0.66790817  0.83374186  0.92308036  1
  Ti4+  Ti12  1  -0.00050452  -0.00073985  0.75638361  1
  Ti4+  Ti13  1  0.00153492  0.49774594  0.75636313  1
  Ti4+  Ti14  1  0.49937338  0.00025251  0.75599773  1
  Ti4+  Ti15  1  0.50234814  0.50086248  0.75337856  1
  Ti4+  Ti16  1  0.33436780  0.16813121  0.08758212  1
  Ti4+  Ti17  1  0.33307177  0.66789227  0.08938017  1
  Ti4+  Ti18  1  0.83407772  0.16684678  0.09125830  1
  Ti4+  Ti19  1  0.83232675  0.66692829  0.09004380  1
  Ti4+  Ti20  1  0.16695418  0.33136847  0.41995508  1
  Ti4+  Ti21  1  0.16621946  0.83302271  0.42123989  1
  Ti4+  Ti22  1  0.66640501  0.33275339  0.42036846  1
  Ti4+  Ti23  1  0.66518023  0.83324539  0.42232592  1
  Cu+  Cu24  1  0.23699093  0.76067289  0.14372065  1
  Cu+  Cu25  1  0.73799922  0.76316606  0.14030645  1
  Cu+  Cu26  1  0.07938141  0.14799198  0.47483469  1
  Cu+  Cu27  1  0.90437702  0.09642508  0.80733842  1
  Cu+  Cu28  1  0.40709712  0.59429660  0.80672101  1
  Cu+  Cu29  1  0.84755765  0.91847933  0.47766420  1
  Cu+  Cu30  1  0.84401321  0.42067572  0.48082735  1
  Cu+  Cu31  1  0.08134588  0.42040461  0.48133994  1
  Cu+  Cu32  1  0.69000102  0.59428011  0.80795764  1
  Cu+  Cu33  1  0.07933462  0.65571836  0.48182617  1
  Cu+  Cu34  1  0.40336231  0.09471165  0.80719120  1
  Cu+  Cu35  1  0.56994354  0.92797436  0.47101747  1
  Cu+  Cu36  1  0.16544716  0.08465005  0.17262843  1
  Cu+  Cu37  1  0.16401975  0.58708618  0.17423822  1
  Cu+  Cu38  1  0.66406928  0.08103499  0.17277038  1
  Cu+  Cu39  1  0.66319430  0.58746069  0.16963575  1
  Cu+  Cu40  1  0.41886794  0.33711088  0.16877350  1
  Cu+  Cu41  1  0.41319389  0.83630172  0.17116625  1
  Cu+  Cu42  1  0.91705420  0.33573675  0.17650202  1
  Cu+  Cu43  1  0.91077325  0.83554650  0.17272898  1
  Cu+  Cu44  1  0.41830348  0.08285444  0.16922540  1
  Cu+  Cu45  1  0.41870654  0.58166878  0.16957413  1
  Cu+  Cu46  1  0.91745424  0.08122470  0.17411995  1
  Cu+  Cu47  1  0.91843476  0.58216812  0.17432078  1
  Cu+  Cu48  1  0.49621438  0.24579805  0.50340257  1
  Cu+  Cu49  1  0.49778781  0.75390659  0.50439653  1
  Cu+  Cu50  1  0.99651301  0.24279792  0.49992650  1
  Cu+  Cu51  1  0.99520487  0.74558575  0.50285745  1
  Cu+  Cu52  1  0.25265195  0.00315920  0.50299028  1
  Cu+  Cu53  1  0.25435633  0.50423288  0.50305603  1
  Cu+  Cu54  1  0.75002193  0.00046976  0.50151230  1
  Cu+  Cu55  1  0.75233413  0.50208602  0.50391172  1
  Cu+  Cu56  1  0.25087447  0.24263791  0.50244323  1
  Cu+  Cu57  1  0.25305126  0.74691091  0.50244128  1
  Cu+  Cu58  1  0.75298247  0.24705284  0.50075588  1
  Cu+  Cu59  1  0.75340839  0.74739552  0.50618193  1
  Cu+  Cu60  1  0.33136077  0.42086958  0.83556814  1
  Cu+  Cu61  1  0.33147585  0.92009853  0.84015256  1
  Cu+  Cu62  1  0.83169037  0.41397918  0.83733812  1
  Cu+  Cu63  1  0.83107845  0.91868399  0.83681811  1
  Cu+  Cu64  1  0.07796780  0.16832509  0.83728675  1
  Cu+  Cu65  1  0.08552506  0.66747191  0.84196331  1
  Cu+  Cu66  1  0.57989850  0.16857751  0.83661135  1
  Cu+  Cu67  1  0.58679815  0.66884674  0.83519921  1
  Cu+  Cu68  1  0.08468385  0.41287830  0.83673070  1
  Cu+  Cu69  1  0.08546949  0.91471430  0.84021360  1
  Cu+  Cu70  1  0.59182445  0.41901973  0.83397874  1
  Cu+  Cu71  1  0.58600223  0.91562528  0.83685999  1
  Cu+  Cu72  1  0.16793143  0.08155143  0.67569895  1
  Cu+  Cu73  1  0.16902478  0.58214284  0.67760091  1
  Cu+  Cu74  1  0.66742383  0.08130992  0.67363438  1
  Cu+  Cu75  1  0.67255886  0.58405207  0.67810956  1
  Cu+  Cu76  1  0.41661463  0.33001512  0.67189505  1
  Cu+  Cu77  1  0.41594642  0.83209094  0.67586642  1
  Cu+  Cu78  1  0.91950676  0.33096935  0.67572029  1
  Cu+  Cu79  1  0.91772789  0.82971633  0.67693563  1
  Cu+  Cu80  1  0.41385949  0.08399097  0.67850982  1
  Cu+  Cu81  1  0.41669529  0.58600068  0.67671802  1
  Cu+  Cu82  1  0.91478136  0.08174132  0.67800050  1
  Cu+  Cu83  1  0.91804073  0.58208611  0.67760869  1
  Cu+  Cu84  1  0.00069167  0.25111339  0.00994574  1
  Cu+  Cu85  1  0.00270341  0.75008508  0.01156396  1
  Cu+  Cu86  1  0.50196116  0.25193231  0.00560512  1
  Cu+  Cu87  1  0.50148217  0.74917845  0.00771567  1
  Cu+  Cu88  1  0.24837761  0.49958895  0.00783917  1
  Cu+  Cu89  1  0.25064487  1.00020782  0.01100920  1
  Cu+  Cu90  1  0.75041148  0.49817176  0.00817835  1
  Cu+  Cu91  1  0.75283391  1.00003703  0.00982362  1
  Cu+  Cu92  1  0.24699136  0.25293489  0.00508509  1
  Cu+  Cu93  1  0.24863436  0.75377988  0.01412712  1
  Cu+  Cu94  1  0.74898119  0.25208324  0.00766515  1
  Cu+  Cu95  1  0.74871288  0.75132091  0.01088014  1
  Cu+  Cu96  1  0.33739068  0.41645114  0.33828616  1
  Cu+  Cu97  1  0.33354701  0.91753420  0.34130749  1
  Cu+  Cu98  1  0.83683888  0.41958585  0.34959880  1
  Cu+  Cu99  1  0.83330931  0.91626989  0.34762886  1
  Cu+  Cu100  1  0.08192110  0.16243518  0.34618103  1
  Cu+  Cu101  1  0.08273496  0.66525731  0.34971173  1
  Cu+  Cu102  1  0.58094982  0.16441191  0.33973894  1
  Cu+  Cu103  1  0.58119305  0.66344025  0.34033054  1
  Cu+  Cu104  1  0.08407699  0.42017257  0.34832845  1
  Cu+  Cu105  1  0.08120184  0.91797636  0.34124403  1
  Cu+  Cu106  1  0.58108757  0.41788000  0.33762198  1
  Cu+  Cu107  1  0.57675666  0.91654235  0.34338084  1
  Cu+  Cu108  1  0.00369895  0.00021947  0.11757770  1
  Cu+  Cu109  1  -0.00118412  0.49691418  0.12007567  1
  Cu+  Cu110  1  0.50341371  0.00180394  0.11425051  1
  Cu+  Cu111  1  0.49962521  0.49802443  0.11118046  1
  Cu+  Cu112  1  0.33717435  0.16585607  0.44481786  1
  Cu+  Cu113  1  0.33570309  0.66500188  0.44571618  1
  Cu+  Cu114  1  0.83236772  0.16525447  0.44307156  1
  Cu+  Cu115  1  0.83012331  0.66467261  0.44708077  1
  Cu+  Cu116  1  0.17092614  0.32995354  0.77970772  1
  Cu+  Cu117  1  0.16518077  0.82891925  0.78623497  1
  Cu+  Cu118  1  0.66950506  0.33014995  0.77909286  1
  Cu+  Cu119  1  0.66617194  0.83355148  0.77938361  1
  Te2-  Te120  1  -0.00078442  -0.00298056  0.39249738  1
  Te2-  Te121  1  0.00124084  0.50063893  0.39661288  1
  Te2-  Te122  1  0.49650411  0.00217255  0.38806850  1
  Te2-  Te123  1  0.50017937  0.49947015  0.38448107  1
  Te2-  Te124  1  0.33161941  0.16836438  0.72073248  1
  Te2-  Te125  1  0.33345904  0.66836976  0.72058367  1
  Te2-  Te126  1  0.83154354  0.16598021  0.71828482  1
  Te2-  Te127  1  0.83809221  0.66627481  0.72171994  1
  Te2-  Te128  1  0.16605606  0.33508705  0.05148113  1
  Te2-  Te129  1  0.16583792  0.83681168  0.05810027  1
  Te2-  Te130  1  0.66567987  0.33339651  0.05106272  1
  Te2-  Te131  1  0.66558967  0.83507408  0.05310868  1
  Te2-  Te132  1  0.49307520  0.25192321  0.87990462  1
  Te2-  Te133  1  0.49524962  0.74772661  0.88158885  1
  Te2-  Te134  1  0.98914422  0.24790433  0.88404088  1
  Te2-  Te135  1  0.99651100  0.74744220  0.88551120  1
  Te2-  Te136  1  0.25219732  0.00992490  0.88524064  1
  Te2-  Te137  1  0.25139201  0.50977217  0.88215546  1
  Te2-  Te138  1  0.75217003  0.00784744  0.88363770  1
  Te2-  Te139  1  0.75923389  0.50917987  0.88239114  1
  Te2-  Te140  1  0.24930819  0.25043668  0.87827001  1
  Te2-  Te141  1  0.25421147  0.75182819  0.88650349  1
  Te2-  Te142  1  0.74904550  0.24589521  0.88125899  1
  Te2-  Te143  1  0.75653112  0.74997462  0.88320626  1
  Te2-  Te144  1  0.32815915  0.41411603  0.21312618  1
  Te2-  Te145  1  0.32396055  0.91635081  0.21602461  1
  Te2-  Te146  1  0.82978899  0.41629566  0.22203786  1
  Te2-  Te147  1  0.82250784  0.91475875  0.22043794  1
  Te2-  Te148  1  0.08453623  0.17054923  0.21963888  1
  Te2-  Te149  1  0.08451501  0.67573379  0.22197586  1
  Te2-  Te150  1  0.58514787  0.17108063  0.21439124  1
  Te2-  Te151  1  0.58468143  0.67744935  0.21532569  1
  Te2-  Te152  1  0.08651514  0.41884264  0.22008010  1
  Te2-  Te153  1  0.08080213  0.91439449  0.21508865  1
  Te2-  Te154  1  0.58752584  0.41811367  0.21189759  1
  Te2-  Te155  1  0.58116108  0.91226204  0.21668912  1
  Te2-  Te156  1  0.15748662  0.07365541  0.55017482  1
  Te2-  Te157  1  0.15812510  0.57751468  0.55168896  1
  Te2-  Te158  1  0.66096523  0.08095014  0.54756435  1
  Te2-  Te159  1  0.66460278  0.58035059  0.55076592  1
  Te2-  Te160  1  0.41766841  0.33601818  0.54629447  1
  Te2-  Te161  1  0.41748330  0.84201265  0.55007648  1
  Te2-  Te162  1  0.92273726  0.33898937  0.54951501  1
  Te2-  Te163  1  0.92412862  0.83863233  0.55115845  1
  Te2-  Te164  1  0.41833550  0.07914953  0.55115150  1
  Te2-  Te165  1  0.42095559  0.58452225  0.54898590  1
  Te2-  Te166  1  0.92050490  0.07589202  0.55017139  1
  Te2-  Te167  1  0.92262758  0.57656371  0.55174444  1
  Te2-  Te168  1  -0.00010987  -0.00070655  0.88309448  1
  Te2-  Te169  1  0.00015649  0.49744678  0.88270052  1
  Te2-  Te170  1  0.50196695  0.00014177  0.88279783  1
  Te2-  Te171  1  0.50127151  0.49882784  0.88066599  1
  Te2-  Te172  1  0.33508458  0.16878784  0.21381499  1
  Te2-  Te173  1  0.33473542  0.66668740  0.21610967  1
  Te2-  Te174  1  0.83228357  0.16584208  0.21758779  1
  Te2-  Te175  1  0.83159950  0.66569362  0.21677206  1
  Te2-  Te176  1  0.16798805  0.33181257  0.54768454  1
  Te2-  Te177  1  0.16703349  0.83235865  0.54822396  1
  Te2-  Te178  1  0.66634205  0.33051552  0.54748718  1
  Te2-  Te179  1  0.66717414  0.83168734  0.54976241  1
  Te2-  Te180  1  0.32971353  0.41321033  0.70791513  1
  Te2-  Te181  1  0.32621407  0.91184433  0.71280313  1
  Te2-  Te182  1  0.82985326  0.41162353  0.71075353  1
  Te2-  Te183  1  0.82718668  0.90974666  0.71014563  1
  Te2-  Te184  1  0.08708365  0.17111258  0.70968918  1
  Te2-  Te185  1  0.08774411  0.67064849  0.71446497  1
  Te2-  Te186  1  0.58729812  0.17147541  0.70887898  1
  Te2-  Te187  1  0.58943444  0.67420716  0.70756211  1
  Te2-  Te188  1  0.08847887  0.41200948  0.71115621  1
  Te2-  Te189  1  0.08666190  0.91293084  0.71407025  1
  Te2-  Te190  1  0.58612790  0.41138637  0.70786633  1
  Te2-  Te191  1  0.58520179  0.91342365  0.71086232  1
  Te2-  Te192  1  0.16222210  0.08330623  0.04524362  1
  Te2-  Te193  1  0.15981620  0.58063592  0.04655326  1
  Te2-  Te194  1  0.66385258  0.08189288  0.04549782  1
  Te2-  Te195  1  0.66096187  0.57919553  0.04252760  1
  Te2-  Te196  1  0.41782048  0.33843605  0.04159831  1
  Te2-  Te197  1  0.42216814  0.84027478  0.04389235  1
  Te2-  Te198  1  0.91806539  0.33833902  0.04860011  1
  Te2-  Te199  1  0.92066033  0.83963645  0.04537183  1
  Te2-  Te200  1  0.42123372  0.08261536  0.04348096  1
  Te2-  Te201  1  0.41791044  0.58055291  0.04378451  1
  Te2-  Te202  1  0.92125996  0.08175083  0.04797963  1
  Te2-  Te203  1  0.91916739  0.58038339  0.04818071  1
  Te2-  Te204  1  0.49526060  0.24818888  0.37617789  1
  Te2-  Te205  1  0.49317621  0.74493183  0.37699298  1
  Te2-  Te206  1  0.99236010  0.24621760  0.37343039  1
  Te2-  Te207  1  0.99202936  0.74807487  0.37658888  1
  Te2-  Te208  1  0.25139798  0.00541864  0.37684370  1
  Te2-  Te209  1  0.25688160  0.50525818  0.37611208  1
  Te2-  Te210  1  0.74988495  0.00587704  0.37455126  1
  Te2-  Te211  1  0.75003116  0.50594893  0.37678179  1
  Te2-  Te212  1  0.25518123  0.24676484  0.37553401  1
  Te2-  Te213  1  0.25565953  0.74829683  0.37644377  1
  Te2-  Te214  1  0.75124944  0.24515040  0.37430308  1
  Te2-  Te215  1  0.74959915  0.74420197  0.37857341  1
