# generated using pymatgen
data_Ti(CuTe)4
_symmetry_space_group_name_H-M   'P 1'
_cell_length_a   16.88415050
_cell_length_b   16.88284609
_cell_length_c   20.70354406
_cell_angle_alpha   89.98486732
_cell_angle_beta   89.98585358
_cell_angle_gamma   119.99698591
_symmetry_Int_Tables_number   1
_chemical_formula_structural   Ti(CuTe)4
_chemical_formula_sum   'Ti24 Cu96 Te96'
_cell_volume   5111.08772718
_cell_formula_units_Z   24
loop_
 _symmetry_equiv_pos_site_id
 _symmetry_equiv_pos_as_xyz
  1  'x, y, z'
loop_
 _atom_type_symbol
 _atom_type_oxidation_number
  Ti4+  4.0
  Cu+  1.0
  Te2-  -2.0
loop_
 _atom_site_type_symbol
 _atom_site_label
 _atom_site_symmetry_multiplicity
 _atom_site_fract_x
 _atom_site_fract_y
 _atom_site_fract_z
 _atom_site_occupancy
  Ti4+  Ti0  1  0.00037915  0.00176635  0.25935999  1
  Ti4+  Ti1  1  -0.00073473  0.49773782  0.25877803  1
  Ti4+  Ti2  1  0.49877126  -0.00171324  0.25802255  1
  Ti4+  Ti3  1  0.50117015  0.49846546  0.25954652  1
  Ti4+  Ti4  1  0.33687420  0.16892932  0.59011404  1
  Ti4+  Ti5  1  0.33004408  0.66516954  0.58861792  1
  Ti4+  Ti6  1  0.83614614  0.16417747  0.59154538  1
  Ti4+  Ti7  1  0.83379861  0.66548262  0.58906335  1
  Ti4+  Ti8  1  0.16731883  0.33493189  0.92556068  1
  Ti4+  Ti9  1  0.16682573  0.83741713  0.92400267  1
  Ti4+  Ti10  1  0.66677336  0.33427994  0.92660140  1
  Ti4+  Ti11  1  0.66332032  0.83418135  0.92274099  1
  Ti4+  Ti12  1  0.00188507  0.00067562  0.75520023  1
  Ti4+  Ti13  1  -0.00071553  0.49912371  0.75671331  1
  Ti4+  Ti14  1  0.50012259  -0.00099769  0.75386353  1
  Ti4+  Ti15  1  0.49905623  0.50072768  0.75648764  1
  Ti4+  Ti16  1  0.33269955  0.16758419  0.09024194  1
  Ti4+  Ti17  1  0.33212225  0.66802576  0.09053591  1
  Ti4+  Ti18  1  0.83549074  0.16773311  0.08997772  1
  Ti4+  Ti19  1  0.83068961  0.66528643  0.08928713  1
  Ti4+  Ti20  1  0.16652477  0.33262001  0.42036231  1
  Ti4+  Ti21  1  0.16701793  0.83257284  0.42010197  1
  Ti4+  Ti22  1  0.66643102  0.33331891  0.42119608  1
  Ti4+  Ti23  1  0.66771990  0.83251265  0.42082894  1
  Cu+  Cu24  1  0.85347399  0.92215285  0.47408436  1
  Cu+  Cu25  1  0.02605131  0.26234449  0.14282400  1
  Cu+  Cu26  1  0.90739858  0.09407305  0.81080919  1
  Cu+  Cu27  1  0.57783692  0.42869897  0.47507840  1
  Cu+  Cu28  1  0.07303597  0.41652891  0.47958138  1
  Cu+  Cu29  1  0.19190524  0.09858634  0.80697467  1
  Cu+  Cu30  1  0.07162666  0.64750584  0.47230530  1
  Cu+  Cu31  1  0.35564489  0.92805762  0.47250837  1
  Cu+  Cu32  1  0.34663615  0.42569033  0.47734136  1
  Cu+  Cu33  1  0.40137947  0.59682020  0.80657432  1
  Cu+  Cu34  1  0.08135406  0.15432701  0.47964854  1
  Cu+  Cu35  1  0.73800344  0.47482771  0.14233368  1
  Cu+  Cu36  1  0.16332002  0.08424887  0.17266254  1
  Cu+  Cu37  1  0.16316060  0.58209406  0.17287887  1
  Cu+  Cu38  1  0.66289504  0.08024840  0.17244861  1
  Cu+  Cu39  1  0.66341182  0.57510933  0.17119540  1
  Cu+  Cu40  1  0.41898777  0.33639285  0.17315318  1
  Cu+  Cu41  1  0.41643571  0.83678827  0.17292479  1
  Cu+  Cu42  1  0.92452795  0.33567572  0.17105042  1
  Cu+  Cu43  1  0.91380382  0.83616269  0.17245931  1
  Cu+  Cu44  1  0.41629751  0.08018491  0.17276138  1
  Cu+  Cu45  1  0.41617002  0.58145811  0.17438928  1
  Cu+  Cu46  1  0.92283902  0.08692592  0.17290801  1
  Cu+  Cu47  1  0.91250200  0.57795290  0.17194870  1
  Cu+  Cu48  1  0.49837205  0.25314838  0.50171284  1
  Cu+  Cu49  1  0.49574556  0.74607616  0.50128236  1
  Cu+  Cu50  1  0.99134846  0.24131692  0.50194047  1
  Cu+  Cu51  1  0.99566725  0.74331460  0.50083440  1
  Cu+  Cu52  1  0.25623285  0.00303349  0.50221938  1
  Cu+  Cu53  1  0.25067359  0.50540693  0.50042145  1
  Cu+  Cu54  1  0.75579742  -0.00073185  0.50351692  1
  Cu+  Cu55  1  0.75030378  0.50352161  0.50164296  1
  Cu+  Cu56  1  0.25615267  0.24877981  0.50198334  1
  Cu+  Cu57  1  0.24936516  0.74771030  0.49998155  1
  Cu+  Cu58  1  0.75133712  0.24826826  0.50413546  1
  Cu+  Cu59  1  0.75532272  0.74992648  0.50187979  1
  Cu+  Cu60  1  0.33119697  0.42098353  0.83820064  1
  Cu+  Cu61  1  0.33004833  0.91790440  0.83603280  1
  Cu+  Cu62  1  0.82976399  0.41709536  0.84037791  1
  Cu+  Cu63  1  0.82857245  0.91860134  0.83666897  1
  Cu+  Cu64  1  0.08519630  0.16926823  0.83800287  1
  Cu+  Cu65  1  0.08306733  0.67071823  0.83933294  1
  Cu+  Cu66  1  0.58425209  0.16911203  0.83901210  1
  Cu+  Cu67  1  0.57748588  0.66947966  0.83649807  1
  Cu+  Cu68  1  0.08323499  0.41467208  0.83919491  1
  Cu+  Cu69  1  0.09131761  0.92149735  0.83636154  1
  Cu+  Cu70  1  0.58673082  0.41682794  0.84107114  1
  Cu+  Cu71  1  0.58388217  0.91383207  0.83472798  1
  Cu+  Cu72  1  0.17256035  0.08492100  0.67845703  1
  Cu+  Cu73  1  0.16452959  0.58117052  0.67509196  1
  Cu+  Cu74  1  0.66996566  0.08200064  0.67493534  1
  Cu+  Cu75  1  0.66890313  0.58372408  0.67438037  1
  Cu+  Cu76  1  0.41840717  0.33394764  0.67744085  1
  Cu+  Cu77  1  0.41490369  0.83204962  0.67301913  1
  Cu+  Cu78  1  0.91623251  0.33031268  0.67726113  1
  Cu+  Cu79  1  0.91678213  0.82927272  0.67362752  1
  Cu+  Cu80  1  0.41902342  0.08440656  0.67408014  1
  Cu+  Cu81  1  0.41234410  0.58275130  0.67846274  1
  Cu+  Cu82  1  0.91801620  0.08371728  0.68041296  1
  Cu+  Cu83  1  0.91425176  0.58181890  0.67410392  1
  Cu+  Cu84  1  0.00387520  0.25023101  0.01409480  1
  Cu+  Cu85  1  0.00212265  0.75453146  0.00701849  1
  Cu+  Cu86  1  0.50196498  0.25195053  0.00963705  1
  Cu+  Cu87  1  0.49963287  0.75166029  0.00874501  1
  Cu+  Cu88  1  0.24869070  0.50126704  0.01072423  1
  Cu+  Cu89  1  0.24752176  1.00018590  0.00880256  1
  Cu+  Cu90  1  0.74745417  0.49616106  0.01371155  1
  Cu+  Cu91  1  0.74914010  0.99838571  0.00804601  1
  Cu+  Cu92  1  0.24990379  0.25178546  0.00970429  1
  Cu+  Cu93  1  0.24714951  0.75394367  0.00830216  1
  Cu+  Cu94  1  0.75023731  0.25256134  0.00960308  1
  Cu+  Cu95  1  0.74507498  0.75121019  0.00552816  1
  Cu+  Cu96  1  0.33774686  0.41702216  0.34695279  1
  Cu+  Cu97  1  0.33714507  0.91791511  0.34446542  1
  Cu+  Cu98  1  0.83394510  0.41466322  0.34098542  1
  Cu+  Cu99  1  0.83797195  0.92053821  0.34546650  1
  Cu+  Cu100  1  0.08071313  0.16431343  0.34844473  1
  Cu+  Cu101  1  0.07960371  0.66131061  0.34399465  1
  Cu+  Cu102  1  0.58047852  0.16167177  0.34102852  1
  Cu+  Cu103  1  0.58373904  0.66386800  0.33978394  1
  Cu+  Cu104  1  0.08238517  0.41706776  0.34806547  1
  Cu+  Cu105  1  0.08247622  0.91807895  0.33973639  1
  Cu+  Cu106  1  0.58236865  0.41718217  0.34681041  1
  Cu+  Cu107  1  0.58084028  0.91602988  0.34059425  1
  Cu+  Cu108  1  -0.00124007  -0.00373877  0.11601343  1
  Cu+  Cu109  1  0.00028555  0.50364631  0.11539904  1
  Cu+  Cu110  1  0.50097701  0.00186531  0.11547413  1
  Cu+  Cu111  1  0.49871601  0.50339223  0.11667287  1
  Cu+  Cu112  1  0.33440168  0.16367835  0.44494745  1
  Cu+  Cu113  1  0.33650078  0.67054329  0.44270797  1
  Cu+  Cu114  1  0.82294320  0.16108784  0.44803802  1
  Cu+  Cu115  1  0.83344592  0.66615728  0.44341917  1
  Cu+  Cu116  1  0.16700610  0.33443567  0.78221290  1
  Cu+  Cu117  1  0.16708630  0.83022084  0.78043762  1
  Cu+  Cu118  1  0.66628843  0.33154421  0.78434444  1
  Cu+  Cu119  1  0.66775938  0.83120362  0.77822263  1
  Te2-  Te120  1  0.00300817  -0.00086162  0.39192601  1
  Te2-  Te121  1  -0.00412459  0.49625644  0.39078823  1
  Te2-  Te122  1  0.50250522  -0.00039742  0.38947943  1
  Te2-  Te123  1  0.50266182  0.50316931  0.39194415  1
  Te2-  Te124  1  0.33935134  0.16891505  0.72017296  1
  Te2-  Te125  1  0.32939394  0.66771376  0.71852938  1
  Te2-  Te126  1  0.83363651  0.16581481  0.72170365  1
  Te2-  Te127  1  0.83330771  0.66537131  0.71769528  1
  Te2-  Te128  1  0.17080797  0.33662655  0.05581278  1
  Te2-  Te129  1  0.16523848  0.83598681  0.05308068  1
  Te2-  Te130  1  0.66497175  0.33011887  0.05762725  1
  Te2-  Te131  1  0.66457916  0.83381354  0.05151282  1
  Te2-  Te132  1  0.49561227  0.24856084  0.88374751  1
  Te2-  Te133  1  0.48845947  0.74897022  0.88266400  1
  Te2-  Te134  1  0.99411563  0.24807223  0.88608978  1
  Te2-  Te135  1  0.99599737  0.75304326  0.88099919  1
  Te2-  Te136  1  0.25881533  0.01299344  0.88299398  1
  Te2-  Te137  1  0.25004938  0.50847795  0.88446739  1
  Te2-  Te138  1  0.74983138  0.00904046  0.88221317  1
  Te2-  Te139  1  0.75304597  0.50674775  0.88681105  1
  Te2-  Te140  1  0.25623152  0.25177413  0.88329863  1
  Te2-  Te141  1  0.25168750  0.75095230  0.88206389  1
  Te2-  Te142  1  0.75230473  0.24879339  0.88373417  1
  Te2-  Te143  1  0.74780477  0.74882472  0.87908842  1
  Te2-  Te144  1  0.32987009  0.41360988  0.21947161  1
  Te2-  Te145  1  0.32642789  0.91337146  0.21805670  1
  Te2-  Te146  1  0.82724680  0.40724280  0.21534261  1
  Te2-  Te147  1  0.82968921  0.91890111  0.21841530  1
  Te2-  Te148  1  0.09051763  0.17668295  0.22071798  1
  Te2-  Te149  1  0.08103150  0.66782798  0.21686652  1
  Te2-  Te150  1  0.58455561  0.16983945  0.21569946  1
  Te2-  Te151  1  0.58666923  0.66765992  0.21419673  1
  Te2-  Te152  1  0.09138500  0.41572266  0.21982238  1
  Te2-  Te153  1  0.08333530  0.91511410  0.21417926  1
  Te2-  Te154  1  0.58498067  0.40790431  0.21967367  1
  Te2-  Te155  1  0.58454010  0.91242917  0.21537978  1
  Te2-  Te156  1  0.16439297  0.07879447  0.55055840  1
  Te2-  Te157  1  0.15442492  0.57716379  0.54892825  1
  Te2-  Te158  1  0.66677996  0.07942636  0.54828553  1
  Te2-  Te159  1  0.66060672  0.58337360  0.54840287  1
  Te2-  Te160  1  0.42317777  0.34547423  0.55113867  1
  Te2-  Te161  1  0.41921993  0.83730160  0.54668831  1
  Te2-  Te162  1  0.91808485  0.33729944  0.55100211  1
  Te2-  Te163  1  0.92514469  0.83883578  0.54778541  1
  Te2-  Te164  1  0.42548426  0.08544865  0.54796468  1
  Te2-  Te165  1  0.41907673  0.58067903  0.55067186  1
  Te2-  Te166  1  0.92430682  0.07558933  0.55261804  1
  Te2-  Te167  1  0.91650319  0.57475802  0.54818219  1
  Te2-  Te168  1  -0.00182236  -0.00150927  0.88237169  1
  Te2-  Te169  1  -0.00040824  0.50136185  0.88285847  1
  Te2-  Te170  1  0.49929237  -0.00086853  0.88004039  1
  Te2-  Te171  1  0.50035594  0.50127986  0.88317062  1
  Te2-  Te172  1  0.33287080  0.16609960  0.21639190  1
  Te2-  Te173  1  0.33242285  0.66724070  0.21679134  1
  Te2-  Te174  1  0.83217808  0.16601441  0.21672966  1
  Te2-  Te175  1  0.83232678  0.66705001  0.21629211  1
  Te2-  Te176  1  0.16601312  0.33231457  0.54887415  1
  Te2-  Te177  1  0.16565003  0.83321795  0.54772336  1
  Te2-  Te178  1  0.66772217  0.33373182  0.54823787  1
  Te2-  Te179  1  0.66492603  0.82955560  0.54770041  1
  Te2-  Te180  1  0.32577883  0.41139998  0.71122607  1
  Te2-  Te181  1  0.32760402  0.91447205  0.70938655  1
  Te2-  Te182  1  0.82753530  0.41256092  0.71318538  1
  Te2-  Te183  1  0.82889722  0.91108181  0.70943425  1
  Te2-  Te184  1  0.09032666  0.17486878  0.70999514  1
  Te2-  Te185  1  0.08380304  0.67025746  0.71167428  1
  Te2-  Te186  1  0.58879694  0.17171500  0.71143337  1
  Te2-  Te187  1  0.58574290  0.67161965  0.70894011  1
  Te2-  Te188  1  0.08567627  0.41250179  0.71281909  1
  Te2-  Te189  1  0.08667886  0.91239509  0.70975829  1
  Te2-  Te190  1  0.58748444  0.41562734  0.71435677  1
  Te2-  Te191  1  0.58518600  0.91146596  0.70897753  1
  Te2-  Te192  1  0.16033626  0.08226613  0.04624461  1
  Te2-  Te193  1  0.16058435  0.58353084  0.04606475  1
  Te2-  Te194  1  0.66340293  0.08227630  0.04591779  1
  Te2-  Te195  1  0.65879518  0.58124933  0.04375635  1
  Te2-  Te196  1  0.42013536  0.34013593  0.04682834  1
  Te2-  Te197  1  0.41722947  0.83929753  0.04623727  1
  Te2-  Te198  1  0.92067597  0.34073921  0.04451401  1
  Te2-  Te199  1  0.91467359  0.83674138  0.04505084  1
  Te2-  Te200  1  0.41798904  0.08139320  0.04597479  1
  Te2-  Te201  1  0.41840933  0.58235280  0.04687649  1
  Te2-  Te202  1  0.91861235  0.07785634  0.04549684  1
  Te2-  Te203  1  0.92089177  0.58364214  0.04413392  1
  Te2-  Te204  1  0.49336296  0.24426617  0.37568270  1
  Te2-  Te205  1  0.49580653  0.74597041  0.37526785  1
  Te2-  Te206  1  0.98947162  0.24492948  0.37605792  1
  Te2-  Te207  1  0.99369046  0.74792853  0.37418592  1
  Te2-  Te208  1  0.25225327  0.00579940  0.37514316  1
  Te2-  Te209  1  0.25541924  0.50779801  0.37412946  1
  Te2-  Te210  1  0.75083710  0.00546176  0.37645799  1
  Te2-  Te211  1  0.75563370  0.50630681  0.37476157  1
  Te2-  Te212  1  0.25396146  0.24459731  0.37531057  1
  Te2-  Te213  1  0.25240852  0.74478245  0.37300749  1
  Te2-  Te214  1  0.75055261  0.24513790  0.37741111  1
  Te2-  Te215  1  0.75394911  0.74653303  0.37460494  1
