# generated using pymatgen
data_Ti(CuTe)4
_symmetry_space_group_name_H-M   'P 1'
_cell_length_a   16.88847353
_cell_length_b   16.89027249
_cell_length_c   20.70879438
_cell_angle_alpha   89.98531735
_cell_angle_beta   90.02920363
_cell_angle_gamma   120.00613097
_symmetry_Int_Tables_number   1
_chemical_formula_structural   Ti(CuTe)4
_chemical_formula_sum   'Ti24 Cu96 Te96'
_cell_volume   5115.47081119
_cell_formula_units_Z   24
loop_
 _symmetry_equiv_pos_site_id
 _symmetry_equiv_pos_as_xyz
  1  'x, y, z'
loop_
 _atom_type_symbol
 _atom_type_oxidation_number
  Ti4+  4.0
  Cu+  1.0
  Te2-  -2.0
loop_
 _atom_site_type_symbol
 _atom_site_label
 _atom_site_symmetry_multiplicity
 _atom_site_fract_x
 _atom_site_fract_y
 _atom_site_fract_z
 _atom_site_occupancy
  Ti4+  Ti0  1  0.00494954  0.00100242  0.25415366  1
  Ti4+  Ti1  1  -0.00178941  0.49611321  0.25809724  1
  Ti4+  Ti2  1  0.50161107  0.00067320  0.25674817  1
  Ti4+  Ti3  1  0.50504421  0.50566025  0.25645603  1
  Ti4+  Ti4  1  0.33513749  0.16983025  0.59172724  1
  Ti4+  Ti5  1  0.32888793  0.66558750  0.58992420  1
  Ti4+  Ti6  1  0.83299503  0.16566179  0.59301208  1
  Ti4+  Ti7  1  0.83204812  0.66637982  0.59179963  1
  Ti4+  Ti8  1  0.16526569  0.33089832  0.92364901  1
  Ti4+  Ti9  1  0.16554342  0.83204429  0.92648231  1
  Ti4+  Ti10  1  0.66391602  0.33167144  0.92784543  1
  Ti4+  Ti11  1  0.66522218  0.83415280  0.92458217  1
  Ti4+  Ti12  1  -0.00069376  0.00136637  0.75624347  1
  Ti4+  Ti13  1  -0.00044823  0.50061353  0.75852658  1
  Ti4+  Ti14  1  0.49952904  -0.00043445  0.75584349  1
  Ti4+  Ti15  1  0.49929449  0.49866342  0.75705952  1
  Ti4+  Ti16  1  0.33250332  0.16495929  0.08802076  1
  Ti4+  Ti17  1  0.33400816  0.66678319  0.08837856  1
  Ti4+  Ti18  1  0.83472298  0.16730751  0.08816086  1
  Ti4+  Ti19  1  0.83226649  0.66595652  0.08490546  1
  Ti4+  Ti20  1  0.16787918  0.33367017  0.42135938  1
  Ti4+  Ti21  1  0.16746670  0.83182971  0.42183390  1
  Ti4+  Ti22  1  0.66698478  0.33563382  0.42296565  1
  Ti4+  Ti23  1  0.66926470  0.83491741  0.42230567  1
  Cu+  Cu24  1  0.06808288  0.64632362  0.47593785  1
  Cu+  Cu25  1  0.24582186  0.98014469  0.14041797  1
  Cu+  Cu26  1  0.74053131  0.25527975  0.14330268  1
  Cu+  Cu27  1  0.40475925  0.30807110  0.80885562  1
  Cu+  Cu28  1  0.90311299  0.09441270  0.80914962  1
  Cu+  Cu29  1  0.57064245  0.43149693  0.47427283  1
  Cu+  Cu30  1  0.07089314  0.41886311  0.47896345  1
  Cu+  Cu31  1  0.01277191  0.75102210  0.14321232  1
  Cu+  Cu32  1  0.74026685  0.48707562  0.14340037  1
  Cu+  Cu33  1  0.02590946  0.26296233  0.13909788  1
  Cu+  Cu34  1  0.52120573  0.76497055  0.13937438  1
  Cu+  Cu35  1  0.74852752  0.76213305  0.14074386  1
  Cu+  Cu36  1  0.16582045  0.07781343  0.16748022  1
  Cu+  Cu37  1  0.16294645  0.57877519  0.17067374  1
  Cu+  Cu38  1  0.66287335  0.08367798  0.16952418  1
  Cu+  Cu39  1  0.66014190  0.58275459  0.16572779  1
  Cu+  Cu40  1  0.42040349  0.33669554  0.17030785  1
  Cu+  Cu41  1  0.42224630  0.83687793  0.16947613  1
  Cu+  Cu42  1  0.91927523  0.33386183  0.16953276  1
  Cu+  Cu43  1  0.92329831  0.83968855  0.16487113  1
  Cu+  Cu44  1  0.41705617  0.07935953  0.16978399  1
  Cu+  Cu45  1  0.42415049  0.58982008  0.16911662  1
  Cu+  Cu46  1  0.92624365  0.08811519  0.16729659  1
  Cu+  Cu47  1  0.91694147  0.57655854  0.16749442  1
  Cu+  Cu48  1  0.49864524  0.25615771  0.50462076  1
  Cu+  Cu49  1  0.49699990  0.75031482  0.50499901  1
  Cu+  Cu50  1  0.99553752  0.24703710  0.50601207  1
  Cu+  Cu51  1  0.99705788  0.74602871  0.50500978  1
  Cu+  Cu52  1  0.25347725  0.00407859  0.50618375  1
  Cu+  Cu53  1  0.24683996  0.50364248  0.50189229  1
  Cu+  Cu54  1  0.75334119  0.00270089  0.50629027  1
  Cu+  Cu55  1  0.74652433  0.50402023  0.50369965  1
  Cu+  Cu56  1  0.25482583  0.24983029  0.50432804  1
  Cu+  Cu57  1  0.24543052  0.74239711  0.50189495  1
  Cu+  Cu58  1  0.75015730  0.24698992  0.50622499  1
  Cu+  Cu59  1  0.75357818  0.75012024  0.50467003  1
  Cu+  Cu60  1  0.33101438  0.41005564  0.83775796  1
  Cu+  Cu61  1  0.33022439  0.91625160  0.83923912  1
  Cu+  Cu62  1  0.83030077  0.41620348  0.84290480  1
  Cu+  Cu63  1  0.82991957  0.91910944  0.83868814  1
  Cu+  Cu64  1  0.07954442  0.17012999  0.83669652  1
  Cu+  Cu65  1  0.08255607  0.66938609  0.84108108  1
  Cu+  Cu66  1  0.58586488  0.16835142  0.83942932  1
  Cu+  Cu67  1  0.58325705  0.66967800  0.83963375  1
  Cu+  Cu68  1  0.08308272  0.41432315  0.83926521  1
  Cu+  Cu69  1  0.08450871  0.91420479  0.84048483  1
  Cu+  Cu70  1  0.57967230  0.41081397  0.84058122  1
  Cu+  Cu71  1  0.58024394  0.91078118  0.83684288  1
  Cu+  Cu72  1  0.16949434  0.08520946  0.67538098  1
  Cu+  Cu73  1  0.16587632  0.58475966  0.67723134  1
  Cu+  Cu74  1  0.66783088  0.08186928  0.67619381  1
  Cu+  Cu75  1  0.66804451  0.58470931  0.67670042  1
  Cu+  Cu76  1  0.41735547  0.33149998  0.68026462  1
  Cu+  Cu77  1  0.41207674  0.83060750  0.67307681  1
  Cu+  Cu78  1  0.91531834  0.33185573  0.67769798  1
  Cu+  Cu79  1  0.91628868  0.83064822  0.67547626  1
  Cu+  Cu80  1  0.41840247  0.08707805  0.67465455  1
  Cu+  Cu81  1  0.41369674  0.58603201  0.67321072  1
  Cu+  Cu82  1  0.91453314  0.08552719  0.68002507  1
  Cu+  Cu83  1  0.91421426  0.58463703  0.67654927  1
  Cu+  Cu84  1  0.00361206  0.25112078  0.01187100  1
  Cu+  Cu85  1  0.00252914  0.75034885  0.01286640  1
  Cu+  Cu86  1  0.49987685  0.24966279  0.00961095  1
  Cu+  Cu87  1  0.50321529  0.75125513  0.01198266  1
  Cu+  Cu88  1  0.24823439  0.49684334  0.00610400  1
  Cu+  Cu89  1  0.24617165  0.99378431  0.01278366  1
  Cu+  Cu90  1  0.74594935  0.49499646  0.01343898  1
  Cu+  Cu91  1  0.74889678  0.99943329  0.00674281  1
  Cu+  Cu92  1  0.24847992  0.24979535  0.00708366  1
  Cu+  Cu93  1  0.24763852  0.74847322  0.00763960  1
  Cu+  Cu94  1  0.74848875  0.25318721  0.01464321  1
  Cu+  Cu95  1  0.74645491  0.75103776  0.01014432  1
  Cu+  Cu96  1  0.33804473  0.41912886  0.33983560  1
  Cu+  Cu97  1  0.33737851  0.91772492  0.34174061  1
  Cu+  Cu98  1  0.83251440  0.41482930  0.34355600  1
  Cu+  Cu99  1  0.83966735  0.92019161  0.33911513  1
  Cu+  Cu100  1  0.08734587  0.16616720  0.33970546  1
  Cu+  Cu101  1  0.08194849  0.66248362  0.34688893  1
  Cu+  Cu102  1  0.58259100  0.16563511  0.34195582  1
  Cu+  Cu103  1  0.58812216  0.67027341  0.34193901  1
  Cu+  Cu104  1  0.08151684  0.41402117  0.34786863  1
  Cu+  Cu105  1  0.08586590  0.91718624  0.34090300  1
  Cu+  Cu106  1  0.58478795  0.42183506  0.34593288  1
  Cu+  Cu107  1  0.58585834  0.92061562  0.34164764  1
  Cu+  Cu108  1  0.00045610  0.00220758  0.10847346  1
  Cu+  Cu109  1  0.00342151  0.49962158  0.11243061  1
  Cu+  Cu110  1  0.49999531  -0.00084302  0.11180817  1
  Cu+  Cu111  1  0.49036698  0.49473578  0.11265663  1
  Cu+  Cu112  1  0.33403713  0.16411504  0.44851178  1
  Cu+  Cu113  1  0.33802807  0.66776324  0.44589189  1
  Cu+  Cu114  1  0.83050608  0.16445844  0.44985443  1
  Cu+  Cu115  1  0.83558259  0.66992321  0.44742631  1
  Cu+  Cu116  1  0.16897783  0.33752093  0.78045898  1
  Cu+  Cu117  1  0.16764060  0.83352383  0.78388565  1
  Cu+  Cu118  1  0.66881507  0.33364298  0.78551252  1
  Cu+  Cu119  1  0.66560389  0.83084775  0.78102880  1
  Te2-  Te120  1  0.00440713  0.00108587  0.38247664  1
  Te2-  Te121  1  -0.00372252  0.49569238  0.38970140  1
  Te2-  Te122  1  0.50180985  0.00105304  0.38529869  1
  Te2-  Te123  1  0.50135940  0.50577982  0.38659411  1
  Te2-  Te124  1  0.33297583  0.16461258  0.72222401  1
  Te2-  Te125  1  0.33120597  0.66703113  0.71867406  1
  Te2-  Te126  1  0.83096749  0.16796272  0.72349527  1
  Te2-  Te127  1  0.83235313  0.66697939  0.72066578  1
  Te2-  Te128  1  0.17041146  0.33462644  0.05428978  1
  Te2-  Te129  1  0.16691108  0.82851372  0.05928598  1
  Te2-  Te130  1  0.66156309  0.33110310  0.06027626  1
  Te2-  Te131  1  0.66935182  0.83795535  0.05679438  1
  Te2-  Te132  1  0.49070941  0.24078462  0.88405895  1
  Te2-  Te133  1  0.49314256  0.74601211  0.88530763  1
  Te2-  Te134  1  0.99085303  0.24825050  0.88518601  1
  Te2-  Te135  1  0.99371050  0.74748441  0.88589324  1
  Te2-  Te136  1  0.25125185  0.00370085  0.88595844  1
  Te2-  Te137  1  0.25242596  0.50139862  0.88024327  1
  Te2-  Te138  1  0.74767824  0.00742392  0.88152278  1
  Te2-  Te139  1  0.74782326  0.50218465  0.88602058  1
  Te2-  Te140  1  0.24756059  0.24032998  0.88163356  1
  Te2-  Te141  1  0.25155675  0.74765899  0.88224302  1
  Te2-  Te142  1  0.75171148  0.24839292  0.88728283  1
  Te2-  Te143  1  0.75169865  0.75012855  0.88273686  1
  Te2-  Te144  1  0.33473943  0.42028468  0.21330374  1
  Te2-  Te145  1  0.32843943  0.90953203  0.21576864  1
  Te2-  Te146  1  0.82321340  0.40943184  0.21715037  1
  Te2-  Te147  1  0.83271873  0.91933987  0.21277258  1
  Te2-  Te148  1  0.09483163  0.17460786  0.21362617  1
  Te2-  Te149  1  0.08566777  0.66830483  0.21832002  1
  Te2-  Te150  1  0.58365474  0.17409317  0.21604958  1
  Te2-  Te151  1  0.59330085  0.68179651  0.21585163  1
  Te2-  Te152  1  0.08735697  0.41263323  0.21899100  1
  Te2-  Te153  1  0.09031962  0.90952373  0.21498550  1
  Te2-  Te154  1  0.58714030  0.41481386  0.21794811  1
  Te2-  Te155  1  0.59218325  0.91805989  0.21557441  1
  Te2-  Te156  1  0.16393838  0.08284259  0.54940777  1
  Te2-  Te157  1  0.15076090  0.57552524  0.55084259  1
  Te2-  Te158  1  0.66220923  0.07963219  0.55018776  1
  Te2-  Te159  1  0.65799788  0.58340655  0.55046470  1
  Te2-  Te160  1  0.41972959  0.34477314  0.55270357  1
  Te2-  Te161  1  0.41325463  0.83588366  0.54693520  1
  Te2-  Te162  1  0.91681632  0.33948030  0.55164111  1
  Te2-  Te163  1  0.92095739  0.83739958  0.54927180  1
  Te2-  Te164  1  0.42251540  0.08686372  0.54848258  1
  Te2-  Te165  1  0.41461886  0.58095528  0.54697687  1
  Te2-  Te166  1  0.91996161  0.08106925  0.55265497  1
  Te2-  Te167  1  0.91403303  0.57515808  0.55027535  1
  Te2-  Te168  1  -0.00015414  0.00041659  0.88292963  1
  Te2-  Te169  1  0.00002782  0.50010046  0.88440142  1
  Te2-  Te170  1  0.49923340  -0.00158690  0.88215286  1
  Te2-  Te171  1  0.49922094  0.50041370  0.88387205  1
  Te2-  Te172  1  0.33495893  0.16749775  0.21480355  1
  Te2-  Te173  1  0.33301195  0.66701519  0.21522956  1
  Te2-  Te174  1  0.83349355  0.16397240  0.21561117  1
  Te2-  Te175  1  0.83422457  0.66731814  0.21343654  1
  Te2-  Te176  1  0.16743601  0.33362658  0.54817528  1
  Te2-  Te177  1  0.16739316  0.83376146  0.54857749  1
  Te2-  Te178  1  0.66767536  0.33447719  0.54962049  1
  Te2-  Te179  1  0.66660345  0.83308029  0.54811785  1
  Te2-  Te180  1  0.32807582  0.41587572  0.71019973  1
  Te2-  Te181  1  0.32804114  0.91620746  0.71175287  1
  Te2-  Te182  1  0.82780914  0.41463590  0.71513495  1
  Te2-  Te183  1  0.82706102  0.91225760  0.71109454  1
  Te2-  Te184  1  0.08780538  0.17400431  0.71034062  1
  Te2-  Te185  1  0.08384820  0.67233522  0.71411828  1
  Te2-  Te186  1  0.58768551  0.17229660  0.71291723  1
  Te2-  Te187  1  0.58299897  0.67013909  0.71254541  1
  Te2-  Te188  1  0.08509269  0.41462883  0.71289745  1
  Te2-  Te189  1  0.08591283  0.91532843  0.71362979  1
  Te2-  Te190  1  0.58900429  0.41501167  0.71333214  1
  Te2-  Te191  1  0.58246229  0.91104692  0.71070107  1
  Te2-  Te192  1  0.15979089  0.08020382  0.04148035  1
  Te2-  Te193  1  0.16153245  0.57904651  0.04404441  1
  Te2-  Te194  1  0.66045810  0.07986757  0.04294019  1
  Te2-  Te195  1  0.65638993  0.57878118  0.03980941  1
  Te2-  Te196  1  0.41802011  0.33751872  0.04351150  1
  Te2-  Te197  1  0.41818405  0.83925981  0.04239513  1
  Te2-  Te198  1  0.92149036  0.34140264  0.04250624  1
  Te2-  Te199  1  0.91937211  0.84061070  0.03835362  1
  Te2-  Te200  1  0.41970012  0.07900834  0.04288955  1
  Te2-  Te201  1  0.41795587  0.57873720  0.04204253  1
  Te2-  Te202  1  0.91846252  0.07867590  0.04060374  1
  Te2-  Te203  1  0.91946218  0.57728666  0.04073232  1
  Te2-  Te204  1  0.49495116  0.24863566  0.37720643  1
  Te2-  Te205  1  0.49783599  0.75031730  0.37743476  1
  Te2-  Te206  1  0.99389016  0.24197619  0.37821374  1
  Te2-  Te207  1  0.99430365  0.74744331  0.37676504  1
  Te2-  Te208  1  0.25469545  0.00436590  0.37886791  1
  Te2-  Te209  1  0.25518317  0.50657354  0.37498842  1
  Te2-  Te210  1  0.75606501  0.00636840  0.37857260  1
  Te2-  Te211  1  0.75682677  0.50908513  0.37699568  1
  Te2-  Te212  1  0.25660727  0.24979646  0.37794634  1
  Te2-  Te213  1  0.25525684  0.74680638  0.37552827  1
  Te2-  Te214  1  0.75129094  0.24614201  0.37989494  1
  Te2-  Te215  1  0.75742230  0.75105610  0.37772252  1
