# generated using pymatgen
data_Ti(CuTe)4
_symmetry_space_group_name_H-M   'P 1'
_cell_length_a   16.88866352
_cell_length_b   16.88415540
_cell_length_c   20.70821358
_cell_angle_alpha   89.96892693
_cell_angle_beta   90.00910632
_cell_angle_gamma   120.00032754
_symmetry_Int_Tables_number   1
_chemical_formula_structural   Ti(CuTe)4
_chemical_formula_sum   'Ti24 Cu96 Te96'
_cell_volume   5113.83122225
_cell_formula_units_Z   24
loop_
 _symmetry_equiv_pos_site_id
 _symmetry_equiv_pos_as_xyz
  1  'x, y, z'
loop_
 _atom_type_symbol
 _atom_type_oxidation_number
  Ti4+  4.0
  Cu+  1.0
  Te2-  -2.0
loop_
 _atom_site_type_symbol
 _atom_site_label
 _atom_site_symmetry_multiplicity
 _atom_site_fract_x
 _atom_site_fract_y
 _atom_site_fract_z
 _atom_site_occupancy
  Ti4+  Ti0  1  -0.00100705  0.00119071  0.26033780  1
  Ti4+  Ti1  1  -0.00186000  0.50217206  0.25695095  1
  Ti4+  Ti2  1  0.49959899  -0.00130954  0.25744255  1
  Ti4+  Ti3  1  0.49988715  0.49909994  0.25321962  1
  Ti4+  Ti4  1  0.33363031  0.16475992  0.58988056  1
  Ti4+  Ti5  1  0.32906664  0.66442329  0.58971400  1
  Ti4+  Ti6  1  0.83205589  0.16862230  0.58964488  1
  Ti4+  Ti7  1  0.83446627  0.67204078  0.59468544  1
  Ti4+  Ti8  1  0.16717444  0.33112866  0.92416680  1
  Ti4+  Ti9  1  0.16706776  0.83220397  0.92843935  1
  Ti4+  Ti10  1  0.66940208  0.33164523  0.92318202  1
  Ti4+  Ti11  1  0.67055888  0.83425139  0.92349309  1
  Ti4+  Ti12  1  -0.00043440  0.00030652  0.75669926  1
  Ti4+  Ti13  1  -0.00088741  0.50022432  0.75628672  1
  Ti4+  Ti14  1  0.50162436  0.00006698  0.75633638  1
  Ti4+  Ti15  1  0.49934367  0.49914140  0.75387473  1
  Ti4+  Ti16  1  0.33444562  0.16714542  0.08808400  1
  Ti4+  Ti17  1  0.33485767  0.66752322  0.08633329  1
  Ti4+  Ti18  1  0.83456600  0.16597977  0.09012207  1
  Ti4+  Ti19  1  0.83252845  0.66472983  0.08809918  1
  Ti4+  Ti20  1  0.16561384  0.33609159  0.42080818  1
  Ti4+  Ti21  1  0.16566714  0.83444266  0.42179669  1
  Ti4+  Ti22  1  0.66450197  0.33115823  0.42277979  1
  Ti4+  Ti23  1  0.66683214  0.83235986  0.42271350  1
  Cu+  Cu24  1  0.73916681  0.47751808  0.13928230  1
  Cu+  Cu25  1  0.91509853  0.81943597  0.81572635  1
  Cu+  Cu26  1  0.74110162  0.76019741  0.14244097  1
  Cu+  Cu27  1  0.68291237  0.58716424  0.81045877  1
  Cu+  Cu28  1  0.00934725  0.75821366  0.14874975  1
  Cu+  Cu29  1  0.24542336  0.76082146  0.14420399  1
  Cu+  Cu30  1  0.69396030  0.09531062  0.80630521  1
  Cu+  Cu31  1  0.84927122  0.92792013  0.48115272  1
  Cu+  Cu32  1  0.23739325  0.25991136  0.14017393  1
  Cu+  Cu33  1  0.56824094  0.13943775  0.47271380  1
  Cu+  Cu34  1  0.06880698  0.43108040  0.47210788  1
  Cu+  Cu35  1  0.07678864  0.92945589  0.47748907  1
  Cu+  Cu36  1  0.16567884  0.08554831  0.17200185  1
  Cu+  Cu37  1  0.16564102  0.58643074  0.16916076  1
  Cu+  Cu38  1  0.66450175  0.08239177  0.17249688  1
  Cu+  Cu39  1  0.66286382  0.58000791  0.16668793  1
  Cu+  Cu40  1  0.41564012  0.33657218  0.16672446  1
  Cu+  Cu41  1  0.41809523  0.83772561  0.16954670  1
  Cu+  Cu42  1  0.91708301  0.33563876  0.17186991  1
  Cu+  Cu43  1  0.91652965  0.83893650  0.17261307  1
  Cu+  Cu44  1  0.42108011  0.08303949  0.17031534  1
  Cu+  Cu45  1  0.42083786  0.58239704  0.16558710  1
  Cu+  Cu46  1  0.91488986  0.07910116  0.17312449  1
  Cu+  Cu47  1  0.91723535  0.57935145  0.16853976  1
  Cu+  Cu48  1  0.49689623  0.24174756  0.50378334  1
  Cu+  Cu49  1  0.49472339  0.74613923  0.50462113  1
  Cu+  Cu50  1  0.99729345  0.25634260  0.50210039  1
  Cu+  Cu51  1  0.99718233  0.75573762  0.50527409  1
  Cu+  Cu52  1  0.25055918  0.00562687  0.50287964  1
  Cu+  Cu53  1  0.24353071  0.50308556  0.50226146  1
  Cu+  Cu54  1  0.75263263  0.00434748  0.50439664  1
  Cu+  Cu55  1  0.74904181  0.50293890  0.50821985  1
  Cu+  Cu56  1  0.25179031  0.25018527  0.50326587  1
  Cu+  Cu57  1  0.25002528  0.74653848  0.50306618  1
  Cu+  Cu58  1  0.74442322  0.24356538  0.50313271  1
  Cu+  Cu59  1  0.75562552  0.75344134  0.50653029  1
  Cu+  Cu60  1  0.32841441  0.41002148  0.83701647  1
  Cu+  Cu61  1  0.33243328  0.91382174  0.84156830  1
  Cu+  Cu62  1  0.83045109  0.41363251  0.83663520  1
  Cu+  Cu63  1  0.83005576  0.91122878  0.83669610  1
  Cu+  Cu64  1  0.08659722  0.16993002  0.83892992  1
  Cu+  Cu65  1  0.08547333  0.66883229  0.84123455  1
  Cu+  Cu66  1  0.59122013  0.16757458  0.83697778  1
  Cu+  Cu67  1  0.58832873  0.66745331  0.83603148  1
  Cu+  Cu68  1  0.08277795  0.41231928  0.83858408  1
  Cu+  Cu69  1  0.08546228  0.91249761  0.84180996  1
  Cu+  Cu70  1  0.58751738  0.41558842  0.83702255  1
  Cu+  Cu71  1  0.59189704  0.92164485  0.83659543  1
  Cu+  Cu72  1  0.16953438  0.08425860  0.67614385  1
  Cu+  Cu73  1  0.16617031  0.58325748  0.67539426  1
  Cu+  Cu74  1  0.66928758  0.08466979  0.67799751  1
  Cu+  Cu75  1  0.66988961  0.58763423  0.68057425  1
  Cu+  Cu76  1  0.41510831  0.32917581  0.67209809  1
  Cu+  Cu77  1  0.41233593  0.82786373  0.67407348  1
  Cu+  Cu78  1  0.91466178  0.33511572  0.67388423  1
  Cu+  Cu79  1  0.91577164  0.83448669  0.68385224  1
  Cu+  Cu80  1  0.41389005  0.08182715  0.67521274  1
  Cu+  Cu81  1  0.40977735  0.58091425  0.67223111  1
  Cu+  Cu82  1  0.91704259  0.08682229  0.67526595  1
  Cu+  Cu83  1  0.91713004  0.58829346  0.67719278  1
  Cu+  Cu84  1  0.00389165  0.24898010  0.00904624  1
  Cu+  Cu85  1  0.00351552  0.75002390  0.01725953  1
  Cu+  Cu86  1  0.50432277  0.24983245  0.00515558  1
  Cu+  Cu87  1  0.50496985  0.75181226  0.00517543  1
  Cu+  Cu88  1  0.25025097  0.49642419  0.00557088  1
  Cu+  Cu89  1  0.25047499  0.99739123  0.01026527  1
  Cu+  Cu90  1  0.74844728  0.49462495  0.01114619  1
  Cu+  Cu91  1  0.75200659  0.99892981  0.00909349  1
  Cu+  Cu92  1  0.24873610  0.25054558  0.01142921  1
  Cu+  Cu93  1  0.24964387  0.75168046  0.01472411  1
  Cu+  Cu94  1  0.75177329  0.24984160  0.00863576  1
  Cu+  Cu95  1  0.75021205  0.75099025  0.01307368  1
  Cu+  Cu96  1  0.33454632  0.41848897  0.33828357  1
  Cu+  Cu97  1  0.33402729  0.91644529  0.34163926  1
  Cu+  Cu98  1  0.83182941  0.41800897  0.34224413  1
  Cu+  Cu99  1  0.83504150  0.91491674  0.34981577  1
  Cu+  Cu100  1  0.08274223  0.16767433  0.34315484  1
  Cu+  Cu101  1  0.08157984  0.66743365  0.34262876  1
  Cu+  Cu102  1  0.58024159  0.16064889  0.34522644  1
  Cu+  Cu103  1  0.58338115  0.66303113  0.33970999  1
  Cu+  Cu104  1  0.08144463  0.42231701  0.34384904  1
  Cu+  Cu105  1  0.08085668  0.91916123  0.34791087  1
  Cu+  Cu106  1  0.58166569  0.41673867  0.33843177  1
  Cu+  Cu107  1  0.58121616  0.91528402  0.33995428  1
  Cu+  Cu108  1  0.00286684  0.00330023  0.11671096  1
  Cu+  Cu109  1  0.00352019  0.49570578  0.11346591  1
  Cu+  Cu110  1  0.50403156  0.00179985  0.11360086  1
  Cu+  Cu111  1  0.49802791  0.49862155  0.10715614  1
  Cu+  Cu112  1  0.33479250  0.17281920  0.44633140  1
  Cu+  Cu113  1  0.33573464  0.66792432  0.44611005  1
  Cu+  Cu114  1  0.83326547  0.16722446  0.44618833  1
  Cu+  Cu115  1  0.83158127  0.66196109  0.45174210  1
  Cu+  Cu116  1  0.16567704  0.33377913  0.78092280  1
  Cu+  Cu117  1  0.17092764  0.83405757  0.78596188  1
  Cu+  Cu118  1  0.66336767  0.33072787  0.77975634  1
  Cu+  Cu119  1  0.66071654  0.82955857  0.77987325  1
  Te2-  Te120  1  0.00105561  0.00507775  0.39240738  1
  Te2-  Te121  1  -0.00419644  0.50332786  0.38708207  1
  Te2-  Te122  1  0.49738245  -0.00605376  0.38817078  1
  Te2-  Te123  1  0.49871234  0.49819365  0.38198888  1
  Te2-  Te124  1  0.33428736  0.16636833  0.71900150  1
  Te2-  Te125  1  0.33045501  0.66413206  0.71896389  1
  Te2-  Te126  1  0.83659254  0.17081109  0.71968123  1
  Te2-  Te127  1  0.83509583  0.66820986  0.72670391  1
  Te2-  Te128  1  0.16696612  0.33484479  0.05541517  1
  Te2-  Te129  1  0.16890594  0.83626217  0.06104683  1
  Te2-  Te130  1  0.66612594  0.32815379  0.05385411  1
  Te2-  Te131  1  0.66712681  0.83472504  0.05396394  1
  Te2-  Te132  1  0.50012066  0.24670925  0.87912188  1
  Te2-  Te133  1  0.50229228  0.75110826  0.87882769  1
  Te2-  Te134  1  0.99475608  0.24485047  0.88352804  1
  Te2-  Te135  1  0.99331448  0.74265737  0.88931961  1
  Te2-  Te136  1  0.25257763  0.00278393  0.88448847  1
  Te2-  Te137  1  0.25214333  0.50201374  0.88011497  1
  Te2-  Te138  1  0.76039983  0.00774513  0.88312266  1
  Te2-  Te139  1  0.75721586  0.50605826  0.88451205  1
  Te2-  Te140  1  0.25301940  0.24414353  0.88492016  1
  Te2-  Te141  1  0.25244899  0.74658630  0.88756143  1
  Te2-  Te142  1  0.75969267  0.24768252  0.88288849  1
  Te2-  Te143  1  0.75676553  0.74338444  0.88556615  1
  Te2-  Te144  1  0.32606207  0.41620827  0.21263112  1
  Te2-  Te145  1  0.32602638  0.91606909  0.21610774  1
  Te2-  Te146  1  0.82479750  0.41167122  0.21624822  1
  Te2-  Te147  1  0.82497869  0.91336038  0.22166967  1
  Te2-  Te148  1  0.08335927  0.17319325  0.21700593  1
  Te2-  Te149  1  0.08726925  0.67830841  0.21670963  1
  Te2-  Te150  1  0.58619906  0.17114987  0.21849087  1
  Te2-  Te151  1  0.58647875  0.67339547  0.21387963  1
  Te2-  Te152  1  0.08549313  0.41964795  0.21639040  1
  Te2-  Te153  1  0.08745211  0.91741539  0.22001468  1
  Te2-  Te154  1  0.58396232  0.40985986  0.21260100  1
  Te2-  Te155  1  0.58487933  0.91300239  0.21430530  1
  Te2-  Te156  1  0.15937426  0.08340110  0.55040505  1
  Te2-  Te157  1  0.15340368  0.58091936  0.54978897  1
  Te2-  Te158  1  0.65826354  0.07609519  0.55082369  1
  Te2-  Te159  1  0.66423215  0.58637350  0.55314968  1
  Te2-  Te160  1  0.42057857  0.33507935  0.54613257  1
  Te2-  Te161  1  0.41690769  0.83657837  0.54833305  1
  Te2-  Te162  1  0.91322774  0.34112122  0.54791527  1
  Te2-  Te163  1  0.92359620  0.84904022  0.55572673  1
  Te2-  Te164  1  0.41589885  0.07263421  0.54938732  1
  Te2-  Te165  1  0.41230239  0.57681269  0.54637326  1
  Te2-  Te166  1  0.92393455  0.08791508  0.54904889  1
  Te2-  Te167  1  0.91929757  0.58753251  0.55052945  1
  Te2-  Te168  1  0.00044038  -0.00012829  0.88361111  1
  Te2-  Te169  1  -0.00043231  0.49802746  0.88263860  1
  Te2-  Te170  1  0.50188824  -0.00079315  0.88329213  1
  Te2-  Te171  1  0.49881285  0.49740122  0.88087044  1
  Te2-  Te172  1  0.33602925  0.16830906  0.21492929  1
  Te2-  Te173  1  0.33584496  0.66660998  0.21331490  1
  Te2-  Te174  1  0.83314892  0.16698680  0.21657192  1
  Te2-  Te175  1  0.83275659  0.66606219  0.21637409  1
  Te2-  Te176  1  0.16635152  0.33390175  0.54762047  1
  Te2-  Te177  1  0.16812925  0.83492853  0.54845220  1
  Te2-  Te178  1  0.66557494  0.33331279  0.54963061  1
  Te2-  Te179  1  0.66433382  0.83350245  0.54951751  1
  Te2-  Te180  1  0.32749279  0.41135974  0.71033024  1
  Te2-  Te181  1  0.32896407  0.91296997  0.71441456  1
  Te2-  Te182  1  0.82714685  0.41679686  0.71089854  1
  Te2-  Te183  1  0.82577144  0.91732363  0.71087617  1
  Te2-  Te184  1  0.08699855  0.17223680  0.71242299  1
  Te2-  Te185  1  0.08679904  0.67325420  0.71456256  1
  Te2-  Te186  1  0.58429007  0.17167756  0.70985285  1
  Te2-  Te187  1  0.58072964  0.67149173  0.70880844  1
  Te2-  Te188  1  0.08378799  0.41346965  0.71171825  1
  Te2-  Te189  1  0.08850428  0.91501731  0.71416224  1
  Te2-  Te190  1  0.58559763  0.41324603  0.70891538  1
  Te2-  Te191  1  0.58378545  0.91167597  0.70920151  1
  Te2-  Te192  1  0.16083975  0.07810172  0.04486700  1
  Te2-  Te193  1  0.16160172  0.57782737  0.04216329  1
  Te2-  Te194  1  0.66357896  0.08041973  0.04536120  1
  Te2-  Te195  1  0.65917042  0.57793262  0.03985693  1
  Te2-  Te196  1  0.42241852  0.33813523  0.04000375  1
  Te2-  Te197  1  0.42373111  0.84072388  0.04213437  1
  Te2-  Te198  1  0.92130455  0.33689167  0.04507891  1
  Te2-  Te199  1  0.92177220  0.84120278  0.04518532  1
  Te2-  Te200  1  0.42099349  0.08097260  0.04433761  1
  Te2-  Te201  1  0.42052702  0.58166141  0.03976287  1
  Te2-  Te202  1  0.92063684  0.07985842  0.04682894  1
  Te2-  Te203  1  0.92038018  0.57682470  0.04253468  1
  Te2-  Te204  1  0.49347752  0.24697129  0.37615897  1
  Te2-  Te205  1  0.49594137  0.74576198  0.37739012  1
  Te2-  Te206  1  0.99286937  0.24894877  0.37521150  1
  Te2-  Te207  1  0.99111750  0.74656477  0.37830990  1
  Te2-  Te208  1  0.25466629  0.00775930  0.37641349  1
  Te2-  Te209  1  0.25400032  0.50796567  0.37499809  1
  Te2-  Te210  1  0.75083475  0.00496176  0.37726096  1
  Te2-  Te211  1  0.74912051  0.50385728  0.38042354  1
  Te2-  Te212  1  0.25239216  0.24990652  0.37681272  1
  Te2-  Te213  1  0.25126505  0.74692686  0.37736036  1
  Te2-  Te214  1  0.75284253  0.24746678  0.37659906  1
  Te2-  Te215  1  0.75130643  0.74285108  0.37969147  1
