# generated using pymatgen
data_Ti(CuTe)4
_symmetry_space_group_name_H-M   'P 1'
_cell_length_a   16.85344655
_cell_length_b   16.85375559
_cell_length_c   20.65417323
_cell_angle_alpha   89.98908137
_cell_angle_beta   90.02095551
_cell_angle_gamma   120.00897846
_symmetry_Int_Tables_number   1
_chemical_formula_structural   Ti(CuTe)4
_chemical_formula_sum   'Ti24 Cu96 Te96'
_cell_volume   5080.24361480
_cell_formula_units_Z   24
loop_
 _symmetry_equiv_pos_site_id
 _symmetry_equiv_pos_as_xyz
  1  'x, y, z'
loop_
 _atom_type_symbol
 _atom_type_oxidation_number
  Ti4+  4.0
  Cu+  1.0
  Te2-  -2.0
loop_
 _atom_site_type_symbol
 _atom_site_label
 _atom_site_symmetry_multiplicity
 _atom_site_fract_x
 _atom_site_fract_y
 _atom_site_fract_z
 _atom_site_occupancy
  Ti4+  Ti0  1  0.00109601  -0.00107831  0.26045745  1
  Ti4+  Ti1  1  0.00113172  0.50206547  0.25889354  1
  Ti4+  Ti2  1  0.50199662  0.00258177  0.25534909  1
  Ti4+  Ti3  1  0.49783159  0.49924782  0.25510262  1
  Ti4+  Ti4  1  0.32826741  0.16513427  0.59252964  1
  Ti4+  Ti5  1  0.33403512  0.66957151  0.58894733  1
  Ti4+  Ti6  1  0.83052351  0.16678570  0.58794130  1
  Ti4+  Ti7  1  0.83285185  0.66589584  0.59184213  1
  Ti4+  Ti8  1  0.16830233  0.33208915  0.92575785  1
  Ti4+  Ti9  1  0.16514554  0.83333672  0.92837725  1
  Ti4+  Ti10  1  0.66718968  0.33141583  0.92604070  1
  Ti4+  Ti11  1  0.66913846  0.83244548  0.92233544  1
  Ti4+  Ti12  1  -0.00013879  -0.00083358  0.75590475  1
  Ti4+  Ti13  1  -0.00045295  0.49983722  0.75961583  1
  Ti4+  Ti14  1  0.50013232  0.00090563  0.75656730  1
  Ti4+  Ti15  1  0.49913107  0.50031952  0.75342486  1
  Ti4+  Ti16  1  0.33340003  0.16581337  0.08852264  1
  Ti4+  Ti17  1  0.33356412  0.66449518  0.08833755  1
  Ti4+  Ti18  1  0.83314331  0.16737751  0.09071912  1
  Ti4+  Ti19  1  0.83627169  0.66798139  0.09031360  1
  Ti4+  Ti20  1  0.16633451  0.33162682  0.41983221  1
  Ti4+  Ti21  1  0.16699726  0.83396757  0.42107659  1
  Ti4+  Ti22  1  0.66842070  0.33419349  0.42103125  1
  Ti4+  Ti23  1  0.66620642  0.83506984  0.42097641  1
  Cu+  Cu24  1  0.07007771  0.92003053  0.47934903  1
  Cu+  Cu25  1  0.23319631  0.47388851  0.14102165  1
  Cu+  Cu26  1  0.18838639  0.09172870  0.81119235  1
  Cu+  Cu27  1  0.90788799  0.80865121  0.80838176  1
  Cu+  Cu28  1  0.06937698  0.14749706  0.47672295  1
  Cu+  Cu29  1  0.07862031  0.42209276  0.47907012  1
  Cu+  Cu30  1  0.56750794  0.93060973  0.46914235  1
  Cu+  Cu31  1  0.24651492  0.75882937  0.14618404  1
  Cu+  Cu32  1  0.02136295  0.76285384  0.14629133  1
  Cu+  Cu33  1  0.74017690  0.26641056  0.14174671  1
  Cu+  Cu34  1  0.84666259  0.42415650  0.47814506  1
  Cu+  Cu35  1  0.07907941  0.66045608  0.48423362  1
  Cu+  Cu36  1  0.16494376  0.08226514  0.17338397  1
  Cu+  Cu37  1  0.16547463  0.58214202  0.17075782  1
  Cu+  Cu38  1  0.66600737  0.08798979  0.17056881  1
  Cu+  Cu39  1  0.66424404  0.58300330  0.17068798  1
  Cu+  Cu40  1  0.41802799  0.33549418  0.16925984  1
  Cu+  Cu41  1  0.42087342  0.83867195  0.16987711  1
  Cu+  Cu42  1  0.91374969  0.33598261  0.17219658  1
  Cu+  Cu43  1  0.92250080  0.83678519  0.17343825  1
  Cu+  Cu44  1  0.41925751  0.08259715  0.16848970  1
  Cu+  Cu45  1  0.41308949  0.57467371  0.16738589  1
  Cu+  Cu46  1  0.91955556  0.08354128  0.17417070  1
  Cu+  Cu47  1  0.92243390  0.58654230  0.17152686  1
  Cu+  Cu48  1  0.49703366  0.24914925  0.50525351  1
  Cu+  Cu49  1  0.49930314  0.75652306  0.50182115  1
  Cu+  Cu50  1  0.99441005  0.24652305  0.49977693  1
  Cu+  Cu51  1  0.99122883  0.74684525  0.50282598  1
  Cu+  Cu52  1  0.24632289  0.00454210  0.50290022  1
  Cu+  Cu53  1  0.25249427  0.50544311  0.49989498  1
  Cu+  Cu54  1  0.74336163  0.00255556  0.50036793  1
  Cu+  Cu55  1  0.75087615  0.50176082  0.50348242  1
  Cu+  Cu56  1  0.24615425  0.24222396  0.50220868  1
  Cu+  Cu57  1  0.25415841  0.74637296  0.49937187  1
  Cu+  Cu58  1  0.75279169  0.24907443  0.49969597  1
  Cu+  Cu59  1  0.75049472  0.74844125  0.50384913  1
  Cu+  Cu60  1  0.33093657  0.41618314  0.83704841  1
  Cu+  Cu61  1  0.33284977  0.91449807  0.84138254  1
  Cu+  Cu62  1  0.82981159  0.41132793  0.84192053  1
  Cu+  Cu63  1  0.82951311  0.90842578  0.83497339  1
  Cu+  Cu64  1  0.09076231  0.17122805  0.83700561  1
  Cu+  Cu65  1  0.08375832  0.66818253  0.84361451  1
  Cu+  Cu66  1  0.58749812  0.16947799  0.83972321  1
  Cu+  Cu67  1  0.58637602  0.67004930  0.83467952  1
  Cu+  Cu68  1  0.08531446  0.41601990  0.84168481  1
  Cu+  Cu69  1  0.08397763  0.91371070  0.83970644  1
  Cu+  Cu70  1  0.58365610  0.41493876  0.83795850  1
  Cu+  Cu71  1  0.58786516  0.91716225  0.83739388  1
  Cu+  Cu72  1  0.16686297  0.08459290  0.68271820  1
  Cu+  Cu73  1  0.16733862  0.58544405  0.67703388  1
  Cu+  Cu74  1  0.66665914  0.08592140  0.67309572  1
  Cu+  Cu75  1  0.66804098  0.58334395  0.67437292  1
  Cu+  Cu76  1  0.41164416  0.33086779  0.67445078  1
  Cu+  Cu77  1  0.41550109  0.83334721  0.67474472  1
  Cu+  Cu78  1  0.91680442  0.33345686  0.67652853  1
  Cu+  Cu79  1  0.91485302  0.82960448  0.68037179  1
  Cu+  Cu80  1  0.41307351  0.08353349  0.67609400  1
  Cu+  Cu81  1  0.41514957  0.58581083  0.67085340  1
  Cu+  Cu82  1  0.91439973  0.08490840  0.67284310  1
  Cu+  Cu83  1  0.91745879  0.58329245  0.68004537  1
  Cu+  Cu84  1  0.00160057  0.24969386  0.00813351  1
  Cu+  Cu85  1  0.00269756  0.75131830  0.01664305  1
  Cu+  Cu86  1  0.50246735  0.24902969  0.00757843  1
  Cu+  Cu87  1  0.50446234  0.75059452  0.00472527  1
  Cu+  Cu88  1  0.24880235  0.49336687  0.01254171  1
  Cu+  Cu89  1  0.24733320  0.99879616  0.01115377  1
  Cu+  Cu90  1  0.75063424  0.49759216  0.00817027  1
  Cu+  Cu91  1  0.75121116  0.99618770  0.00550212  1
  Cu+  Cu92  1  0.24868394  0.24899004  0.00915751  1
  Cu+  Cu93  1  0.24861293  0.75103766  0.01609765  1
  Cu+  Cu94  1  0.74792581  0.25158680  0.01352111  1
  Cu+  Cu95  1  0.75103810  0.75217542  0.00735152  1
  Cu+  Cu96  1  0.33619411  0.41644690  0.33936849  1
  Cu+  Cu97  1  0.33522998  0.91850773  0.34023463  1
  Cu+  Cu98  1  0.83668313  0.41966878  0.34723731  1
  Cu+  Cu99  1  0.83486421  0.91532849  0.34112749  1
  Cu+  Cu100  1  0.08400543  0.16123241  0.34718496  1
  Cu+  Cu101  1  0.08544877  0.66704887  0.35021244  1
  Cu+  Cu102  1  0.58481927  0.16837638  0.33973486  1
  Cu+  Cu103  1  0.58222739  0.66357403  0.33706227  1
  Cu+  Cu104  1  0.08346502  0.41824600  0.34639661  1
  Cu+  Cu105  1  0.08333096  0.91822233  0.34897103  1
  Cu+  Cu106  1  0.58113256  0.41820141  0.33854357  1
  Cu+  Cu107  1  0.58184437  0.92149343  0.34104008  1
  Cu+  Cu108  1  -0.00109675  0.00195490  0.11801645  1
  Cu+  Cu109  1  0.00029649  0.49790843  0.11479627  1
  Cu+  Cu110  1  0.50313831  0.00053471  0.11158227  1
  Cu+  Cu111  1  0.50361578  0.49905531  0.11144302  1
  Cu+  Cu112  1  0.33945405  0.16963716  0.44841174  1
  Cu+  Cu113  1  0.34063195  0.66511822  0.44250831  1
  Cu+  Cu114  1  0.83218106  0.16387614  0.44039077  1
  Cu+  Cu115  1  0.82521751  0.66333990  0.44607700  1
  Cu+  Cu116  1  0.16688389  0.33747478  0.78267787  1
  Cu+  Cu117  1  0.17015843  0.83216839  0.78639686  1
  Cu+  Cu118  1  0.66405716  0.33400437  0.78332803  1
  Cu+  Cu119  1  0.66110560  0.83196980  0.77780712  1
  Te2-  Te120  1  -0.00443324  -0.00377869  0.39338672  1
  Te2-  Te121  1  0.00164827  0.50105834  0.39243322  1
  Te2-  Te122  1  0.49886310  0.00495471  0.38601751  1
  Te2-  Te123  1  0.50005483  0.50060364  0.38459115  1
  Te2-  Te124  1  0.33438029  0.16823566  0.72291638  1
  Te2-  Te125  1  0.33375838  0.66796594  0.71782374  1
  Te2-  Te126  1  0.83172488  0.16688954  0.71661347  1
  Te2-  Te127  1  0.83102002  0.66234967  0.72216878  1
  Te2-  Te128  1  0.16385770  0.32739901  0.05675303  1
  Te2-  Te129  1  0.16875646  0.83653593  0.06087489  1
  Te2-  Te130  1  0.66490107  0.33530360  0.05704597  1
  Te2-  Te131  1  0.66740664  0.83277654  0.05184975  1
  Te2-  Te132  1  0.49619631  0.24675677  0.88184998  1
  Te2-  Te133  1  0.49733296  0.74822703  0.87922166  1
  Te2-  Te134  1  0.99756129  0.24555762  0.88220992  1
  Te2-  Te135  1  0.99205133  0.74480839  0.88863691  1
  Te2-  Te136  1  0.25447982  0.00533567  0.88513187  1
  Te2-  Te137  1  0.25343094  0.50437187  0.88571201  1
  Te2-  Te138  1  0.75740246  0.00385950  0.87959966  1
  Te2-  Te139  1  0.75190971  0.50262310  0.88247121  1
  Te2-  Te140  1  0.25870049  0.24876664  0.88328573  1
  Te2-  Te141  1  0.25124214  0.74819186  0.88897365  1
  Te2-  Te142  1  0.75356374  0.24460890  0.88691168  1
  Te2-  Te143  1  0.75278349  0.74103892  0.88173564  1
  Te2-  Te144  1  0.32253374  0.40717679  0.21412448  1
  Te2-  Te145  1  0.32786303  0.91653523  0.21506320  1
  Te2-  Te146  1  0.82850302  0.41987253  0.21939301  1
  Te2-  Te147  1  0.83108588  0.91357320  0.21549002  1
  Te2-  Te148  1  0.08666767  0.17061835  0.22028448  1
  Te2-  Te149  1  0.09105633  0.67693573  0.22094428  1
  Te2-  Te150  1  0.58536454  0.17695668  0.21459221  1
  Te2-  Te151  1  0.58195461  0.67040691  0.21134567  1
  Te2-  Te152  1  0.08260226  0.41205683  0.21810084  1
  Te2-  Te153  1  0.09157994  0.91583566  0.22156413  1
  Te2-  Te154  1  0.58563560  0.41483431  0.21321576  1
  Te2-  Te155  1  0.58818756  0.91812721  0.21412758  1
  Te2-  Te156  1  0.15081665  0.07591902  0.55407852  1
  Te2-  Te157  1  0.15670502  0.57880125  0.55030962  1
  Te2-  Te158  1  0.65676820  0.08413705  0.54702497  1
  Te2-  Te159  1  0.66288038  0.58030303  0.54829009  1
  Te2-  Te160  1  0.41348033  0.33524821  0.54815599  1
  Te2-  Te161  1  0.41711502  0.84347110  0.54839048  1
  Te2-  Te162  1  0.92193588  0.34296744  0.54961498  1
  Te2-  Te163  1  0.91673766  0.83969310  0.55296228  1
  Te2-  Te164  1  0.41352674  0.07990409  0.54947673  1
  Te2-  Te165  1  0.41976730  0.58569634  0.54413862  1
  Te2-  Te166  1  0.91256427  0.07658232  0.54679881  1
  Te2-  Te167  1  0.92125971  0.57842964  0.55264265  1
  Te2-  Te168  1  -0.00020618  0.00090375  0.88315395  1
  Te2-  Te169  1  -0.00076356  0.49812883  0.88648988  1
  Te2-  Te170  1  0.50286946  -0.00017263  0.88324700  1
  Te2-  Te171  1  0.50087132  0.50129178  0.88000059  1
  Te2-  Te172  1  0.33546422  0.16710991  0.21511863  1
  Te2-  Te173  1  0.33658377  0.66757331  0.21596647  1
  Te2-  Te174  1  0.83408342  0.16696603  0.21805384  1
  Te2-  Te175  1  0.83242857  0.66658023  0.21763111  1
  Te2-  Te176  1  0.16675990  0.33444979  0.54768453  1
  Te2-  Te177  1  0.16675801  0.83265912  0.54884077  1
  Te2-  Te178  1  0.66600764  0.33203074  0.54871841  1
  Te2-  Te179  1  0.66720553  0.83430816  0.54823097  1
  Te2-  Te180  1  0.32644073  0.41604613  0.70987045  1
  Te2-  Te181  1  0.32726465  0.91390454  0.71387714  1
  Te2-  Te182  1  0.82739588  0.41282115  0.71466755  1
  Te2-  Te183  1  0.82705560  0.91532279  0.70866653  1
  Te2-  Te184  1  0.08256710  0.17340790  0.71056418  1
  Te2-  Te185  1  0.08665605  0.67287297  0.71622687  1
  Te2-  Te186  1  0.58448238  0.17266337  0.71210513  1
  Te2-  Te187  1  0.58556249  0.67202646  0.70763471  1
  Te2-  Te188  1  0.08624771  0.41568847  0.71362325  1
  Te2-  Te189  1  0.08703619  0.91089090  0.71203193  1
  Te2-  Te190  1  0.58358852  0.41248775  0.71000917  1
  Te2-  Te191  1  0.58587476  0.91612623  0.70970816  1
  Te2-  Te192  1  0.15901612  0.07971946  0.04667873  1
  Te2-  Te193  1  0.15914723  0.57722486  0.04324030  1
  Te2-  Te194  1  0.66254989  0.07779421  0.04307362  1
  Te2-  Te195  1  0.66524573  0.58217231  0.04391956  1
  Te2-  Te196  1  0.41995061  0.33752661  0.04266884  1
  Te2-  Te197  1  0.42253800  0.83771382  0.04273065  1
  Te2-  Te198  1  0.92137559  0.33928468  0.04461298  1
  Te2-  Te199  1  0.91984041  0.84146713  0.04599576  1
  Te2-  Te200  1  0.41914518  0.07890331  0.04269136  1
  Te2-  Te201  1  0.42218962  0.58103831  0.04114253  1
  Te2-  Te202  1  0.91902320  0.08109126  0.04686096  1
  Te2-  Te203  1  0.91980719  0.57792764  0.04479979  1
  Te2-  Te204  1  0.49667934  0.24941374  0.37750139  1
  Te2-  Te205  1  0.49613588  0.74825971  0.37312702  1
  Te2-  Te206  1  0.99245658  0.24468815  0.37214780  1
  Te2-  Te207  1  0.99024559  0.74478773  0.37588318  1
  Te2-  Te208  1  0.25631844  0.00849291  0.37656040  1
  Te2-  Te209  1  0.25569163  0.50569589  0.37322356  1
  Te2-  Te210  1  0.75443978  0.00615795  0.37285257  1
  Te2-  Te211  1  0.75096865  0.50699973  0.37550648  1
  Te2-  Te212  1  0.25639312  0.24729902  0.37609531  1
  Te2-  Te213  1  0.25823736  0.74971167  0.37421089  1
  Te2-  Te214  1  0.75412411  0.24658668  0.37322144  1
  Te2-  Te215  1  0.75047435  0.74642030  0.37686422  1
