# generated using pymatgen
data_Ti(CuTe)4
_symmetry_space_group_name_H-M   'P 1'
_cell_length_a   16.85838445
_cell_length_b   16.86057006
_cell_length_c   20.66455722
_cell_angle_alpha   89.97739948
_cell_angle_beta   90.04328220
_cell_angle_gamma   120.00580029
_symmetry_Int_Tables_number   1
_chemical_formula_structural   Ti(CuTe)4
_chemical_formula_sum   'Ti24 Cu96 Te96'
_cell_volume   5086.50449826
_cell_formula_units_Z   24
loop_
 _symmetry_equiv_pos_site_id
 _symmetry_equiv_pos_as_xyz
  1  'x, y, z'
loop_
 _atom_type_symbol
 _atom_type_oxidation_number
  Ti4+  4.0
  Cu+  1.0
  Te2-  -2.0
loop_
 _atom_site_type_symbol
 _atom_site_label
 _atom_site_symmetry_multiplicity
 _atom_site_fract_x
 _atom_site_fract_y
 _atom_site_fract_z
 _atom_site_occupancy
  Ti4+  Ti0  1  -0.00226932  -0.00005928  0.25671851  1
  Ti4+  Ti1  1  0.00007734  0.50002386  0.25881438  1
  Ti4+  Ti2  1  0.50156072  -0.00051659  0.25866535  1
  Ti4+  Ti3  1  0.49924383  0.49640310  0.25500042  1
  Ti4+  Ti4  1  0.33120672  0.16672630  0.58932969  1
  Ti4+  Ti5  1  0.33560171  0.66982422  0.59238714  1
  Ti4+  Ti6  1  0.83116635  0.16771173  0.59301186  1
  Ti4+  Ti7  1  0.83478186  0.66963156  0.59416908  1
  Ti4+  Ti8  1  0.16340152  0.33287674  0.92257510  1
  Ti4+  Ti9  1  0.16757982  0.83251127  0.92268393  1
  Ti4+  Ti10  1  0.66629453  0.33468431  0.92597749  1
  Ti4+  Ti11  1  0.66681799  0.83256413  0.92396220  1
  Ti4+  Ti12  1  -0.00024429  0.00101853  0.75624599  1
  Ti4+  Ti13  1  0.00131695  0.50166593  0.75351379  1
  Ti4+  Ti14  1  0.49965905  -0.00039766  0.75653644  1
  Ti4+  Ti15  1  0.50229623  0.50050390  0.75551931  1
  Ti4+  Ti16  1  0.33357425  0.16808621  0.08737154  1
  Ti4+  Ti17  1  0.33498491  0.66712569  0.08966369  1
  Ti4+  Ti18  1  0.83232464  0.16432080  0.08768910  1
  Ti4+  Ti19  1  0.83394084  0.66582513  0.08750580  1
  Ti4+  Ti20  1  0.16814882  0.33245917  0.42284348  1
  Ti4+  Ti21  1  0.16607129  0.83509024  0.42161259  1
  Ti4+  Ti22  1  0.66768315  0.33282564  0.42360864  1
  Ti4+  Ti23  1  0.66592806  0.83317793  0.42635867  1
  Cu+  Cu24  1  0.40712891  0.81488575  0.80976601  1
  Cu+  Cu25  1  0.40600721  0.58666640  0.80838604  1
  Cu+  Cu26  1  0.74117979  0.75133468  0.14600637  1
  Cu+  Cu27  1  0.73622879  0.97951406  0.14284738  1
  Cu+  Cu28  1  0.51771431  0.25455184  0.14105858  1
  Cu+  Cu29  1  0.06695522  0.93027066  0.47237149  1
  Cu+  Cu30  1  0.57044193  0.93020452  0.47726278  1
  Cu+  Cu31  1  0.74615879  0.48277852  0.14421920  1
  Cu+  Cu32  1  0.23467850  0.26086174  0.13667254  1
  Cu+  Cu33  1  0.68577078  0.58898880  0.81178493  1
  Cu+  Cu34  1  0.90985508  0.81827917  0.81275809  1
  Cu+  Cu35  1  0.90062154  0.09329702  0.80654959  1
  Cu+  Cu36  1  0.16333057  0.08610818  0.16946513  1
  Cu+  Cu37  1  0.16607621  0.58291055  0.17339538  1
  Cu+  Cu38  1  0.66226041  0.07770907  0.17000156  1
  Cu+  Cu39  1  0.66162662  0.57733313  0.16704024  1
  Cu+  Cu40  1  0.41595245  0.33398980  0.16588377  1
  Cu+  Cu41  1  0.42075703  0.83527689  0.17221889  1
  Cu+  Cu42  1  0.91862544  0.33602626  0.17076399  1
  Cu+  Cu43  1  0.91734813  0.83824523  0.16881342  1
  Cu+  Cu44  1  0.42042131  0.08249339  0.17035789  1
  Cu+  Cu45  1  0.41753219  0.57993112  0.16932183  1
  Cu+  Cu46  1  0.91294787  0.07571108  0.16746810  1
  Cu+  Cu47  1  0.91927739  0.57819104  0.17037215  1
  Cu+  Cu48  1  0.49795241  0.24889767  0.50493264  1
  Cu+  Cu49  1  0.49745539  0.75381717  0.50758439  1
  Cu+  Cu50  1  0.99956700  0.24913586  0.50767767  1
  Cu+  Cu51  1  0.99899881  0.75674843  0.50524443  1
  Cu+  Cu52  1  0.24482752  0.00332446  0.50171565  1
  Cu+  Cu53  1  0.25360061  0.50167390  0.50664204  1
  Cu+  Cu54  1  0.74588893  0.00332004  0.50821616  1
  Cu+  Cu55  1  0.74886146  0.50154986  0.50805042  1
  Cu+  Cu56  1  0.25374549  0.24830162  0.50296806  1
  Cu+  Cu57  1  0.25457675  0.75156383  0.50461418  1
  Cu+  Cu58  1  0.75296923  0.25022512  0.50601529  1
  Cu+  Cu59  1  0.75145867  0.74730881  0.50920723  1
  Cu+  Cu60  1  0.32754665  0.41344747  0.83679996  1
  Cu+  Cu61  1  0.33082211  0.91252000  0.83714407  1
  Cu+  Cu62  1  0.83311595  0.41821861  0.83759760  1
  Cu+  Cu63  1  0.83160706  0.91766903  0.83786554  1
  Cu+  Cu64  1  0.07777055  0.16966696  0.83650533  1
  Cu+  Cu65  1  0.08671356  0.67049702  0.83406390  1
  Cu+  Cu66  1  0.58154633  0.16947859  0.84002513  1
  Cu+  Cu67  1  0.58580230  0.66758701  0.83460146  1
  Cu+  Cu68  1  0.08367062  0.41501133  0.83439110  1
  Cu+  Cu69  1  0.08465705  0.91208054  0.83634873  1
  Cu+  Cu70  1  0.58819183  0.41506843  0.83892155  1
  Cu+  Cu71  1  0.58303858  0.91376987  0.83698997  1
  Cu+  Cu72  1  0.16937251  0.08583848  0.67378025  1
  Cu+  Cu73  1  0.16909815  0.58479517  0.67264963  1
  Cu+  Cu74  1  0.66692984  0.08648654  0.67697974  1
  Cu+  Cu75  1  0.67185417  0.58331107  0.68249782  1
  Cu+  Cu76  1  0.41723541  0.33080966  0.67283878  1
  Cu+  Cu77  1  0.41852517  0.83231877  0.68109750  1
  Cu+  Cu78  1  0.91574353  0.33280893  0.67490622  1
  Cu+  Cu79  1  0.91625478  0.83236120  0.68235046  1
  Cu+  Cu80  1  0.41420491  0.08609544  0.67137424  1
  Cu+  Cu81  1  0.41691625  0.58627825  0.67937397  1
  Cu+  Cu82  1  0.91414636  0.08843225  0.67883096  1
  Cu+  Cu83  1  0.91763992  0.58606044  0.67353165  1
  Cu+  Cu84  1  -0.00070742  0.24994998  0.00712755  1
  Cu+  Cu85  1  0.00425303  0.75048928  0.00726669  1
  Cu+  Cu86  1  0.50372608  0.25285625  0.01276700  1
  Cu+  Cu87  1  0.50077319  0.74995033  0.00863897  1
  Cu+  Cu88  1  0.25040692  0.49985346  0.00702225  1
  Cu+  Cu89  1  0.24965341  0.99728104  0.00462406  1
  Cu+  Cu90  1  0.74988992  0.49827058  0.01458566  1
  Cu+  Cu91  1  0.74922207  0.99675589  0.01325605  1
  Cu+  Cu92  1  0.24387330  0.25056817  0.00840526  1
  Cu+  Cu93  1  0.25214873  0.75328495  0.00814471  1
  Cu+  Cu94  1  0.74928394  0.24968422  0.00718714  1
  Cu+  Cu95  1  0.75298493  0.75394534  0.01503321  1
  Cu+  Cu96  1  0.33500955  0.41482608  0.33986639  1
  Cu+  Cu97  1  0.33536445  0.91634598  0.34065802  1
  Cu+  Cu98  1  0.83643735  0.41885890  0.34388660  1
  Cu+  Cu99  1  0.83113897  0.91291437  0.34520790  1
  Cu+  Cu100  1  0.08338277  0.16637352  0.34060928  1
  Cu+  Cu101  1  0.08257859  0.66440048  0.34199899  1
  Cu+  Cu102  1  0.58551623  0.16465746  0.34313262  1
  Cu+  Cu103  1  0.58439821  0.66320018  0.34272765  1
  Cu+  Cu104  1  0.08339294  0.41845137  0.34203511  1
  Cu+  Cu105  1  0.07990858  0.91930890  0.34305949  1
  Cu+  Cu106  1  0.58383323  0.41572974  0.34138214  1
  Cu+  Cu107  1  0.58240879  0.91679732  0.34899073  1
  Cu+  Cu108  1  0.00322114  0.00110756  0.11153252  1
  Cu+  Cu109  1  0.00634288  0.49931174  0.11494451  1
  Cu+  Cu110  1  0.49595678  -0.00261487  0.11376203  1
  Cu+  Cu111  1  0.49695947  0.49894501  0.10876276  1
  Cu+  Cu112  1  0.33747334  0.16687632  0.44516178  1
  Cu+  Cu113  1  0.33102408  0.66218103  0.45024410  1
  Cu+  Cu114  1  0.83832713  0.16972473  0.45112068  1
  Cu+  Cu115  1  0.83565092  0.66195806  0.45234569  1
  Cu+  Cu116  1  0.16655992  0.33357684  0.77821555  1
  Cu+  Cu117  1  0.16885203  0.83459229  0.77706251  1
  Cu+  Cu118  1  0.67082364  0.33014859  0.78324958  1
  Cu+  Cu119  1  0.66746623  0.83415647  0.77947928  1
  Te2-  Te120  1  -0.00331721  0.00255456  0.38701734  1
  Te2-  Te121  1  0.00134323  0.50050554  0.38800354  1
  Te2-  Te122  1  0.49812139  0.00069120  0.38920878  1
  Te2-  Te123  1  0.49978911  0.49708247  0.38366021  1
  Te2-  Te124  1  0.33304388  0.16752086  0.71895010  1
  Te2-  Te125  1  0.33056052  0.66552372  0.72488048  1
  Te2-  Te126  1  0.83017364  0.17050200  0.72384934  1
  Te2-  Te127  1  0.83756402  0.66647206  0.72706952  1
  Te2-  Te128  1  0.16318167  0.33591656  0.05329114  1
  Te2-  Te129  1  0.16854115  0.83435457  0.05205934  1
  Te2-  Te130  1  0.66948721  0.33164187  0.05836847  1
  Te2-  Te131  1  0.66366596  0.83076120  0.05606966  1
  Te2-  Te132  1  0.49434172  0.24938020  0.88591318  1
  Te2-  Te133  1  0.49233894  0.74347920  0.88286050  1
  Te2-  Te134  1  0.98881773  0.24897954  0.88167250  1
  Te2-  Te135  1  0.99310823  0.74255650  0.88195555  1
  Te2-  Te136  1  0.25281824  0.00332381  0.87897149  1
  Te2-  Te137  1  0.25015698  0.50658706  0.88138642  1
  Te2-  Te138  1  0.74989155  0.00553376  0.88528120  1
  Te2-  Te139  1  0.75754594  0.50843114  0.88695296  1
  Te2-  Te140  1  0.24683383  0.24568670  0.88118807  1
  Te2-  Te141  1  0.25218699  0.74285405  0.88245041  1
  Te2-  Te142  1  0.75092591  0.24935438  0.88146037  1
  Te2-  Te143  1  0.75481263  0.74611037  0.88583728  1
  Te2-  Te144  1  0.32574814  0.41203650  0.21382153  1
  Te2-  Te145  1  0.33143328  0.91524956  0.21464337  1
  Te2-  Te146  1  0.82558110  0.40919133  0.21791568  1
  Te2-  Te147  1  0.82008642  0.90839930  0.21817640  1
  Te2-  Te148  1  0.08040621  0.17281492  0.21426737  1
  Te2-  Te149  1  0.08527005  0.67167310  0.21585718  1
  Te2-  Te150  1  0.59099863  0.17242453  0.21652004  1
  Te2-  Te151  1  0.58482219  0.67018475  0.21634362  1
  Te2-  Te152  1  0.08566561  0.41400846  0.21589976  1
  Te2-  Te153  1  0.08450378  0.91692348  0.21529886  1
  Te2-  Te154  1  0.58716058  0.40920364  0.21459129  1
  Te2-  Te155  1  0.58621891  0.90970774  0.22097154  1
  Te2-  Te156  1  0.15595396  0.08246114  0.54835080  1
  Te2-  Te157  1  0.16563259  0.58344343  0.54721450  1
  Te2-  Te158  1  0.65666775  0.08423415  0.55154690  1
  Te2-  Te159  1  0.66228376  0.58092429  0.55563417  1
  Te2-  Te160  1  0.42044397  0.33919195  0.54758471  1
  Te2-  Te161  1  0.41901188  0.84428385  0.55381876  1
  Te2-  Te162  1  0.92016287  0.33882591  0.54942866  1
  Te2-  Te163  1  0.91815565  0.84337474  0.55447115  1
  Te2-  Te164  1  0.41409035  0.07909099  0.54548953  1
  Te2-  Te165  1  0.42185011  0.58505897  0.55203505  1
  Te2-  Te166  1  0.91494333  0.08020685  0.55189598  1
  Te2-  Te167  1  0.92022132  0.58659715  0.54736863  1
  Te2-  Te168  1  0.00221242  -0.00014187  0.88378252  1
  Te2-  Te169  1  0.00215754  0.50174276  0.88021769  1
  Te2-  Te170  1  0.50006773  0.00020975  0.88395122  1
  Te2-  Te171  1  0.49870079  0.49808439  0.88324460  1
  Te2-  Te172  1  0.33323930  0.16549684  0.21508443  1
  Te2-  Te173  1  0.33529327  0.66583870  0.21635255  1
  Te2-  Te174  1  0.83369053  0.16572225  0.21483418  1
  Te2-  Te175  1  0.83390129  0.66605661  0.21508310  1
  Te2-  Te176  1  0.16941437  0.33284410  0.54953338  1
  Te2-  Te177  1  0.16840340  0.83506410  0.54871343  1
  Te2-  Te178  1  0.66623423  0.33269923  0.55035816  1
  Te2-  Te179  1  0.66693788  0.83346368  0.55329777  1
  Te2-  Te180  1  0.32955532  0.41294777  0.70948831  1
  Te2-  Te181  1  0.32842660  0.91643248  0.70923128  1
  Te2-  Te182  1  0.82830791  0.41601605  0.71032713  1
  Te2-  Te183  1  0.82596087  0.91544452  0.71011430  1
  Te2-  Te184  1  0.08690768  0.17317243  0.70958569  1
  Te2-  Te185  1  0.08821837  0.67407990  0.70776914  1
  Te2-  Te186  1  0.58248603  0.17169103  0.71267545  1
  Te2-  Te187  1  0.58970739  0.67505838  0.70827670  1
  Te2-  Te188  1  0.08683106  0.41466732  0.70826553  1
  Te2-  Te189  1  0.08905917  0.91696739  0.70962707  1
  Te2-  Te190  1  0.58597430  0.41032083  0.71207675  1
  Te2-  Te191  1  0.59057093  0.91684003  0.71059664  1
  Te2-  Te192  1  0.16145893  0.07871746  0.04159915  1
  Te2-  Te193  1  0.16378431  0.58268737  0.04518804  1
  Te2-  Te194  1  0.65856341  0.07959507  0.04262252  1
  Te2-  Te195  1  0.65865228  0.58034719  0.04008218  1
  Te2-  Te196  1  0.41753461  0.34063760  0.03867682  1
  Te2-  Te197  1  0.42153600  0.83952957  0.04487128  1
  Te2-  Te198  1  0.91829918  0.33785268  0.04429271  1
  Te2-  Te199  1  0.92478501  0.84031757  0.04226909  1
  Te2-  Te200  1  0.41854925  0.07948396  0.04257297  1
  Te2-  Te201  1  0.41960954  0.58022415  0.04251948  1
  Te2-  Te202  1  0.92189956  0.08023285  0.04108753  1
  Te2-  Te203  1  0.92345593  0.58110024  0.04356176  1
  Te2-  Te204  1  0.49643635  0.24623957  0.37728672  1
  Te2-  Te205  1  0.49409903  0.74325383  0.38001810  1
  Te2-  Te206  1  0.99608935  0.24830770  0.37955573  1
  Te2-  Te207  1  0.99337986  0.74674696  0.37725458  1
  Te2-  Te208  1  0.25375143  0.00635981  0.37403857  1
  Te2-  Te209  1  0.25416609  0.50379240  0.37852776  1
  Te2-  Te210  1  0.75475404  0.00627745  0.38089008  1
  Te2-  Te211  1  0.75254888  0.50504668  0.38006122  1
  Te2-  Te212  1  0.25308582  0.24560377  0.37647400  1
  Te2-  Te213  1  0.25258251  0.74791438  0.37844324  1
  Te2-  Te214  1  0.75528483  0.24790919  0.37943662  1
  Te2-  Te215  1  0.75170510  0.74495273  0.38298174  1
