# generated using pymatgen
data_Ti(CuTe)4
_symmetry_space_group_name_H-M   'P 1'
_cell_length_a   16.86527481
_cell_length_b   16.86361804
_cell_length_c   20.67229779
_cell_angle_alpha   89.97350940
_cell_angle_beta   89.97909990
_cell_angle_gamma   120.00636761
_symmetry_Int_Tables_number   1
_chemical_formula_structural   Ti(CuTe)4
_chemical_formula_sum   'Ti24 Cu96 Te96'
_cell_volume   5091.38037746
_cell_formula_units_Z   24
loop_
 _symmetry_equiv_pos_site_id
 _symmetry_equiv_pos_as_xyz
  1  'x, y, z'
loop_
 _atom_type_symbol
 _atom_type_oxidation_number
  Ti4+  4.0
  Cu+  1.0
  Te2-  -2.0
loop_
 _atom_site_type_symbol
 _atom_site_label
 _atom_site_symmetry_multiplicity
 _atom_site_fract_x
 _atom_site_fract_y
 _atom_site_fract_z
 _atom_site_occupancy
  Ti4+  Ti0  1  0.00127393  0.00377823  0.25872295  1
  Ti4+  Ti1  1  -0.00121325  0.50187859  0.25721274  1
  Ti4+  Ti2  1  0.49923102  -0.00247405  0.25651700  1
  Ti4+  Ti3  1  0.49827287  0.50210963  0.26062213  1
  Ti4+  Ti4  1  0.33052241  0.16450417  0.58675585  1
  Ti4+  Ti5  1  0.33458926  0.66808869  0.59201333  1
  Ti4+  Ti6  1  0.83390855  0.16848417  0.59097396  1
  Ti4+  Ti7  1  0.83262325  0.66546045  0.58815107  1
  Ti4+  Ti8  1  0.16970723  0.33473576  0.92713047  1
  Ti4+  Ti9  1  0.16748238  0.83115990  0.92527279  1
  Ti4+  Ti10  1  0.66777558  0.33185869  0.92371686  1
  Ti4+  Ti11  1  0.66936022  0.83490665  0.92681362  1
  Ti4+  Ti12  1  -0.00122413  -0.00145048  0.75712256  1
  Ti4+  Ti13  1  0.00235786  0.50163708  0.75526826  1
  Ti4+  Ti14  1  0.50172093  0.00128000  0.75584521  1
  Ti4+  Ti15  1  0.49791684  0.49789901  0.75737562  1
  Ti4+  Ti16  1  0.33104818  0.16659283  0.09095412  1
  Ti4+  Ti17  1  0.33476114  0.66838459  0.08968670  1
  Ti4+  Ti18  1  0.83412733  0.16635380  0.08899294  1
  Ti4+  Ti19  1  0.83327276  0.66452869  0.09030836  1
  Ti4+  Ti20  1  0.16441141  0.33195399  0.41985574  1
  Ti4+  Ti21  1  0.16712277  0.83438141  0.42106171  1
  Ti4+  Ti22  1  0.66750226  0.33397754  0.41938586  1
  Ti4+  Ti23  1  0.66477324  0.83199421  0.42104787  1
  Cu+  Cu24  1  0.23747530  0.26545031  0.14397623  1
  Cu+  Cu25  1  0.23921362  0.76214593  0.14079567  1
  Cu+  Cu26  1  0.52364672  0.76090459  0.14043371  1
  Cu+  Cu27  1  0.07027365  0.92161517  0.47262268  1
  Cu+  Cu28  1  0.35721636  0.92719064  0.47176845  1
  Cu+  Cu29  1  0.57610464  0.65515038  0.48125895  1
  Cu+  Cu30  1  0.69381002  0.09480138  0.80742302  1
  Cu+  Cu31  1  0.85832124  0.42750452  0.47195110  1
  Cu+  Cu32  1  0.06961151  0.14991698  0.47614478  1
  Cu+  Cu33  1  0.19473979  0.59581869  0.80863938  1
  Cu+  Cu34  1  0.33899317  0.42029485  0.48115605  1
  Cu+  Cu35  1  0.57834159  0.42096823  0.47879506  1
  Cu+  Cu36  1  0.16341568  0.08867356  0.17305833  1
  Cu+  Cu37  1  0.16252407  0.58755233  0.17058723  1
  Cu+  Cu38  1  0.66441515  0.08125370  0.17010594  1
  Cu+  Cu39  1  0.66416250  0.58340425  0.17380242  1
  Cu+  Cu40  1  0.41118075  0.33478121  0.17425824  1
  Cu+  Cu41  1  0.41803917  0.83542176  0.16985295  1
  Cu+  Cu42  1  0.91588233  0.33514978  0.17210330  1
  Cu+  Cu43  1  0.91913786  0.83455120  0.17340099  1
  Cu+  Cu44  1  0.41504132  0.07891994  0.17146836  1
  Cu+  Cu45  1  0.42309172  0.58676461  0.17185911  1
  Cu+  Cu46  1  0.92047749  0.08490297  0.17130152  1
  Cu+  Cu47  1  0.91546112  0.57884803  0.17153992  1
  Cu+  Cu48  1  0.49381496  0.24602774  0.49824570  1
  Cu+  Cu49  1  0.49447420  0.74669514  0.50300938  1
  Cu+  Cu50  1  0.99226524  0.24513359  0.50118276  1
  Cu+  Cu51  1  0.99451293  0.74930253  0.50089696  1
  Cu+  Cu52  1  0.25068652  0.00105237  0.49936018  1
  Cu+  Cu53  1  0.24990145  0.50427949  0.50359187  1
  Cu+  Cu54  1  0.74884962  0.00251908  0.50387680  1
  Cu+  Cu55  1  0.75522295  0.50266196  0.49902149  1
  Cu+  Cu56  1  0.24811511  0.24362537  0.49723302  1
  Cu+  Cu57  1  0.25561660  0.75285549  0.50493026  1
  Cu+  Cu58  1  0.75554251  0.25287092  0.50303748  1
  Cu+  Cu59  1  0.75074161  0.74759478  0.49992246  1
  Cu+  Cu60  1  0.32910706  0.41084937  0.84061260  1
  Cu+  Cu61  1  0.32913638  0.91314204  0.83862544  1
  Cu+  Cu62  1  0.82860460  0.41450576  0.83647013  1
  Cu+  Cu63  1  0.83017419  0.91356347  0.83937392  1
  Cu+  Cu64  1  0.08677107  0.16770544  0.84157294  1
  Cu+  Cu65  1  0.09037347  0.66861347  0.83763002  1
  Cu+  Cu66  1  0.59030358  0.16934058  0.83640973  1
  Cu+  Cu67  1  0.58404517  0.66784204  0.84207552  1
  Cu+  Cu68  1  0.09098875  0.42166423  0.83908118  1
  Cu+  Cu69  1  0.08371714  0.91360156  0.83971410  1
  Cu+  Cu70  1  0.58432330  0.41384308  0.83865594  1
  Cu+  Cu71  1  0.59021610  0.92011160  0.84000746  1
  Cu+  Cu72  1  0.16473219  0.08139453  0.67426720  1
  Cu+  Cu73  1  0.17261797  0.58762393  0.67913176  1
  Cu+  Cu74  1  0.67133889  0.08708284  0.67800467  1
  Cu+  Cu75  1  0.66572544  0.58242558  0.67539123  1
  Cu+  Cu76  1  0.41290644  0.33112013  0.67424094  1
  Cu+  Cu77  1  0.41737301  0.83462248  0.67671477  1
  Cu+  Cu78  1  0.91735728  0.33423246  0.67553628  1
  Cu+  Cu79  1  0.91391823  0.83085670  0.67481977  1
  Cu+  Cu80  1  0.41326858  0.08184210  0.67302125  1
  Cu+  Cu81  1  0.41451588  0.58082921  0.67928075  1
  Cu+  Cu82  1  0.91614881  0.08333906  0.67670078  1
  Cu+  Cu83  1  0.91587614  0.58398858  0.67299508  1
  Cu+  Cu84  1  0.00400466  0.25219760  0.00832629  1
  Cu+  Cu85  1  0.00232284  0.74674876  0.00812864  1
  Cu+  Cu86  1  0.50306269  0.24975846  0.00714135  1
  Cu+  Cu87  1  0.50667202  0.75326952  0.01270414  1
  Cu+  Cu88  1  0.25221009  0.49979235  0.01091208  1
  Cu+  Cu89  1  0.24743133  0.99687327  0.00865805  1
  Cu+  Cu90  1  0.74722185  0.49521907  0.00769050  1
  Cu+  Cu91  1  0.75145075  0.99877820  0.01088071  1
  Cu+  Cu92  1  0.24777694  0.25205272  0.01560633  1
  Cu+  Cu93  1  0.24817946  0.75030486  0.01284079  1
  Cu+  Cu94  1  0.74842195  0.24974244  0.00735135  1
  Cu+  Cu95  1  0.74976344  0.74924264  0.01026285  1
  Cu+  Cu96  1  0.33334625  0.41976150  0.34772837  1
  Cu+  Cu97  1  0.33751890  0.91526864  0.34467125  1
  Cu+  Cu98  1  0.83797450  0.41801569  0.34428633  1
  Cu+  Cu99  1  0.83408736  0.91925019  0.33960042  1
  Cu+  Cu100  1  0.08092368  0.16552373  0.34711434  1
  Cu+  Cu101  1  0.08187825  0.66580820  0.34043032  1
  Cu+  Cu102  1  0.58257260  0.16285330  0.33813412  1
  Cu+  Cu103  1  0.58110858  0.66544708  0.34886857  1
  Cu+  Cu104  1  0.07976087  0.41810778  0.33866770  1
  Cu+  Cu105  1  0.08188938  0.92098953  0.34415241  1
  Cu+  Cu106  1  0.57950945  0.41728782  0.34658107  1
  Cu+  Cu107  1  0.58062199  0.91490958  0.34038759  1
  Cu+  Cu108  1  -0.00309186  -0.00542691  0.11629311  1
  Cu+  Cu109  1  -0.00205369  0.49595714  0.11465130  1
  Cu+  Cu110  1  0.50227836  0.00439466  0.11305707  1
  Cu+  Cu111  1  0.50297311  0.49570663  0.11787163  1
  Cu+  Cu112  1  0.33350725  0.16489238  0.43920629  1
  Cu+  Cu113  1  0.32966072  0.66623456  0.44701024  1
  Cu+  Cu114  1  0.82704722  0.16263888  0.44614083  1
  Cu+  Cu115  1  0.83290268  0.66637443  0.44083315  1
  Cu+  Cu116  1  0.16147696  0.32860233  0.78456990  1
  Cu+  Cu117  1  0.16321124  0.83345299  0.78202492  1
  Cu+  Cu118  1  0.66291326  0.33315420  0.77942689  1
  Cu+  Cu119  1  0.66456576  0.82899798  0.78433249  1
  Te2-  Te120  1  -0.00428180  -0.00039276  0.39075433  1
  Te2-  Te121  1  0.00365093  0.50334616  0.38819166  1
  Te2-  Te122  1  0.50355881  0.00078885  0.38729296  1
  Te2-  Te123  1  0.49800905  0.50006282  0.39404753  1
  Te2-  Te124  1  0.33079970  0.16486469  0.71515116  1
  Te2-  Te125  1  0.33875914  0.67019171  0.72247533  1
  Te2-  Te126  1  0.83804461  0.16993872  0.72130995  1
  Te2-  Te127  1  0.83185374  0.66497773  0.71657418  1
  Te2-  Te128  1  0.16590822  0.33680770  0.05800728  1
  Te2-  Te129  1  0.16511342  0.83361950  0.05593410  1
  Te2-  Te130  1  0.66639884  0.33129789  0.05313275  1
  Te2-  Te131  1  0.67244426  0.83520068  0.05751195  1
  Te2-  Te132  1  0.49677773  0.24478950  0.88085815  1
  Te2-  Te133  1  0.49852311  0.75137391  0.88515594  1
  Te2-  Te134  1  1.00033196  0.25182099  0.88200978  1
  Te2-  Te135  1  0.99723857  0.74432727  0.88196072  1
  Te2-  Te136  1  0.25175144  0.00274046  0.88297674  1
  Te2-  Te137  1  0.26016639  0.50882727  0.88509222  1
  Te2-  Te138  1  0.75961907  0.00912634  0.88496041  1
  Te2-  Te139  1  0.75226539  0.50418716  0.88189045  1
  Te2-  Te140  1  0.25308228  0.24570338  0.88829809  1
  Te2-  Te141  1  0.25857170  0.74752978  0.88549618  1
  Te2-  Te142  1  0.75897384  0.24858527  0.88185777  1
  Te2-  Te143  1  0.75259166  0.74687985  0.88448038  1
  Te2-  Te144  1  0.32593903  0.42044506  0.21942648  1
  Te2-  Te145  1  0.32511861  0.91235615  0.21746747  1
  Te2-  Te146  1  0.82665783  0.41273393  0.21739174  1
  Te2-  Te147  1  0.83143453  0.91684350  0.21426747  1
  Te2-  Te148  1  0.08482862  0.17858643  0.21971135  1
  Te2-  Te149  1  0.08273007  0.67634974  0.21531472  1
  Te2-  Te150  1  0.58362222  0.16817415  0.21288349  1
  Te2-  Te151  1  0.58972039  0.67534332  0.22090032  1
  Te2-  Te152  1  0.08563766  0.41830815  0.21325027  1
  Te2-  Te153  1  0.08760605  0.91965145  0.21700502  1
  Te2-  Te154  1  0.58029592  0.41499727  0.21839933  1
  Te2-  Te155  1  0.58871728  0.91363157  0.21489052  1
  Te2-  Te156  1  0.15513521  0.07634931  0.54749429  1
  Te2-  Te157  1  0.16432712  0.58445825  0.55119049  1
  Te2-  Te158  1  0.66353687  0.08469276  0.54986418  1
  Te2-  Te159  1  0.65766895  0.57743168  0.54870195  1
  Te2-  Te160  1  0.41834287  0.34012842  0.54782088  1
  Te2-  Te161  1  0.42471251  0.84213143  0.55056082  1
  Te2-  Te162  1  0.92477017  0.34247470  0.54946720  1
  Te2-  Te163  1  0.91588423  0.83949300  0.54848146  1
  Te2-  Te164  1  0.42006074  0.08030299  0.54658204  1
  Te2-  Te165  1  0.41960331  0.57716204  0.55259216  1
  Te2-  Te166  1  0.91590125  0.07670242  0.55039001  1
  Te2-  Te167  1  0.92299972  0.58229233  0.54676206  1
  Te2-  Te168  1  -0.00027751  -0.00209442  0.88378469  1
  Te2-  Te169  1  -0.00134898  0.49922829  0.88210653  1
  Te2-  Te170  1  0.49975996  0.00050356  0.88267856  1
  Te2-  Te171  1  0.49979179  0.49750873  0.88386772  1
  Te2-  Te172  1  0.33291258  0.16545423  0.21807499  1
  Te2-  Te173  1  0.33144609  0.66614256  0.21718657  1
  Te2-  Te174  1  0.83246767  0.16635893  0.21566585  1
  Te2-  Te175  1  0.83338977  0.66582831  0.21707923  1
  Te2-  Te176  1  0.16449380  0.33113800  0.54789420  1
  Te2-  Te177  1  0.16455212  0.83235328  0.54875853  1
  Te2-  Te178  1  0.66387403  0.33214667  0.54740260  1
  Te2-  Te179  1  0.66575777  0.83238491  0.54860026  1
  Te2-  Te180  1  0.32446701  0.41079156  0.71415924  1
  Te2-  Te181  1  0.32768073  0.91395176  0.71252107  1
  Te2-  Te182  1  0.82881730  0.41517344  0.71074726  1
  Te2-  Te183  1  0.82634495  0.91286807  0.71284965  1
  Te2-  Te184  1  0.08586573  0.17088573  0.71345456  1
  Te2-  Te185  1  0.08602593  0.67402063  0.70985153  1
  Te2-  Te186  1  0.58389868  0.17272009  0.70877371  1
  Te2-  Te187  1  0.58511541  0.67056661  0.71410595  1
  Te2-  Te188  1  0.08810488  0.41441060  0.71091398  1
  Te2-  Te189  1  0.08372899  0.91222344  0.71179433  1
  Te2-  Te190  1  0.58297567  0.41232315  0.71092735  1
  Te2-  Te191  1  0.58806910  0.91443603  0.71196891  1
  Te2-  Te192  1  0.15874827  0.07820768  0.04564634  1
  Te2-  Te193  1  0.16094305  0.57876801  0.04403467  1
  Te2-  Te194  1  0.66189415  0.08006950  0.04385038  1
  Te2-  Te195  1  0.66123157  0.57902897  0.04650087  1
  Te2-  Te196  1  0.42151432  0.33841089  0.04586224  1
  Te2-  Te197  1  0.42149381  0.84150770  0.04264833  1
  Te2-  Te198  1  0.91877916  0.33766585  0.04445759  1
  Te2-  Te199  1  0.92066789  0.83591657  0.04550406  1
  Te2-  Te200  1  0.41695314  0.08045939  0.04526762  1
  Te2-  Te201  1  0.42202871  0.58103301  0.04586509  1
  Te2-  Te202  1  0.92263978  0.08191688  0.04511218  1
  Te2-  Te203  1  0.91756568  0.57710997  0.04509390  1
  Te2-  Te204  1  0.49391067  0.24420328  0.37226397  1
  Te2-  Te205  1  0.48980267  0.74643405  0.37681433  1
  Te2-  Te206  1  0.99056189  0.24863828  0.37511275  1
  Te2-  Te207  1  0.99393236  0.74804085  0.37428783  1
  Te2-  Te208  1  0.25484854  0.00670113  0.37221435  1
  Te2-  Te209  1  0.24867450  0.50681070  0.37665992  1
  Te2-  Te210  1  0.75042899  0.00433612  0.37701904  1
  Te2-  Te211  1  0.75323853  0.50740731  0.37186010  1
  Te2-  Te212  1  0.25426211  0.24667335  0.37127106  1
  Te2-  Te213  1  0.25079981  0.74435327  0.37716896  1
  Te2-  Te214  1  0.75177335  0.24523681  0.37536740  1
  Te2-  Te215  1  0.75497204  0.74909524  0.37376441  1
