# generated using pymatgen
data_Ti(CuTe)4
_symmetry_space_group_name_H-M   'P 1'
_cell_length_a   16.89547901
_cell_length_b   16.89810998
_cell_length_c   20.72440874
_cell_angle_alpha   90.08082345
_cell_angle_beta   89.98265265
_cell_angle_gamma   119.98293587
_symmetry_Int_Tables_number   1
_chemical_formula_structural   Ti(CuTe)4
_chemical_formula_sum   'Ti24 Cu96 Te96'
_cell_volume   5125.02035146
_cell_formula_units_Z   24
loop_
 _symmetry_equiv_pos_site_id
 _symmetry_equiv_pos_as_xyz
  1  'x, y, z'
loop_
 _atom_type_symbol
 _atom_type_oxidation_number
  Ti4+  4.0
  Cu+  1.0
  Te2-  -2.0
loop_
 _atom_site_type_symbol
 _atom_site_label
 _atom_site_symmetry_multiplicity
 _atom_site_fract_x
 _atom_site_fract_y
 _atom_site_fract_z
 _atom_site_occupancy
  Ti4+  Ti0  1  0.00175606  0.00037522  0.25598725  1
  Ti4+  Ti1  1  -0.00471318  0.49705935  0.25670413  1
  Ti4+  Ti2  1  0.49903285  -0.00324362  0.25588601  1
  Ti4+  Ti3  1  0.50108911  0.50125181  0.25920174  1
  Ti4+  Ti4  1  0.33340154  0.16629326  0.59059904  1
  Ti4+  Ti5  1  0.33422721  0.66704260  0.59284803  1
  Ti4+  Ti6  1  0.83250584  0.16709974  0.59458918  1
  Ti4+  Ti7  1  0.83096386  0.66629560  0.59203687  1
  Ti4+  Ti8  1  0.17180504  0.33790461  0.92064660  1
  Ti4+  Ti9  1  0.16406186  0.83171949  0.92218169  1
  Ti4+  Ti10  1  0.66626468  0.33021800  0.92551338  1
  Ti4+  Ti11  1  0.66840478  0.83361322  0.92668249  1
  Ti4+  Ti12  1  -0.00077193  -0.00052779  0.75429573  1
  Ti4+  Ti13  1  0.00111826  0.50199527  0.75287074  1
  Ti4+  Ti14  1  0.50170295  0.00204096  0.75626158  1
  Ti4+  Ti15  1  0.49883660  0.49924102  0.75603828  1
  Ti4+  Ti16  1  0.33221898  0.16477071  0.08773617  1
  Ti4+  Ti17  1  0.33479895  0.66771499  0.08912851  1
  Ti4+  Ti18  1  0.83509191  0.16839574  0.08666585  1
  Ti4+  Ti19  1  0.83247316  0.66572425  0.08804088  1
  Ti4+  Ti20  1  0.16626760  0.33419635  0.42262699  1
  Ti4+  Ti21  1  0.16648733  0.83410663  0.42212652  1
  Ti4+  Ti22  1  0.66610149  0.33262916  0.42347653  1
  Ti4+  Ti23  1  0.66598667  0.83263286  0.42463131  1
  Cu+  Cu24  1  0.51951685  0.75562088  0.14397171  1
  Cu+  Cu25  1  0.41320013  0.59733257  0.80850731  1
  Cu+  Cu26  1  0.57106443  0.64329085  0.47735660  1
  Cu+  Cu27  1  0.74758879  0.98789594  0.14514274  1
  Cu+  Cu28  1  0.40805509  0.30962991  0.80448209  1
  Cu+  Cu29  1  0.18307894  0.59615755  0.80794762  1
  Cu+  Cu30  1  0.74133287  0.25341557  0.14668727  1
  Cu+  Cu31  1  0.23620293  0.97287115  0.13763236  1
  Cu+  Cu32  1  0.91294707  0.32170241  0.80998194  1
  Cu+  Cu33  1  0.90390562  0.80954005  0.80597680  1
  Cu+  Cu34  1  0.68623110  0.08937454  0.81134743  1
  Cu+  Cu35  1  0.73624139  0.48080557  0.14236561  1
  Cu+  Cu36  1  0.16473393  0.07802470  0.16891320  1
  Cu+  Cu37  1  0.16240757  0.58058574  0.17196733  1
  Cu+  Cu38  1  0.66199734  0.07872254  0.16774680  1
  Cu+  Cu39  1  0.66206542  0.57978679  0.17122113  1
  Cu+  Cu40  1  0.41640745  0.33566716  0.17153569  1
  Cu+  Cu41  1  0.42281782  0.83554959  0.16873659  1
  Cu+  Cu42  1  0.91622477  0.34009752  0.16822034  1
  Cu+  Cu43  1  0.91945251  0.83898362  0.16884148  1
  Cu+  Cu44  1  0.41130183  0.07549045  0.16847347  1
  Cu+  Cu45  1  0.42207744  0.58575465  0.17339243  1
  Cu+  Cu46  1  0.92008753  0.08122886  0.16947112  1
  Cu+  Cu47  1  0.91116582  0.57650356  0.16913577  1
  Cu+  Cu48  1  0.49658034  0.24857816  0.50553706  1
  Cu+  Cu49  1  0.49712099  0.74383897  0.50649816  1
  Cu+  Cu50  1  0.99702395  0.25057202  0.50694705  1
  Cu+  Cu51  1  0.99757261  0.75232480  0.50591895  1
  Cu+  Cu52  1  0.25338294  0.00406056  0.50402795  1
  Cu+  Cu53  1  0.25156185  0.50394724  0.50544811  1
  Cu+  Cu54  1  0.74912475  0.00428955  0.50820343  1
  Cu+  Cu55  1  0.75036696  0.50259309  0.50568993  1
  Cu+  Cu56  1  0.25216837  0.24990686  0.50531156  1
  Cu+  Cu57  1  0.25071012  0.74982163  0.50612714  1
  Cu+  Cu58  1  0.74896364  0.24638020  0.50803126  1
  Cu+  Cu59  1  0.74653472  0.74468402  0.50662737  1
  Cu+  Cu60  1  0.33262256  0.41701370  0.83388130  1
  Cu+  Cu61  1  0.33052776  0.91740807  0.83669099  1
  Cu+  Cu62  1  0.82976453  0.41288893  0.83704096  1
  Cu+  Cu63  1  0.83217333  0.91199240  0.83801347  1
  Cu+  Cu64  1  0.08900879  0.17233391  0.83345612  1
  Cu+  Cu65  1  0.08859913  0.67497045  0.83397831  1
  Cu+  Cu66  1  0.59120934  0.17034856  0.83750885  1
  Cu+  Cu67  1  0.58362096  0.67202554  0.83922534  1
  Cu+  Cu68  1  0.09003114  0.41952047  0.83299723  1
  Cu+  Cu69  1  0.07879805  0.91105261  0.83593899  1
  Cu+  Cu70  1  0.58072769  0.41103410  0.83921636  1
  Cu+  Cu71  1  0.58751617  0.91711829  0.84021169  1
  Cu+  Cu72  1  0.16883019  0.08456950  0.67223966  1
  Cu+  Cu73  1  0.17087633  0.58734697  0.67897814  1
  Cu+  Cu74  1  0.67065957  0.08699643  0.68262790  1
  Cu+  Cu75  1  0.66692540  0.58441925  0.67678160  1
  Cu+  Cu76  1  0.41463545  0.32828421  0.67733632  1
  Cu+  Cu77  1  0.41707860  0.83309099  0.67464397  1
  Cu+  Cu78  1  0.91302826  0.33114558  0.67987675  1
  Cu+  Cu79  1  0.91223265  0.82912054  0.67833414  1
  Cu+  Cu80  1  0.41714445  0.08642816  0.67433877  1
  Cu+  Cu81  1  0.41582023  0.58546134  0.68017213  1
  Cu+  Cu82  1  0.91516089  0.08525666  0.67560617  1
  Cu+  Cu83  1  0.91592577  0.58715050  0.67408400  1
  Cu+  Cu84  1  0.00709517  0.25627075  0.00555975  1
  Cu+  Cu85  1  -0.00043823  0.75047150  0.00637828  1
  Cu+  Cu86  1  0.50001888  0.24908714  0.00838246  1
  Cu+  Cu87  1  0.50482984  0.75322534  0.01511128  1
  Cu+  Cu88  1  0.25201244  0.50112985  0.00660744  1
  Cu+  Cu89  1  0.24455701  0.99464842  0.00892938  1
  Cu+  Cu90  1  0.74684733  0.49494305  0.01288990  1
  Cu+  Cu91  1  0.75216676  0.99911275  0.01415903  1
  Cu+  Cu92  1  0.25239584  0.25341650  0.00588377  1
  Cu+  Cu93  1  0.24852664  0.75035729  0.00766509  1
  Cu+  Cu94  1  0.75237887  0.25349522  0.01537496  1
  Cu+  Cu95  1  0.75029533  0.75028503  0.00957308  1
  Cu+  Cu96  1  0.33513282  0.42030035  0.34214356  1
  Cu+  Cu97  1  0.33336581  0.91516663  0.34035150  1
  Cu+  Cu98  1  0.83182211  0.41437601  0.34322044  1
  Cu+  Cu99  1  0.83678970  0.92043372  0.34306169  1
  Cu+  Cu100  1  0.08232340  0.16494955  0.33949992  1
  Cu+  Cu101  1  0.07847519  0.66213976  0.34040804  1
  Cu+  Cu102  1  0.58138078  0.16244270  0.34120355  1
  Cu+  Cu103  1  0.58284667  0.66414889  0.34796340  1
  Cu+  Cu104  1  0.07963483  0.41689076  0.34113624  1
  Cu+  Cu105  1  0.08417278  0.91898656  0.34078949  1
  Cu+  Cu106  1  0.58350353  0.41804006  0.34387787  1
  Cu+  Cu107  1  0.58370294  0.91727291  0.34335683  1
  Cu+  Cu108  1  0.00275156  0.00282799  0.11147629  1
  Cu+  Cu109  1  0.00490247  0.50688138  0.11321638  1
  Cu+  Cu110  1  0.49849293  0.00084752  0.11174871  1
  Cu+  Cu111  1  0.49588978  0.49693366  0.11627657  1
  Cu+  Cu112  1  0.33290278  0.16799251  0.44758825  1
  Cu+  Cu113  1  0.33162657  0.66894480  0.44987059  1
  Cu+  Cu114  1  0.83436632  0.16743109  0.45185683  1
  Cu+  Cu115  1  0.83629929  0.66794440  0.44977530  1
  Cu+  Cu116  1  0.16562754  0.33184335  0.77506825  1
  Cu+  Cu117  1  0.17130431  0.84201742  0.77807686  1
  Cu+  Cu118  1  0.66748445  0.33668095  0.78148155  1
  Cu+  Cu119  1  0.66768172  0.83527111  0.78300865  1
  Te2-  Te120  1  0.00208733  0.00132323  0.38446399  1
  Te2-  Te121  1  -0.00310382  0.49836584  0.38532216  1
  Te2-  Te122  1  0.49810907  -0.00248898  0.38399705  1
  Te2-  Te123  1  0.49838477  0.49737907  0.38930427  1
  Te2-  Te124  1  0.33063328  0.16239089  0.72174517  1
  Te2-  Te125  1  0.33624783  0.67169284  0.72513825  1
  Te2-  Te126  1  0.83612797  0.16707956  0.72748896  1
  Te2-  Te127  1  0.83016119  0.66318585  0.72294803  1
  Te2-  Te128  1  0.17108525  0.33656473  0.04913322  1
  Te2-  Te129  1  0.16282861  0.82860882  0.05245417  1
  Te2-  Te130  1  0.66227985  0.32934926  0.05719902  1
  Te2-  Te131  1  0.67095035  0.83336572  0.05834845  1
  Te2-  Te132  1  0.49414242  0.24127265  0.88267038  1
  Te2-  Te133  1  0.49500452  0.75108440  0.88761435  1
  Te2-  Te134  1  0.99887240  0.24960155  0.87988793  1
  Te2-  Te135  1  0.99025901  0.74157420  0.88100054  1
  Te2-  Te136  1  0.24737920  0.00225278  0.88141476  1
  Te2-  Te137  1  0.25853481  0.51363106  0.88109852  1
  Te2-  Te138  1  0.75806261  0.00554321  0.88591242  1
  Te2-  Te139  1  0.74968576  0.50018857  0.88466677  1
  Te2-  Te140  1  0.25543270  0.24816221  0.88013691  1
  Te2-  Te141  1  0.25666930  0.75025069  0.88211069  1
  Te2-  Te142  1  0.75822905  0.24552081  0.88707271  1
  Te2-  Te143  1  0.75035254  0.74311330  0.88375272  1
  Te2-  Te144  1  0.33080799  0.41795157  0.21599691  1
  Te2-  Te145  1  0.32621596  0.90681488  0.21412948  1
  Te2-  Te146  1  0.81721387  0.40826130  0.21751382  1
  Te2-  Te147  1  0.82672430  0.91165450  0.21700219  1
  Te2-  Te148  1  0.08749550  0.17062610  0.21312733  1
  Te2-  Te149  1  0.07947698  0.66743800  0.21381247  1
  Te2-  Te150  1  0.58102070  0.16859863  0.21431735  1
  Te2-  Te151  1  0.59188592  0.67493696  0.22019709  1
  Te2-  Te152  1  0.08176503  0.41199579  0.21509697  1
  Te2-  Te153  1  0.08540975  0.90950610  0.21495582  1
  Te2-  Te154  1  0.58335098  0.41035260  0.21770386  1
  Te2-  Te155  1  0.59056769  0.91137104  0.21726906  1
  Te2-  Te156  1  0.16238968  0.08116724  0.54696004  1
  Te2-  Te157  1  0.16341714  0.58256419  0.55198927  1
  Te2-  Te158  1  0.66000664  0.08069617  0.55581294  1
  Te2-  Te159  1  0.65632801  0.57543034  0.55143033  1
  Te2-  Te160  1  0.41940119  0.33848092  0.55101085  1
  Te2-  Te161  1  0.42029547  0.83640642  0.54870777  1
  Te2-  Te162  1  0.91678034  0.33791911  0.55265738  1
  Te2-  Te163  1  0.91456621  0.83712688  0.55140399  1
  Te2-  Te164  1  0.42034445  0.08125743  0.54905333  1
  Te2-  Te165  1  0.41756501  0.57587505  0.55318248  1
  Te2-  Te166  1  0.91772723  0.08185685  0.55003639  1
  Te2-  Te167  1  0.91849506  0.58339603  0.54863247  1
  Te2-  Te168  1  0.00271698  0.00404847  0.88090743  1
  Te2-  Te169  1  0.00222337  0.50299345  0.88043814  1
  Te2-  Te170  1  0.49947739  0.00025408  0.88309902  1
  Te2-  Te171  1  0.50099468  0.50129173  0.88356699  1
  Te2-  Te172  1  0.33325534  0.16625892  0.21452630  1
  Te2-  Te173  1  0.33170768  0.66656034  0.21589107  1
  Te2-  Te174  1  0.83426775  0.16755035  0.21417438  1
  Te2-  Te175  1  0.83322302  0.66840215  0.21465940  1
  Te2-  Te176  1  0.16685751  0.33428663  0.54896448  1
  Te2-  Te177  1  0.16686961  0.83536547  0.54854364  1
  Te2-  Te178  1  0.66559257  0.33322671  0.54967597  1
  Te2-  Te179  1  0.66650672  0.83449024  0.55128169  1
  Te2-  Te180  1  0.32614658  0.41261216  0.70744451  1
  Te2-  Te181  1  0.33025610  0.91636918  0.71022049  1
  Te2-  Te182  1  0.82659548  0.41722994  0.71026134  1
  Te2-  Te183  1  0.82569808  0.91521962  0.71105417  1
  Te2-  Te184  1  0.08597422  0.17131659  0.70784577  1
  Te2-  Te185  1  0.08617446  0.67592304  0.70817356  1
  Te2-  Te186  1  0.58601609  0.17525494  0.71153395  1
  Te2-  Te187  1  0.58742292  0.67402158  0.71257853  1
  Te2-  Te188  1  0.08708436  0.41399587  0.70611343  1
  Te2-  Te189  1  0.08609149  0.91467331  0.70838636  1
  Te2-  Te190  1  0.58660821  0.41409629  0.71171422  1
  Te2-  Te191  1  0.58633667  0.91329323  0.71267197  1
  Te2-  Te192  1  0.16105695  0.08312482  0.04137451  1
  Te2-  Te193  1  0.16313342  0.58138621  0.04444570  1
  Te2-  Te194  1  0.65979621  0.07990855  0.04080243  1
  Te2-  Te195  1  0.65862779  0.57987388  0.04424375  1
  Te2-  Te196  1  0.42017082  0.33820879  0.04496830  1
  Te2-  Te197  1  0.41851367  0.84027552  0.04258000  1
  Te2-  Te198  1  0.92498941  0.34293375  0.04232494  1
  Te2-  Te199  1  0.91987086  0.83924581  0.04347082  1
  Te2-  Te200  1  0.41770541  0.07828598  0.04121139  1
  Te2-  Te201  1  0.42083716  0.58046921  0.04530645  1
  Te2-  Te202  1  0.92559717  0.08585135  0.04200902  1
  Te2-  Te203  1  0.91993556  0.58055563  0.04210954  1
  Te2-  Te204  1  0.49488430  0.24677753  0.37858210  1
  Te2-  Te205  1  0.49327301  0.74732920  0.37924115  1
  Te2-  Te206  1  0.99474144  0.24714034  0.37948189  1
  Te2-  Te207  1  0.99514590  0.74885690  0.37850574  1
  Te2-  Te208  1  0.25384400  0.00547622  0.37740886  1
  Te2-  Te209  1  0.25045915  0.50592734  0.37891432  1
  Te2-  Te210  1  0.75257806  0.00541766  0.38147845  1
  Te2-  Te211  1  0.75282661  0.50530676  0.37968078  1
  Te2-  Te212  1  0.25249219  0.24927018  0.37806111  1
  Te2-  Te213  1  0.24917741  0.74541091  0.37851771  1
  Te2-  Te214  1  0.75058239  0.24464801  0.38074348  1
  Te2-  Te215  1  0.75561915  0.74989271  0.37959438  1
