# generated using pymatgen
data_Ti(CuTe)4
_symmetry_space_group_name_H-M   'P 1'
_cell_length_a   16.88549401
_cell_length_b   16.88883992
_cell_length_c   20.71044571
_cell_angle_alpha   90.00537154
_cell_angle_beta   90.04425536
_cell_angle_gamma   120.00136464
_symmetry_Int_Tables_number   1
_chemical_formula_structural   Ti(CuTe)4
_chemical_formula_sum   'Ti24 Cu96 Te96'
_cell_volume   5114.78636604
_cell_formula_units_Z   24
loop_
 _symmetry_equiv_pos_site_id
 _symmetry_equiv_pos_as_xyz
  1  'x, y, z'
loop_
 _atom_type_symbol
 _atom_type_oxidation_number
  Ti4+  4.0
  Cu+  1.0
  Te2-  -2.0
loop_
 _atom_site_type_symbol
 _atom_site_label
 _atom_site_symmetry_multiplicity
 _atom_site_fract_x
 _atom_site_fract_y
 _atom_site_fract_z
 _atom_site_occupancy
  Ti4+  Ti0  1  -0.00127235  0.00093248  0.25641226  1
  Ti4+  Ti1  1  -0.00361716  0.49884446  0.26227590  1
  Ti4+  Ti2  1  0.49650609  -0.00244463  0.25746202  1
  Ti4+  Ti3  1  0.50003683  0.50150801  0.25366370  1
  Ti4+  Ti4  1  0.33267844  0.16449560  0.58795214  1
  Ti4+  Ti5  1  0.33327243  0.66488144  0.59170161  1
  Ti4+  Ti6  1  0.83175448  0.16461136  0.59118323  1
  Ti4+  Ti7  1  0.83664001  0.66737464  0.59295710  1
  Ti4+  Ti8  1  0.16867957  0.33678132  0.92403446  1
  Ti4+  Ti9  1  0.16400920  0.83279341  0.92619241  1
  Ti4+  Ti10  1  0.66993591  0.33326190  0.92508858  1
  Ti4+  Ti11  1  0.66776386  0.83537068  0.92291595  1
  Ti4+  Ti12  1  0.00147748  -0.00052011  0.75596809  1
  Ti4+  Ti13  1  -0.00007407  0.49979773  0.75557517  1
  Ti4+  Ti14  1  0.50226061  0.00098353  0.75577826  1
  Ti4+  Ti15  1  0.49992342  0.50062167  0.75490028  1
  Ti4+  Ti16  1  0.33327610  0.16683876  0.08661735  1
  Ti4+  Ti17  1  0.33517487  0.66870044  0.08889259  1
  Ti4+  Ti18  1  0.83474060  0.16796929  0.09068959  1
  Ti4+  Ti19  1  0.83280504  0.66639766  0.09032737  1
  Ti4+  Ti20  1  0.16811625  0.33458186  0.42158616  1
  Ti4+  Ti21  1  0.16459769  0.83373858  0.42152435  1
  Ti4+  Ti22  1  0.66518648  0.33085769  0.42179610  1
  Ti4+  Ti23  1  0.66683862  0.83304867  0.42355722  1
  Cu+  Cu24  1  0.23879184  0.97940187  0.14214879  1
  Cu+  Cu25  1  0.73976780  0.47790355  0.14330979  1
  Cu+  Cu26  1  0.06971078  0.92768210  0.47196601  1
  Cu+  Cu27  1  0.90676952  0.58892664  0.81265921  1
  Cu+  Cu28  1  0.84609054  0.41816388  0.47981989  1
  Cu+  Cu29  1  0.69313350  0.09684975  0.80714975  1
  Cu+  Cu30  1  0.40528150  0.59605047  0.80809904  1
  Cu+  Cu31  1  0.73837992  0.76286101  0.13869860  1
  Cu+  Cu32  1  0.90708537  0.81689804  0.81269331  1
  Cu+  Cu33  1  0.23728960  0.25932710  0.13835124  1
  Cu+  Cu34  1  0.07962264  0.65232497  0.47944441  1
  Cu+  Cu35  1  0.57072676  0.14036198  0.47196073  1
  Cu+  Cu36  1  0.16397837  0.08193591  0.16877265  1
  Cu+  Cu37  1  0.16611611  0.58640008  0.17527293  1
  Cu+  Cu38  1  0.66390849  0.08276569  0.17321125  1
  Cu+  Cu39  1  0.66441127  0.58320911  0.16852173  1
  Cu+  Cu40  1  0.41424750  0.33753608  0.16603230  1
  Cu+  Cu41  1  0.41773182  0.83673007  0.17010754  1
  Cu+  Cu42  1  0.91550936  0.33550044  0.17470565  1
  Cu+  Cu43  1  0.91368556  0.83701131  0.17084245  1
  Cu+  Cu44  1  0.41392807  0.07685484  0.16995380  1
  Cu+  Cu45  1  0.42113110  0.58452622  0.16751581  1
  Cu+  Cu46  1  0.91756441  0.08200666  0.17031172  1
  Cu+  Cu47  1  0.91314952  0.57630346  0.17549128  1
  Cu+  Cu48  1  0.49669186  0.24147957  0.50202088  1
  Cu+  Cu49  1  0.49816197  0.74633314  0.50652910  1
  Cu+  Cu50  1  0.99956132  0.24834442  0.50455869  1
  Cu+  Cu51  1  0.99770711  0.74931458  0.50406037  1
  Cu+  Cu52  1  0.24670379  0.00408523  0.50074879  1
  Cu+  Cu53  1  0.25380724  0.50246999  0.50401086  1
  Cu+  Cu54  1  0.74905701  0.00144268  0.50526156  1
  Cu+  Cu55  1  0.75609764  0.50229437  0.50428643  1
  Cu+  Cu56  1  0.25300489  0.24867187  0.50197819  1
  Cu+  Cu57  1  0.25162247  0.74566396  0.50472482  1
  Cu+  Cu58  1  0.74793771  0.24280359  0.50379877  1
  Cu+  Cu59  1  0.75499285  0.75120587  0.50666080  1
  Cu+  Cu60  1  0.33136469  0.42096480  0.83735516  1
  Cu+  Cu61  1  0.33122815  0.91711966  0.83997792  1
  Cu+  Cu62  1  0.82871101  0.41579842  0.83764804  1
  Cu+  Cu63  1  0.83036297  0.91336396  0.83712561  1
  Cu+  Cu64  1  0.08637172  0.17128878  0.83875045  1
  Cu+  Cu65  1  0.08145229  0.66996954  0.83766746  1
  Cu+  Cu66  1  0.59208470  0.16890669  0.83761624  1
  Cu+  Cu67  1  0.58128955  0.67029784  0.83573252  1
  Cu+  Cu68  1  0.08651647  0.41555817  0.83710353  1
  Cu+  Cu69  1  0.08215534  0.91194531  0.83903287  1
  Cu+  Cu70  1  0.58624032  0.41625841  0.83823410  1
  Cu+  Cu71  1  0.59120728  0.92185323  0.83585893  1
  Cu+  Cu72  1  0.16953514  0.08407675  0.67362740  1
  Cu+  Cu73  1  0.16843561  0.58247108  0.67583699  1
  Cu+  Cu74  1  0.66982416  0.08578341  0.67878737  1
  Cu+  Cu75  1  0.66996577  0.58338748  0.67513630  1
  Cu+  Cu76  1  0.41590005  0.32943039  0.67165557  1
  Cu+  Cu77  1  0.41519013  0.82976942  0.67474768  1
  Cu+  Cu78  1  0.91471230  0.33101235  0.67595538  1
  Cu+  Cu79  1  0.92002164  0.83123620  0.68225565  1
  Cu+  Cu80  1  0.41542253  0.08335770  0.67223246  1
  Cu+  Cu81  1  0.41476875  0.58371574  0.67904283  1
  Cu+  Cu82  1  0.91680408  0.08392309  0.67456777  1
  Cu+  Cu83  1  0.91793911  0.58456425  0.68170944  1
  Cu+  Cu84  1  0.00424729  0.25377189  0.00947590  1
  Cu+  Cu85  1  0.00054630  0.74952534  0.01217076  1
  Cu+  Cu86  1  0.50504116  0.25035372  0.00638848  1
  Cu+  Cu87  1  0.50200649  0.75325559  0.00693780  1
  Cu+  Cu88  1  0.25096080  0.50154579  0.00898040  1
  Cu+  Cu89  1  0.24766592  0.99656960  0.01221054  1
  Cu+  Cu90  1  0.75127427  0.49668367  0.01431277  1
  Cu+  Cu91  1  0.75150379  1.00088123  0.00864525  1
  Cu+  Cu92  1  0.25050678  0.25495430  0.00903027  1
  Cu+  Cu93  1  0.24870021  0.75225966  0.00923599  1
  Cu+  Cu94  1  0.75278122  0.25238318  0.00968897  1
  Cu+  Cu95  1  0.74966238  0.75302999  0.01047917  1
  Cu+  Cu96  1  0.33497102  0.41921920  0.33849209  1
  Cu+  Cu97  1  0.33191661  0.91620390  0.34116234  1
  Cu+  Cu98  1  0.83284411  0.41600465  0.34948942  1
  Cu+  Cu99  1  0.83326687  0.91714205  0.34259911  1
  Cu+  Cu100  1  0.08426708  0.16717921  0.34072253  1
  Cu+  Cu101  1  0.07747443  0.66305436  0.34890772  1
  Cu+  Cu102  1  0.57808336  0.16001908  0.34352808  1
  Cu+  Cu103  1  0.58480257  0.66595841  0.34007866  1
  Cu+  Cu104  1  0.08249712  0.41984938  0.34484465  1
  Cu+  Cu105  1  0.08105617  0.91995424  0.34354185  1
  Cu+  Cu106  1  0.58104148  0.41860047  0.33804134  1
  Cu+  Cu107  1  0.58075340  0.91616398  0.34187751  1
  Cu+  Cu108  1  0.00008275  0.00136490  0.11214774  1
  Cu+  Cu109  1  0.00518374  0.50012717  0.12100946  1
  Cu+  Cu110  1  0.50381712  0.00182616  0.11438627  1
  Cu+  Cu111  1  0.49996318  0.50009683  0.10826757  1
  Cu+  Cu112  1  0.33545361  0.17088067  0.44331493  1
  Cu+  Cu113  1  0.33715936  0.66840932  0.44857057  1
  Cu+  Cu114  1  0.83741150  0.16392017  0.44851713  1
  Cu+  Cu115  1  0.82774696  0.66406122  0.44898133  1
  Cu+  Cu116  1  0.16680724  0.33097910  0.78060087  1
  Cu+  Cu117  1  0.17239054  0.83514179  0.78288134  1
  Cu+  Cu118  1  0.66054594  0.33090034  0.78153533  1
  Cu+  Cu119  1  0.66717367  0.83321714  0.77840596  1
  Te2-  Te120  1  -0.00201970  0.00325130  0.38676805  1
  Te2-  Te121  1  -0.00152762  0.49807583  0.39488917  1
  Te2-  Te122  1  0.49522775  -0.00593101  0.38815385  1
  Te2-  Te123  1  0.49953105  0.50090168  0.38241900  1
  Te2-  Te124  1  0.33411436  0.16594738  0.71688194  1
  Te2-  Te125  1  0.33190184  0.66725960  0.72236095  1
  Te2-  Te126  1  0.83679812  0.16729275  0.72175192  1
  Te2-  Te127  1  0.83195799  0.66481261  0.72505804  1
  Te2-  Te128  1  0.16808770  0.33771530  0.05468564  1
  Te2-  Te129  1  0.16453456  0.83102787  0.05647754  1
  Te2-  Te130  1  0.66680466  0.32985267  0.05576416  1
  Te2-  Te131  1  0.66597896  0.83642035  0.05301533  1
  Te2-  Te132  1  0.50045294  0.24689064  0.88028002  1
  Te2-  Te133  1  0.49550334  0.75377083  0.88096543  1
  Te2-  Te134  1  0.99675841  0.24949105  0.88350580  1
  Te2-  Te135  1  0.98641955  0.74308808  0.88636096  1
  Te2-  Te136  1  0.24939411  0.00328715  0.88486912  1
  Te2-  Te137  1  0.25232776  0.51108149  0.88336340  1
  Te2-  Te138  1  0.75927414  0.00884371  0.88278155  1
  Te2-  Te139  1  0.75222903  0.50720643  0.88675701  1
  Te2-  Te140  1  0.25495744  0.25233434  0.88204672  1
  Te2-  Te141  1  0.24888816  0.74791807  0.88302395  1
  Te2-  Te142  1  0.76072856  0.25052882  0.88396160  1
  Te2-  Te143  1  0.74877230  0.74350813  0.88338008  1
  Te2-  Te144  1  0.32612813  0.41726781  0.21274310  1
  Te2-  Te145  1  0.32225879  0.90797015  0.21588220  1
  Te2-  Te146  1  0.82247227  0.40833969  0.22214194  1
  Te2-  Te147  1  0.82452634  0.91587491  0.21667171  1
  Te2-  Te148  1  0.08510439  0.17346874  0.21483426  1
  Te2-  Te149  1  0.08084757  0.66946014  0.22119467  1
  Te2-  Te150  1  0.58123070  0.16875813  0.21655335  1
  Te2-  Te151  1  0.58694216  0.67562450  0.21432718  1
  Te2-  Te152  1  0.08400595  0.41695237  0.21858989  1
  Te2-  Te153  1  0.08217619  0.91177881  0.21632839  1
  Te2-  Te154  1  0.58247186  0.41113710  0.21235686  1
  Te2-  Te155  1  0.58424406  0.91413339  0.21599930  1
  Te2-  Te156  1  0.15743227  0.08166196  0.54802273  1
  Te2-  Te157  1  0.15960116  0.57505880  0.55033963  1
  Te2-  Te158  1  0.65769895  0.07637708  0.55188296  1
  Te2-  Te159  1  0.66762339  0.58155807  0.54892743  1
  Te2-  Te160  1  0.42146209  0.33523076  0.54554881  1
  Te2-  Te161  1  0.41843126  0.83593017  0.54871277  1
  Te2-  Te162  1  0.92011572  0.33714407  0.55001419  1
  Te2-  Te163  1  0.92161169  0.84002936  0.55394923  1
  Te2-  Te164  1  0.41455361  0.07243888  0.54676855  1
  Te2-  Te165  1  0.41929574  0.57917394  0.55191627  1
  Te2-  Te166  1  0.91774182  0.08013607  0.54859449  1
  Te2-  Te167  1  0.92432527  0.57939132  0.55354638  1
  Te2-  Te168  1  0.00071418  0.00161337  0.88279059  1
  Te2-  Te169  1  0.00010740  0.49940768  0.88229713  1
  Te2-  Te170  1  0.50055084  0.00004364  0.88259871  1
  Te2-  Te171  1  0.50141276  0.50111692  0.88171446  1
  Te2-  Te172  1  0.33455847  0.16839153  0.21387665  1
  Te2-  Te173  1  0.33620900  0.66813421  0.21495144  1
  Te2-  Te174  1  0.83286806  0.16570139  0.21675014  1
  Te2-  Te175  1  0.83288874  0.66749182  0.21749381  1
  Te2-  Te176  1  0.16905871  0.33285490  0.54758739  1
  Te2-  Te177  1  0.16912362  0.83426541  0.54876184  1
  Te2-  Te178  1  0.66606571  0.33207594  0.54926537  1
  Te2-  Te179  1  0.66734889  0.83262340  0.54961378  1
  Te2-  Te180  1  0.32789837  0.41104471  0.71000529  1
  Te2-  Te181  1  0.33040013  0.91466215  0.71231229  1
  Te2-  Te182  1  0.82564700  0.41159351  0.71105577  1
  Te2-  Te183  1  0.82874966  0.91395850  0.71004359  1
  Te2-  Te184  1  0.08661541  0.17084276  0.71156638  1
  Te2-  Te185  1  0.09020031  0.67385720  0.71111273  1
  Te2-  Te186  1  0.58483540  0.17281089  0.71004542  1
  Te2-  Te187  1  0.58849005  0.67277673  0.70876527  1
  Te2-  Te188  1  0.08536531  0.41267724  0.71129686  1
  Te2-  Te189  1  0.09161542  0.91586052  0.71240062  1
  Te2-  Te190  1  0.58517078  0.41380292  0.71105284  1
  Te2-  Te191  1  0.58576281  0.91266348  0.70931528  1
  Te2-  Te192  1  0.15988074  0.08215316  0.04082205  1
  Te2-  Te193  1  0.16229142  0.58265106  0.04749972  1
  Te2-  Te194  1  0.66337843  0.08234575  0.04574821  1
  Te2-  Te195  1  0.66100788  0.58039448  0.04110677  1
  Te2-  Te196  1  0.42303561  0.33915410  0.03957649  1
  Te2-  Te197  1  0.41940291  0.84032849  0.04390837  1
  Te2-  Te198  1  0.92160324  0.34047071  0.04813572  1
  Te2-  Te199  1  0.92067746  0.83990195  0.04438316  1
  Te2-  Te200  1  0.42088329  0.08081303  0.04279216  1
  Te2-  Te201  1  0.42137923  0.58354571  0.04178514  1
  Te2-  Te202  1  0.92111757  0.08328755  0.04433220  1
  Te2-  Te203  1  0.92216683  0.58056219  0.04864579  1
  Te2-  Te204  1  0.49387865  0.24842411  0.37454128  1
  Te2-  Te205  1  0.49582208  0.74651358  0.37902671  1
  Te2-  Te206  1  0.99561105  0.24855611  0.37786528  1
  Te2-  Te207  1  0.98951710  0.74787752  0.37713756  1
  Te2-  Te208  1  0.25306619  0.00690341  0.37479609  1
  Te2-  Te209  1  0.25355853  0.50688764  0.37786535  1
  Te2-  Te210  1  0.75051422  0.00439182  0.37870318  1
  Te2-  Te211  1  0.74921519  0.50499639  0.37743308  1
  Te2-  Te212  1  0.25401295  0.24955996  0.37529325  1
  Te2-  Te213  1  0.25127199  0.74636604  0.37747766  1
  Te2-  Te214  1  0.75061649  0.24226667  0.37653217  1
  Te2-  Te215  1  0.75325938  0.74799909  0.37938259  1
