# generated using pymatgen
data_Ti(CuTe)4
_symmetry_space_group_name_H-M   'P 1'
_cell_length_a   16.89312325
_cell_length_b   16.89549716
_cell_length_c   20.71235117
_cell_angle_alpha   90.01783136
_cell_angle_beta   90.01216410
_cell_angle_gamma   120.00619334
_symmetry_Int_Tables_number   1
_chemical_formula_structural   Ti(CuTe)4
_chemical_formula_sum   'Ti24 Cu96 Te96'
_cell_volume   5119.33785008
_cell_formula_units_Z   24
loop_
 _symmetry_equiv_pos_site_id
 _symmetry_equiv_pos_as_xyz
  1  'x, y, z'
loop_
 _atom_type_symbol
 _atom_type_oxidation_number
  Ti4+  4.0
  Cu+  1.0
  Te2-  -2.0
loop_
 _atom_site_type_symbol
 _atom_site_label
 _atom_site_symmetry_multiplicity
 _atom_site_fract_x
 _atom_site_fract_y
 _atom_site_fract_z
 _atom_site_occupancy
  Ti4+  Ti0  1  0.00085010  0.00069411  0.25711631  1
  Ti4+  Ti1  1  0.00258793  0.49941222  0.26139054  1
  Ti4+  Ti2  1  0.50143232  0.00074043  0.26144416  1
  Ti4+  Ti3  1  0.49904964  0.50266642  0.25288037  1
  Ti4+  Ti4  1  0.33171322  0.16743258  0.58676748  1
  Ti4+  Ti5  1  0.33442332  0.66802982  0.59501967  1
  Ti4+  Ti6  1  0.82987569  0.16551025  0.59399602  1
  Ti4+  Ti7  1  0.83520083  0.66669430  0.58682219  1
  Ti4+  Ti8  1  0.16229143  0.33080326  0.92351058  1
  Ti4+  Ti9  1  0.16822195  0.83142462  0.92360249  1
  Ti4+  Ti10  1  0.66612994  0.33338938  0.92312304  1
  Ti4+  Ti11  1  0.66702105  0.83374677  0.92720989  1
  Ti4+  Ti12  1  -0.00038738  0.00004632  0.75541743  1
  Ti4+  Ti13  1  -0.00036936  0.50001345  0.75354569  1
  Ti4+  Ti14  1  0.49896455  -0.00076141  0.75582112  1
  Ti4+  Ti15  1  0.50054257  0.50014117  0.75506676  1
  Ti4+  Ti16  1  0.33355458  0.16685755  0.08698312  1
  Ti4+  Ti17  1  0.33286800  0.66463022  0.08950449  1
  Ti4+  Ti18  1  0.83303689  0.16685720  0.09192888  1
  Ti4+  Ti19  1  0.83469963  0.66777808  0.08790850  1
  Ti4+  Ti20  1  0.16728186  0.33387764  0.42356094  1
  Ti4+  Ti21  1  0.16656321  0.83450785  0.41972187  1
  Ti4+  Ti22  1  0.66748373  0.33418793  0.41887564  1
  Ti4+  Ti23  1  0.66638590  0.83316806  0.42388367  1
  Cu+  Cu24  1  0.23509380  0.47501585  0.13933800  1
  Cu+  Cu25  1  0.41203397  0.81641181  0.81331891  1
  Cu+  Cu26  1  0.90574149  0.31928790  0.81227656  1
  Cu+  Cu27  1  0.90119309  0.08776436  0.80896853  1
  Cu+  Cu28  1  0.07238689  0.92787712  0.47155824  1
  Cu+  Cu29  1  0.57048321  0.92229319  0.47846840  1
  Cu+  Cu30  1  0.57440937  0.15430930  0.47766138  1
  Cu+  Cu31  1  0.74677203  0.76375052  0.14267417  1
  Cu+  Cu32  1  0.51479335  0.76218750  0.14458722  1
  Cu+  Cu33  1  0.84783613  0.41960344  0.47667760  1
  Cu+  Cu34  1  0.17823435  0.58616128  0.81335151  1
  Cu+  Cu35  1  0.08237724  0.65487036  0.47869106  1
  Cu+  Cu36  1  0.16540166  0.08236908  0.17031625  1
  Cu+  Cu37  1  0.16380795  0.57661222  0.17359637  1
  Cu+  Cu38  1  0.66500881  0.08160601  0.17508650  1
  Cu+  Cu39  1  0.66560138  0.58879951  0.16681224  1
  Cu+  Cu40  1  0.41547109  0.33732058  0.16626997  1
  Cu+  Cu41  1  0.42243238  0.83923271  0.17410770  1
  Cu+  Cu42  1  0.91819673  0.33557367  0.17468685  1
  Cu+  Cu43  1  0.91848040  0.83881297  0.17062824  1
  Cu+  Cu44  1  0.41952971  0.08499787  0.17337524  1
  Cu+  Cu45  1  0.41744623  0.58134167  0.16659400  1
  Cu+  Cu46  1  0.91968581  0.08327981  0.17214358  1
  Cu+  Cu47  1  0.92127460  0.58359441  0.17426792  1
  Cu+  Cu48  1  0.49451016  0.24722914  0.49982590  1
  Cu+  Cu49  1  0.49821917  0.75187654  0.50830699  1
  Cu+  Cu50  1  0.99768450  0.24697044  0.50767753  1
  Cu+  Cu51  1  0.99688454  0.74932419  0.49871407  1
  Cu+  Cu52  1  0.24744356  0.00604010  0.49904465  1
  Cu+  Cu53  1  0.25130909  0.50172262  0.50798010  1
  Cu+  Cu54  1  0.74571085  0.00000393  0.50674738  1
  Cu+  Cu55  1  0.75603088  0.50421524  0.49872084  1
  Cu+  Cu56  1  0.25218734  0.24954895  0.50193158  1
  Cu+  Cu57  1  0.25382767  0.74737053  0.50577765  1
  Cu+  Cu58  1  0.75089345  0.24611281  0.50372279  1
  Cu+  Cu59  1  0.75210275  0.74649707  0.50205730  1
  Cu+  Cu60  1  0.33099127  0.41494694  0.83732374  1
  Cu+  Cu61  1  0.33046368  0.91023708  0.83623232  1
  Cu+  Cu62  1  0.82591410  0.41136481  0.83581008  1
  Cu+  Cu63  1  0.83132761  0.91772082  0.84001413  1
  Cu+  Cu64  1  0.07614493  0.16620574  0.83576506  1
  Cu+  Cu65  1  0.08980591  0.67190679  0.83557599  1
  Cu+  Cu66  1  0.58485341  0.17037347  0.83664361  1
  Cu+  Cu67  1  0.58627006  0.66851252  0.83944353  1
  Cu+  Cu68  1  0.08328933  0.41086826  0.83497511  1
  Cu+  Cu69  1  0.08565853  0.91411292  0.83768470  1
  Cu+  Cu70  1  0.58530020  0.41568430  0.83726887  1
  Cu+  Cu71  1  0.58378316  0.91234433  0.83948119  1
  Cu+  Cu72  1  0.16790793  0.08428595  0.67216842  1
  Cu+  Cu73  1  0.16989457  0.58671299  0.68276608  1
  Cu+  Cu74  1  0.66518781  0.08383651  0.67844684  1
  Cu+  Cu75  1  0.67026597  0.58448620  0.67171414  1
  Cu+  Cu76  1  0.41597373  0.33178103  0.67086968  1
  Cu+  Cu77  1  0.41533801  0.83092371  0.68305800  1
  Cu+  Cu78  1  0.91407529  0.33124385  0.68161587  1
  Cu+  Cu79  1  0.91752968  0.83205706  0.67239392  1
  Cu+  Cu80  1  0.41380581  0.08563007  0.67180267  1
  Cu+  Cu81  1  0.41829907  0.58625260  0.67708499  1
  Cu+  Cu82  1  0.91245050  0.08365685  0.68061159  1
  Cu+  Cu83  1  0.91665211  0.58550804  0.67211701  1
  Cu+  Cu84  1  -0.00246284  0.25060386  0.01055003  1
  Cu+  Cu85  1  0.00455603  0.74982713  0.00690906  1
  Cu+  Cu86  1  0.50237221  0.25036907  0.00617889  1
  Cu+  Cu87  1  0.50159947  0.75014718  0.01502461  1
  Cu+  Cu88  1  0.24421508  0.49493149  0.01196602  1
  Cu+  Cu89  1  0.25075272  0.99596031  0.00693249  1
  Cu+  Cu90  1  0.75127523  0.49648719  0.00617087  1
  Cu+  Cu91  1  0.74832184  0.99934451  0.01200536  1
  Cu+  Cu92  1  0.24620244  0.24856288  0.00531512  1
  Cu+  Cu93  1  0.24957680  0.74965558  0.01051993  1
  Cu+  Cu94  1  0.74833948  0.25172536  0.00984832  1
  Cu+  Cu95  1  0.75104687  0.75352898  0.01285307  1
  Cu+  Cu96  1  0.33473582  0.42052695  0.33956398  1
  Cu+  Cu97  1  0.33682067  0.91820216  0.34208887  1
  Cu+  Cu98  1  0.83873972  0.42019980  0.34731764  1
  Cu+  Cu99  1  0.83562362  0.91725312  0.34263107  1
  Cu+  Cu100  1  0.08315867  0.16523947  0.34123047  1
  Cu+  Cu101  1  0.08394472  0.66333325  0.34757559  1
  Cu+  Cu102  1  0.58370657  0.16484645  0.34740507  1
  Cu+  Cu103  1  0.58179907  0.66637113  0.34001752  1
  Cu+  Cu104  1  0.08388432  0.41700056  0.34522113  1
  Cu+  Cu105  1  0.08191700  0.91914137  0.34233000  1
  Cu+  Cu106  1  0.58176701  0.42086810  0.33416498  1
  Cu+  Cu107  1  0.58232215  0.91852790  0.34997754  1
  Cu+  Cu108  1  0.00391791  0.00355278  0.11383767  1
  Cu+  Cu109  1  -0.00323654  0.49921429  0.11855724  1
  Cu+  Cu110  1  0.50070281  0.00427405  0.11896973  1
  Cu+  Cu111  1  0.50349794  0.49699480  0.10799281  1
  Cu+  Cu112  1  0.33468954  0.17077057  0.44084716  1
  Cu+  Cu113  1  0.33596071  0.66346389  0.45243920  1
  Cu+  Cu114  1  0.83727647  0.16422731  0.45156084  1
  Cu+  Cu115  1  0.83073055  0.66614854  0.44084689  1
  Cu+  Cu116  1  0.17105362  0.32897854  0.78027170  1
  Cu+  Cu117  1  0.16669067  0.83766651  0.77916075  1
  Cu+  Cu118  1  0.66144189  0.33261998  0.77896583  1
  Cu+  Cu119  1  0.66865415  0.83084094  0.78416489  1
  Te2-  Te120  1  -0.00053102  0.00193639  0.38764608  1
  Te2-  Te121  1  0.00332460  0.49886294  0.39376251  1
  Te2-  Te122  1  0.49750550  -0.00007205  0.39384264  1
  Te2-  Te123  1  0.49990616  0.50118393  0.38161256  1
  Te2-  Te124  1  0.33225603  0.16803581  0.71566280  1
  Te2-  Te125  1  0.33549961  0.66522669  0.72688081  1
  Te2-  Te126  1  0.82824747  0.16541032  0.72570505  1
  Te2-  Te127  1  0.83452652  0.66750502  0.71550088  1
  Te2-  Te128  1  0.16253400  0.32767110  0.05347022  1
  Te2-  Te129  1  0.16782500  0.83268632  0.05250151  1
  Te2-  Te130  1  0.66555990  0.33368024  0.05222628  1
  Te2-  Te131  1  0.66790127  0.83605009  0.05880918  1
  Te2-  Te132  1  0.49462441  0.24715546  0.88053981  1
  Te2-  Te133  1  0.49399359  0.74321827  0.88718790  1
  Te2-  Te134  1  0.98587658  0.24378596  0.88437693  1
  Te2-  Te135  1  0.99727233  0.74544599  0.88106472  1
  Te2-  Te136  1  0.25455732  0.00171612  0.88077550  1
  Te2-  Te137  1  0.25195365  0.50368076  0.88461735  1
  Te2-  Te138  1  0.74957376  0.00656908  0.88576016  1
  Te2-  Te139  1  0.75411208  0.50501217  0.88046136  1
  Te2-  Te140  1  0.24539210  0.24511317  0.87899201  1
  Te2-  Te141  1  0.25713192  0.74186992  0.88501345  1
  Te2-  Te142  1  0.75057783  0.24233181  0.88411073  1
  Te2-  Te143  1  0.75381732  0.75074551  0.88529280  1
  Te2-  Te144  1  0.32532733  0.41340242  0.21375181  1
  Te2-  Te145  1  0.33145315  0.91550016  0.21629338  1
  Te2-  Te146  1  0.83159360  0.41610784  0.22021467  1
  Te2-  Te147  1  0.82646127  0.91640686  0.21713856  1
  Te2-  Te148  1  0.08729456  0.17198956  0.21547167  1
  Te2-  Te149  1  0.08937221  0.66994522  0.21982858  1
  Te2-  Te150  1  0.58717812  0.17135162  0.22002455  1
  Te2-  Te151  1  0.58771613  0.67950929  0.21447168  1
  Te2-  Te152  1  0.08551777  0.40860993  0.21936915  1
  Te2-  Te153  1  0.08558101  0.91440223  0.21550325  1
  Te2-  Te154  1  0.58523909  0.41931245  0.20838329  1
  Te2-  Te155  1  0.59062444  0.91571834  0.22265143  1
  Te2-  Te156  1  0.15686093  0.08232694  0.54677610  1
  Te2-  Te157  1  0.16134084  0.57913177  0.55475087  1
  Te2-  Te158  1  0.65423972  0.07838122  0.55233128  1
  Te2-  Te159  1  0.66413760  0.57873966  0.54561838  1
  Te2-  Te160  1  0.42027177  0.33899430  0.54507522  1
  Te2-  Te161  1  0.41809382  0.84142891  0.55534479  1
  Te2-  Te162  1  0.91942333  0.33734414  0.55328889  1
  Te2-  Te163  1  0.91945875  0.84018270  0.54667061  1
  Te2-  Te164  1  0.41456130  0.07656677  0.54615392  1
  Te2-  Te165  1  0.42003730  0.58395609  0.55105229  1
  Te2-  Te166  1  0.91306648  0.07908006  0.55310975  1
  Te2-  Te167  1  0.92435242  0.57900048  0.54690488  1
  Te2-  Te168  1  0.00158241  -0.00170821  0.88237653  1
  Te2-  Te169  1  -0.00127443  0.49917378  0.88082883  1
  Te2-  Te170  1  0.50014476  0.00049653  0.88255732  1
  Te2-  Te171  1  0.49991202  0.49865429  0.88127742  1
  Te2-  Te172  1  0.33440356  0.17001169  0.21320741  1
  Te2-  Te173  1  0.33503033  0.66739418  0.21685296  1
  Te2-  Te174  1  0.83442171  0.16659379  0.21821000  1
  Te2-  Te175  1  0.83453688  0.66793364  0.21478499  1
  Te2-  Te176  1  0.16733552  0.33205230  0.54978235  1
  Te2-  Te177  1  0.16752028  0.83503866  0.54691348  1
  Te2-  Te178  1  0.66530525  0.33408736  0.54645424  1
  Te2-  Te179  1  0.66860492  0.83048183  0.55067200  1
  Te2-  Te180  1  0.32953731  0.41480542  0.71025416  1
  Te2-  Te181  1  0.32673298  0.91610261  0.70960347  1
  Te2-  Te182  1  0.82556668  0.41591982  0.70908396  1
  Te2-  Te183  1  0.82687829  0.91106919  0.71188429  1
  Te2-  Te184  1  0.08581633  0.17192302  0.70880195  1
  Te2-  Te185  1  0.08515900  0.67475862  0.70950709  1
  Te2-  Te186  1  0.58270664  0.17171482  0.71066433  1
  Te2-  Te187  1  0.58855736  0.67206768  0.71237753  1
  Te2-  Te188  1  0.08771714  0.41261013  0.70866711  1
  Te2-  Te189  1  0.08618942  0.91556453  0.71035920  1
  Te2-  Te190  1  0.58527191  0.41487996  0.70968565  1
  Te2-  Te191  1  0.58836418  0.91370271  0.71277450  1
  Te2-  Te192  1  0.16236546  0.07886389  0.04296595  1
  Te2-  Te193  1  0.15839978  0.58009395  0.04678122  1
  Te2-  Te194  1  0.66079235  0.08161108  0.04852347  1
  Te2-  Te195  1  0.66337775  0.57989249  0.04007266  1
  Te2-  Te196  1  0.41721285  0.33675938  0.03973916  1
  Te2-  Te197  1  0.41924629  0.83969033  0.04701045  1
  Te2-  Te198  1  0.91740525  0.33899727  0.04819716  1
  Te2-  Te199  1  0.92394897  0.84022150  0.04327679  1
  Te2-  Te200  1  0.42018971  0.08117615  0.04583459  1
  Te2-  Te201  1  0.41794818  0.57664041  0.04049164  1
  Te2-  Te202  1  0.91862177  0.08062905  0.04608547  1
  Te2-  Te203  1  0.92016474  0.58072786  0.04660163  1
  Te2-  Te204  1  0.49533436  0.25111749  0.37247996  1
  Te2-  Te205  1  0.49320882  0.74594441  0.38029117  1
  Te2-  Te206  1  0.99523603  0.24650216  0.38057129  1
  Te2-  Te207  1  0.99319591  0.74662306  0.37224161  1
  Te2-  Te208  1  0.25480552  0.00750550  0.37318492  1
  Te2-  Te209  1  0.25325013  0.50630233  0.38101478  1
  Te2-  Te210  1  0.75523620  0.00639285  0.37989474  1
  Te2-  Te211  1  0.75087720  0.50650656  0.37222461  1
  Te2-  Te212  1  0.25321198  0.25038886  0.37567745  1
  Te2-  Te213  1  0.25667115  0.74869527  0.37911267  1
  Te2-  Te214  1  0.75666649  0.24699138  0.37688129  1
  Te2-  Te215  1  0.75131087  0.74766331  0.37594174  1
