# generated using pymatgen
data_Ti(CuTe)4
_symmetry_space_group_name_H-M   'P 1'
_cell_length_a   16.89106662
_cell_length_b   16.89352084
_cell_length_c   20.71562002
_cell_angle_alpha   90.08173905
_cell_angle_beta   89.93723050
_cell_angle_gamma   119.97558299
_symmetry_Int_Tables_number   1
_chemical_formula_structural   Ti(CuTe)4
_chemical_formula_sum   'Ti24 Cu96 Te96'
_cell_volume   5120.49719423
_cell_formula_units_Z   24
loop_
 _symmetry_equiv_pos_site_id
 _symmetry_equiv_pos_as_xyz
  1  'x, y, z'
loop_
 _atom_type_symbol
 _atom_type_oxidation_number
  Ti4+  4.0
  Cu+  1.0
  Te2-  -2.0
loop_
 _atom_site_type_symbol
 _atom_site_label
 _atom_site_symmetry_multiplicity
 _atom_site_fract_x
 _atom_site_fract_y
 _atom_site_fract_z
 _atom_site_occupancy
  Ti4+  Ti0  1  -0.00068052  -0.00109906  0.25514748  1
  Ti4+  Ti1  1  0.00041493  0.49737540  0.26220070  1
  Ti4+  Ti2  1  0.49683090  -0.00231551  0.25758892  1
  Ti4+  Ti3  1  0.49818943  0.50060824  0.25715460  1
  Ti4+  Ti4  1  0.33757241  0.17070816  0.58783816  1
  Ti4+  Ti5  1  0.33651519  0.66918165  0.59340881  1
  Ti4+  Ti6  1  0.83576000  0.16818583  0.59371032  1
  Ti4+  Ti7  1  0.83691900  0.66706812  0.58889595  1
  Ti4+  Ti8  1  0.16287282  0.33307197  0.92658913  1
  Ti4+  Ti9  1  0.16540014  0.83043329  0.92276282  1
  Ti4+  Ti10  1  0.66482332  0.33315986  0.92421486  1
  Ti4+  Ti11  1  0.66714402  0.83249622  0.92152193  1
  Ti4+  Ti12  1  0.00059508  -0.00022732  0.75428421  1
  Ti4+  Ti13  1  0.00101499  0.50116777  0.75499124  1
  Ti4+  Ti14  1  0.50106860  0.00160784  0.75452179  1
  Ti4+  Ti15  1  0.50108323  0.50184850  0.75502924  1
  Ti4+  Ti16  1  0.32983516  0.16417216  0.08681881  1
  Ti4+  Ti17  1  0.33291211  0.66681467  0.09041848  1
  Ti4+  Ti18  1  0.83197764  0.16664686  0.08951258  1
  Ti4+  Ti19  1  0.83196775  0.66606474  0.08897855  1
  Ti4+  Ti20  1  0.16731868  0.33369224  0.42442711  1
  Ti4+  Ti21  1  0.16704538  0.83423765  0.42183619  1
  Ti4+  Ti22  1  0.66636548  0.33353352  0.42002701  1
  Ti4+  Ti23  1  0.66671050  0.83379578  0.42285112  1
  Cu+  Cu24  1  0.90603289  0.80909378  0.80416364  1
  Cu+  Cu25  1  0.90487802  0.08724207  0.80859851  1
  Cu+  Cu26  1  0.18183515  0.58699515  0.81168820  1
  Cu+  Cu27  1  0.35644639  0.92846607  0.47482969  1
  Cu+  Cu28  1  0.84987814  0.42061638  0.47744221  1
  Cu+  Cu29  1  0.35939955  0.43192749  0.47385022  1
  Cu+  Cu30  1  0.90578459  0.32002844  0.81300089  1
  Cu+  Cu31  1  0.23659077  0.97401677  0.13913487  1
  Cu+  Cu32  1  0.41093156  0.81806389  0.81150644  1
  Cu+  Cu33  1  0.24269752  0.48411891  0.14691041  1
  Cu+  Cu34  1  0.08247595  0.65402932  0.47988762  1
  Cu+  Cu35  1  0.01439399  0.25511841  0.14690396  1
  Cu+  Cu36  1  0.16138376  0.07588238  0.16714715  1
  Cu+  Cu37  1  0.16349408  0.57869762  0.17481646  1
  Cu+  Cu38  1  0.66171689  0.08014215  0.17178541  1
  Cu+  Cu39  1  0.66271574  0.58374040  0.17144944  1
  Cu+  Cu40  1  0.41451506  0.33597801  0.16942833  1
  Cu+  Cu41  1  0.41842078  0.83815894  0.17150001  1
  Cu+  Cu42  1  0.91983737  0.33511885  0.17321540  1
  Cu+  Cu43  1  0.91578802  0.83545391  0.16909610  1
  Cu+  Cu44  1  0.40980830  0.07535793  0.17024981  1
  Cu+  Cu45  1  0.41562446  0.57901213  0.17178662  1
  Cu+  Cu46  1  0.91963458  0.08273723  0.17022518  1
  Cu+  Cu47  1  0.91645069  0.58191975  0.17546544  1
  Cu+  Cu48  1  0.49579145  0.25042597  0.49993343  1
  Cu+  Cu49  1  0.49969479  0.75207440  0.50579366  1
  Cu+  Cu50  1  0.99682262  0.24766296  0.50767757  1
  Cu+  Cu51  1  0.99741322  0.74572883  0.50236120  1
  Cu+  Cu52  1  0.25816525  0.00567247  0.50222021  1
  Cu+  Cu53  1  0.25539575  0.50279989  0.50687387  1
  Cu+  Cu54  1  0.75425328  0.00286969  0.50682160  1
  Cu+  Cu55  1  0.75655742  0.50303014  0.50033672  1
  Cu+  Cu56  1  0.25784155  0.25581260  0.50347185  1
  Cu+  Cu57  1  0.25539487  0.75192028  0.50640344  1
  Cu+  Cu58  1  0.75483072  0.25099468  0.50538955  1
  Cu+  Cu59  1  0.75475051  0.75110506  0.50423651  1
  Cu+  Cu60  1  0.33147566  0.41877193  0.83935783  1
  Cu+  Cu61  1  0.33098613  0.91337950  0.83626995  1
  Cu+  Cu62  1  0.82629393  0.41280458  0.83765982  1
  Cu+  Cu63  1  0.83070292  0.91257650  0.83439295  1
  Cu+  Cu64  1  0.07808276  0.16877727  0.83724261  1
  Cu+  Cu65  1  0.08994843  0.67171043  0.83470952  1
  Cu+  Cu66  1  0.58461412  0.17165030  0.83685098  1
  Cu+  Cu67  1  0.58651854  0.67065471  0.83434747  1
  Cu+  Cu68  1  0.08341620  0.41252271  0.83789540  1
  Cu+  Cu69  1  0.08032846  0.91035387  0.83601720  1
  Cu+  Cu70  1  0.58466932  0.41710018  0.83834424  1
  Cu+  Cu71  1  0.58371560  0.91302056  0.83545076  1
  Cu+  Cu72  1  0.17404621  0.08838341  0.67051308  1
  Cu+  Cu73  1  0.17144007  0.58826453  0.68172710  1
  Cu+  Cu74  1  0.67115527  0.08837966  0.67509004  1
  Cu+  Cu75  1  0.67030962  0.58496688  0.67199363  1
  Cu+  Cu76  1  0.41656366  0.33431544  0.67386362  1
  Cu+  Cu77  1  0.41566484  0.83338103  0.68105291  1
  Cu+  Cu78  1  0.91740979  0.33263982  0.68243949  1
  Cu+  Cu79  1  0.91874109  0.83044571  0.67576487  1
  Cu+  Cu80  1  0.41837813  0.08818544  0.67281328  1
  Cu+  Cu81  1  0.41744897  0.58515211  0.67714496  1
  Cu+  Cu82  1  0.91774978  0.08703573  0.68032131  1
  Cu+  Cu83  1  0.91765767  0.58454637  0.67484586  1
  Cu+  Cu84  1  -0.00073408  0.25284253  0.01564319  1
  Cu+  Cu85  1  -0.00062356  0.74774050  0.00734455  1
  Cu+  Cu86  1  0.50031787  0.25083377  0.00686036  1
  Cu+  Cu87  1  0.50202374  0.75206618  0.00792187  1
  Cu+  Cu88  1  0.24626068  0.49791702  0.01647955  1
  Cu+  Cu89  1  0.24606836  0.99410156  0.00966690  1
  Cu+  Cu90  1  0.74674950  0.49548162  0.00843788  1
  Cu+  Cu91  1  0.74631400  0.99637105  0.00645681  1
  Cu+  Cu92  1  0.24594999  0.24993111  0.00775165  1
  Cu+  Cu93  1  0.25106192  0.75075001  0.01019425  1
  Cu+  Cu94  1  0.74639289  0.25121757  0.00987541  1
  Cu+  Cu95  1  0.74911298  0.75007805  0.00613844  1
  Cu+  Cu96  1  0.33566587  0.41983648  0.34601820  1
  Cu+  Cu97  1  0.33478676  0.91814279  0.34530216  1
  Cu+  Cu98  1  0.83585132  0.41661245  0.34746996  1
  Cu+  Cu99  1  0.83497201  0.91879750  0.33914042  1
  Cu+  Cu100  1  0.08013813  0.16319733  0.34044796  1
  Cu+  Cu101  1  0.08009505  0.66227688  0.34917188  1
  Cu+  Cu102  1  0.57918652  0.16346973  0.33971900  1
  Cu+  Cu103  1  0.58043483  0.66581526  0.34121975  1
  Cu+  Cu104  1  0.08076817  0.41407916  0.34714418  1
  Cu+  Cu105  1  0.08115878  0.91800311  0.33933670  1
  Cu+  Cu106  1  0.58018405  0.41750036  0.33939150  1
  Cu+  Cu107  1  0.58173506  0.91782147  0.34303547  1
  Cu+  Cu108  1  -0.00333735  -0.00187575  0.11091155  1
  Cu+  Cu109  1  -0.00220977  0.50293432  0.11997571  1
  Cu+  Cu110  1  0.50147507  0.00367227  0.11444111  1
  Cu+  Cu111  1  0.50065650  0.49857718  0.11382316  1
  Cu+  Cu112  1  0.33003391  0.16652723  0.44385519  1
  Cu+  Cu113  1  0.33545146  0.66701940  0.45061057  1
  Cu+  Cu114  1  0.83057494  0.16358923  0.45048361  1
  Cu+  Cu115  1  0.82908257  0.66663728  0.44484889  1
  Cu+  Cu116  1  0.17129560  0.33041485  0.78307279  1
  Cu+  Cu117  1  0.16919978  0.83941663  0.77845348  1
  Cu+  Cu118  1  0.66332525  0.33537052  0.78068686  1
  Cu+  Cu119  1  0.66799830  0.83430853  0.77673468  1
  Te2-  Te120  1  -0.00136838  -0.00089177  0.38417713  1
  Te2-  Te121  1  0.00085985  0.49719459  0.39421092  1
  Te2-  Te122  1  0.50110778  0.00120006  0.38828902  1
  Te2-  Te123  1  0.50293916  0.50275761  0.38771102  1
  Te2-  Te124  1  0.33633372  0.17000469  0.71691796  1
  Te2-  Te125  1  0.33694750  0.66752459  0.72541889  1
  Te2-  Te126  1  0.83231195  0.16700456  0.72634617  1
  Te2-  Te127  1  0.83309273  0.66401433  0.71916059  1
  Te2-  Te128  1  0.16554439  0.33122703  0.05831091  1
  Te2-  Te129  1  0.16336052  0.82804769  0.05282249  1
  Te2-  Te130  1  0.66296856  0.33201459  0.05337977  1
  Te2-  Te131  1  0.66690436  0.83227382  0.05013114  1
  Te2-  Te132  1  0.49370677  0.24809467  0.88111926  1
  Te2-  Te133  1  0.49312928  0.74326828  0.88215718  1
  Te2-  Te134  1  0.98696939  0.24526254  0.88725554  1
  Te2-  Te135  1  0.99254451  0.74079226  0.88120909  1
  Te2-  Te136  1  0.24912958  -0.00023894  0.88175764  1
  Te2-  Te137  1  0.25193870  0.50591276  0.88800380  1
  Te2-  Te138  1  0.75064403  0.00514230  0.88057833  1
  Te2-  Te139  1  0.75271546  0.50497606  0.88254866  1
  Te2-  Te140  1  0.24673097  0.24866168  0.88143526  1
  Te2-  Te141  1  0.25617674  0.74364735  0.88430747  1
  Te2-  Te142  1  0.75019012  0.24308324  0.88438393  1
  Te2-  Te143  1  0.75281119  0.74452685  0.88033216  1
  Te2-  Te144  1  0.32352297  0.41000735  0.21913758  1
  Te2-  Te145  1  0.32211319  0.90765163  0.21830112  1
  Te2-  Te146  1  0.83089585  0.41302287  0.22004307  1
  Te2-  Te147  1  0.82822714  0.91565878  0.21336731  1
  Te2-  Te148  1  0.09067372  0.17259993  0.21479303  1
  Te2-  Te149  1  0.08487131  0.66735610  0.22109478  1
  Te2-  Te150  1  0.57957809  0.16756261  0.21365950  1
  Te2-  Te151  1  0.58262447  0.67168880  0.21545688  1
  Te2-  Te152  1  0.08833357  0.40906351  0.22101075  1
  Te2-  Te153  1  0.08303154  0.90807677  0.21396953  1
  Te2-  Te154  1  0.58257249  0.41448851  0.21359782  1
  Te2-  Te155  1  0.58469798  0.91338297  0.21727608  1
  Te2-  Te156  1  0.16741823  0.08493214  0.54456020  1
  Te2-  Te157  1  0.16441515  0.58036411  0.55376776  1
  Te2-  Te158  1  0.66609660  0.08418193  0.54925299  1
  Te2-  Te159  1  0.66732843  0.58132664  0.54584855  1
  Te2-  Te160  1  0.42667320  0.34577837  0.54850316  1
  Te2-  Te161  1  0.42306386  0.84206983  0.55332061  1
  Te2-  Te162  1  0.92430619  0.34156971  0.55452933  1
  Te2-  Te163  1  0.92319182  0.83806993  0.54879697  1
  Te2-  Te164  1  0.42706293  0.08509925  0.54759620  1
  Te2-  Te165  1  0.42464808  0.58473888  0.55115723  1
  Te2-  Te166  1  0.92099906  0.08171849  0.55372788  1
  Te2-  Te167  1  0.92471934  0.57748592  0.54959443  1
  Te2-  Te168  1  -0.00013900  -0.00093484  0.88184606  1
  Te2-  Te169  1  -0.00155254  0.50064220  0.88229509  1
  Te2-  Te170  1  0.50080253  0.00100819  0.88139258  1
  Te2-  Te171  1  0.50087677  0.50241157  0.88129838  1
  Te2-  Te172  1  0.33032203  0.16624641  0.21355378  1
  Te2-  Te173  1  0.33461619  0.66834515  0.21716879  1
  Te2-  Te174  1  0.83096879  0.16419328  0.21633902  1
  Te2-  Te175  1  0.83166505  0.66736956  0.21534741  1
  Te2-  Te176  1  0.16731011  0.33315279  0.55112262  1
  Te2-  Te177  1  0.16765792  0.83642229  0.54926866  1
  Te2-  Te178  1  0.66584327  0.33414977  0.54696451  1
  Te2-  Te179  1  0.66936664  0.83403812  0.54913930  1
  Te2-  Te180  1  0.32869341  0.41551013  0.71232792  1
  Te2-  Te181  1  0.32847179  0.91878073  0.70933746  1
  Te2-  Te182  1  0.82676672  0.41528236  0.71071583  1
  Te2-  Te183  1  0.82816663  0.91314775  0.70681527  1
  Te2-  Te184  1  0.09008808  0.17327228  0.71028070  1
  Te2-  Te185  1  0.08661016  0.67579370  0.70926137  1
  Te2-  Te186  1  0.58737491  0.17415547  0.71088859  1
  Te2-  Te187  1  0.58848653  0.67295391  0.70855925  1
  Te2-  Te188  1  0.09050218  0.41493172  0.71124856  1
  Te2-  Te189  1  0.09075438  0.91835449  0.70830862  1
  Te2-  Te190  1  0.58646014  0.41619819  0.71090211  1
  Te2-  Te191  1  0.58973420  0.91741114  0.70864127  1
  Te2-  Te192  1  0.15747506  0.07893483  0.04038903  1
  Te2-  Te193  1  0.15837027  0.58181972  0.04775701  1
  Te2-  Te194  1  0.66071779  0.08033837  0.04484182  1
  Te2-  Te195  1  0.66119948  0.58059841  0.04451874  1
  Te2-  Te196  1  0.41602575  0.33690890  0.04330107  1
  Te2-  Te197  1  0.42020150  0.83930451  0.04576264  1
  Te2-  Te198  1  0.91566974  0.34085546  0.04680722  1
  Te2-  Te199  1  0.91832565  0.83678549  0.04276285  1
  Te2-  Te200  1  0.41831286  0.08010978  0.04261260  1
  Te2-  Te201  1  0.42007646  0.58156029  0.04460475  1
  Te2-  Te202  1  0.91619286  0.07892599  0.04270972  1
  Te2-  Te203  1  0.91662729  0.57869762  0.04735207  1
  Te2-  Te204  1  0.49377350  0.24798770  0.37480368  1
  Te2-  Te205  1  0.49437612  0.74847052  0.37970415  1
  Te2-  Te206  1  0.99383519  0.24475483  0.38170297  1
  Te2-  Te207  1  0.99346155  0.74892574  0.37639986  1
  Te2-  Te208  1  0.25047894  0.00622303  0.37532133  1
  Te2-  Te209  1  0.25135766  0.50706125  0.38010941  1
  Te2-  Te210  1  0.75224055  0.00483283  0.37944446  1
  Te2-  Te211  1  0.75099329  0.50596657  0.37384432  1
  Te2-  Te212  1  0.25061178  0.24666610  0.37624533  1
  Te2-  Te213  1  0.25345746  0.74585232  0.37842068  1
  Te2-  Te214  1  0.74998496  0.24337182  0.37731019  1
  Te2-  Te215  1  0.75156375  0.74881368  0.37676443  1
