# generated using pymatgen
data_Ti(CuTe)4
_symmetry_space_group_name_H-M   'P 1'
_cell_length_a   16.87499640
_cell_length_b   16.87738717
_cell_length_c   20.68900865
_cell_angle_alpha   89.99037350
_cell_angle_beta   90.02327358
_cell_angle_gamma   119.99720760
_symmetry_Int_Tables_number   1
_chemical_formula_structural   Ti(CuTe)4
_chemical_formula_sum   'Ti24 Cu96 Te96'
_cell_volume   5103.06850441
_cell_formula_units_Z   24
loop_
 _symmetry_equiv_pos_site_id
 _symmetry_equiv_pos_as_xyz
  1  'x, y, z'
loop_
 _atom_type_symbol
 _atom_type_oxidation_number
  Ti4+  4.0
  Cu+  1.0
  Te2-  -2.0
loop_
 _atom_site_type_symbol
 _atom_site_label
 _atom_site_symmetry_multiplicity
 _atom_site_fract_x
 _atom_site_fract_y
 _atom_site_fract_z
 _atom_site_occupancy
  Ti4+  Ti0  1  -0.00218411  -0.00170610  0.25594187  1
  Ti4+  Ti1  1  0.00010322  0.49808570  0.25620992  1
  Ti4+  Ti2  1  0.50057643  0.00222870  0.25599449  1
  Ti4+  Ti3  1  0.50079405  0.50423255  0.25737503  1
  Ti4+  Ti4  1  0.33380714  0.16672536  0.59129721  1
  Ti4+  Ti5  1  0.33288165  0.66737669  0.59573494  1
  Ti4+  Ti6  1  0.83509193  0.16861149  0.59168808  1
  Ti4+  Ti7  1  0.83537651  0.66702355  0.59506517  1
  Ti4+  Ti8  1  0.16371368  0.33178259  0.92485433  1
  Ti4+  Ti9  1  0.16675564  0.83299691  0.92892630  1
  Ti4+  Ti10  1  0.66567340  0.33268205  0.92274744  1
  Ti4+  Ti11  1  0.66583225  0.83100150  0.92012608  1
  Ti4+  Ti12  1  -0.00054366  0.00051670  0.75664040  1
  Ti4+  Ti13  1  0.00123675  0.50027663  0.75759344  1
  Ti4+  Ti14  1  0.50023476  -0.00079481  0.75547831  1
  Ti4+  Ti15  1  0.50183906  0.50104318  0.75332042  1
  Ti4+  Ti16  1  0.33278424  0.16493975  0.08481008  1
  Ti4+  Ti17  1  0.33394584  0.66469723  0.08655733  1
  Ti4+  Ti18  1  0.83257452  0.16693284  0.08676846  1
  Ti4+  Ti19  1  0.83207580  0.66777754  0.08747497  1
  Ti4+  Ti20  1  0.16670283  0.33305700  0.42334392  1
  Ti4+  Ti21  1  0.16709489  0.83379124  0.42431527  1
  Ti4+  Ti22  1  0.66719844  0.33439301  0.42161345  1
  Ti4+  Ti23  1  0.66712431  0.83421962  0.42507947  1
  Cu+  Cu24  1  0.91438966  0.81696978  0.81150817  1
  Cu+  Cu25  1  0.90263028  0.09462302  0.80575601  1
  Cu+  Cu26  1  0.40498779  0.58620677  0.80916399  1
  Cu+  Cu27  1  0.40091998  0.81501509  0.81051735  1
  Cu+  Cu28  1  0.24736062  0.75226704  0.15063549  1
  Cu+  Cu29  1  0.68380093  0.58759809  0.80854568  1
  Cu+  Cu30  1  0.00572883  0.75269798  0.15108830  1
  Cu+  Cu31  1  0.73804286  0.26397059  0.13716033  1
  Cu+  Cu32  1  0.24457520  0.98827962  0.14618717  1
  Cu+  Cu33  1  0.24583960  0.48310617  0.14357851  1
  Cu+  Cu34  1  0.01392432  0.25413900  0.14326530  1
  Cu+  Cu35  1  0.73525878  0.76420555  0.13648446  1
  Cu+  Cu36  1  0.16262363  0.08072512  0.16545367  1
  Cu+  Cu37  1  0.16210561  0.57669302  0.16665439  1
  Cu+  Cu38  1  0.66386336  0.08734796  0.16818487  1
  Cu+  Cu39  1  0.66347583  0.59044016  0.16895869  1
  Cu+  Cu40  1  0.41818332  0.33642470  0.16783867  1
  Cu+  Cu41  1  0.42167033  0.83937470  0.16769657  1
  Cu+  Cu42  1  0.91637872  0.33521290  0.16757849  1
  Cu+  Cu43  1  0.91268703  0.83681394  0.16694940  1
  Cu+  Cu44  1  0.41931056  0.08040024  0.16564191  1
  Cu+  Cu45  1  0.42028983  0.57933337  0.16792794  1
  Cu+  Cu46  1  0.91895012  0.08008799  0.16753296  1
  Cu+  Cu47  1  0.91834151  0.57955517  0.16798814  1
  Cu+  Cu48  1  0.49679808  0.24839016  0.50438896  1
  Cu+  Cu49  1  0.49740621  0.75078836  0.50986717  1
  Cu+  Cu50  1  0.99713940  0.24801208  0.50630594  1
  Cu+  Cu51  1  0.99804549  0.74939175  0.50843128  1
  Cu+  Cu52  1  0.25246197  0.00456116  0.50598429  1
  Cu+  Cu53  1  0.25133917  0.50267529  0.50883843  1
  Cu+  Cu54  1  0.75400173  0.00430909  0.50697693  1
  Cu+  Cu55  1  0.75227796  0.50277598  0.50684900  1
  Cu+  Cu56  1  0.25158822  0.24730440  0.50559425  1
  Cu+  Cu57  1  0.25231266  0.75004288  0.50884244  1
  Cu+  Cu58  1  0.75396160  0.25088147  0.50493833  1
  Cu+  Cu59  1  0.75364442  0.74966631  0.50987922  1
  Cu+  Cu60  1  0.32917859  0.41579612  0.83708635  1
  Cu+  Cu61  1  0.33064773  0.91491890  0.84160924  1
  Cu+  Cu62  1  0.83125266  0.41298929  0.83801412  1
  Cu+  Cu63  1  0.83156889  0.91522156  0.83448873  1
  Cu+  Cu64  1  0.07701775  0.16865330  0.83764600  1
  Cu+  Cu65  1  0.08449721  0.66884959  0.84086424  1
  Cu+  Cu66  1  0.58518061  0.16976780  0.83750932  1
  Cu+  Cu67  1  0.58551827  0.66833259  0.83208407  1
  Cu+  Cu68  1  0.08386170  0.41370325  0.83889663  1
  Cu+  Cu69  1  0.08518145  0.91401236  0.84165267  1
  Cu+  Cu70  1  0.58797420  0.41560280  0.83518973  1
  Cu+  Cu71  1  0.57964201  0.91026809  0.83301217  1
  Cu+  Cu72  1  0.17154620  0.08594317  0.67514603  1
  Cu+  Cu73  1  0.16778577  0.58440483  0.67773863  1
  Cu+  Cu74  1  0.67060436  0.08625339  0.67328616  1
  Cu+  Cu75  1  0.67253288  0.58499713  0.67995756  1
  Cu+  Cu76  1  0.41511090  0.32900586  0.67340475  1
  Cu+  Cu77  1  0.41408975  0.82977977  0.68196529  1
  Cu+  Cu78  1  0.91841356  0.33272946  0.67445722  1
  Cu+  Cu79  1  0.91764146  0.83080584  0.68180190  1
  Cu+  Cu80  1  0.41503633  0.08531882  0.67423646  1
  Cu+  Cu81  1  0.41566649  0.58617245  0.68046197  1
  Cu+  Cu82  1  0.91556133  0.08796506  0.67825186  1
  Cu+  Cu83  1  0.91815363  0.58468920  0.67718478  1
  Cu+  Cu84  1  0.00088294  0.24966239  0.01329602  1
  Cu+  Cu85  1  0.00157728  0.75102093  0.01732331  1
  Cu+  Cu86  1  0.50098950  0.25056439  0.00381455  1
  Cu+  Cu87  1  0.50034494  0.74674435  0.00642122  1
  Cu+  Cu88  1  0.24990213  0.49586808  0.01385279  1
  Cu+  Cu89  1  0.24882602  0.99597065  0.01389689  1
  Cu+  Cu90  1  0.74756986  0.49773298  0.00677687  1
  Cu+  Cu91  1  0.74833616  0.99767560  0.00359285  1
  Cu+  Cu92  1  0.24808727  0.25010944  0.00404306  1
  Cu+  Cu93  1  0.25110786  0.75127577  0.01729618  1
  Cu+  Cu94  1  0.74539681  0.25140172  0.00989319  1
  Cu+  Cu95  1  0.74794478  0.75035263  0.00976068  1
  Cu+  Cu96  1  0.33536329  0.41928891  0.34280551  1
  Cu+  Cu97  1  0.33423542  0.91724568  0.34316584  1
  Cu+  Cu98  1  0.83470353  0.41785225  0.34159121  1
  Cu+  Cu99  1  0.83327254  0.91538592  0.34215550  1
  Cu+  Cu100  1  0.08222489  0.16439690  0.34131695  1
  Cu+  Cu101  1  0.08443989  0.66618596  0.34479821  1
  Cu+  Cu102  1  0.58320993  0.16728781  0.34028912  1
  Cu+  Cu103  1  0.58261226  0.66760137  0.34359177  1
  Cu+  Cu104  1  0.08363624  0.41610317  0.34360855  1
  Cu+  Cu105  1  0.08169173  0.91512883  0.34267676  1
  Cu+  Cu106  1  0.58374996  0.42160635  0.33966545  1
  Cu+  Cu107  1  0.58249633  0.91933652  0.34089138  1
  Cu+  Cu108  1  0.00033636  0.00182801  0.10801748  1
  Cu+  Cu109  1  -0.00190822  0.49844795  0.10916787  1
  Cu+  Cu110  1  0.50364628  0.00015509  0.10887252  1
  Cu+  Cu111  1  0.50224626  0.49484062  0.11153043  1
  Cu+  Cu112  1  0.33434622  0.16765001  0.44752758  1
  Cu+  Cu113  1  0.33340344  0.66655576  0.45407739  1
  Cu+  Cu114  1  0.83210343  0.16633783  0.44897957  1
  Cu+  Cu115  1  0.83383524  0.66622425  0.45279041  1
  Cu+  Cu116  1  0.16740662  0.33146002  0.78072796  1
  Cu+  Cu117  1  0.16813323  0.83442958  0.78512364  1
  Cu+  Cu118  1  0.66847488  0.33062779  0.77926932  1
  Cu+  Cu119  1  0.66813282  0.83590864  0.77528104  1
  Te2-  Te120  1  -0.00072362  -0.00122437  0.38403507  1
  Te2-  Te121  1  0.00032798  0.49924895  0.38415985  1
  Te2-  Te122  1  0.50027444  0.00242362  0.38429678  1
  Te2-  Te123  1  0.50052490  0.50212369  0.38592006  1
  Te2-  Te124  1  0.33429030  0.16705906  0.72131414  1
  Te2-  Te125  1  0.32976232  0.66464750  0.72809357  1
  Te2-  Te126  1  0.83227211  0.17014256  0.72274081  1
  Te2-  Te127  1  0.83712205  0.66583047  0.72742571  1
  Te2-  Te128  1  0.16668052  0.32971430  0.05679004  1
  Te2-  Te129  1  0.16668218  0.83211113  0.06191443  1
  Te2-  Te130  1  0.66286918  0.33479773  0.05354265  1
  Te2-  Te131  1  0.66471564  0.83459596  0.05030124  1
  Te2-  Te132  1  0.49506691  0.24829604  0.87866417  1
  Te2-  Te133  1  0.49034989  0.74241094  0.88080699  1
  Te2-  Te134  1  0.98955018  0.24796013  0.88554003  1
  Te2-  Te135  1  0.99414352  0.74420718  0.88864947  1
  Te2-  Te136  1  0.25212771  0.00343792  0.88651985  1
  Te2-  Te137  1  0.25015272  0.50533905  0.88592145  1
  Te2-  Te138  1  0.74778607  0.00282925  0.87820678  1
  Te2-  Te139  1  0.75726331  0.50684954  0.88164186  1
  Te2-  Te140  1  0.24763147  0.24689021  0.87866109  1
  Te2-  Te141  1  0.25040721  0.74448476  0.88854692  1
  Te2-  Te142  1  0.75146840  0.24645198  0.88302490  1
  Te2-  Te143  1  0.75441870  0.74450856  0.88236327  1
  Te2-  Te144  1  0.32656453  0.41087487  0.21641333  1
  Te2-  Te145  1  0.32406778  0.91173960  0.21674143  1
  Te2-  Te146  1  0.82691419  0.41437831  0.21523167  1
  Te2-  Te147  1  0.82398962  0.91443452  0.21557266  1
  Te2-  Te148  1  0.08837408  0.17147176  0.21474230  1
  Te2-  Te149  1  0.08834236  0.67393619  0.21766326  1
  Te2-  Te150  1  0.58425100  0.17606271  0.21408407  1
  Te2-  Te151  1  0.58479288  0.67905815  0.21695265  1
  Te2-  Te152  1  0.08739306  0.40976866  0.21648114  1
  Te2-  Te153  1  0.08577903  0.91128667  0.21596109  1
  Te2-  Te154  1  0.58670915  0.42069709  0.21271138  1
  Te2-  Te155  1  0.58775619  0.91882316  0.21416720  1
  Te2-  Te156  1  0.16122040  0.08032410  0.54974940  1
  Te2-  Te157  1  0.16212192  0.58182479  0.55218202  1
  Te2-  Te158  1  0.66392880  0.08305978  0.54792639  1
  Te2-  Te159  1  0.66431279  0.58149204  0.55276770  1
  Te2-  Te160  1  0.41948056  0.33848017  0.54800371  1
  Te2-  Te161  1  0.41850444  0.83900101  0.55487343  1
  Te2-  Te162  1  0.92145863  0.34014532  0.54902110  1
  Te2-  Te163  1  0.92102930  0.83870148  0.55445428  1
  Te2-  Te164  1  0.42009808  0.08113952  0.54861870  1
  Te2-  Te165  1  0.41893990  0.58260228  0.55315895  1
  Te2-  Te166  1  0.92078210  0.08182933  0.55156465  1
  Te2-  Te167  1  0.92014754  0.58114752  0.55152284  1
  Te2-  Te168  1  -0.00040082  -0.00027979  0.88456506  1
  Te2-  Te169  1  -0.00062632  0.49855563  0.88419387  1
  Te2-  Te170  1  0.50196825  0.00045167  0.88270305  1
  Te2-  Te171  1  0.50026769  0.49851879  0.88133455  1
  Te2-  Te172  1  0.33350905  0.16610656  0.21205542  1
  Te2-  Te173  1  0.33522354  0.66711068  0.21436139  1
  Te2-  Te174  1  0.83364333  0.16497024  0.21434292  1
  Te2-  Te175  1  0.83342166  0.66591719  0.21535178  1
  Te2-  Te176  1  0.16699682  0.33219557  0.54964996  1
  Te2-  Te177  1  0.16786769  0.83544027  0.55061327  1
  Te2-  Te178  1  0.66658073  0.33278344  0.54809889  1
  Te2-  Te179  1  0.66828199  0.83521566  0.55139447  1
  Te2-  Te180  1  0.32836673  0.41269788  0.70947457  1
  Te2-  Te181  1  0.32663789  0.91555863  0.71323611  1
  Te2-  Te182  1  0.82995843  0.41416420  0.71159371  1
  Te2-  Te183  1  0.82756099  0.91471817  0.70743202  1
  Te2-  Te184  1  0.08755463  0.17246314  0.71054790  1
  Te2-  Te185  1  0.08747032  0.67372082  0.71470303  1
  Te2-  Te186  1  0.58543849  0.17062494  0.71061569  1
  Te2-  Te187  1  0.58929533  0.67545156  0.70611732  1
  Te2-  Te188  1  0.08725052  0.41399429  0.71293116  1
  Te2-  Te189  1  0.08965173  0.91664600  0.71394544  1
  Te2-  Te190  1  0.58573406  0.41164415  0.70853157  1
  Te2-  Te191  1  0.58854194  0.91564888  0.70710037  1
  Te2-  Te192  1  0.15906098  0.08027959  0.03905818  1
  Te2-  Te193  1  0.15844580  0.57775526  0.04057312  1
  Te2-  Te194  1  0.66053096  0.07904547  0.04044510  1
  Te2-  Te195  1  0.65941176  0.57904187  0.04155266  1
  Te2-  Te196  1  0.41772552  0.33709408  0.04073676  1
  Te2-  Te197  1  0.42372369  0.83939666  0.04120659  1
  Te2-  Te198  1  0.91823215  0.34047904  0.04041154  1
  Te2-  Te199  1  0.91967199  0.84223812  0.04013262  1
  Te2-  Te200  1  0.42253453  0.08080662  0.03967509  1
  Te2-  Te201  1  0.42241095  0.57834962  0.04201782  1
  Te2-  Te202  1  0.91656337  0.07702459  0.04057288  1
  Te2-  Te203  1  0.91698239  0.57787370  0.04224577  1
  Te2-  Te204  1  0.49592456  0.25059545  0.37683373  1
  Te2-  Te205  1  0.49522364  0.75022833  0.38193413  1
  Te2-  Te206  1  0.99435956  0.24594312  0.37917519  1
  Te2-  Te207  1  0.99435835  0.74619023  0.38106020  1
  Te2-  Te208  1  0.25193159  0.00521660  0.37890547  1
  Te2-  Te209  1  0.25308096  0.50617124  0.38124676  1
  Te2-  Te210  1  0.75249021  0.00487952  0.37930933  1
  Te2-  Te211  1  0.75347537  0.50679114  0.37894329  1
  Te2-  Te212  1  0.25270934  0.24791711  0.37820597  1
  Te2-  Te213  1  0.25417217  0.74799794  0.38151991  1
  Te2-  Te214  1  0.75299155  0.24793076  0.37760938  1
  Te2-  Te215  1  0.75227784  0.74706424  0.38211781  1
