# generated using pymatgen
data_Ti(CuTe)4
_symmetry_space_group_name_H-M   'P 1'
_cell_length_a   16.89289664
_cell_length_b   16.89585162
_cell_length_c   20.71253356
_cell_angle_alpha   90.01350007
_cell_angle_beta   90.01765263
_cell_angle_gamma   120.00275791
_symmetry_Int_Tables_number   1
_chemical_formula_structural   Ti(CuTe)4
_chemical_formula_sum   'Ti24 Cu96 Te96'
_cell_volume   5119.59886452
_cell_formula_units_Z   24
loop_
 _symmetry_equiv_pos_site_id
 _symmetry_equiv_pos_as_xyz
  1  'x, y, z'
loop_
 _atom_type_symbol
 _atom_type_oxidation_number
  Ti4+  4.0
  Cu+  1.0
  Te2-  -2.0
loop_
 _atom_site_type_symbol
 _atom_site_label
 _atom_site_symmetry_multiplicity
 _atom_site_fract_x
 _atom_site_fract_y
 _atom_site_fract_z
 _atom_site_occupancy
  Ti4+  Ti0  1  -0.00417780  -0.00188007  0.25384715  1
  Ti4+  Ti1  1  0.00030251  0.50071286  0.25594876  1
  Ti4+  Ti2  1  0.49769233  -0.00126387  0.26021833  1
  Ti4+  Ti3  1  0.49862695  0.49912481  0.25618717  1
  Ti4+  Ti4  1  0.33610710  0.16494495  0.59124343  1
  Ti4+  Ti5  1  0.33430250  0.66702372  0.59298427  1
  Ti4+  Ti6  1  0.83337301  0.16708705  0.59128816  1
  Ti4+  Ti7  1  0.83424966  0.66567332  0.59123660  1
  Ti4+  Ti8  1  0.16710883  0.33299431  0.91965535  1
  Ti4+  Ti9  1  0.16960845  0.83725500  0.92619234  1
  Ti4+  Ti10  1  0.66808653  0.33493653  0.93039269  1
  Ti4+  Ti11  1  0.66448133  0.83437611  0.92206140  1
  Ti4+  Ti12  1  0.00177491  0.00197306  0.75394380  1
  Ti4+  Ti13  1  0.00077314  0.50017088  0.75601577  1
  Ti4+  Ti14  1  0.50106693  -0.00012654  0.75851001  1
  Ti4+  Ti15  1  0.50066757  0.49975884  0.75405624  1
  Ti4+  Ti16  1  0.33322095  0.16782231  0.08783284  1
  Ti4+  Ti17  1  0.33288491  0.66775505  0.08917961  1
  Ti4+  Ti18  1  0.83338014  0.16549721  0.08774662  1
  Ti4+  Ti19  1  0.83403766  0.66804601  0.08439447  1
  Ti4+  Ti20  1  0.16610831  0.33231960  0.42176585  1
  Ti4+  Ti21  1  0.16639068  0.83322822  0.42313022  1
  Ti4+  Ti22  1  0.66660949  0.33297453  0.42153351  1
  Ti4+  Ti23  1  0.66590138  0.83276333  0.42286609  1
  Cu+  Cu24  1  0.23841907  0.98525830  0.14508921  1
  Cu+  Cu25  1  0.90509260  0.09374855  0.80532514  1
  Cu+  Cu26  1  0.73497628  0.97415091  0.13833229  1
  Cu+  Cu27  1  0.40402732  0.81604330  0.81213135  1
  Cu+  Cu28  1  0.19100742  0.09526582  0.80482726  1
  Cu+  Cu29  1  0.74545485  0.49245440  0.14697769  1
  Cu+  Cu30  1  0.74553720  0.25228025  0.15025424  1
  Cu+  Cu31  1  0.34906322  0.92064064  0.48226363  1
  Cu+  Cu32  1  0.50670338  0.25329173  0.15171275  1
  Cu+  Cu33  1  0.23717381  0.75679581  0.14385277  1
  Cu+  Cu34  1  0.57907813  0.15018778  0.47916335  1
  Cu+  Cu35  1  0.40619379  0.59019112  0.80693489  1
  Cu+  Cu36  1  0.15931411  0.07926595  0.16860775  1
  Cu+  Cu37  1  0.16292708  0.58407018  0.17043123  1
  Cu+  Cu38  1  0.66365347  0.07815860  0.17127576  1
  Cu+  Cu39  1  0.66185021  0.58225171  0.16703885  1
  Cu+  Cu40  1  0.41966185  0.34032983  0.16868843  1
  Cu+  Cu41  1  0.41218242  0.83500308  0.17218532  1
  Cu+  Cu42  1  0.92010698  0.33830617  0.16891925  1
  Cu+  Cu43  1  0.91690202  0.83897492  0.16509529  1
  Cu+  Cu44  1  0.41500453  0.07819733  0.17116257  1
  Cu+  Cu45  1  0.41630702  0.58027816  0.17120410  1
  Cu+  Cu46  1  0.91149384  0.07528080  0.16727829  1
  Cu+  Cu47  1  0.91965992  0.58143563  0.16607771  1
  Cu+  Cu48  1  0.49820929  0.24392666  0.50315570  1
  Cu+  Cu49  1  0.49784234  0.74944565  0.50645754  1
  Cu+  Cu50  1  0.99790863  0.24932171  0.50518256  1
  Cu+  Cu51  1  0.99585791  0.74585002  0.50550325  1
  Cu+  Cu52  1  0.25588962  0.00235389  0.50466729  1
  Cu+  Cu53  1  0.25176377  0.50095148  0.50596376  1
  Cu+  Cu54  1  0.75133686  0.00234874  0.50519940  1
  Cu+  Cu55  1  0.75434708  0.50416634  0.50432797  1
  Cu+  Cu56  1  0.25106154  0.24711123  0.50485299  1
  Cu+  Cu57  1  0.25489145  0.74947936  0.50642961  1
  Cu+  Cu58  1  0.75118013  0.24594676  0.50422573  1
  Cu+  Cu59  1  0.75106159  0.74707980  0.50548746  1
  Cu+  Cu60  1  0.32964353  0.41664110  0.83312166  1
  Cu+  Cu61  1  0.32982416  0.91441034  0.84083707  1
  Cu+  Cu62  1  0.83222034  0.41607811  0.84244345  1
  Cu+  Cu63  1  0.83036562  0.92149633  0.83573807  1
  Cu+  Cu64  1  0.08584489  0.16946297  0.83262944  1
  Cu+  Cu65  1  0.08668312  0.66917074  0.83893082  1
  Cu+  Cu66  1  0.58648126  0.17173500  0.84421947  1
  Cu+  Cu67  1  0.58020455  0.66912477  0.83471412  1
  Cu+  Cu68  1  0.08511208  0.41446058  0.83362558  1
  Cu+  Cu69  1  0.09211298  0.92398323  0.83795025  1
  Cu+  Cu70  1  0.58566403  0.41513732  0.84124543  1
  Cu+  Cu71  1  0.58149163  0.91197702  0.83743358  1
  Cu+  Cu72  1  0.17314773  0.08431106  0.67690221  1
  Cu+  Cu73  1  0.16868930  0.58525644  0.67497826  1
  Cu+  Cu74  1  0.66886632  0.08587018  0.67753946  1
  Cu+  Cu75  1  0.67135331  0.58266309  0.67448283  1
  Cu+  Cu76  1  0.41967421  0.33082142  0.67368178  1
  Cu+  Cu77  1  0.41675683  0.83159313  0.68275364  1
  Cu+  Cu78  1  0.91436925  0.33242762  0.67455897  1
  Cu+  Cu79  1  0.91585651  0.82908667  0.67363891  1
  Cu+  Cu80  1  0.41926142  0.08364958  0.67864452  1
  Cu+  Cu81  1  0.41659454  0.58532376  0.67841041  1
  Cu+  Cu82  1  0.91547492  0.08591750  0.67680774  1
  Cu+  Cu83  1  0.91510790  0.58391922  0.67609550  1
  Cu+  Cu84  1  0.00338320  0.25006526  0.00395422  1
  Cu+  Cu85  1  0.00365860  0.75433214  0.00632026  1
  Cu+  Cu86  1  0.50483305  0.25488701  0.01767452  1
  Cu+  Cu87  1  0.49998447  0.75088600  0.00948918  1
  Cu+  Cu88  1  0.24957423  0.49790938  0.00563981  1
  Cu+  Cu89  1  0.25083896  1.00004666  0.01395476  1
  Cu+  Cu90  1  0.74974546  0.49854056  0.01472422  1
  Cu+  Cu91  1  0.74786050  0.99715137  0.01002101  1
  Cu+  Cu92  1  0.24927801  0.25237084  0.00358893  1
  Cu+  Cu93  1  0.25020522  0.75398293  0.01513833  1
  Cu+  Cu94  1  0.75002983  0.25339434  0.01725096  1
  Cu+  Cu95  1  0.74936416  0.75319147  0.00347323  1
  Cu+  Cu96  1  0.33480193  0.41611430  0.34045570  1
  Cu+  Cu97  1  0.33336048  0.91824821  0.35072425  1
  Cu+  Cu98  1  0.83505630  0.41839202  0.34202496  1
  Cu+  Cu99  1  0.83181442  0.91627663  0.33983360  1
  Cu+  Cu100  1  0.07962186  0.16267447  0.33772494  1
  Cu+  Cu101  1  0.08152793  0.66443330  0.34184490  1
  Cu+  Cu102  1  0.58159687  0.16451436  0.34906374  1
  Cu+  Cu103  1  0.58077698  0.66304304  0.34063969  1
  Cu+  Cu104  1  0.08199706  0.41816535  0.34036866  1
  Cu+  Cu105  1  0.07938220  0.91684742  0.34049062  1
  Cu+  Cu106  1  0.58306329  0.41902399  0.34230274  1
  Cu+  Cu107  1  0.58163495  0.91611823  0.34429140  1
  Cu+  Cu108  1  -0.00009490  0.00203939  0.10800365  1
  Cu+  Cu109  1  0.00259432  0.49944762  0.11075793  1
  Cu+  Cu110  1  0.50034878  -0.00113603  0.11659471  1
  Cu+  Cu111  1  0.49945078  0.50459065  0.11115489  1
  Cu+  Cu112  1  0.33211864  0.16884116  0.44765916  1
  Cu+  Cu113  1  0.33291056  0.66247870  0.45027534  1
  Cu+  Cu114  1  0.83662782  0.16614910  0.44807490  1
  Cu+  Cu115  1  0.83307635  0.66754193  0.44806870  1
  Cu+  Cu116  1  0.16724245  0.33378029  0.77405757  1
  Cu+  Cu117  1  0.16094226  0.83025291  0.78325363  1
  Cu+  Cu118  1  0.66873758  0.33414309  0.78807058  1
  Cu+  Cu119  1  0.67043887  0.83113851  0.77800129  1
  Te2-  Te120  1  -0.00333973  -0.00096568  0.38260130  1
  Te2-  Te121  1  -0.00019443  0.49985216  0.38470748  1
  Te2-  Te122  1  0.50027124  -0.00209375  0.39162104  1
  Te2-  Te123  1  0.49870051  0.49911869  0.38485879  1
  Te2-  Te124  1  0.33895966  0.16822407  0.72157451  1
  Te2-  Te125  1  0.33057497  0.66495187  0.72515399  1
  Te2-  Te126  1  0.83322717  0.16932173  0.72184926  1
  Te2-  Te127  1  0.83422164  0.66678834  0.72086990  1
  Te2-  Te128  1  0.16689973  0.33333240  0.04860708  1
  Te2-  Te129  1  0.16455534  0.83459124  0.05843270  1
  Te2-  Te130  1  0.66839661  0.33532276  0.06459139  1
  Te2-  Te131  1  0.66458441  0.83032105  0.05236740  1
  Te2-  Te132  1  0.49679374  0.24932405  0.88982196  1
  Te2-  Te133  1  0.48734314  0.74392638  0.88389646  1
  Te2-  Te134  1  0.99378799  0.24740606  0.87861852  1
  Te2-  Te135  1  1.00148029  0.75425622  0.88029250  1
  Te2-  Te136  1  0.25968170  0.01093592  0.88650157  1
  Te2-  Te137  1  0.25100968  0.50689135  0.88028628  1
  Te2-  Te138  1  0.74865561  0.00813678  0.88329434  1
  Te2-  Te139  1  0.75284642  0.50479240  0.88737596  1
  Te2-  Te140  1  0.25648040  0.24936531  0.87817831  1
  Te2-  Te141  1  0.25210171  0.74582488  0.88791824  1
  Te2-  Te142  1  0.75360841  0.24929323  0.88965773  1
  Te2-  Te143  1  0.74980758  0.75132632  0.87736900  1
  Te2-  Te144  1  0.32697716  0.41234788  0.21467029  1
  Te2-  Te145  1  0.32193357  0.91225576  0.22187806  1
  Te2-  Te146  1  0.82392137  0.41242999  0.21626981  1
  Te2-  Te147  1  0.82063917  0.90730942  0.21403497  1
  Te2-  Te148  1  0.08082660  0.16883476  0.21145382  1
  Te2-  Te149  1  0.08297020  0.67443264  0.21609867  1
  Te2-  Te150  1  0.58590195  0.17266459  0.22062088  1
  Te2-  Te151  1  0.58471984  0.67019341  0.21442566  1
  Te2-  Te152  1  0.08622753  0.41621126  0.21407184  1
  Te2-  Te153  1  0.08157207  0.90897135  0.21478437  1
  Te2-  Te154  1  0.58912427  0.41224897  0.21681422  1
  Te2-  Te155  1  0.58083753  0.91029313  0.21758970  1
  Te2-  Te156  1  0.16550279  0.07901140  0.55000689  1
  Te2-  Te157  1  0.16422462  0.58240585  0.54912422  1
  Te2-  Te158  1  0.65905428  0.07654167  0.55178469  1
  Te2-  Te159  1  0.66203667  0.57882583  0.54896107  1
  Te2-  Te160  1  0.42107721  0.33449027  0.54740712  1
  Te2-  Te161  1  0.42407513  0.84113919  0.55508225  1
  Te2-  Te162  1  0.91756759  0.33780885  0.54855247  1
  Te2-  Te163  1  0.91976748  0.83772506  0.54821552  1
  Te2-  Te164  1  0.42469796  0.07642120  0.55272809  1
  Te2-  Te165  1  0.41963036  0.58190483  0.55137969  1
  Te2-  Te166  1  0.91891926  0.08148728  0.54991543  1
  Te2-  Te167  1  0.92054915  0.57902448  0.55048077  1
  Te2-  Te168  1  -0.00061196  0.00141139  0.88139318  1
  Te2-  Te169  1  0.00291623  0.50015147  0.88230163  1
  Te2-  Te170  1  0.50079238  0.00067028  0.88530701  1
  Te2-  Te171  1  0.49869383  0.49988366  0.88101217  1
  Te2-  Te172  1  0.33078509  0.16749669  0.21545963  1
  Te2-  Te173  1  0.33217005  0.66491348  0.21605301  1
  Te2-  Te174  1  0.83550100  0.16805125  0.21555766  1
  Te2-  Te175  1  0.83386805  0.66800984  0.21147672  1
  Te2-  Te176  1  0.16711993  0.33185523  0.54823443  1
  Te2-  Te177  1  0.16596131  0.83202161  0.54994301  1
  Te2-  Te178  1  0.66850800  0.33413006  0.54822872  1
  Te2-  Te179  1  0.66775633  0.83298880  0.54926210  1
  Te2-  Te180  1  0.32901923  0.41161790  0.70638981  1
  Te2-  Te181  1  0.32698036  0.91419310  0.71434481  1
  Te2-  Te182  1  0.82815169  0.41455748  0.71515868  1
  Te2-  Te183  1  0.82946691  0.91348097  0.70845697  1
  Te2-  Te184  1  0.08889642  0.17365395  0.70529641  1
  Te2-  Te185  1  0.08595876  0.67182453  0.71216560  1
  Te2-  Te186  1  0.58805610  0.17335357  0.71713484  1
  Te2-  Te187  1  0.58929743  0.67184358  0.70804512  1
  Te2-  Te188  1  0.08549532  0.41447446  0.70794008  1
  Te2-  Te189  1  0.08599842  0.91279053  0.71063786  1
  Te2-  Te190  1  0.58818877  0.41371840  0.71419708  1
  Te2-  Te191  1  0.58969339  0.91572809  0.71170883  1
  Te2-  Te192  1  0.16111644  0.08358845  0.04139199  1
  Te2-  Te193  1  0.16175777  0.57995949  0.04275008  1
  Te2-  Te194  1  0.65866622  0.07977336  0.04388384  1
  Te2-  Te195  1  0.66033481  0.58331078  0.04016994  1
  Te2-  Te196  1  0.41778251  0.34128614  0.04247937  1
  Te2-  Te197  1  0.42198252  0.84162032  0.04548500  1
  Te2-  Te198  1  0.92338169  0.33883919  0.04232623  1
  Te2-  Te199  1  0.91910776  0.84046840  0.03952704  1
  Te2-  Te200  1  0.42294405  0.08157594  0.04454518  1
  Te2-  Te201  1  0.41777231  0.58130290  0.04415346  1
  Te2-  Te202  1  0.92029316  0.08117461  0.04025857  1
  Te2-  Te203  1  0.92396434  0.58358788  0.04005206  1
  Te2-  Te204  1  0.49266204  0.24858818  0.37663254  1
  Te2-  Te205  1  0.49352990  0.74567678  0.37969891  1
  Te2-  Te206  1  0.99531350  0.24777637  0.37754851  1
  Te2-  Te207  1  0.99457408  0.74726067  0.37885014  1
  Te2-  Te208  1  0.24884478  0.00645333  0.37807071  1
  Te2-  Te209  1  0.25203794  0.50356460  0.37857440  1
  Te2-  Te210  1  0.75183521  0.00504833  0.37867476  1
  Te2-  Te211  1  0.75297181  0.50589429  0.37806868  1
  Te2-  Te212  1  0.24973698  0.24561765  0.37712241  1
  Te2-  Te213  1  0.25141394  0.74487338  0.37900227  1
  Te2-  Te214  1  0.75517458  0.24794284  0.37701486  1
  Te2-  Te215  1  0.75066233  0.74673594  0.37836767  1
