# generated using pymatgen
data_Ti(CuTe)4
_symmetry_space_group_name_H-M   'P 1'
_cell_length_a   16.90182182
_cell_length_b   16.90490736
_cell_length_c   20.72767013
_cell_angle_alpha   90.03628114
_cell_angle_beta   89.98393453
_cell_angle_gamma   119.98937437
_symmetry_Int_Tables_number   1
_chemical_formula_structural   Ti(CuTe)4
_chemical_formula_sum   'Ti24 Cu96 Te96'
_cell_volume   5129.48586347
_cell_formula_units_Z   24
loop_
 _symmetry_equiv_pos_site_id
 _symmetry_equiv_pos_as_xyz
  1  'x, y, z'
loop_
 _atom_type_symbol
 _atom_type_oxidation_number
  Ti4+  4.0
  Cu+  1.0
  Te2-  -2.0
loop_
 _atom_site_type_symbol
 _atom_site_label
 _atom_site_symmetry_multiplicity
 _atom_site_fract_x
 _atom_site_fract_y
 _atom_site_fract_z
 _atom_site_occupancy
  Ti4+  Ti0  1  0.00030727  -0.00081630  0.25476401  1
  Ti4+  Ti1  1  0.00101248  0.50280739  0.25608815  1
  Ti4+  Ti2  1  0.50150432  0.00262026  0.25978778  1
  Ti4+  Ti3  1  0.49751267  0.50082641  0.25893084  1
  Ti4+  Ti4  1  0.33713530  0.16562183  0.58930175  1
  Ti4+  Ti5  1  0.33656180  0.66494213  0.59085092  1
  Ti4+  Ti6  1  0.83673870  0.16854893  0.59410424  1
  Ti4+  Ti7  1  0.83409979  0.66714582  0.58976666  1
  Ti4+  Ti8  1  0.16135644  0.33015942  0.92910155  1
  Ti4+  Ti9  1  0.16537495  0.83083370  0.92139657  1
  Ti4+  Ti10  1  0.66529044  0.33517828  0.92321006  1
  Ti4+  Ti11  1  0.66240646  0.83243611  0.92333879  1
  Ti4+  Ti12  1  0.00130697  0.00151179  0.75551096  1
  Ti4+  Ti13  1  0.00004971  0.50172650  0.75462638  1
  Ti4+  Ti14  1  0.50057391  -0.00285317  0.75454644  1
  Ti4+  Ti15  1  0.50046480  0.49884980  0.75712241  1
  Ti4+  Ti16  1  0.33173804  0.16581738  0.08744947  1
  Ti4+  Ti17  1  0.33100830  0.66588964  0.08904814  1
  Ti4+  Ti18  1  0.82989795  0.16585625  0.08800896  1
  Ti4+  Ti19  1  0.83386603  0.66818595  0.08796046  1
  Ti4+  Ti20  1  0.16701014  0.33381201  0.42353204  1
  Ti4+  Ti21  1  0.16843119  0.83465357  0.42193966  1
  Ti4+  Ti22  1  0.66721600  0.33483213  0.42073218  1
  Ti4+  Ti23  1  0.66740812  0.83380114  0.42152524  1
  Cu+  Cu24  1  0.58405760  0.15388269  0.47776315  1
  Cu+  Cu25  1  0.02599907  0.76325279  0.13760679  1
  Cu+  Cu26  1  0.90722862  0.32242313  0.81311945  1
  Cu+  Cu27  1  0.24420916  0.25566039  0.14774658  1
  Cu+  Cu28  1  0.90386231  0.08889051  0.81184518  1
  Cu+  Cu29  1  0.35178713  0.42097115  0.47758505  1
  Cu+  Cu30  1  0.57979823  0.64965887  0.47588309  1
  Cu+  Cu31  1  0.40278411  0.80655536  0.80657672  1
  Cu+  Cu32  1  0.35320037  0.92107292  0.47562603  1
  Cu+  Cu33  1  0.90239168  0.59399678  0.80561673  1
  Cu+  Cu34  1  0.00601791  0.25376350  0.14964116  1
  Cu+  Cu35  1  0.24389952  0.48919237  0.14942756  1
  Cu+  Cu36  1  0.16040365  0.08120506  0.16725238  1
  Cu+  Cu37  1  0.16050188  0.57965822  0.16921408  1
  Cu+  Cu38  1  0.66103106  0.08377812  0.17194143  1
  Cu+  Cu39  1  0.66377753  0.58593067  0.17263670  1
  Cu+  Cu40  1  0.41600030  0.33786412  0.17038322  1
  Cu+  Cu41  1  0.41755273  0.83807531  0.17325013  1
  Cu+  Cu42  1  0.91767642  0.33805220  0.16959650  1
  Cu+  Cu43  1  0.92296546  0.83604357  0.16807796  1
  Cu+  Cu44  1  0.41974390  0.08301719  0.17247929  1
  Cu+  Cu45  1  0.41676428  0.58064804  0.17186553  1
  Cu+  Cu46  1  0.91675795  0.08041346  0.16853352  1
  Cu+  Cu47  1  0.92278358  0.58911325  0.16975746  1
  Cu+  Cu48  1  0.49783415  0.24495361  0.50083804  1
  Cu+  Cu49  1  0.49885390  0.74433187  0.50278086  1
  Cu+  Cu50  1  0.99825569  0.24923427  0.50805911  1
  Cu+  Cu51  1  0.99777084  0.74799739  0.50482145  1
  Cu+  Cu52  1  0.25708083  0.00224196  0.50271016  1
  Cu+  Cu53  1  0.25645142  0.50172952  0.50450454  1
  Cu+  Cu54  1  0.75841461  0.00486792  0.50492910  1
  Cu+  Cu55  1  0.75488112  0.50526339  0.50243444  1
  Cu+  Cu56  1  0.25514601  0.24947843  0.50468970  1
  Cu+  Cu57  1  0.25567615  0.75075485  0.50561888  1
  Cu+  Cu58  1  0.75583143  0.25056523  0.50601726  1
  Cu+  Cu59  1  0.75153608  0.74643351  0.50320562  1
  Cu+  Cu60  1  0.33013548  0.41409464  0.84240861  1
  Cu+  Cu61  1  0.33077044  0.90849254  0.83554006  1
  Cu+  Cu62  1  0.82712647  0.41776784  0.83596359  1
  Cu+  Cu63  1  0.82896168  0.91760199  0.83779156  1
  Cu+  Cu64  1  0.07965234  0.16867595  0.83954063  1
  Cu+  Cu65  1  0.07985495  0.67117325  0.83398127  1
  Cu+  Cu66  1  0.58234955  0.16844544  0.83680821  1
  Cu+  Cu67  1  0.58192950  0.66774924  0.83820295  1
  Cu+  Cu68  1  0.08156020  0.41138566  0.83936770  1
  Cu+  Cu69  1  0.08474874  0.91460729  0.83611495  1
  Cu+  Cu70  1  0.58339588  0.41432318  0.83762815  1
  Cu+  Cu71  1  0.57771086  0.90764459  0.83550005  1
  Cu+  Cu72  1  0.17278833  0.08589573  0.67331118  1
  Cu+  Cu73  1  0.17074400  0.58524443  0.67396352  1
  Cu+  Cu74  1  0.67143738  0.08455735  0.67635858  1
  Cu+  Cu75  1  0.66899061  0.58342504  0.67492722  1
  Cu+  Cu76  1  0.41638134  0.32977723  0.67520975  1
  Cu+  Cu77  1  0.41743716  0.82835755  0.67829902  1
  Cu+  Cu78  1  0.91771228  0.33250902  0.68131683  1
  Cu+  Cu79  1  0.91731742  0.83234580  0.67244423  1
  Cu+  Cu80  1  0.41844309  0.08307660  0.67444810  1
  Cu+  Cu81  1  0.41720459  0.58085742  0.67734363  1
  Cu+  Cu82  1  0.91979230  0.08873066  0.68213396  1
  Cu+  Cu83  1  0.91660409  0.58743338  0.67737054  1
  Cu+  Cu84  1  -0.00204597  0.24885490  0.01660790  1
  Cu+  Cu85  1  0.00225331  0.75112125  0.00981497  1
  Cu+  Cu86  1  0.50134240  0.25098424  0.00778597  1
  Cu+  Cu87  1  0.49861049  0.75072383  0.00925614  1
  Cu+  Cu88  1  0.24610206  0.49515228  0.01658458  1
  Cu+  Cu89  1  0.25080721  0.99722643  0.00494314  1
  Cu+  Cu90  1  0.74684954  0.49893048  0.00769954  1
  Cu+  Cu91  1  0.74183149  0.99633746  0.00722119  1
  Cu+  Cu92  1  0.24568948  0.24907933  0.01530434  1
  Cu+  Cu93  1  0.24891591  0.74943047  0.00621596  1
  Cu+  Cu94  1  0.74498473  0.25134697  0.00765026  1
  Cu+  Cu95  1  0.74557736  0.75218690  0.00640102  1
  Cu+  Cu96  1  0.33370513  0.41835795  0.34833386  1
  Cu+  Cu97  1  0.33872852  0.92087743  0.34680956  1
  Cu+  Cu98  1  0.83662848  0.42044789  0.33888054  1
  Cu+  Cu99  1  0.83596340  0.91817674  0.33791961  1
  Cu+  Cu100  1  0.07936396  0.16437149  0.34248594  1
  Cu+  Cu101  1  0.08291890  0.66611944  0.34053878  1
  Cu+  Cu102  1  0.58391931  0.16651999  0.34715978  1
  Cu+  Cu103  1  0.58040590  0.66518095  0.34636348  1
  Cu+  Cu104  1  0.07970669  0.41697463  0.34426819  1
  Cu+  Cu105  1  0.08152660  0.91742410  0.33979558  1
  Cu+  Cu106  1  0.58293934  0.42005066  0.34090058  1
  Cu+  Cu107  1  0.58566164  0.92123611  0.34234151  1
  Cu+  Cu108  1  -0.00387050  -0.00241162  0.10999066  1
  Cu+  Cu109  1  -0.00484096  0.49990211  0.11226768  1
  Cu+  Cu110  1  0.49756020  -0.00108103  0.11619614  1
  Cu+  Cu111  1  0.50344764  0.50104054  0.11509118  1
  Cu+  Cu112  1  0.33154836  0.16593872  0.44559384  1
  Cu+  Cu113  1  0.33148878  0.66615995  0.44810124  1
  Cu+  Cu114  1  0.83565721  0.16715896  0.45022940  1
  Cu+  Cu115  1  0.83679057  0.66902417  0.44557784  1
  Cu+  Cu116  1  0.17024707  0.33424444  0.78578026  1
  Cu+  Cu117  1  0.16896115  0.83860475  0.77769535  1
  Cu+  Cu118  1  0.66204655  0.32938181  0.77950522  1
  Cu+  Cu119  1  0.66929354  0.83036780  0.78048145  1
  Te2-  Te120  1  -0.00082876  -0.00083864  0.38362360  1
  Te2-  Te121  1  -0.00035022  0.50226084  0.38496246  1
  Te2-  Te122  1  0.50422043  0.00117708  0.39262431  1
  Te2-  Te123  1  0.50062436  0.49925894  0.39066865  1
  Te2-  Te124  1  0.33627752  0.16519412  0.71809807  1
  Te2-  Te125  1  0.33325976  0.66167484  0.72089312  1
  Te2-  Te126  1  0.83304792  0.16765252  0.72650296  1
  Te2-  Te127  1  0.83271402  0.66990748  0.72028830  1
  Te2-  Te128  1  0.16298818  0.33067090  0.06219323  1
  Te2-  Te129  1  0.16951617  0.83405135  0.05161188  1
  Te2-  Te130  1  0.66509606  0.33520633  0.05221849  1
  Te2-  Te131  1  0.66309987  0.83286634  0.05236846  1
  Te2-  Te132  1  0.49385474  0.24697442  0.88200149  1
  Te2-  Te133  1  0.48772300  0.74060214  0.88360500  1
  Te2-  Te134  1  0.98588234  0.24332579  0.88792911  1
  Te2-  Te135  1  0.99081948  0.74822539  0.88289186  1
  Te2-  Te136  1  0.25359131  0.00060407  0.87889579  1
  Te2-  Te137  1  0.24757724  0.50014275  0.88796221  1
  Te2-  Te138  1  0.74495628  0.00544867  0.88161440  1
  Te2-  Te139  1  0.75046623  0.50921436  0.88212289  1
  Te2-  Te140  1  0.24651406  0.24569380  0.88735859  1
  Te2-  Te141  1  0.24707668  0.73899545  0.88063912  1
  Te2-  Te142  1  0.74984047  0.24655373  0.88204258  1
  Te2-  Te143  1  0.75054257  0.74987047  0.88065326  1
  Te2-  Te144  1  0.32145475  0.41153227  0.22074492  1
  Te2-  Te145  1  0.32988364  0.91683962  0.21984832  1
  Te2-  Te146  1  0.83159443  0.41920659  0.21287648  1
  Te2-  Te147  1  0.83079398  0.91334830  0.21197897  1
  Te2-  Te148  1  0.08678912  0.17631220  0.21675671  1
  Te2-  Te149  1  0.09189501  0.67633214  0.21500104  1
  Te2-  Te150  1  0.58614419  0.17424656  0.21999547  1
  Te2-  Te151  1  0.58231214  0.67164986  0.21898253  1
  Te2-  Te152  1  0.08692102  0.41117411  0.21848140  1
  Te2-  Te153  1  0.09126154  0.91637444  0.21417049  1
  Te2-  Te154  1  0.58301903  0.41658925  0.21482564  1
  Te2-  Te155  1  0.58603090  0.91654253  0.21668990  1
  Te2-  Te156  1  0.16733917  0.08130214  0.54710205  1
  Te2-  Te157  1  0.16749741  0.58185322  0.54792431  1
  Te2-  Te158  1  0.66506827  0.07901251  0.55034242  1
  Te2-  Te159  1  0.66030993  0.57634033  0.54924745  1
  Te2-  Te160  1  0.42594598  0.33890543  0.54937739  1
  Te2-  Te161  1  0.42612321  0.83790904  0.55116438  1
  Te2-  Te162  1  0.92152915  0.33967129  0.55380234  1
  Te2-  Te163  1  0.91883981  0.83792793  0.54682750  1
  Te2-  Te164  1  0.42583444  0.07706833  0.54904362  1
  Te2-  Te165  1  0.42481215  0.57651922  0.55131815  1
  Te2-  Te166  1  0.92315912  0.08320014  0.55478743  1
  Te2-  Te167  1  0.92034743  0.58112860  0.55061697  1
  Te2-  Te168  1  -0.00089779  -0.00188294  0.88231322  1
  Te2-  Te169  1  -0.00133988  0.50102510  0.88183736  1
  Te2-  Te170  1  0.49941727  -0.00084364  0.88119588  1
  Te2-  Te171  1  0.49959922  0.49918532  0.88302659  1
  Te2-  Te172  1  0.33139543  0.16611263  0.21438369  1
  Te2-  Te173  1  0.33146025  0.66725947  0.21592297  1
  Te2-  Te174  1  0.83182817  0.16674973  0.21500556  1
  Te2-  Te175  1  0.83319733  0.66839015  0.21468188  1
  Te2-  Te176  1  0.16857832  0.33257879  0.55023156  1
  Te2-  Te177  1  0.16764928  0.83318297  0.54876135  1
  Te2-  Te178  1  0.66820009  0.33488988  0.54753246  1
  Te2-  Te179  1  0.66949386  0.83437477  0.54825797  1
  Te2-  Te180  1  0.32850910  0.41135882  0.71451548  1
  Te2-  Te181  1  0.32876994  0.91278697  0.70832975  1
  Te2-  Te182  1  0.82645442  0.41472550  0.70869662  1
  Te2-  Te183  1  0.82952546  0.91444415  0.70989188  1
  Te2-  Te184  1  0.09224556  0.17467589  0.71265782  1
  Te2-  Te185  1  0.08933140  0.67418374  0.70819363  1
  Te2-  Te186  1  0.58729064  0.17023805  0.71063535  1
  Te2-  Te187  1  0.58678882  0.67047528  0.71185319  1
  Te2-  Te188  1  0.08985747  0.41639953  0.71272584  1
  Te2-  Te189  1  0.08665241  0.91586831  0.70956607  1
  Te2-  Te190  1  0.58632716  0.41369055  0.71128313  1
  Te2-  Te191  1  0.59016609  0.91365756  0.70941825  1
  Te2-  Te192  1  0.15903394  0.07564916  0.04100852  1
  Te2-  Te193  1  0.15790176  0.58034365  0.04298077  1
  Te2-  Te194  1  0.65776241  0.08156460  0.04536016  1
  Te2-  Te195  1  0.66167739  0.58338546  0.04545649  1
  Te2-  Te196  1  0.41908227  0.33919711  0.04349839  1
  Te2-  Te197  1  0.41693672  0.83822878  0.04633505  1
  Te2-  Te198  1  0.91489906  0.33898797  0.04286377  1
  Te2-  Te199  1  0.91653880  0.83856987  0.04085561  1
  Te2-  Te200  1  0.41938004  0.08109433  0.04541550  1
  Te2-  Te201  1  0.41929320  0.58052640  0.04521708  1
  Te2-  Te202  1  0.91245872  0.07565928  0.04192772  1
  Te2-  Te203  1  0.91693095  0.57951440  0.04243332  1
  Te2-  Te204  1  0.49382954  0.24994983  0.37498405  1
  Te2-  Te205  1  0.49377059  0.75075156  0.37688793  1
  Te2-  Te206  1  0.99419861  0.24778433  0.38110936  1
  Te2-  Te207  1  0.99671613  0.74879093  0.37799014  1
  Te2-  Te208  1  0.25136776  0.00644331  0.37605176  1
  Te2-  Te209  1  0.24996029  0.50658559  0.37805147  1
  Te2-  Te210  1  0.75567970  0.00634405  0.37843101  1
  Te2-  Te211  1  0.75330505  0.50675104  0.37631319  1
  Te2-  Te212  1  0.25008548  0.24516957  0.37709631  1
  Te2-  Te213  1  0.25331866  0.74744584  0.37751649  1
  Te2-  Te214  1  0.75699818  0.25119561  0.37817968  1
  Te2-  Te215  1  0.75399658  0.74854862  0.37567755  1
