# generated using pymatgen
data_Ti(CuTe)4
_symmetry_space_group_name_H-M   'P 1'
_cell_length_a   16.89473269
_cell_length_b   16.89440034
_cell_length_c   20.72032772
_cell_angle_alpha   90.05065355
_cell_angle_beta   89.95253535
_cell_angle_gamma   119.98790012
_symmetry_Int_Tables_number   1
_chemical_formula_structural   Ti(CuTe)4
_chemical_formula_sum   'Ti24 Cu96 Te96'
_cell_volume   5122.40701659
_cell_formula_units_Z   24
loop_
 _symmetry_equiv_pos_site_id
 _symmetry_equiv_pos_as_xyz
  1  'x, y, z'
loop_
 _atom_type_symbol
 _atom_type_oxidation_number
  Ti4+  4.0
  Cu+  1.0
  Te2-  -2.0
loop_
 _atom_site_type_symbol
 _atom_site_label
 _atom_site_symmetry_multiplicity
 _atom_site_fract_x
 _atom_site_fract_y
 _atom_site_fract_z
 _atom_site_occupancy
  Ti4+  Ti0  1  -0.00177826  -0.00299334  0.25594828  1
  Ti4+  Ti1  1  -0.00341181  0.49765096  0.25659942  1
  Ti4+  Ti2  1  0.49667734  -0.00156609  0.25517875  1
  Ti4+  Ti3  1  0.49659433  0.49796739  0.26452978  1
  Ti4+  Ti4  1  0.33440692  0.16889809  0.59365492  1
  Ti4+  Ti5  1  0.33446947  0.66913002  0.59068792  1
  Ti4+  Ti6  1  0.83504799  0.16819166  0.58929384  1
  Ti4+  Ti7  1  0.83427815  0.66860600  0.58880673  1
  Ti4+  Ti8  1  0.16927429  0.33347275  0.92230282  1
  Ti4+  Ti9  1  0.16901431  0.83270111  0.92276000  1
  Ti4+  Ti10  1  0.66863466  0.33335081  0.92485563  1
  Ti4+  Ti11  1  0.66779979  0.83220280  0.92602462  1
  Ti4+  Ti12  1  0.00049813  0.00106927  0.75545338  1
  Ti4+  Ti13  1  0.00123147  0.50075245  0.75505802  1
  Ti4+  Ti14  1  0.50098680  0.00196410  0.75520767  1
  Ti4+  Ti15  1  0.50085840  0.50179161  0.75547212  1
  Ti4+  Ti16  1  0.33272766  0.16541134  0.09065398  1
  Ti4+  Ti17  1  0.33374601  0.66599448  0.08941036  1
  Ti4+  Ti18  1  0.83322847  0.16695709  0.08748170  1
  Ti4+  Ti19  1  0.83408247  0.66668807  0.08961999  1
  Ti4+  Ti20  1  0.16405111  0.33214230  0.42178004  1
  Ti4+  Ti21  1  0.16479749  0.83266478  0.42245034  1
  Ti4+  Ti22  1  0.66605061  0.33256250  0.42154019  1
  Ti4+  Ti23  1  0.66668744  0.83481530  0.41997880  1
  Cu+  Cu24  1  0.73811136  0.97937465  0.14069976  1
  Cu+  Cu25  1  0.85747988  0.93120225  0.47135837  1
  Cu+  Cu26  1  0.73732588  0.25891306  0.14184524  1
  Cu+  Cu27  1  0.18515849  0.08829615  0.81011551  1
  Cu+  Cu28  1  0.23414800  0.97237567  0.13904135  1
  Cu+  Cu29  1  0.41483791  0.31936705  0.81284294  1
  Cu+  Cu30  1  0.85682387  0.42811598  0.47262484  1
  Cu+  Cu31  1  0.90762661  0.31202975  0.80741842  1
  Cu+  Cu32  1  0.58017053  0.66131040  0.48204263  1
  Cu+  Cu33  1  0.34123898  0.42125176  0.48402477  1
  Cu+  Cu34  1  0.57941770  0.42153359  0.48304904  1
  Cu+  Cu35  1  0.19096734  0.59428358  0.80608407  1
  Cu+  Cu36  1  0.16322365  0.07631687  0.17092574  1
  Cu+  Cu37  1  0.16320646  0.57972565  0.17111167  1
  Cu+  Cu38  1  0.66275883  0.08215385  0.16843827  1
  Cu+  Cu39  1  0.66308288  0.58041111  0.17644112  1
  Cu+  Cu40  1  0.41546309  0.33583679  0.17724904  1
  Cu+  Cu41  1  0.41534156  0.83510887  0.16885924  1
  Cu+  Cu42  1  0.91240289  0.33724834  0.16938700  1
  Cu+  Cu43  1  0.91747252  0.83616886  0.16964462  1
  Cu+  Cu44  1  0.41039329  0.07556572  0.16959550  1
  Cu+  Cu45  1  0.41433250  0.57903634  0.17622390  1
  Cu+  Cu46  1  0.91295511  0.07693311  0.16993637  1
  Cu+  Cu47  1  0.91554227  0.57960062  0.17094861  1
  Cu+  Cu48  1  0.49363337  0.24875251  0.50466665  1
  Cu+  Cu49  1  0.49378367  0.74888044  0.50204443  1
  Cu+  Cu50  1  0.99325194  0.24802413  0.50207090  1
  Cu+  Cu51  1  0.99647233  0.74958558  0.50245056  1
  Cu+  Cu52  1  0.25006087  0.00203075  0.50730422  1
  Cu+  Cu53  1  0.25122294  0.50491623  0.50365354  1
  Cu+  Cu54  1  0.75590996  0.00444494  0.50144861  1
  Cu+  Cu55  1  0.75467793  0.50369060  0.50143269  1
  Cu+  Cu56  1  0.25171568  0.24858786  0.50565549  1
  Cu+  Cu57  1  0.25087861  0.75032759  0.50530372  1
  Cu+  Cu58  1  0.75641245  0.25331810  0.50271169  1
  Cu+  Cu59  1  0.75529203  0.75355194  0.50031761  1
  Cu+  Cu60  1  0.33118290  0.41231378  0.83497557  1
  Cu+  Cu61  1  0.33126763  0.91562188  0.83592564  1
  Cu+  Cu62  1  0.83187690  0.41149915  0.83803158  1
  Cu+  Cu63  1  0.82953450  0.91341877  0.83987729  1
  Cu+  Cu64  1  0.09053259  0.16965965  0.83556421  1
  Cu+  Cu65  1  0.09030268  0.66956933  0.83629564  1
  Cu+  Cu66  1  0.58784982  0.17126654  0.83739117  1
  Cu+  Cu67  1  0.58751812  0.67114652  0.83909523  1
  Cu+  Cu68  1  0.08635603  0.41703042  0.83546031  1
  Cu+  Cu69  1  0.08790505  0.91681793  0.83801234  1
  Cu+  Cu70  1  0.58667878  0.41546565  0.83871149  1
  Cu+  Cu71  1  0.58540275  0.91587366  0.83966431  1
  Cu+  Cu72  1  0.17083994  0.08706855  0.68061660  1
  Cu+  Cu73  1  0.17195711  0.58791281  0.67749851  1
  Cu+  Cu74  1  0.66939079  0.08592347  0.67226665  1
  Cu+  Cu75  1  0.67006479  0.58767647  0.67475913  1
  Cu+  Cu76  1  0.41637964  0.33370014  0.68259210  1
  Cu+  Cu77  1  0.41737048  0.83466713  0.67415382  1
  Cu+  Cu78  1  0.91443440  0.33181199  0.67827311  1
  Cu+  Cu79  1  0.91458164  0.83374607  0.67397228  1
  Cu+  Cu80  1  0.41799676  0.08713770  0.67625747  1
  Cu+  Cu81  1  0.41849155  0.58807949  0.67678110  1
  Cu+  Cu82  1  0.91433570  0.08322599  0.67481730  1
  Cu+  Cu83  1  0.91501859  0.58535238  0.67366153  1
  Cu+  Cu84  1  0.00486227  0.25273982  0.00583552  1
  Cu+  Cu85  1  0.00314022  0.75132703  0.00632875  1
  Cu+  Cu86  1  0.50248594  0.25311953  0.01077220  1
  Cu+  Cu87  1  0.50341960  0.74928346  0.00963424  1
  Cu+  Cu88  1  0.25171257  0.49858019  0.00741260  1
  Cu+  Cu89  1  0.24825501  0.99644454  0.01163121  1
  Cu+  Cu90  1  0.74962183  0.49869282  0.00836218  1
  Cu+  Cu91  1  0.74902624  0.99521128  0.01195404  1
  Cu+  Cu92  1  0.25263621  0.25231577  0.01038982  1
  Cu+  Cu93  1  0.25113984  0.74955370  0.00727164  1
  Cu+  Cu94  1  0.75113796  0.25330808  0.01234092  1
  Cu+  Cu95  1  0.74964037  0.74956369  0.01002826  1
  Cu+  Cu96  1  0.33338612  0.41648770  0.35135099  1
  Cu+  Cu97  1  0.33277827  0.91717386  0.34156256  1
  Cu+  Cu98  1  0.83444389  0.41545407  0.34431566  1
  Cu+  Cu99  1  0.83516773  0.91901208  0.34340717  1
  Cu+  Cu100  1  0.07909052  0.16274889  0.33907612  1
  Cu+  Cu101  1  0.08004693  0.66294608  0.34041453  1
  Cu+  Cu102  1  0.57949031  0.16240390  0.33893341  1
  Cu+  Cu103  1  0.57827306  0.66246197  0.34953511  1
  Cu+  Cu104  1  0.07790879  0.41408797  0.33920880  1
  Cu+  Cu105  1  0.08205624  0.91607040  0.34150545  1
  Cu+  Cu106  1  0.57823630  0.41610639  0.35063350  1
  Cu+  Cu107  1  0.58116602  0.91891761  0.33888921  1
  Cu+  Cu108  1  0.00062477  0.00245274  0.11276145  1
  Cu+  Cu109  1  0.00302262  0.50387127  0.11351793  1
  Cu+  Cu110  1  0.49869413  -0.00103915  0.11125967  1
  Cu+  Cu111  1  0.50088053  0.50105598  0.12256728  1
  Cu+  Cu112  1  0.32878712  0.16189511  0.44964454  1
  Cu+  Cu113  1  0.32863683  0.66786367  0.44647136  1
  Cu+  Cu114  1  0.82959746  0.16575079  0.44401795  1
  Cu+  Cu115  1  0.83365363  0.66736188  0.44399663  1
  Cu+  Cu116  1  0.16577737  0.33360705  0.77833037  1
  Cu+  Cu117  1  0.16541084  0.83275650  0.77930054  1
  Cu+  Cu118  1  0.66886812  0.33572508  0.78132615  1
  Cu+  Cu119  1  0.66564807  0.83524941  0.78348425  1
  Te2-  Te120  1  0.00182012  0.00020385  0.38631658  1
  Te2-  Te121  1  0.00099508  0.49965079  0.38722825  1
  Te2-  Te122  1  0.49777653  -0.00095179  0.38397836  1
  Te2-  Te123  1  0.49756320  0.49913751  0.39852476  1
  Te2-  Te124  1  0.33639318  0.16749239  0.72554907  1
  Te2-  Te125  1  0.33799572  0.67159820  0.72088436  1
  Te2-  Te126  1  0.83221198  0.16518883  0.71973704  1
  Te2-  Te127  1  0.83475687  0.66926323  0.71740117  1
  Te2-  Te128  1  0.16841738  0.33394603  0.05068288  1
  Te2-  Te129  1  0.16625067  0.82897284  0.05284046  1
  Te2-  Te130  1  0.66688623  0.33536883  0.05516531  1
  Te2-  Te131  1  0.66647161  0.82987866  0.05691494  1
  Te2-  Te132  1  0.49495951  0.24480585  0.88470645  1
  Te2-  Te133  1  0.49643885  0.74718156  0.88373819  1
  Te2-  Te134  1  0.99725488  0.24547089  0.87987648  1
  Te2-  Te135  1  0.99924961  0.74790300  0.88018742  1
  Te2-  Te136  1  0.25751126  0.00707114  0.88478672  1
  Te2-  Te137  1  0.25720613  0.50573376  0.88115945  1
  Te2-  Te138  1  0.75302945  0.00405789  0.88524209  1
  Te2-  Te139  1  0.75427882  0.50322241  0.88223564  1
  Te2-  Te140  1  0.25805570  0.24477889  0.88435595  1
  Te2-  Te141  1  0.25889155  0.74865753  0.88160787  1
  Te2-  Te142  1  0.75368358  0.24394384  0.88510831  1
  Te2-  Te143  1  0.75395794  0.74612919  0.88457560  1
  Te2-  Te144  1  0.32559458  0.41254141  0.22384353  1
  Te2-  Te145  1  0.32224840  0.90790914  0.21583515  1
  Te2-  Te146  1  0.82152681  0.41323192  0.21777307  1
  Te2-  Te147  1  0.82387964  0.90897397  0.21680016  1
  Te2-  Te148  1  0.08266023  0.16648674  0.21299878  1
  Te2-  Te149  1  0.08345365  0.66852889  0.21459100  1
  Te2-  Te150  1  0.58018757  0.17092517  0.21328186  1
  Te2-  Te151  1  0.58207840  0.66775800  0.22169247  1
  Te2-  Te152  1  0.08036560  0.41066579  0.21368372  1
  Te2-  Te153  1  0.08323795  0.90758235  0.21598337  1
  Te2-  Te154  1  0.58248121  0.41304354  0.22308992  1
  Te2-  Te155  1  0.58317256  0.91179962  0.21355061  1
  Te2-  Te156  1  0.16379240  0.08337328  0.55319763  1
  Te2-  Te157  1  0.16332465  0.58258268  0.55050363  1
  Te2-  Te158  1  0.66570547  0.08353449  0.54601362  1
  Te2-  Te159  1  0.65952975  0.58125839  0.54895975  1
  Te2-  Te160  1  0.42180666  0.34487901  0.55465892  1
  Te2-  Te161  1  0.41969533  0.83980105  0.54828402  1
  Te2-  Te162  1  0.92372581  0.34315145  0.55101522  1
  Te2-  Te163  1  0.92168540  0.84183111  0.54813678  1
  Te2-  Te164  1  0.41913046  0.08340350  0.55032160  1
  Te2-  Te165  1  0.42211647  0.58032159  0.55109462  1
  Te2-  Te166  1  0.92376169  0.08233445  0.54906038  1
  Te2-  Te167  1  0.92174278  0.58260845  0.54805041  1
  Te2-  Te168  1  0.00068906  0.00016505  0.88226345  1
  Te2-  Te169  1  0.00135642  0.50078936  0.88244675  1
  Te2-  Te170  1  0.50079137  0.00112053  0.88142778  1
  Te2-  Te171  1  0.50075338  0.50061239  0.88225940  1
  Te2-  Te172  1  0.33147609  0.16479724  0.21738610  1
  Te2-  Te173  1  0.33120818  0.66666916  0.21583262  1
  Te2-  Te174  1  0.83263349  0.16677480  0.21475764  1
  Te2-  Te175  1  0.83369592  0.66684339  0.21596963  1
  Te2-  Te176  1  0.16408944  0.33347273  0.54873454  1
  Te2-  Te177  1  0.16483225  0.83292943  0.54879874  1
  Te2-  Te178  1  0.66603092  0.33304583  0.54914089  1
  Te2-  Te179  1  0.66541573  0.83475204  0.54772065  1
  Te2-  Te180  1  0.32729034  0.41768749  0.70919273  1
  Te2-  Te181  1  0.32893162  0.91630947  0.71034935  1
  Te2-  Te182  1  0.82781576  0.41662473  0.71093587  1
  Te2-  Te183  1  0.82746077  0.91478648  0.71330614  1
  Te2-  Te184  1  0.08469617  0.17363948  0.70926781  1
  Te2-  Te185  1  0.08497207  0.67310151  0.70938578  1
  Te2-  Te186  1  0.58833160  0.17417669  0.71122057  1
  Te2-  Te187  1  0.58805482  0.67479280  0.71261995  1
  Te2-  Te188  1  0.08777935  0.41504406  0.70786041  1
  Te2-  Te189  1  0.08527070  0.91375475  0.71022609  1
  Te2-  Te190  1  0.58984511  0.41762775  0.71115910  1
  Te2-  Te191  1  0.58710676  0.91654315  0.71200372  1
  Te2-  Te192  1  0.16124353  0.08150824  0.04382418  1
  Te2-  Te193  1  0.16306601  0.57995195  0.04399130  1
  Te2-  Te194  1  0.66030121  0.07993949  0.04117598  1
  Te2-  Te195  1  0.66153729  0.57974896  0.04880122  1
  Te2-  Te196  1  0.42046688  0.33951680  0.05045086  1
  Te2-  Te197  1  0.42044810  0.83734620  0.04323694  1
  Te2-  Te198  1  0.92326076  0.34048221  0.04297528  1
  Te2-  Te199  1  0.92039705  0.83821716  0.04409884  1
  Te2-  Te200  1  0.42078239  0.08183267  0.04324424  1
  Te2-  Te201  1  0.42011011  0.57964317  0.04874065  1
  Te2-  Te202  1  0.92184767  0.08272614  0.04267097  1
  Te2-  Te203  1  0.91979665  0.58125467  0.04436457  1
  Te2-  Te204  1  0.49147535  0.24327969  0.37832774  1
  Te2-  Te205  1  0.49214056  0.74952156  0.37596750  1
  Te2-  Te206  1  0.99219742  0.24524404  0.37649589  1
  Te2-  Te207  1  0.99384791  0.74636259  0.37647596  1
  Te2-  Te208  1  0.25085766  0.00428609  0.37982275  1
  Te2-  Te209  1  0.24790997  0.50512944  0.37696072  1
  Te2-  Te210  1  0.75085370  0.00708334  0.37441902  1
  Te2-  Te211  1  0.75217588  0.50618437  0.37477989  1
  Te2-  Te212  1  0.24862531  0.24290210  0.37859306  1
  Te2-  Te213  1  0.24985021  0.74705567  0.37801026  1
  Te2-  Te214  1  0.74903660  0.24354639  0.37553922  1
  Te2-  Te215  1  0.75217904  0.74606924  0.37371316  1
