# generated using pymatgen
data_Ti(CuTe)4
_symmetry_space_group_name_H-M   'P 1'
_cell_length_a   16.85750684
_cell_length_b   16.85760773
_cell_length_c   20.66203723
_cell_angle_alpha   89.99161997
_cell_angle_beta   90.01790318
_cell_angle_gamma   120.00005259
_symmetry_Int_Tables_number   1
_chemical_formula_structural   Ti(CuTe)4
_chemical_formula_sum   'Ti24 Cu96 Te96'
_cell_volume   5085.02167367
_cell_formula_units_Z   24
loop_
 _symmetry_equiv_pos_site_id
 _symmetry_equiv_pos_as_xyz
  1  'x, y, z'
loop_
 _atom_type_symbol
 _atom_type_oxidation_number
  Ti4+  4.0
  Cu+  1.0
  Te2-  -2.0
loop_
 _atom_site_type_symbol
 _atom_site_label
 _atom_site_symmetry_multiplicity
 _atom_site_fract_x
 _atom_site_fract_y
 _atom_site_fract_z
 _atom_site_occupancy
  Ti4+  Ti0  1  -0.00079740  0.00174557  0.25753983  1
  Ti4+  Ti1  1  -0.00389010  0.49774669  0.25792135  1
  Ti4+  Ti2  1  0.50154999  0.00052497  0.26057757  1
  Ti4+  Ti3  1  0.49618045  0.49911575  0.25792443  1
  Ti4+  Ti4  1  0.33219819  0.16406176  0.58991263  1
  Ti4+  Ti5  1  0.33536006  0.66777189  0.59156866  1
  Ti4+  Ti6  1  0.83453694  0.16784589  0.59760486  1
  Ti4+  Ti7  1  0.83098335  0.66826336  0.58667010  1
  Ti4+  Ti8  1  0.16848447  0.33379682  0.92462548  1
  Ti4+  Ti9  1  0.17021324  0.83274879  0.92046390  1
  Ti4+  Ti10  1  0.66548090  0.33232467  0.92368697  1
  Ti4+  Ti11  1  0.66823754  0.83436729  0.92577645  1
  Ti4+  Ti12  1  -0.00022752  0.00022391  0.75519100  1
  Ti4+  Ti13  1  0.00191647  0.50048413  0.75242753  1
  Ti4+  Ti14  1  0.49897509  0.00059467  0.75249662  1
  Ti4+  Ti15  1  0.49990294  0.49945730  0.75627353  1
  Ti4+  Ti16  1  0.33270160  0.16796679  0.09028363  1
  Ti4+  Ti17  1  0.33493811  0.66705836  0.09001244  1
  Ti4+  Ti18  1  0.83213819  0.16579393  0.08880962  1
  Ti4+  Ti19  1  0.83515023  0.66647277  0.08797360  1
  Ti4+  Ti20  1  0.16434006  0.33288743  0.42417226  1
  Ti4+  Ti21  1  0.16874734  0.83654341  0.42161433  1
  Ti4+  Ti22  1  0.66661188  0.33252760  0.42306665  1
  Ti4+  Ti23  1  0.66559721  0.83078621  0.42400069  1
  Cu+  Cu24  1  0.91162587  0.09006075  0.81475035  1
  Cu+  Cu25  1  0.35909559  0.92855123  0.47638689  1
  Cu+  Cu26  1  0.40695123  0.09426314  0.80580581  1
  Cu+  Cu27  1  0.73588709  0.25883019  0.14130102  1
  Cu+  Cu28  1  0.91308492  0.32413427  0.81465442  1
  Cu+  Cu29  1  0.23445938  0.26332385  0.14095737  1
  Cu+  Cu30  1  0.07291717  0.93148762  0.47117778  1
  Cu+  Cu31  1  0.41690594  0.82272761  0.81034145  1
  Cu+  Cu32  1  0.56708343  0.63877530  0.47232465  1
  Cu+  Cu33  1  0.67272572  0.08656170  0.81678046  1
  Cu+  Cu34  1  0.73739828  0.97796162  0.14340127  1
  Cu+  Cu35  1  0.18674053  0.58761772  0.80638430  1
  Cu+  Cu36  1  0.16473068  0.08854298  0.17199333  1
  Cu+  Cu37  1  0.16402710  0.57990672  0.17244800  1
  Cu+  Cu38  1  0.66323389  0.08156012  0.17132757  1
  Cu+  Cu39  1  0.66499630  0.58391811  0.17243549  1
  Cu+  Cu40  1  0.41074600  0.33630747  0.17125412  1
  Cu+  Cu41  1  0.41699769  0.83564700  0.17418040  1
  Cu+  Cu42  1  0.91271664  0.33732364  0.16968179  1
  Cu+  Cu43  1  0.91900602  0.83582229  0.17080022  1
  Cu+  Cu44  1  0.41683295  0.08068889  0.17379033  1
  Cu+  Cu45  1  0.41891914  0.58196514  0.17216491  1
  Cu+  Cu46  1  0.91453480  0.07662341  0.16903886  1
  Cu+  Cu47  1  0.91701659  0.57947276  0.17002109  1
  Cu+  Cu48  1  0.49841582  0.24776940  0.50447077  1
  Cu+  Cu49  1  0.49793865  0.74400922  0.50499984  1
  Cu+  Cu50  1  0.99760489  0.24900412  0.51065941  1
  Cu+  Cu51  1  0.99654264  0.75545169  0.50047652  1
  Cu+  Cu52  1  0.25253533  0.00319378  0.50250701  1
  Cu+  Cu53  1  0.24848746  0.50198297  0.50564318  1
  Cu+  Cu54  1  0.75286599  0.00304051  0.51095166  1
  Cu+  Cu55  1  0.74951056  0.50270502  0.50199046  1
  Cu+  Cu56  1  0.25033122  0.24876262  0.50428690  1
  Cu+  Cu57  1  0.25732656  0.75413368  0.50526179  1
  Cu+  Cu58  1  0.75227639  0.24927570  0.51069527  1
  Cu+  Cu59  1  0.74522224  0.74246399  0.50122607  1
  Cu+  Cu60  1  0.33216867  0.41301602  0.83844673  1
  Cu+  Cu61  1  0.32753049  0.91370897  0.82955701  1
  Cu+  Cu62  1  0.82986832  0.41522097  0.83420487  1
  Cu+  Cu63  1  0.83261647  0.91670363  0.83808201  1
  Cu+  Cu64  1  0.08636296  0.16851836  0.83805221  1
  Cu+  Cu65  1  0.09054976  0.66913064  0.83141918  1
  Cu+  Cu66  1  0.58342753  0.17392869  0.83288849  1
  Cu+  Cu67  1  0.58521925  0.66785241  0.83872957  1
  Cu+  Cu68  1  0.08919243  0.41540681  0.83430967  1
  Cu+  Cu69  1  0.08555933  0.91364823  0.83456026  1
  Cu+  Cu70  1  0.58398464  0.41491583  0.83737404  1
  Cu+  Cu71  1  0.58950649  0.91201347  0.83505058  1
  Cu+  Cu72  1  0.16738712  0.08175009  0.67366018  1
  Cu+  Cu73  1  0.17237233  0.58828197  0.67778061  1
  Cu+  Cu74  1  0.66888947  0.08574068  0.68377882  1
  Cu+  Cu75  1  0.66728436  0.58441325  0.67285574  1
  Cu+  Cu76  1  0.41549489  0.32994491  0.67299556  1
  Cu+  Cu77  1  0.41695226  0.83170470  0.67928507  1
  Cu+  Cu78  1  0.91631540  0.33223047  0.68313930  1
  Cu+  Cu79  1  0.91349061  0.83154637  0.67043901  1
  Cu+  Cu80  1  0.41355655  0.08404818  0.67750317  1
  Cu+  Cu81  1  0.41659315  0.58209453  0.67540391  1
  Cu+  Cu82  1  0.91619797  0.08632988  0.68403706  1
  Cu+  Cu83  1  0.91360811  0.58603826  0.66818913  1
  Cu+  Cu84  1  0.00080245  0.25081780  0.01115990  1
  Cu+  Cu85  1  0.00434522  0.74967460  0.00385063  1
  Cu+  Cu86  1  0.50018048  0.24817855  0.00942281  1
  Cu+  Cu87  1  0.50295285  0.75291394  0.01103298  1
  Cu+  Cu88  1  0.25278925  0.50076218  0.00905329  1
  Cu+  Cu89  1  0.25183456  0.99824467  0.00587428  1
  Cu+  Cu90  1  0.74980352  0.49771652  0.00730110  1
  Cu+  Cu91  1  0.75026247  0.99803650  0.01559194  1
  Cu+  Cu92  1  0.24734033  0.25139691  0.01242508  1
  Cu+  Cu93  1  0.25246972  0.75138581  0.00718640  1
  Cu+  Cu94  1  0.74840940  0.25046664  0.01320893  1
  Cu+  Cu95  1  0.75240566  0.75271934  0.00855302  1
  Cu+  Cu96  1  0.33058906  0.41691408  0.34256281  1
  Cu+  Cu97  1  0.33944595  0.91873568  0.34781068  1
  Cu+  Cu98  1  0.83429840  0.41509443  0.34256272  1
  Cu+  Cu99  1  0.83304436  0.91783423  0.34266274  1
  Cu+  Cu100  1  0.08041164  0.16732380  0.34216696  1
  Cu+  Cu101  1  0.08226008  0.66314656  0.34017996  1
  Cu+  Cu102  1  0.58575244  0.16558214  0.34420709  1
  Cu+  Cu103  1  0.57900941  0.66103476  0.34499616  1
  Cu+  Cu104  1  0.07753593  0.41572161  0.34126420  1
  Cu+  Cu105  1  0.08262875  0.92221510  0.34314517  1
  Cu+  Cu106  1  0.57948516  0.41543280  0.33951517  1
  Cu+  Cu107  1  0.58544577  0.91847933  0.34512696  1
  Cu+  Cu108  1  0.00401991  -0.00415893  0.11407737  1
  Cu+  Cu109  1  0.00560852  0.50614206  0.11387148  1
  Cu+  Cu110  1  0.49642218  -0.00205526  0.11716727  1
  Cu+  Cu111  1  0.50485991  0.50051602  0.11477121  1
  Cu+  Cu112  1  0.33521301  0.17207028  0.44653874  1
  Cu+  Cu113  1  0.33045935  0.66406844  0.44886780  1
  Cu+  Cu114  1  0.83361188  0.16698280  0.45663010  1
  Cu+  Cu115  1  0.83538782  0.66416456  0.44230391  1
  Cu+  Cu116  1  0.17134392  0.33156247  0.77979886  1
  Cu+  Cu117  1  0.16042617  0.83105839  0.77414502  1
  Cu+  Cu118  1  0.66853580  0.34099824  0.77798464  1
  Cu+  Cu119  1  0.67097978  0.82616992  0.78130408  1
  Te2-  Te120  1  -0.00257813  0.00320317  0.38792765  1
  Te2-  Te121  1  -0.00147126  0.50030217  0.38740392  1
  Te2-  Te122  1  0.50563508  0.00228254  0.39129363  1
  Te2-  Te123  1  0.49476747  0.49371003  0.38816755  1
  Te2-  Te124  1  0.33056140  0.16717348  0.72059474  1
  Te2-  Te125  1  0.33771723  0.66607143  0.72397401  1
  Te2-  Te126  1  0.83330265  0.16800919  0.73192118  1
  Te2-  Te127  1  0.83236522  0.66745691  0.71589366  1
  Te2-  Te128  1  0.16552526  0.33670889  0.05486595  1
  Te2-  Te129  1  0.16858135  0.83316921  0.04943541  1
  Te2-  Te130  1  0.66450400  0.33410394  0.05402895  1
  Te2-  Te131  1  0.66715534  0.83067822  0.05619061  1
  Te2-  Te132  1  0.49118887  0.24722818  0.88320730  1
  Te2-  Te133  1  0.49473346  0.74526202  0.88469859  1
  Te2-  Te134  1  0.99312864  0.24712071  0.88490690  1
  Te2-  Te135  1  0.99931357  0.74513334  0.87772731  1
  Te2-  Te136  1  0.25333439  0.00630047  0.87980471  1
  Te2-  Te137  1  0.25771295  0.50685031  0.88293162  1
  Te2-  Te138  1  0.75522106  0.01021190  0.88741436  1
  Te2-  Te139  1  0.75215509  0.50274045  0.88122325  1
  Te2-  Te140  1  0.25195273  0.24624564  0.88527383  1
  Te2-  Te141  1  0.25888262  0.74528945  0.88023818  1
  Te2-  Te142  1  0.75313057  0.24509331  0.88486297  1
  Te2-  Te143  1  0.75363359  0.74989135  0.88242741  1
  Te2-  Te144  1  0.32162972  0.41560836  0.21698491  1
  Te2-  Te145  1  0.32970450  0.91476472  0.22085611  1
  Te2-  Te146  1  0.82143287  0.41310720  0.21663575  1
  Te2-  Te147  1  0.82506337  0.90964820  0.21678719  1
  Te2-  Te148  1  0.08061961  0.17542696  0.21603586  1
  Te2-  Te149  1  0.08455726  0.66923512  0.21437529  1
  Te2-  Te150  1  0.58531191  0.17330728  0.21791177  1
  Te2-  Te151  1  0.58513328  0.67157062  0.21828362  1
  Te2-  Te152  1  0.08000235  0.41037466  0.21503067  1
  Te2-  Te153  1  0.08743993  0.91961062  0.21593008  1
  Te2-  Te154  1  0.58028034  0.41326818  0.21330842  1
  Te2-  Te155  1  0.58585049  0.91186974  0.21868944  1
  Te2-  Te156  1  0.15921331  0.08068739  0.54793782  1
  Te2-  Te157  1  0.16511585  0.58623286  0.55065135  1
  Te2-  Te158  1  0.66377610  0.08158168  0.55621104  1
  Te2-  Te159  1  0.65566953  0.57486447  0.54759073  1
  Te2-  Te160  1  0.41779551  0.33486177  0.54760542  1
  Te2-  Te161  1  0.42721483  0.84094582  0.55149538  1
  Te2-  Te162  1  0.91972111  0.33838793  0.55592863  1
  Te2-  Te163  1  0.91386137  0.84197556  0.54489863  1
  Te2-  Te164  1  0.42238883  0.08043657  0.55036558  1
  Te2-  Te165  1  0.41576027  0.57499382  0.55002747  1
  Te2-  Te166  1  0.91976902  0.08213970  0.55672982  1
  Te2-  Te167  1  0.91912899  0.58582971  0.54250987  1
  Te2-  Te168  1  0.00246043  -0.00184281  0.88284724  1
  Te2-  Te169  1  0.00063993  0.49997597  0.88046778  1
  Te2-  Te170  1  0.49940333  -0.00044827  0.88073130  1
  Te2-  Te171  1  0.50102824  0.49958705  0.88328751  1
  Te2-  Te172  1  0.33352960  0.16748265  0.21737369  1
  Te2-  Te173  1  0.33253300  0.66551677  0.21691318  1
  Te2-  Te174  1  0.83370225  0.16642414  0.21606445  1
  Te2-  Te175  1  0.83467646  0.66648984  0.21478307  1
  Te2-  Te176  1  0.16792198  0.33378286  0.55123043  1
  Te2-  Te177  1  0.16522502  0.83321008  0.54896177  1
  Te2-  Te178  1  0.66703107  0.33518257  0.54996193  1
  Te2-  Te179  1  0.66720124  0.83198520  0.55119508  1
  Te2-  Te180  1  0.32840945  0.41218529  0.71093678  1
  Te2-  Te181  1  0.32367521  0.91123616  0.70379720  1
  Te2-  Te182  1  0.82768690  0.41787821  0.70738648  1
  Te2-  Te183  1  0.82641729  0.91237429  0.71034810  1
  Te2-  Te184  1  0.08997895  0.17375365  0.71045007  1
  Te2-  Te185  1  0.08320634  0.67233181  0.70486225  1
  Te2-  Te186  1  0.58639339  0.17701021  0.70674401  1
  Te2-  Te187  1  0.58590384  0.67136909  0.71125210  1
  Te2-  Te188  1  0.09116616  0.41452131  0.70727433  1
  Te2-  Te189  1  0.08260896  0.91249569  0.70777013  1
  Te2-  Te190  1  0.58509390  0.41430144  0.70981205  1
  Te2-  Te191  1  0.58906078  0.91250119  0.70887865  1
  Te2-  Te192  1  0.16174175  0.07830676  0.04347578  1
  Te2-  Te193  1  0.16383687  0.58181592  0.04433946  1
  Te2-  Te194  1  0.65693580  0.07807794  0.04353109  1
  Te2-  Te195  1  0.66340129  0.58185564  0.04417062  1
  Te2-  Te196  1  0.42057543  0.33970321  0.04364593  1
  Te2-  Te197  1  0.42057748  0.83985421  0.04682371  1
  Te2-  Te198  1  0.92066600  0.34052739  0.04328946  1
  Te2-  Te199  1  0.92276170  0.83796431  0.04308729  1
  Te2-  Te200  1  0.41857401  0.08013508  0.04707694  1
  Te2-  Te201  1  0.42230558  0.58188981  0.04554995  1
  Te2-  Te202  1  0.92306099  0.08130291  0.04335979  1
  Te2-  Te203  1  0.92033965  0.58015861  0.04268236  1
  Te2-  Te204  1  0.49491515  0.24607598  0.37749277  1
  Te2-  Te205  1  0.49277833  0.74729427  0.37815333  1
  Te2-  Te206  1  0.99176996  0.24721742  0.38258366  1
  Te2-  Te207  1  0.99706836  0.74887475  0.37342600  1
  Te2-  Te208  1  0.25558302  0.00965760  0.37521456  1
  Te2-  Te209  1  0.24802892  0.50418414  0.37870150  1
  Te2-  Te210  1  0.75354220  0.00548834  0.38367021  1
  Te2-  Te211  1  0.74993608  0.50284244  0.37532179  1
  Te2-  Te212  1  0.25013671  0.24704482  0.37765285  1
  Te2-  Te213  1  0.25158012  0.74573882  0.37784648  1
  Te2-  Te214  1  0.75445924  0.24662166  0.38288568  1
  Te2-  Te215  1  0.75275855  0.74658782  0.37494614  1
