# generated using pymatgen
data_Ti(CuTe)4
_symmetry_space_group_name_H-M   'P 1'
_cell_length_a   16.88452374
_cell_length_b   16.88399515
_cell_length_c   20.70948290
_cell_angle_alpha   90.02017867
_cell_angle_beta   89.96765006
_cell_angle_gamma   119.98268956
_symmetry_Int_Tables_number   1
_chemical_formula_structural   Ti(CuTe)4
_chemical_formula_sum   'Ti24 Cu96 Te96'
_cell_volume   5113.75100522
_cell_formula_units_Z   24
loop_
 _symmetry_equiv_pos_site_id
 _symmetry_equiv_pos_as_xyz
  1  'x, y, z'
loop_
 _atom_type_symbol
 _atom_type_oxidation_number
  Ti4+  4.0
  Cu+  1.0
  Te2-  -2.0
loop_
 _atom_site_type_symbol
 _atom_site_label
 _atom_site_symmetry_multiplicity
 _atom_site_fract_x
 _atom_site_fract_y
 _atom_site_fract_z
 _atom_site_occupancy
  Ti4+  Ti0  1  -0.00096191  -0.00042371  0.25734290  1
  Ti4+  Ti1  1  -0.00038505  0.50074050  0.26092931  1
  Ti4+  Ti2  1  0.49782583  0.00170547  0.25603557  1
  Ti4+  Ti3  1  0.49892860  0.50133648  0.25544960  1
  Ti4+  Ti4  1  0.33398173  0.16837157  0.59225814  1
  Ti4+  Ti5  1  0.33014039  0.66556041  0.59301702  1
  Ti4+  Ti6  1  0.83317395  0.16487494  0.59075008  1
  Ti4+  Ti7  1  0.83400309  0.66755413  0.59311858  1
  Ti4+  Ti8  1  0.16499379  0.33058469  0.92391896  1
  Ti4+  Ti9  1  0.17044499  0.83311895  0.92343372  1
  Ti4+  Ti10  1  0.66923533  0.33433280  0.92421558  1
  Ti4+  Ti11  1  0.66913983  0.83254977  0.92178919  1
  Ti4+  Ti12  1  0.00103333  0.00148112  0.75492156  1
  Ti4+  Ti13  1  -0.00065508  0.49955250  0.75472624  1
  Ti4+  Ti14  1  0.49878986  -0.00128351  0.75418426  1
  Ti4+  Ti15  1  0.50152619  0.50094265  0.75511878  1
  Ti4+  Ti16  1  0.33434771  0.16620922  0.08604446  1
  Ti4+  Ti17  1  0.33318679  0.66584666  0.08912662  1
  Ti4+  Ti18  1  0.83375686  0.16619979  0.08901222  1
  Ti4+  Ti19  1  0.83361048  0.66835974  0.08979582  1
  Ti4+  Ti20  1  0.16592004  0.33312960  0.42279705  1
  Ti4+  Ti21  1  0.16465525  0.83189753  0.42384199  1
  Ti4+  Ti22  1  0.66392759  0.33367942  0.42206205  1
  Ti4+  Ti23  1  0.66786038  0.83576382  0.42441510  1
  Cu+  Cu24  1  0.41179688  0.81436473  0.80817197  1
  Cu+  Cu25  1  0.18930073  0.09377863  0.80780283  1
  Cu+  Cu26  1  0.23912760  0.98035370  0.14062529  1
  Cu+  Cu27  1  0.18286448  0.58607163  0.80937886  1
  Cu+  Cu28  1  0.23998534  0.25881185  0.14112303  1
  Cu+  Cu29  1  0.52058752  0.26133050  0.13929742  1
  Cu+  Cu30  1  0.68755245  0.58817174  0.80832229  1
  Cu+  Cu31  1  0.91623256  0.82129522  0.81170985  1
  Cu+  Cu32  1  0.90663864  0.09409371  0.80644397  1
  Cu+  Cu33  1  0.73625554  0.76332815  0.14109418  1
  Cu+  Cu34  1  0.85939533  0.92831836  0.47624170  1
  Cu+  Cu35  1  0.06991420  0.64236916  0.47752564  1
  Cu+  Cu36  1  0.16294621  0.08084851  0.16804516  1
  Cu+  Cu37  1  0.16346150  0.58378088  0.17432925  1
  Cu+  Cu38  1  0.66389800  0.08388070  0.16956000  1
  Cu+  Cu39  1  0.66352797  0.58814473  0.16941113  1
  Cu+  Cu40  1  0.41807578  0.33709098  0.16676559  1
  Cu+  Cu41  1  0.41615756  0.83605577  0.17041646  1
  Cu+  Cu42  1  0.91739042  0.33600481  0.17364701  1
  Cu+  Cu43  1  0.91250733  0.83641293  0.17047972  1
  Cu+  Cu44  1  0.41836370  0.08100016  0.16660739  1
  Cu+  Cu45  1  0.41701573  0.58099868  0.16956182  1
  Cu+  Cu46  1  0.91630864  0.08041415  0.17090233  1
  Cu+  Cu47  1  0.92037070  0.58433850  0.17493499  1
  Cu+  Cu48  1  0.49539011  0.24922515  0.50473930  1
  Cu+  Cu49  1  0.49619575  0.75143313  0.50752814  1
  Cu+  Cu50  1  0.99624697  0.24694082  0.50428615  1
  Cu+  Cu51  1  0.99607574  0.74459453  0.50555418  1
  Cu+  Cu52  1  0.25054227  0.00444063  0.50704286  1
  Cu+  Cu53  1  0.24879421  0.50235948  0.50523223  1
  Cu+  Cu54  1  0.75745992  0.00294001  0.50500856  1
  Cu+  Cu55  1  0.74646825  0.50189569  0.50481443  1
  Cu+  Cu56  1  0.25087910  0.24840278  0.50656577  1
  Cu+  Cu57  1  0.24545502  0.74362570  0.50650228  1
  Cu+  Cu58  1  0.74811276  0.24756865  0.50468422  1
  Cu+  Cu59  1  0.75546316  0.75442933  0.50797216  1
  Cu+  Cu60  1  0.33012734  0.41315422  0.83697643  1
  Cu+  Cu61  1  0.33144202  0.91093974  0.83545785  1
  Cu+  Cu62  1  0.82974208  0.41384921  0.83658439  1
  Cu+  Cu63  1  0.83028683  0.91465298  0.83376082  1
  Cu+  Cu64  1  0.08463725  0.16907832  0.83635548  1
  Cu+  Cu65  1  0.08886740  0.66842825  0.83504691  1
  Cu+  Cu66  1  0.58607472  0.16974694  0.83785068  1
  Cu+  Cu67  1  0.59136485  0.66874810  0.83436222  1
  Cu+  Cu68  1  0.08418577  0.41342640  0.83669662  1
  Cu+  Cu69  1  0.09025913  0.91784021  0.83736458  1
  Cu+  Cu70  1  0.58921335  0.41761562  0.83853082  1
  Cu+  Cu71  1  0.58408455  0.91261423  0.83511958  1
  Cu+  Cu72  1  0.17318338  0.08865081  0.67936739  1
  Cu+  Cu73  1  0.16686825  0.58380346  0.68051713  1
  Cu+  Cu74  1  0.66819479  0.08346775  0.67266978  1
  Cu+  Cu75  1  0.67081426  0.58668917  0.67963310  1
  Cu+  Cu76  1  0.41660823  0.33252826  0.67489685  1
  Cu+  Cu77  1  0.41071782  0.82889950  0.67928517  1
  Cu+  Cu78  1  0.91306791  0.32914566  0.67394388  1
  Cu+  Cu79  1  0.91684591  0.83200000  0.68077013  1
  Cu+  Cu80  1  0.41567618  0.08605580  0.67457164  1
  Cu+  Cu81  1  0.41346832  0.58319439  0.67491217  1
  Cu+  Cu82  1  0.91529974  0.08560992  0.67845674  1
  Cu+  Cu83  1  0.91399002  0.58192676  0.67620314  1
  Cu+  Cu84  1  0.00090299  0.24900092  0.00887236  1
  Cu+  Cu85  1  0.00415980  0.75126697  0.00892647  1
  Cu+  Cu86  1  0.50653237  0.25323665  0.00984601  1
  Cu+  Cu87  1  0.50170947  0.74847323  0.00719090  1
  Cu+  Cu88  1  0.24696753  0.49692423  0.01009580  1
  Cu+  Cu89  1  0.25113425  0.99679639  0.01074571  1
  Cu+  Cu90  1  0.75169801  0.49945722  0.01003196  1
  Cu+  Cu91  1  0.75105289  0.99858607  0.00667935  1
  Cu+  Cu92  1  0.24751958  0.24914304  0.01147761  1
  Cu+  Cu93  1  0.25071084  0.74874267  0.01002137  1
  Cu+  Cu94  1  0.75074933  0.25165402  0.00812739  1
  Cu+  Cu95  1  0.75163938  0.75214230  0.01193604  1
  Cu+  Cu96  1  0.33406599  0.41672164  0.34131837  1
  Cu+  Cu97  1  0.33360657  0.91879978  0.34113692  1
  Cu+  Cu98  1  0.83440165  0.41943054  0.34317771  1
  Cu+  Cu99  1  0.83572040  0.91822698  0.34770878  1
  Cu+  Cu100  1  0.08328448  0.16584047  0.34155683  1
  Cu+  Cu101  1  0.08073114  0.66232019  0.34879279  1
  Cu+  Cu102  1  0.57900416  0.16595884  0.34026564  1
  Cu+  Cu103  1  0.58132403  0.66655261  0.34258403  1
  Cu+  Cu104  1  0.08171608  0.41819099  0.34348911  1
  Cu+  Cu105  1  0.08205481  0.91663236  0.34129284  1
  Cu+  Cu106  1  0.57991948  0.41782361  0.33916421  1
  Cu+  Cu107  1  0.58106279  0.92059288  0.34114226  1
  Cu+  Cu108  1  -0.00092883  -0.00024638  0.11302536  1
  Cu+  Cu109  1  -0.00097512  0.49913733  0.11931235  1
  Cu+  Cu110  1  0.50363583  -0.00317643  0.11200443  1
  Cu+  Cu111  1  0.50063407  0.50100668  0.11060457  1
  Cu+  Cu112  1  0.33184012  0.16618059  0.44924096  1
  Cu+  Cu113  1  0.33607047  0.66746071  0.44996021  1
  Cu+  Cu114  1  0.83098166  0.16922536  0.44804347  1
  Cu+  Cu115  1  0.82931631  0.66505575  0.44981558  1
  Cu+  Cu116  1  0.16870002  0.33541496  0.77947968  1
  Cu+  Cu117  1  0.16603977  0.83194548  0.77905518  1
  Cu+  Cu118  1  0.66485567  0.32948100  0.78048000  1
  Cu+  Cu119  1  0.66481789  0.83283484  0.77657606  1
  Te2-  Te120  1  0.00337575  0.00170865  0.38753529  1
  Te2-  Te121  1  -0.00310643  0.49613519  0.39190038  1
  Te2-  Te122  1  0.49797835  0.00193000  0.38484041  1
  Te2-  Te123  1  0.49906788  0.50096749  0.38393803  1
  Te2-  Te124  1  0.33849472  0.17051118  0.72391175  1
  Te2-  Te125  1  0.33262153  0.66376591  0.72525368  1
  Te2-  Te126  1  0.83022748  0.16654025  0.72175281  1
  Te2-  Te127  1  0.83647235  0.66674552  0.72505641  1
  Te2-  Te128  1  0.16461885  0.33236836  0.05413748  1
  Te2-  Te129  1  0.16799000  0.83089780  0.05364875  1
  Te2-  Te130  1  0.67130771  0.33559213  0.05488542  1
  Te2-  Te131  1  0.66630581  0.83449946  0.05179060  1
  Te2-  Te132  1  0.49822328  0.24979293  0.88269045  1
  Te2-  Te133  1  0.49685425  0.74221915  0.88105063  1
  Te2-  Te134  1  0.99211858  0.24667350  0.88291663  1
  Te2-  Te135  1  0.99823037  0.74535614  0.88264587  1
  Te2-  Te136  1  0.25911304  0.00588012  0.88328769  1
  Te2-  Te137  1  0.25416987  0.50386451  0.88389704  1
  Te2-  Te138  1  0.75160338  0.00500576  0.88066833  1
  Te2-  Te139  1  0.75967019  0.50904787  0.88429311  1
  Te2-  Te140  1  0.25412539  0.24637347  0.88386319  1
  Te2-  Te141  1  0.25664021  0.74314172  0.88382363  1
  Te2-  Te142  1  0.75378561  0.24758871  0.88247375  1
  Te2-  Te143  1  0.75861081  0.74585734  0.88405032  1
  Te2-  Te144  1  0.32521390  0.41373714  0.21502322  1
  Te2-  Te145  1  0.32384244  0.91187852  0.21499128  1
  Te2-  Te146  1  0.82866933  0.41584865  0.21740852  1
  Te2-  Te147  1  0.82462050  0.91532481  0.21960750  1
  Te2-  Te148  1  0.08446748  0.17219465  0.21531159  1
  Te2-  Te149  1  0.08659659  0.67327989  0.22171745  1
  Te2-  Te150  1  0.58717616  0.17536555  0.21433243  1
  Te2-  Te151  1  0.58316408  0.67615878  0.21636489  1
  Te2-  Te152  1  0.08538031  0.41547233  0.21780177  1
  Te2-  Te153  1  0.08216723  0.91054386  0.21500211  1
  Te2-  Te154  1  0.58818619  0.41816918  0.21304438  1
  Te2-  Te155  1  0.58393582  0.91646883  0.21494878  1
  Te2-  Te156  1  0.16128749  0.08184811  0.55285446  1
  Te2-  Te157  1  0.15591836  0.57533506  0.55338917  1
  Te2-  Te158  1  0.66316190  0.07856600  0.54717299  1
  Te2-  Te159  1  0.66392714  0.58550217  0.55230797  1
  Te2-  Te160  1  0.41893465  0.33980464  0.54967971  1
  Te2-  Te161  1  0.41325995  0.83630733  0.55225081  1
  Te2-  Te162  1  0.91688455  0.33549503  0.54829751  1
  Te2-  Te163  1  0.92526325  0.84093987  0.55287019  1
  Te2-  Te164  1  0.41878134  0.08177465  0.54922800  1
  Te2-  Te165  1  0.41671182  0.58197117  0.54925081  1
  Te2-  Te166  1  0.92515373  0.08145676  0.55181717  1
  Te2-  Te167  1  0.91438951  0.57516533  0.55036406  1
  Te2-  Te168  1  -0.00003579  -0.00153854  0.88325682  1
  Te2-  Te169  1  -0.00031315  0.49898466  0.88168153  1
  Te2-  Te170  1  0.50153582  -0.00043050  0.88109574  1
  Te2-  Te171  1  0.50023509  0.49972225  0.88196402  1
  Te2-  Te172  1  0.33333780  0.16691526  0.21408647  1
  Te2-  Te173  1  0.33389639  0.66725167  0.21514833  1
  Te2-  Te174  1  0.83199571  0.16596359  0.21509248  1
  Te2-  Te175  1  0.83247993  0.66755589  0.21644868  1
  Te2-  Te176  1  0.16549337  0.33293300  0.54886008  1
  Te2-  Te177  1  0.16584959  0.83419827  0.55050516  1
  Te2-  Te178  1  0.66426719  0.33279334  0.54824477  1
  Te2-  Te179  1  0.66528910  0.83430065  0.55119472  1
  Te2-  Te180  1  0.32862651  0.41402777  0.71119465  1
  Te2-  Te181  1  0.32559967  0.91596675  0.70942041  1
  Te2-  Te182  1  0.82643525  0.41208849  0.71092649  1
  Te2-  Te183  1  0.82602854  0.91344524  0.70759514  1
  Te2-  Te184  1  0.08749249  0.17541731  0.70954159  1
  Te2-  Te185  1  0.08398046  0.67339378  0.70891209  1
  Te2-  Te186  1  0.58578988  0.17062716  0.71073667  1
  Te2-  Te187  1  0.58433690  0.67328206  0.70824306  1
  Te2-  Te188  1  0.08321432  0.41049265  0.70987055  1
  Te2-  Te189  1  0.08941709  0.91570633  0.70973811  1
  Te2-  Te190  1  0.58700892  0.41364178  0.71086612  1
  Te2-  Te191  1  0.58500338  0.91308770  0.70791309  1
  Te2-  Te192  1  0.15935778  0.07712303  0.04077391  1
  Te2-  Te193  1  0.15999112  0.57956087  0.04736298  1
  Te2-  Te194  1  0.66298340  0.08099102  0.04286219  1
  Te2-  Te195  1  0.66155854  0.57989157  0.04275723  1
  Te2-  Te196  1  0.42071958  0.34004605  0.03967633  1
  Te2-  Te197  1  0.42088998  0.83754015  0.04365360  1
  Te2-  Te198  1  0.92017134  0.33846709  0.04650591  1
  Te2-  Te199  1  0.92339090  0.84063627  0.04350003  1
  Te2-  Te200  1  0.42343479  0.08063491  0.04019333  1
  Te2-  Te201  1  0.41808164  0.57893794  0.04348024  1
  Te2-  Te202  1  0.91948311  0.07943879  0.04452942  1
  Te2-  Te203  1  0.92104307  0.58238863  0.04811356  1
  Te2-  Te204  1  0.49235292  0.24858028  0.37776766  1
  Te2-  Te205  1  0.49625979  0.75119519  0.38041378  1
  Te2-  Te206  1  0.99399965  0.24702528  0.37814956  1
  Te2-  Te207  1  0.99181659  0.74709511  0.37884599  1
  Te2-  Te208  1  0.25058195  0.00430671  0.38009090  1
  Te2-  Te209  1  0.25219857  0.50530642  0.37905586  1
  Te2-  Te210  1  0.75137647  0.00728375  0.37795126  1
  Te2-  Te211  1  0.74972370  0.50558899  0.37819544  1
  Te2-  Te212  1  0.25245478  0.24739053  0.37931929  1
  Te2-  Te213  1  0.25408231  0.74873196  0.37940685  1
  Te2-  Te214  1  0.74960109  0.24799719  0.37762377  1
  Te2-  Te215  1  0.75094250  0.74617881  0.38008758  1
