# generated using pymatgen
data_Ti(CuTe)4
_symmetry_space_group_name_H-M   'P 1'
_cell_length_a   16.88147187
_cell_length_b   16.87427907
_cell_length_c   20.69529353
_cell_angle_alpha   89.96936420
_cell_angle_beta   89.97110784
_cell_angle_gamma   119.99674514
_symmetry_Int_Tables_number   1
_chemical_formula_structural   Ti(CuTe)4
_chemical_formula_sum   'Ti24 Cu96 Te96'
_cell_volume   5105.65855378
_cell_formula_units_Z   24
loop_
 _symmetry_equiv_pos_site_id
 _symmetry_equiv_pos_as_xyz
  1  'x, y, z'
loop_
 _atom_type_symbol
 _atom_type_oxidation_number
  Ti4+  4.0
  Cu+  1.0
  Te2-  -2.0
loop_
 _atom_site_type_symbol
 _atom_site_label
 _atom_site_symmetry_multiplicity
 _atom_site_fract_x
 _atom_site_fract_y
 _atom_site_fract_z
 _atom_site_occupancy
  Ti4+  Ti0  1  0.00048583  0.00227079  0.25780537  1
  Ti4+  Ti1  1  0.00302985  0.50190522  0.25854869  1
  Ti4+  Ti2  1  0.49950480  0.00130911  0.25625100  1
  Ti4+  Ti3  1  0.50542633  0.50449050  0.25588374  1
  Ti4+  Ti4  1  0.33503898  0.16772918  0.58791759  1
  Ti4+  Ti5  1  0.33071727  0.66297011  0.58941652  1
  Ti4+  Ti6  1  0.83003353  0.16717655  0.59364298  1
  Ti4+  Ti7  1  0.83306733  0.66707246  0.59538568  1
  Ti4+  Ti8  1  0.16497699  0.33074790  0.92399886  1
  Ti4+  Ti9  1  0.16664989  0.83190838  0.92410636  1
  Ti4+  Ti10  1  0.66634872  0.33206874  0.92566138  1
  Ti4+  Ti11  1  0.66897246  0.83367929  0.92493897  1
  Ti4+  Ti12  1  -0.00093495  -0.00006646  0.75305175  1
  Ti4+  Ti13  1  -0.00149363  0.49838569  0.75564928  1
  Ti4+  Ti14  1  0.49814980  -0.00172208  0.75654270  1
  Ti4+  Ti15  1  0.49952078  0.49923352  0.75665949  1
  Ti4+  Ti16  1  0.33548295  0.16659386  0.08819483  1
  Ti4+  Ti17  1  0.33119219  0.66615852  0.08734321  1
  Ti4+  Ti18  1  0.83542926  0.16547858  0.09040898  1
  Ti4+  Ti19  1  0.83112514  0.66591088  0.08882898  1
  Ti4+  Ti20  1  0.16911502  0.33688551  0.42109537  1
  Ti4+  Ti21  1  0.16598604  0.83392301  0.42145517  1
  Ti4+  Ti22  1  0.66509628  0.33072106  0.42301426  1
  Ti4+  Ti23  1  0.66746384  0.83391816  0.42492896  1
  Cu+  Cu24  1  0.68091115  0.09303983  0.81282154  1
  Cu+  Cu25  1  0.91278231  0.81865766  0.81088838  1
  Cu+  Cu26  1  0.51435265  0.76257373  0.14183573  1
  Cu+  Cu27  1  0.02750298  0.26478078  0.14203148  1
  Cu+  Cu28  1  0.52688221  0.26503812  0.14087770  1
  Cu+  Cu29  1  0.68417803  0.58795234  0.81175348  1
  Cu+  Cu30  1  0.36011343  0.43136486  0.46951141  1
  Cu+  Cu31  1  0.56942041  0.13809099  0.47395832  1
  Cu+  Cu32  1  0.91023954  0.09328926  0.80857365  1
  Cu+  Cu33  1  0.07029175  0.42631296  0.47426738  1
  Cu+  Cu34  1  0.23689285  0.76166567  0.14059291  1
  Cu+  Cu35  1  0.74539888  0.76546321  0.14295105  1
  Cu+  Cu36  1  0.16393397  0.08173493  0.17048432  1
  Cu+  Cu37  1  0.16137239  0.58517370  0.16962702  1
  Cu+  Cu38  1  0.66364194  0.08318872  0.17086762  1
  Cu+  Cu39  1  0.66283989  0.58754280  0.16781253  1
  Cu+  Cu40  1  0.42435432  0.33650111  0.17064713  1
  Cu+  Cu41  1  0.41468617  0.83670803  0.16881176  1
  Cu+  Cu42  1  0.92368687  0.33477484  0.17333554  1
  Cu+  Cu43  1  0.91563204  0.83707781  0.17136010  1
  Cu+  Cu44  1  0.42471403  0.08846908  0.16874937  1
  Cu+  Cu45  1  0.42260940  0.58679542  0.16828747  1
  Cu+  Cu46  1  0.92399905  0.08676532  0.17090102  1
  Cu+  Cu47  1  0.91756516  0.58250082  0.17201939  1
  Cu+  Cu48  1  0.49564396  0.24245314  0.50127263  1
  Cu+  Cu49  1  0.49665303  0.74678584  0.50490038  1
  Cu+  Cu50  1  0.99658443  0.25316278  0.50581348  1
  Cu+  Cu51  1  0.99695581  0.75027167  0.50729619  1
  Cu+  Cu52  1  0.25060482  0.00343271  0.50198019  1
  Cu+  Cu53  1  0.25140331  0.50312489  0.50103574  1
  Cu+  Cu54  1  0.74967228  0.00243330  0.50814575  1
  Cu+  Cu55  1  0.74905147  0.50190699  0.50856976  1
  Cu+  Cu56  1  0.25841128  0.25640999  0.50153837  1
  Cu+  Cu57  1  0.24884214  0.74702897  0.50274756  1
  Cu+  Cu58  1  0.74375179  0.24191709  0.50495029  1
  Cu+  Cu59  1  0.75137555  0.74841179  0.50975497  1
  Cu+  Cu60  1  0.32869064  0.41230346  0.83855565  1
  Cu+  Cu61  1  0.32851685  0.91139710  0.83869410  1
  Cu+  Cu62  1  0.82934956  0.41376595  0.83735770  1
  Cu+  Cu63  1  0.82944866  0.91379936  0.83403670  1
  Cu+  Cu64  1  0.08255938  0.17092336  0.83586456  1
  Cu+  Cu65  1  0.08651179  0.66745610  0.83770017  1
  Cu+  Cu66  1  0.58420747  0.16890517  0.84011462  1
  Cu+  Cu67  1  0.58763372  0.66778148  0.83835872  1
  Cu+  Cu68  1  0.08084467  0.41123479  0.83742085  1
  Cu+  Cu69  1  0.08522877  0.91212462  0.83578188  1
  Cu+  Cu70  1  0.58474509  0.41505011  0.83998959  1
  Cu+  Cu71  1  0.58582511  0.91653941  0.83795753  1
  Cu+  Cu72  1  0.17043891  0.08660148  0.67035811  1
  Cu+  Cu73  1  0.16640347  0.58016805  0.67348540  1
  Cu+  Cu74  1  0.66583745  0.08261698  0.68284681  1
  Cu+  Cu75  1  0.66963642  0.58549133  0.68238409  1
  Cu+  Cu76  1  0.41573897  0.33099274  0.67206640  1
  Cu+  Cu77  1  0.41101556  0.82664110  0.67352153  1
  Cu+  Cu78  1  0.91317415  0.33228983  0.67538492  1
  Cu+  Cu79  1  0.91504626  0.83089513  0.68128894  1
  Cu+  Cu80  1  0.41327423  0.08188092  0.67394830  1
  Cu+  Cu81  1  0.41249593  0.58077770  0.67415268  1
  Cu+  Cu82  1  0.91445116  0.08664452  0.67961620  1
  Cu+  Cu83  1  0.91609824  0.58495683  0.67706877  1
  Cu+  Cu84  1  0.00356841  0.24900977  0.01329179  1
  Cu+  Cu85  1  0.00082206  0.74857858  0.00800716  1
  Cu+  Cu86  1  0.50500907  0.25146642  0.01171207  1
  Cu+  Cu87  1  0.50246672  0.74930129  0.01175000  1
  Cu+  Cu88  1  0.24501315  0.49586952  0.00627258  1
  Cu+  Cu89  1  0.24906751  0.99624751  0.00644384  1
  Cu+  Cu90  1  0.74757580  0.49701871  0.01052172  1
  Cu+  Cu91  1  0.75113059  0.99918795  0.01011237  1
  Cu+  Cu92  1  0.24761115  0.24854933  0.00666982  1
  Cu+  Cu93  1  0.24544718  0.74921965  0.01204029  1
  Cu+  Cu94  1  0.74924665  0.24824048  0.01012246  1
  Cu+  Cu95  1  0.74839326  0.74929120  0.01391078  1
  Cu+  Cu96  1  0.34172180  0.42151989  0.34141528  1
  Cu+  Cu97  1  0.33343722  0.91808696  0.33917433  1
  Cu+  Cu98  1  0.83634127  0.41660543  0.34306905  1
  Cu+  Cu99  1  0.83602568  0.91900754  0.34354618  1
  Cu+  Cu100  1  0.08239932  0.16616615  0.34188066  1
  Cu+  Cu101  1  0.08219536  0.66656474  0.34318097  1
  Cu+  Cu102  1  0.58136013  0.16372617  0.34592788  1
  Cu+  Cu103  1  0.58747604  0.66939910  0.34340329  1
  Cu+  Cu104  1  0.08398195  0.41978684  0.34545435  1
  Cu+  Cu105  1  0.07898151  0.91712388  0.34083486  1
  Cu+  Cu106  1  0.58629716  0.41834218  0.34072502  1
  Cu+  Cu107  1  0.58355415  0.91768684  0.34182612  1
  Cu+  Cu108  1  0.00297053  -0.00161720  0.11334498  1
  Cu+  Cu109  1  -0.00730443  0.49609481  0.11581816  1
  Cu+  Cu110  1  0.49991917  -0.00051391  0.11132546  1
  Cu+  Cu111  1  0.49360113  0.49642165  0.11183332  1
  Cu+  Cu112  1  0.32968039  0.16535431  0.44327434  1
  Cu+  Cu113  1  0.33577453  0.67235662  0.44537963  1
  Cu+  Cu114  1  0.83436527  0.16506952  0.45031633  1
  Cu+  Cu115  1  0.83275886  0.66473036  0.45358666  1
  Cu+  Cu116  1  0.16901505  0.33705182  0.78018428  1
  Cu+  Cu117  1  0.16749800  0.83146272  0.77999125  1
  Cu+  Cu118  1  0.66411356  0.33173555  0.78200007  1
  Cu+  Cu119  1  0.66085542  0.83010484  0.78042453  1
  Te2-  Te120  1  0.00069263  0.00229937  0.38657919  1
  Te2-  Te121  1  0.00002860  0.50226156  0.38878179  1
  Te2-  Te122  1  0.49696498  -0.00418140  0.38629239  1
  Te2-  Te123  1  0.50758885  0.50388090  0.38609761  1
  Te2-  Te124  1  0.33339486  0.16685242  0.71678714  1
  Te2-  Te125  1  0.33027077  0.66267131  0.71830267  1
  Te2-  Te126  1  0.83240519  0.16982514  0.72541434  1
  Te2-  Te127  1  0.83511178  0.66593707  0.72792447  1
  Te2-  Te128  1  0.17044182  0.33392487  0.05498630  1
  Te2-  Te129  1  0.16389401  0.83406224  0.05505652  1
  Te2-  Te130  1  0.67075334  0.33344547  0.05610198  1
  Te2-  Te131  1  0.66791126  0.83562525  0.05648684  1
  Te2-  Te132  1  0.49530645  0.24741354  0.88463427  1
  Te2-  Te133  1  0.49922374  0.74811713  0.88367137  1
  Te2-  Te134  1  0.98992658  0.24566728  0.88579834  1
  Te2-  Te135  1  0.99290856  0.74186522  0.88232510  1
  Te2-  Te136  1  0.25148570  0.00282642  0.88083512  1
  Te2-  Te137  1  0.24899665  0.50145429  0.88060937  1
  Te2-  Te138  1  0.75591828  0.00858160  0.88387401  1
  Te2-  Te139  1  0.75553917  0.50564596  0.88481205  1
  Te2-  Te140  1  0.24908049  0.24387487  0.88108733  1
  Te2-  Te141  1  0.25204568  0.74507353  0.88505795  1
  Te2-  Te142  1  0.75563086  0.24791512  0.88444947  1
  Te2-  Te143  1  0.75656332  0.74608724  0.88589761  1
  Te2-  Te144  1  0.33565076  0.41817545  0.21368988  1
  Te2-  Te145  1  0.32756437  0.91925426  0.21321050  1
  Te2-  Te146  1  0.83280347  0.41405030  0.21644636  1
  Te2-  Te147  1  0.82672614  0.91907021  0.21731002  1
  Te2-  Te148  1  0.09247765  0.17699780  0.21627745  1
  Te2-  Te149  1  0.08453945  0.67602999  0.21726943  1
  Te2-  Te150  1  0.59116717  0.17599896  0.21848071  1
  Te2-  Te151  1  0.59038953  0.68153686  0.21715713  1
  Te2-  Te152  1  0.09370238  0.41907442  0.21814509  1
  Te2-  Te153  1  0.08301403  0.91406268  0.21480691  1
  Te2-  Te154  1  0.59465848  0.42070982  0.21498486  1
  Te2-  Te155  1  0.58711351  0.91596518  0.21563502  1
  Te2-  Te156  1  0.16483884  0.08661001  0.54435401  1
  Te2-  Te157  1  0.15719977  0.57912667  0.54756147  1
  Te2-  Te158  1  0.65603318  0.07525950  0.55460182  1
  Te2-  Te159  1  0.66139905  0.58097158  0.55494951  1
  Te2-  Te160  1  0.42693298  0.34195996  0.54644536  1
  Te2-  Te161  1  0.41605287  0.83445169  0.54769871  1
  Te2-  Te162  1  0.91246836  0.33946530  0.54952358  1
  Te2-  Te163  1  0.91883877  0.83865031  0.55426533  1
  Te2-  Te164  1  0.41674945  0.07445301  0.54815152  1
  Te2-  Te165  1  0.42065859  0.57876816  0.54826052  1
  Te2-  Te166  1  0.91832059  0.08505383  0.55182997  1
  Te2-  Te167  1  0.91799659  0.58168931  0.55120110  1
  Te2-  Te168  1  0.00071849  -0.00112450  0.88087969  1
  Te2-  Te169  1  -0.00120337  0.49797753  0.88202330  1
  Te2-  Te170  1  0.49795285  -0.00214509  0.88359446  1
  Te2-  Te171  1  0.49752334  0.49812817  0.88368566  1
  Te2-  Te172  1  0.33383266  0.16684855  0.21498793  1
  Te2-  Te173  1  0.33261086  0.66639446  0.21508726  1
  Te2-  Te174  1  0.83304089  0.16528350  0.21714524  1
  Te2-  Te175  1  0.83206708  0.66679387  0.21579011  1
  Te2-  Te176  1  0.16686273  0.33372414  0.54854724  1
  Te2-  Te177  1  0.16722412  0.83447985  0.54777978  1
  Te2-  Te178  1  0.66351911  0.33140923  0.54988977  1
  Te2-  Te179  1  0.66484441  0.83246438  0.55119353  1
  Te2-  Te180  1  0.32843234  0.41206901  0.71140663  1
  Te2-  Te181  1  0.32725731  0.91210912  0.71158422  1
  Te2-  Te182  1  0.82548036  0.41420089  0.71160699  1
  Te2-  Te183  1  0.82359530  0.91314200  0.70790229  1
  Te2-  Te184  1  0.08778333  0.17343923  0.70877622  1
  Te2-  Te185  1  0.08656058  0.67039779  0.71124757  1
  Te2-  Te186  1  0.58204000  0.17157085  0.71240044  1
  Te2-  Te187  1  0.58261026  0.67166918  0.71108832  1
  Te2-  Te188  1  0.08292069  0.41085915  0.71072559  1
  Te2-  Te189  1  0.08902404  0.91662202  0.70857070  1
  Te2-  Te190  1  0.58445130  0.41180109  0.71204013  1
  Te2-  Te191  1  0.58102149  0.90895412  0.71068115  1
  Te2-  Te192  1  0.16315409  0.07972602  0.04403874  1
  Te2-  Te193  1  0.15714582  0.57680559  0.04360592  1
  Te2-  Te194  1  0.66209272  0.07943476  0.04519988  1
  Te2-  Te195  1  0.65711737  0.57677875  0.04233550  1
  Te2-  Te196  1  0.41834557  0.33809585  0.04238140  1
  Te2-  Te197  1  0.41935483  0.83923506  0.04072809  1
  Te2-  Te198  1  0.91956005  0.33774393  0.04541017  1
  Te2-  Te199  1  0.92111853  0.83884208  0.04339996  1
  Te2-  Te200  1  0.41926928  0.07834221  0.04189731  1
  Te2-  Te201  1  0.41537973  0.57715412  0.04135508  1
  Te2-  Te202  1  0.92030529  0.07705143  0.04443466  1
  Te2-  Te203  1  0.91779467  0.57961171  0.04553583  1
  Te2-  Te204  1  0.49323797  0.24843658  0.37493662  1
  Te2-  Te205  1  0.49653602  0.74825387  0.37821600  1
  Te2-  Te206  1  0.99467404  0.24777654  0.37823732  1
  Te2-  Te207  1  0.99315836  0.74772037  0.38002826  1
  Te2-  Te208  1  0.25025229  0.00483426  0.37533459  1
  Te2-  Te209  1  0.25759435  0.50979256  0.37386959  1
  Te2-  Te210  1  0.75253895  0.00567070  0.38089281  1
  Te2-  Te211  1  0.75417657  0.50420295  0.38121538  1
  Te2-  Te212  1  0.25373936  0.24942213  0.37432733  1
  Te2-  Te213  1  0.25266415  0.74853410  0.37610713  1
  Te2-  Te214  1  0.75389136  0.24623988  0.37824596  1
  Te2-  Te215  1  0.75573656  0.74961335  0.38243154  1
