# generated using pymatgen
data_Ti(CuTe)4
_symmetry_space_group_name_H-M   'P 1'
_cell_length_a   16.87305898
_cell_length_b   16.86845628
_cell_length_c   20.67772811
_cell_angle_alpha   89.99517034
_cell_angle_beta   89.96266346
_cell_angle_gamma   119.99790125
_symmetry_Int_Tables_number   1
_chemical_formula_structural   Ti(CuTe)4
_chemical_formula_sum   'Ti24 Cu96 Te96'
_cell_volume   5096.96510222
_cell_formula_units_Z   24
loop_
 _symmetry_equiv_pos_site_id
 _symmetry_equiv_pos_as_xyz
  1  'x, y, z'
loop_
 _atom_type_symbol
 _atom_type_oxidation_number
  Ti4+  4.0
  Cu+  1.0
  Te2-  -2.0
loop_
 _atom_site_type_symbol
 _atom_site_label
 _atom_site_symmetry_multiplicity
 _atom_site_fract_x
 _atom_site_fract_y
 _atom_site_fract_z
 _atom_site_occupancy
  Ti4+  Ti0  1  0.00258668  0.00523239  0.26167277  1
  Ti4+  Ti1  1  0.00012297  0.50162405  0.25840733  1
  Ti4+  Ti2  1  0.50057241  0.00317312  0.25278687  1
  Ti4+  Ti3  1  0.50022022  0.50187213  0.25886268  1
  Ti4+  Ti4  1  0.33240179  0.16568835  0.59116218  1
  Ti4+  Ti5  1  0.33323369  0.66430362  0.58990336  1
  Ti4+  Ti6  1  0.83429116  0.16961451  0.58983731  1
  Ti4+  Ti7  1  0.83161231  0.66572184  0.59105999  1
  Ti4+  Ti8  1  0.16737866  0.33352512  0.92832929  1
  Ti4+  Ti9  1  0.16653033  0.82974699  0.92244374  1
  Ti4+  Ti10  1  0.66601119  0.33182866  0.92612798  1
  Ti4+  Ti11  1  0.66865861  0.83009989  0.92243403  1
  Ti4+  Ti12  1  -0.00280377  -0.00209892  0.75668360  1
  Ti4+  Ti13  1  0.00148848  0.50113224  0.75699133  1
  Ti4+  Ti14  1  0.49970431  0.00002143  0.75378898  1
  Ti4+  Ti15  1  0.49977980  0.49912433  0.75577953  1
  Ti4+  Ti16  1  0.33246036  0.16559612  0.08711630  1
  Ti4+  Ti17  1  0.33364792  0.66601193  0.08806064  1
  Ti4+  Ti18  1  0.83274011  0.16600085  0.08714766  1
  Ti4+  Ti19  1  0.83301685  0.66601557  0.09256364  1
  Ti4+  Ti20  1  0.16519588  0.33321962  0.42094060  1
  Ti4+  Ti21  1  0.16630070  0.83537994  0.42050882  1
  Ti4+  Ti22  1  0.66839715  0.33483891  0.42320708  1
  Ti4+  Ti23  1  0.66413935  0.83120086  0.42055630  1
  Cu+  Cu24  1  0.91087918  0.81227423  0.80938045  1
  Cu+  Cu25  1  0.83911250  0.91897965  0.48201848  1
  Cu+  Cu26  1  0.24602654  0.26174220  0.14560099  1
  Cu+  Cu27  1  0.68401899  0.58522897  0.80871816  1
  Cu+  Cu28  1  0.19385518  0.59313346  0.80655136  1
  Cu+  Cu29  1  0.07716710  0.92351151  0.48038238  1
  Cu+  Cu30  1  0.57038850  0.63969484  0.47490082  1
  Cu+  Cu31  1  0.01459512  0.26216672  0.14477502  1
  Cu+  Cu32  1  0.85952738  0.43174818  0.47399639  1
  Cu+  Cu33  1  0.07896897  0.15909297  0.48451981  1
  Cu+  Cu34  1  0.51516474  0.26448001  0.14134781  1
  Cu+  Cu35  1  0.74771782  0.26427253  0.14189083  1
  Cu+  Cu36  1  0.16275727  0.08597925  0.17105510  1
  Cu+  Cu37  1  0.16539180  0.58520784  0.17097438  1
  Cu+  Cu38  1  0.66172993  0.08669818  0.16495912  1
  Cu+  Cu39  1  0.66458907  0.58576889  0.17423818  1
  Cu+  Cu40  1  0.41910653  0.33988839  0.17080986  1
  Cu+  Cu41  1  0.41825543  0.83705146  0.16796555  1
  Cu+  Cu42  1  0.91916275  0.34037082  0.17109743  1
  Cu+  Cu43  1  0.91918464  0.83653526  0.17683321  1
  Cu+  Cu44  1  0.42294902  0.08567369  0.16493999  1
  Cu+  Cu45  1  0.42067484  0.58645150  0.17180559  1
  Cu+  Cu46  1  0.92287032  0.08624341  0.17095917  1
  Cu+  Cu47  1  0.91655473  0.58273289  0.17371906  1
  Cu+  Cu48  1  0.49612586  0.24765651  0.50553301  1
  Cu+  Cu49  1  0.49494601  0.74000703  0.50128515  1
  Cu+  Cu50  1  0.99304224  0.24755929  0.50117250  1
  Cu+  Cu51  1  0.99658845  0.74982472  0.50196434  1
  Cu+  Cu52  1  0.25117779  0.00418650  0.50228171  1
  Cu+  Cu53  1  0.25019763  0.50417471  0.50329792  1
  Cu+  Cu54  1  0.75028316  0.00400224  0.50108772  1
  Cu+  Cu55  1  0.75435389  0.50210987  0.50459970  1
  Cu+  Cu56  1  0.25262139  0.24817486  0.50295175  1
  Cu+  Cu57  1  0.25015531  0.74714986  0.50365874  1
  Cu+  Cu58  1  0.75716385  0.25591578  0.50388592  1
  Cu+  Cu59  1  0.74601151  0.74300393  0.50304669  1
  Cu+  Cu60  1  0.32905446  0.41087252  0.84030092  1
  Cu+  Cu61  1  0.32974574  0.91307101  0.83498798  1
  Cu+  Cu62  1  0.82952995  0.41225015  0.83975960  1
  Cu+  Cu63  1  0.82907781  0.90749547  0.83583818  1
  Cu+  Cu64  1  0.08375291  0.16905903  0.84312618  1
  Cu+  Cu65  1  0.09002348  0.66847350  0.83542664  1
  Cu+  Cu66  1  0.58440126  0.16845469  0.83985441  1
  Cu+  Cu67  1  0.59001941  0.66816026  0.83457922  1
  Cu+  Cu68  1  0.08807003  0.41950575  0.84156072  1
  Cu+  Cu69  1  0.08139930  0.91049512  0.83808543  1
  Cu+  Cu70  1  0.58548588  0.41443559  0.83973977  1
  Cu+  Cu71  1  0.58549540  0.91514035  0.83611029  1
  Cu+  Cu72  1  0.16734968  0.08550396  0.67817962  1
  Cu+  Cu73  1  0.17096462  0.58484253  0.67830356  1
  Cu+  Cu74  1  0.66980704  0.08789809  0.67158553  1
  Cu+  Cu75  1  0.66654167  0.58212166  0.67992273  1
  Cu+  Cu76  1  0.41261151  0.32902285  0.67509629  1
  Cu+  Cu77  1  0.41584007  0.83082303  0.67079382  1
  Cu+  Cu78  1  0.91596179  0.33349759  0.67579136  1
  Cu+  Cu79  1  0.91262258  0.83153266  0.68155294  1
  Cu+  Cu80  1  0.41528809  0.08524506  0.67360049  1
  Cu+  Cu81  1  0.41342789  0.58011494  0.67491362  1
  Cu+  Cu82  1  0.91617064  0.08645962  0.67720240  1
  Cu+  Cu83  1  0.91559432  0.58207296  0.67664224  1
  Cu+  Cu84  1  0.00263699  0.24976775  0.01496039  1
  Cu+  Cu85  1  0.00138259  0.74886312  0.00852206  1
  Cu+  Cu86  1  0.50200961  0.24916164  0.01216489  1
  Cu+  Cu87  1  0.50443031  0.74904893  0.00400879  1
  Cu+  Cu88  1  0.25006083  0.49799823  0.01110677  1
  Cu+  Cu89  1  0.24476039  0.99299349  0.00533115  1
  Cu+  Cu90  1  0.74803426  0.49872085  0.01064976  1
  Cu+  Cu91  1  0.74969482  0.99374630  0.00505859  1
  Cu+  Cu92  1  0.24516578  0.24755693  0.01583890  1
  Cu+  Cu93  1  0.24811290  0.74794805  0.00637126  1
  Cu+  Cu94  1  0.74595641  0.24838460  0.01285429  1
  Cu+  Cu95  1  0.75130152  0.74987423  0.01076652  1
  Cu+  Cu96  1  0.33421911  0.41889752  0.34242756  1
  Cu+  Cu97  1  0.33638885  0.91899120  0.33553524  1
  Cu+  Cu98  1  0.83778794  0.41956328  0.34706175  1
  Cu+  Cu99  1  0.83508150  0.91890910  0.34852364  1
  Cu+  Cu100  1  0.08298801  0.16763772  0.35107604  1
  Cu+  Cu101  1  0.08216576  0.66693029  0.34054884  1
  Cu+  Cu102  1  0.58190349  0.16564387  0.33978175  1
  Cu+  Cu103  1  0.57933902  0.66214225  0.34668639  1
  Cu+  Cu104  1  0.08123453  0.41780931  0.34209509  1
  Cu+  Cu105  1  0.08325233  0.92115048  0.34857888  1
  Cu+  Cu106  1  0.58178197  0.41726748  0.34269107  1
  Cu+  Cu107  1  0.57929094  0.91804523  0.33510774  1
  Cu+  Cu108  1  -0.00362799  -0.00611724  0.11849310  1
  Cu+  Cu109  1  0.00388818  0.50763254  0.11535994  1
  Cu+  Cu110  1  0.49719029  -0.00580915  0.10798732  1
  Cu+  Cu111  1  0.50241768  0.50521018  0.11570835  1
  Cu+  Cu112  1  0.33776381  0.16809166  0.44587381  1
  Cu+  Cu113  1  0.33209703  0.67047337  0.44575196  1
  Cu+  Cu114  1  0.82623624  0.16438522  0.44427643  1
  Cu+  Cu115  1  0.83301320  0.66565488  0.44578686  1
  Cu+  Cu116  1  0.16350890  0.33087865  0.78665454  1
  Cu+  Cu117  1  0.16868735  0.83581971  0.77765543  1
  Cu+  Cu118  1  0.66556027  0.33023575  0.78335935  1
  Cu+  Cu119  1  0.66181320  0.83386390  0.77820401  1
  Te2-  Te120  1  -0.00044922  0.00204050  0.39553665  1
  Te2-  Te121  1  0.00430558  0.50422180  0.38902600  1
  Te2-  Te122  1  0.49943346  0.00089450  0.38192572  1
  Te2-  Te123  1  0.49735485  0.49589634  0.38951391  1
  Te2-  Te124  1  0.33202195  0.16519978  0.72031058  1
  Te2-  Te125  1  0.33786162  0.66837105  0.72050604  1
  Te2-  Te126  1  0.83289822  0.16855295  0.71864570  1
  Te2-  Te127  1  0.83324544  0.66401393  0.72266923  1
  Te2-  Te128  1  0.16772782  0.33551121  0.06105169  1
  Te2-  Te129  1  0.16611728  0.82980466  0.05142338  1
  Te2-  Te130  1  0.66715905  0.33527427  0.05842296  1
  Te2-  Te131  1  0.66694992  0.83086446  0.05154356  1
  Te2-  Te132  1  0.49551645  0.24735554  0.88484056  1
  Te2-  Te133  1  0.49895785  0.74552784  0.87802297  1
  Te2-  Te134  1  0.99711676  0.25080056  0.88710488  1
  Te2-  Te135  1  0.99289500  0.73919971  0.88232890  1
  Te2-  Te136  1  0.24976943  0.00059559  0.87948349  1
  Te2-  Te137  1  0.25821610  0.50655316  0.88541474  1
  Te2-  Te138  1  0.75416927  0.00070148  0.87932747  1
  Te2-  Te139  1  0.75604261  0.50545405  0.88503147  1
  Te2-  Te140  1  0.25085847  0.24553210  0.88834675  1
  Te2-  Te141  1  0.25787713  0.74671646  0.88076347  1
  Te2-  Te142  1  0.75150793  0.24611422  0.88554158  1
  Te2-  Te143  1  0.75703808  0.74030566  0.88418644  1
  Te2-  Te144  1  0.32746804  0.41852486  0.21654708  1
  Te2-  Te145  1  0.32991979  0.91795294  0.20978594  1
  Te2-  Te146  1  0.82625118  0.41623557  0.21955736  1
  Te2-  Te147  1  0.83323352  0.91998612  0.21994874  1
  Te2-  Te148  1  0.08976969  0.18023250  0.22150821  1
  Te2-  Te149  1  0.08489922  0.67191037  0.21502352  1
  Te2-  Te150  1  0.58960770  0.18137152  0.21397745  1
  Te2-  Te151  1  0.58587438  0.67342313  0.21934018  1
  Te2-  Te152  1  0.08933571  0.41773069  0.21639926  1
  Te2-  Te153  1  0.08785801  0.92061490  0.22061097  1
  Te2-  Te154  1  0.58889826  0.41746517  0.21702227  1
  Te2-  Te155  1  0.58720168  0.91894935  0.20964022  1
  Te2-  Te156  1  0.15570801  0.07818241  0.55179894  1
  Te2-  Te157  1  0.16113132  0.58043535  0.55082071  1
  Te2-  Te158  1  0.66490802  0.08588361  0.54543626  1
  Te2-  Te159  1  0.65925147  0.57472152  0.55178711  1
  Te2-  Te160  1  0.41806485  0.33720699  0.54934385  1
  Te2-  Te161  1  0.41981905  0.83396927  0.54485487  1
  Te2-  Te162  1  0.92550784  0.34411816  0.54998209  1
  Te2-  Te163  1  0.91777401  0.84031358  0.55266230  1
  Te2-  Te164  1  0.41731681  0.07975555  0.54775165  1
  Te2-  Te165  1  0.41599582  0.57218745  0.54919777  1
  Te2-  Te166  1  0.91993493  0.07840747  0.55071543  1
  Te2-  Te167  1  0.92306954  0.58436542  0.55057297  1
  Te2-  Te168  1  -0.00164289  -0.00260691  0.88359648  1
  Te2-  Te169  1  -0.00099383  0.50022632  0.88400056  1
  Te2-  Te170  1  0.49907301  -0.00262696  0.88025913  1
  Te2-  Te171  1  0.49993345  0.49927220  0.88288532  1
  Te2-  Te172  1  0.33467563  0.16690366  0.21490432  1
  Te2-  Te173  1  0.33441898  0.67019780  0.21465308  1
  Te2-  Te174  1  0.83111200  0.16652130  0.21485296  1
  Te2-  Te175  1  0.83321399  0.66783721  0.21931634  1
  Te2-  Te176  1  0.16501074  0.33270280  0.54806856  1
  Te2-  Te177  1  0.16701944  0.83356599  0.54804597  1
  Te2-  Te178  1  0.66528357  0.33246299  0.55015959  1
  Te2-  Te179  1  0.66432346  0.83355716  0.54862519  1
  Te2-  Te180  1  0.32636556  0.41154959  0.71402480  1
  Te2-  Te181  1  0.32844427  0.91360997  0.70803504  1
  Te2-  Te182  1  0.82777510  0.41373136  0.71352320  1
  Te2-  Te183  1  0.82416672  0.91530910  0.70978136  1
  Te2-  Te184  1  0.08471921  0.17167001  0.71567258  1
  Te2-  Te185  1  0.08625688  0.67334114  0.70909081  1
  Te2-  Te186  1  0.58547018  0.17252333  0.71159836  1
  Te2-  Te187  1  0.58406968  0.67207041  0.70816735  1
  Te2-  Te188  1  0.08595385  0.41284191  0.71346430  1
  Te2-  Te189  1  0.08590398  0.91400266  0.71018691  1
  Te2-  Te190  1  0.58320578  0.40939477  0.71163977  1
  Te2-  Te191  1  0.58642496  0.91637680  0.70772115  1
  Te2-  Te192  1  0.15798731  0.07489066  0.04457811  1
  Te2-  Te193  1  0.16053455  0.57918108  0.04433363  1
  Te2-  Te194  1  0.66058947  0.07549749  0.03924269  1
  Te2-  Te195  1  0.66090924  0.58056450  0.04750624  1
  Te2-  Te196  1  0.42004533  0.34042589  0.04273010  1
  Te2-  Te197  1  0.41957588  0.83529231  0.04028534  1
  Te2-  Te198  1  0.91938699  0.34095951  0.04313453  1
  Te2-  Te199  1  0.92062189  0.83715948  0.04824328  1
  Te2-  Te200  1  0.41555659  0.07628349  0.03931479  1
  Te2-  Te201  1  0.42110244  0.58059486  0.04490755  1
  Te2-  Te202  1  0.91820138  0.07700135  0.04433084  1
  Te2-  Te203  1  0.91801348  0.57952328  0.04694696  1
  Te2-  Te204  1  0.49619551  0.24814208  0.37839291  1
  Te2-  Te205  1  0.49257330  0.74890404  0.37420206  1
  Te2-  Te206  1  0.99016801  0.24806865  0.37562614  1
  Te2-  Te207  1  0.99241235  0.74713568  0.37529370  1
  Te2-  Te208  1  0.25669848  0.00834962  0.37524833  1
  Te2-  Te209  1  0.25153044  0.50612882  0.37763156  1
  Te2-  Te210  1  0.74789680  0.00455485  0.37434393  1
  Te2-  Te211  1  0.75225074  0.50751562  0.37738912  1
  Te2-  Te212  1  0.25591340  0.24892253  0.37644427  1
  Te2-  Te213  1  0.25220180  0.75008232  0.37589385  1
  Te2-  Te214  1  0.75157164  0.24653715  0.37603917  1
  Te2-  Te215  1  0.75298986  0.74555228  0.37537238  1
