# generated using pymatgen
data_Ti(CuTe)4
_symmetry_space_group_name_H-M   'P 1'
_cell_length_a   16.90200657
_cell_length_b   16.90393033
_cell_length_c   20.72448004
_cell_angle_alpha   89.95054273
_cell_angle_beta   90.05298280
_cell_angle_gamma   120.02343381
_symmetry_Int_Tables_number   1
_chemical_formula_structural   Ti(CuTe)4
_chemical_formula_sum   'Ti24 Cu96 Te96'
_cell_volume   5126.69407932
_cell_formula_units_Z   24
loop_
 _symmetry_equiv_pos_site_id
 _symmetry_equiv_pos_as_xyz
  1  'x, y, z'
loop_
 _atom_type_symbol
 _atom_type_oxidation_number
  Ti4+  4.0
  Cu+  1.0
  Te2-  -2.0
loop_
 _atom_site_type_symbol
 _atom_site_label
 _atom_site_symmetry_multiplicity
 _atom_site_fract_x
 _atom_site_fract_y
 _atom_site_fract_z
 _atom_site_occupancy
  Ti4+  Ti0  1  0.00249581  0.00348299  0.25866624  1
  Ti4+  Ti1  1  -0.00329401  0.49835164  0.25925255  1
  Ti4+  Ti2  1  0.50065361  -0.00095694  0.25927619  1
  Ti4+  Ti3  1  0.50063139  0.50075846  0.25579958  1
  Ti4+  Ti4  1  0.33174603  0.16679023  0.58866751  1
  Ti4+  Ti5  1  0.33462533  0.66443892  0.58762346  1
  Ti4+  Ti6  1  0.83153563  0.16777869  0.59094455  1
  Ti4+  Ti7  1  0.83504411  0.66696734  0.58907127  1
  Ti4+  Ti8  1  0.16392524  0.33137069  0.92801768  1
  Ti4+  Ti9  1  0.16834927  0.83314509  0.92414627  1
  Ti4+  Ti10  1  0.66633908  0.33262092  0.92825163  1
  Ti4+  Ti11  1  0.66776223  0.83488451  0.92260557  1
  Ti4+  Ti12  1  -0.00065468  0.00132391  0.75560040  1
  Ti4+  Ti13  1  0.00060641  0.49979293  0.75747192  1
  Ti4+  Ti14  1  0.49949135  -0.00116215  0.75503653  1
  Ti4+  Ti15  1  0.50077935  0.49901900  0.75639575  1
  Ti4+  Ti16  1  0.33293762  0.16715957  0.08901364  1
  Ti4+  Ti17  1  0.33402503  0.66618808  0.08856673  1
  Ti4+  Ti18  1  0.83307528  0.16625218  0.09019918  1
  Ti4+  Ti19  1  0.83388134  0.66639346  0.08836216  1
  Ti4+  Ti20  1  0.16886214  0.33468855  0.42044843  1
  Ti4+  Ti21  1  0.16526850  0.83288543  0.41844317  1
  Ti4+  Ti22  1  0.66705194  0.33296737  0.42109284  1
  Ti4+  Ti23  1  0.66668051  0.83363684  0.41962271  1
  Cu+  Cu24  1  0.35785975  0.42755741  0.47107474  1
  Cu+  Cu25  1  0.08003984  0.42408833  0.47970285  1
  Cu+  Cu26  1  0.57267889  0.15182766  0.47757694  1
  Cu+  Cu27  1  0.84927703  0.42740337  0.47752054  1
  Cu+  Cu28  1  0.57252997  0.92182201  0.47641182  1
  Cu+  Cu29  1  0.73821397  0.25305601  0.14620707  1
  Cu+  Cu30  1  0.24334837  0.26154384  0.14380430  1
  Cu+  Cu31  1  0.07730457  0.15880711  0.48205782  1
  Cu+  Cu32  1  0.01413052  0.26134402  0.14642896  1
  Cu+  Cu33  1  0.90460466  0.09728020  0.80943478  1
  Cu+  Cu34  1  0.73729548  0.48176546  0.14149567  1
  Cu+  Cu35  1  0.07159704  0.92196680  0.47473538  1
  Cu+  Cu36  1  0.16458204  0.08668735  0.17170537  1
  Cu+  Cu37  1  0.16526226  0.58208667  0.17183737  1
  Cu+  Cu38  1  0.66069908  0.08072920  0.17318908  1
  Cu+  Cu39  1  0.66430270  0.58021197  0.16977047  1
  Cu+  Cu40  1  0.41599816  0.33856323  0.16945702  1
  Cu+  Cu41  1  0.42140847  0.83463834  0.17223118  1
  Cu+  Cu42  1  0.91622973  0.33817837  0.17235904  1
  Cu+  Cu43  1  0.92075879  0.83720232  0.17141893  1
  Cu+  Cu44  1  0.41959137  0.08281259  0.17148153  1
  Cu+  Cu45  1  0.41939240  0.58290883  0.16906834  1
  Cu+  Cu46  1  0.92498482  0.08689036  0.17096674  1
  Cu+  Cu47  1  0.91064526  0.57670950  0.17044713  1
  Cu+  Cu48  1  0.49456306  0.24656547  0.50232851  1
  Cu+  Cu49  1  0.49587513  0.74737661  0.50089532  1
  Cu+  Cu50  1  0.99300827  0.24879882  0.50307879  1
  Cu+  Cu51  1  0.99503187  0.74851770  0.50086872  1
  Cu+  Cu52  1  0.24706400  0.00180355  0.49972738  1
  Cu+  Cu53  1  0.25662460  0.50445631  0.50018950  1
  Cu+  Cu54  1  0.74839905  0.00232314  0.50235315  1
  Cu+  Cu55  1  0.75550795  0.50510451  0.50302223  1
  Cu+  Cu56  1  0.25542839  0.25014771  0.50039472  1
  Cu+  Cu57  1  0.24981018  0.74523647  0.49910406  1
  Cu+  Cu58  1  0.75165108  0.24917725  0.50165392  1
  Cu+  Cu59  1  0.75140845  0.74677257  0.50147962  1
  Cu+  Cu60  1  0.33198948  0.41272630  0.84163839  1
  Cu+  Cu61  1  0.33016760  0.91417747  0.83762871  1
  Cu+  Cu62  1  0.83082856  0.41455911  0.84274994  1
  Cu+  Cu63  1  0.83074124  0.92140402  0.83651033  1
  Cu+  Cu64  1  0.07928015  0.16904963  0.84028375  1
  Cu+  Cu65  1  0.08705356  0.67004086  0.83883065  1
  Cu+  Cu66  1  0.58558010  0.16798528  0.84119389  1
  Cu+  Cu67  1  0.58618480  0.66950634  0.83757447  1
  Cu+  Cu68  1  0.08269733  0.41329828  0.84075880  1
  Cu+  Cu69  1  0.08692566  0.91504477  0.83844931  1
  Cu+  Cu70  1  0.58638296  0.41598123  0.84046219  1
  Cu+  Cu71  1  0.58521113  0.91460687  0.83586730  1
  Cu+  Cu72  1  0.16662351  0.08490720  0.67487983  1
  Cu+  Cu73  1  0.16912435  0.58155521  0.67470078  1
  Cu+  Cu74  1  0.66530099  0.08348896  0.67668768  1
  Cu+  Cu75  1  0.67065688  0.58290926  0.67348322  1
  Cu+  Cu76  1  0.41636643  0.33121704  0.67535061  1
  Cu+  Cu77  1  0.41567125  0.83010724  0.67310817  1
  Cu+  Cu78  1  0.91608007  0.33399708  0.67834407  1
  Cu+  Cu79  1  0.91694105  0.83182345  0.67415586  1
  Cu+  Cu80  1  0.41475324  0.08384857  0.67472949  1
  Cu+  Cu81  1  0.41549685  0.58125390  0.67341888  1
  Cu+  Cu82  1  0.91533357  0.08687260  0.68018570  1
  Cu+  Cu83  1  0.91658035  0.58444187  0.67524174  1
  Cu+  Cu84  1  0.00072191  0.24858263  0.01599146  1
  Cu+  Cu85  1  0.00497549  0.75168158  0.00706828  1
  Cu+  Cu86  1  0.50096504  0.25049526  0.00946520  1
  Cu+  Cu87  1  0.50359388  0.75143581  0.00619635  1
  Cu+  Cu88  1  0.24846813  0.49726632  0.00965861  1
  Cu+  Cu89  1  0.24907627  0.99562249  0.00783556  1
  Cu+  Cu90  1  0.74868946  0.49593494  0.01382751  1
  Cu+  Cu91  1  0.74827922  0.99676218  0.00801000  1
  Cu+  Cu92  1  0.24506779  0.24887565  0.01440838  1
  Cu+  Cu93  1  0.25032685  0.75186558  0.00789655  1
  Cu+  Cu94  1  0.74780916  0.25042565  0.01606885  1
  Cu+  Cu95  1  0.75144964  0.75420934  0.00514675  1
  Cu+  Cu96  1  0.33842727  0.41953315  0.34357557  1
  Cu+  Cu97  1  0.33523816  0.91570502  0.33971701  1
  Cu+  Cu98  1  0.83493178  0.41697177  0.34810319  1
  Cu+  Cu99  1  0.83679883  0.91853874  0.33979085  1
  Cu+  Cu100  1  0.08492263  0.16547932  0.34944530  1
  Cu+  Cu101  1  0.07973167  0.66420664  0.33953911  1
  Cu+  Cu102  1  0.58186672  0.16246233  0.34813883  1
  Cu+  Cu103  1  0.58382886  0.66562370  0.33794514  1
  Cu+  Cu104  1  0.08078363  0.41754042  0.34870402  1
  Cu+  Cu105  1  0.08234230  0.91955311  0.34497903  1
  Cu+  Cu106  1  0.58189274  0.41801288  0.34005520  1
  Cu+  Cu107  1  0.58264112  0.91905771  0.34627053  1
  Cu+  Cu108  1  -0.00074120  -0.00414946  0.11464946  1
  Cu+  Cu109  1  0.00468530  0.50767245  0.11611534  1
  Cu+  Cu110  1  0.49388622  -0.00463954  0.11594384  1
  Cu+  Cu111  1  0.50278431  0.50393790  0.11177416  1
  Cu+  Cu112  1  0.33479094  0.16410071  0.44352619  1
  Cu+  Cu113  1  0.33380207  0.66915760  0.44171167  1
  Cu+  Cu114  1  0.83206981  0.16371255  0.44615109  1
  Cu+  Cu115  1  0.83084471  0.66637538  0.44400718  1
  Cu+  Cu116  1  0.17051853  0.33654991  0.78619407  1
  Cu+  Cu117  1  0.16648630  0.83248727  0.78102940  1
  Cu+  Cu118  1  0.66622300  0.33177262  0.78641574  1
  Cu+  Cu119  1  0.66588570  0.82992931  0.77912916  1
  Te2-  Te120  1  -0.00243760  -0.00034752  0.39077125  1
  Te2-  Te121  1  0.00083445  0.50342824  0.39116527  1
  Te2-  Te122  1  0.49574964  -0.00308463  0.39184084  1
  Te2-  Te123  1  0.50492229  0.50362839  0.38652714  1
  Te2-  Te124  1  0.33179390  0.16596761  0.71691802  1
  Te2-  Te125  1  0.33468583  0.66524591  0.71598943  1
  Te2-  Te126  1  0.83009374  0.16882511  0.72059144  1
  Te2-  Te127  1  0.83473818  0.66740550  0.71774793  1
  Te2-  Te128  1  0.16648772  0.33552775  0.06045757  1
  Te2-  Te129  1  0.16777938  0.83252528  0.05375036  1
  Te2-  Te130  1  0.66251309  0.33062128  0.06122992  1
  Te2-  Te131  1  0.66710177  0.83266099  0.05174833  1
  Te2-  Te132  1  0.49638614  0.24763076  0.88391228  1
  Te2-  Te133  1  0.49627684  0.74772782  0.88061206  1
  Te2-  Te134  1  0.99002389  0.24732024  0.88847049  1
  Te2-  Te135  1  0.99611146  0.74717885  0.88164934  1
  Te2-  Te136  1  0.25435386  0.00565941  0.88240550  1
  Te2-  Te137  1  0.25108143  0.50122521  0.88377924  1
  Te2-  Te138  1  0.75118945  0.01034866  0.88273290  1
  Te2-  Te139  1  0.75280063  0.50383765  0.88741014  1
  Te2-  Te140  1  0.24719298  0.24439537  0.88681698  1
  Te2-  Te141  1  0.25462440  0.74716688  0.88241696  1
  Te2-  Te142  1  0.75242589  0.24719717  0.88868294  1
  Te2-  Te143  1  0.75569141  0.75228982  0.87934109  1
  Te2-  Te144  1  0.32658186  0.41719802  0.21729627  1
  Te2-  Te145  1  0.33114499  0.91406013  0.21402494  1
  Te2-  Te146  1  0.82042045  0.40964783  0.22049858  1
  Te2-  Te147  1  0.83303432  0.91873557  0.21406623  1
  Te2-  Te148  1  0.09115342  0.18085693  0.22114810  1
  Te2-  Te149  1  0.07967375  0.66640965  0.21365321  1
  Te2-  Te150  1  0.58455463  0.17307445  0.22099748  1
  Te2-  Te151  1  0.58742529  0.67084717  0.21249257  1
  Te2-  Te152  1  0.08594685  0.41504279  0.22027258  1
  Te2-  Te153  1  0.08819227  0.91910531  0.21764600  1
  Te2-  Te154  1  0.58251489  0.40956799  0.21477158  1
  Te2-  Te155  1  0.58819750  0.91521287  0.21922385  1
  Te2-  Te156  1  0.15571136  0.07928140  0.54867692  1
  Te2-  Te157  1  0.16097996  0.57981751  0.54840778  1
  Te2-  Te158  1  0.65661844  0.07986193  0.55014153  1
  Te2-  Te159  1  0.66361115  0.57963793  0.54734699  1
  Te2-  Te160  1  0.42252825  0.34034345  0.54898385  1
  Te2-  Te161  1  0.41601009  0.83778434  0.54713606  1
  Te2-  Te162  1  0.92015598  0.34335253  0.55170275  1
  Te2-  Te163  1  0.91791668  0.84071659  0.54827024  1
  Te2-  Te164  1  0.41396178  0.07636775  0.54837668  1
  Te2-  Te165  1  0.42413100  0.58040152  0.54734251  1
  Te2-  Te166  1  0.91574621  0.07975508  0.55171380  1
  Te2-  Te167  1  0.92540483  0.58313387  0.54935847  1
  Te2-  Te168  1  0.00008228  -0.00173190  0.88209370  1
  Te2-  Te169  1  0.00138983  0.50114243  0.88388928  1
  Te2-  Te170  1  0.49947864  -0.00246741  0.88129118  1
  Te2-  Te171  1  0.50194283  0.50094468  0.88275118  1
  Te2-  Te172  1  0.33524039  0.16818566  0.21576106  1
  Te2-  Te173  1  0.33440002  0.66590577  0.21480140  1
  Te2-  Te174  1  0.83301365  0.16583996  0.21751042  1
  Te2-  Te175  1  0.83369361  0.66865654  0.21532301  1
  Te2-  Te176  1  0.16594598  0.33284868  0.54873924  1
  Te2-  Te177  1  0.16623912  0.83153810  0.54523014  1
  Te2-  Te178  1  0.66516843  0.33340953  0.54839011  1
  Te2-  Te179  1  0.66637022  0.83173664  0.54641444  1
  Te2-  Te180  1  0.32877934  0.41275960  0.71390611  1
  Te2-  Te181  1  0.32809867  0.91295513  0.71069299  1
  Te2-  Te182  1  0.82798455  0.41538382  0.71548693  1
  Te2-  Te183  1  0.82741592  0.91311740  0.70931528  1
  Te2-  Te184  1  0.08764388  0.17517275  0.71269317  1
  Te2-  Te185  1  0.08713070  0.67026462  0.71192878  1
  Te2-  Te186  1  0.58439483  0.17201850  0.71371379  1
  Te2-  Te187  1  0.58614347  0.66898609  0.71036913  1
  Te2-  Te188  1  0.08599476  0.41287142  0.71408230  1
  Te2-  Te189  1  0.08584026  0.91539830  0.71194486  1
  Te2-  Te190  1  0.58666687  0.41355178  0.71329620  1
  Te2-  Te191  1  0.58539777  0.91280208  0.70987023  1
  Te2-  Te192  1  0.15997392  0.07648734  0.04507460  1
  Te2-  Te193  1  0.16238343  0.58139869  0.04499413  1
  Te2-  Te194  1  0.65937571  0.07731485  0.04648260  1
  Te2-  Te195  1  0.66248460  0.58350034  0.04219213  1
  Te2-  Te196  1  0.41951919  0.33993610  0.04287166  1
  Te2-  Te197  1  0.42033753  0.83732798  0.04522057  1
  Te2-  Te198  1  0.92070978  0.34143525  0.04572064  1
  Te2-  Te199  1  0.92067336  0.83747159  0.04429247  1
  Te2-  Te200  1  0.41887042  0.08063117  0.04545496  1
  Te2-  Te201  1  0.41957544  0.58110795  0.04285473  1
  Te2-  Te202  1  0.91716724  0.07670241  0.04509169  1
  Te2-  Te203  1  0.92154096  0.58157707  0.04366988  1
  Te2-  Te204  1  0.49408176  0.24842377  0.37542795  1
  Te2-  Te205  1  0.49434212  0.74546339  0.37404237  1
  Te2-  Te206  1  0.99232268  0.24544125  0.37622489  1
  Te2-  Te207  1  0.99176062  0.74595474  0.37400898  1
  Te2-  Te208  1  0.25545680  0.00617002  0.37327864  1
  Te2-  Te209  1  0.25465875  0.50837903  0.37349372  1
  Te2-  Te210  1  0.75565544  0.00694060  0.37543609  1
  Te2-  Te211  1  0.75125541  0.50628536  0.37597386  1
  Te2-  Te212  1  0.25737036  0.24793742  0.37429250  1
  Te2-  Te213  1  0.25028512  0.74552234  0.37330982  1
  Te2-  Te214  1  0.75428879  0.24481516  0.37541138  1
  Te2-  Te215  1  0.75315671  0.74850134  0.37507515  1
