# generated using pymatgen
data_Ti(CuTe)4
_symmetry_space_group_name_H-M   'P 1'
_cell_length_a   16.87591539
_cell_length_b   16.87285583
_cell_length_c   20.68680094
_cell_angle_alpha   90.01804359
_cell_angle_beta   89.93719911
_cell_angle_gamma   119.98374376
_symmetry_Int_Tables_number   1
_chemical_formula_structural   Ti(CuTe)4
_chemical_formula_sum   'Ti24 Cu96 Te96'
_cell_volume   5102.12087471
_cell_formula_units_Z   24
loop_
 _symmetry_equiv_pos_site_id
 _symmetry_equiv_pos_as_xyz
  1  'x, y, z'
loop_
 _atom_type_symbol
 _atom_type_oxidation_number
  Ti4+  4.0
  Cu+  1.0
  Te2-  -2.0
loop_
 _atom_site_type_symbol
 _atom_site_label
 _atom_site_symmetry_multiplicity
 _atom_site_fract_x
 _atom_site_fract_y
 _atom_site_fract_z
 _atom_site_occupancy
  Ti4+  Ti0  1  0.00188747  -0.00002813  0.25816814  1
  Ti4+  Ti1  1  -0.00056267  0.50107466  0.25967904  1
  Ti4+  Ti2  1  0.50306204  0.00018373  0.25601870  1
  Ti4+  Ti3  1  0.50079923  0.50108114  0.25552866  1
  Ti4+  Ti4  1  0.33141633  0.16782388  0.59049659  1
  Ti4+  Ti5  1  0.33426109  0.66572451  0.58800922  1
  Ti4+  Ti6  1  0.83085952  0.16715039  0.59541905  1
  Ti4+  Ti7  1  0.83567909  0.66709502  0.59018622  1
  Ti4+  Ti8  1  0.16700053  0.33184946  0.92309067  1
  Ti4+  Ti9  1  0.16719911  0.83467401  0.92453853  1
  Ti4+  Ti10  1  0.66900257  0.33097677  0.93003484  1
  Ti4+  Ti11  1  0.66584569  0.83201036  0.92324272  1
  Ti4+  Ti12  1  0.00115238  0.00143256  0.75414175  1
  Ti4+  Ti13  1  -0.00245709  0.49906142  0.75768163  1
  Ti4+  Ti14  1  0.49864606  -0.00050011  0.75523389  1
  Ti4+  Ti15  1  0.49939121  0.50015484  0.75717917  1
  Ti4+  Ti16  1  0.33108730  0.16551394  0.08781669  1
  Ti4+  Ti17  1  0.33407989  0.66661000  0.08896338  1
  Ti4+  Ti18  1  0.83098626  0.16563657  0.08903822  1
  Ti4+  Ti19  1  0.83511039  0.66768137  0.08711204  1
  Ti4+  Ti20  1  0.16858161  0.33531033  0.42150845  1
  Ti4+  Ti21  1  0.16393760  0.83371812  0.42036594  1
  Ti4+  Ti22  1  0.66697667  0.33292110  0.42389257  1
  Ti4+  Ti23  1  0.66576957  0.83329585  0.42216188  1
  Cu+  Cu24  1  0.68149673  0.08670487  0.81165657  1
  Cu+  Cu25  1  0.74495957  0.25586447  0.15058305  1
  Cu+  Cu26  1  0.07852825  0.65269381  0.47746285  1
  Cu+  Cu27  1  0.36047933  0.42829310  0.47106360  1
  Cu+  Cu28  1  0.50881991  0.25503769  0.14704001  1
  Cu+  Cu29  1  0.74870150  0.49350868  0.14944522  1
  Cu+  Cu30  1  0.19193402  0.09442759  0.80603845  1
  Cu+  Cu31  1  0.06953693  0.92995031  0.47416994  1
  Cu+  Cu32  1  0.90938404  0.31397106  0.81306815  1
  Cu+  Cu33  1  0.85004763  0.41992746  0.48035300  1
  Cu+  Cu34  1  0.52752374  0.76220738  0.13707599  1
  Cu+  Cu35  1  0.02638117  0.76246547  0.14009787  1
  Cu+  Cu36  1  0.16036199  0.07980148  0.17084302  1
  Cu+  Cu37  1  0.16337333  0.58321325  0.17205840  1
  Cu+  Cu38  1  0.66004786  0.08131883  0.16814312  1
  Cu+  Cu39  1  0.65961883  0.57919342  0.16546725  1
  Cu+  Cu40  1  0.41567840  0.33604275  0.16934085  1
  Cu+  Cu41  1  0.42535415  0.83477844  0.16957975  1
  Cu+  Cu42  1  0.91661560  0.33639442  0.17142266  1
  Cu+  Cu43  1  0.92555899  0.83691668  0.16976166  1
  Cu+  Cu44  1  0.41802574  0.08215179  0.16910357  1
  Cu+  Cu45  1  0.42148728  0.58649212  0.17020325  1
  Cu+  Cu46  1  0.91708352  0.08198934  0.17237430  1
  Cu+  Cu47  1  0.92348189  0.58570752  0.17010331  1
  Cu+  Cu48  1  0.49548314  0.24742798  0.50489855  1
  Cu+  Cu49  1  0.49563259  0.74814605  0.50193685  1
  Cu+  Cu50  1  0.99728328  0.25155454  0.50651963  1
  Cu+  Cu51  1  0.99530347  0.74951029  0.50065717  1
  Cu+  Cu52  1  0.24415638  0.00362463  0.50302280  1
  Cu+  Cu53  1  0.25784596  0.50370895  0.50024798  1
  Cu+  Cu54  1  0.74608744  0.00128356  0.50815966  1
  Cu+  Cu55  1  0.75533337  0.50165822  0.50380088  1
  Cu+  Cu56  1  0.25536469  0.25346480  0.50292389  1
  Cu+  Cu57  1  0.25054119  0.74620102  0.50195868  1
  Cu+  Cu58  1  0.75246209  0.24838149  0.50886791  1
  Cu+  Cu59  1  0.74966949  0.74788249  0.50380856  1
  Cu+  Cu60  1  0.32937882  0.41513530  0.83762019  1
  Cu+  Cu61  1  0.32787636  0.91316365  0.83639918  1
  Cu+  Cu62  1  0.82943260  0.40964397  0.84137889  1
  Cu+  Cu63  1  0.82952229  0.91317595  0.83581104  1
  Cu+  Cu64  1  0.09055080  0.16962223  0.83449093  1
  Cu+  Cu65  1  0.08225626  0.67032098  0.83989090  1
  Cu+  Cu66  1  0.58782407  0.16808595  0.83966042  1
  Cu+  Cu67  1  0.58237040  0.66863843  0.83873370  1
  Cu+  Cu68  1  0.08163612  0.41243959  0.83856390  1
  Cu+  Cu69  1  0.08799555  0.91918025  0.83732324  1
  Cu+  Cu70  1  0.58526788  0.41664054  0.84376507  1
  Cu+  Cu71  1  0.58462046  0.91363957  0.83749574  1
  Cu+  Cu72  1  0.16882013  0.08563643  0.67765757  1
  Cu+  Cu73  1  0.16867952  0.58539794  0.67232466  1
  Cu+  Cu74  1  0.66678929  0.08584642  0.68202967  1
  Cu+  Cu75  1  0.66982249  0.58398160  0.67412663  1
  Cu+  Cu76  1  0.41685694  0.33420400  0.67620280  1
  Cu+  Cu77  1  0.41314640  0.82988786  0.67136995  1
  Cu+  Cu78  1  0.91094994  0.33131977  0.68438996  1
  Cu+  Cu79  1  0.91644370  0.83228490  0.67400358  1
  Cu+  Cu80  1  0.41228325  0.08223518  0.67362727  1
  Cu+  Cu81  1  0.41626332  0.58416623  0.67288103  1
  Cu+  Cu82  1  0.91361306  0.08387843  0.67584049  1
  Cu+  Cu83  1  0.91653429  0.58485302  0.67685482  1
  Cu+  Cu84  1  0.00218432  0.25014220  0.00715520  1
  Cu+  Cu85  1  0.00558469  0.75469787  0.01114915  1
  Cu+  Cu86  1  0.50288908  0.25119919  0.01571896  1
  Cu+  Cu87  1  0.50459931  0.75109026  0.00959389  1
  Cu+  Cu88  1  0.24573428  0.49577438  0.00599658  1
  Cu+  Cu89  1  0.24542764  0.99830258  0.00775620  1
  Cu+  Cu90  1  0.75120897  0.49788534  0.01657399  1
  Cu+  Cu91  1  0.74782082  0.99807570  0.00751680  1
  Cu+  Cu92  1  0.24554709  0.24785906  0.00708920  1
  Cu+  Cu93  1  0.24689745  0.74904349  0.00678702  1
  Cu+  Cu94  1  0.74913409  0.24931383  0.01881629  1
  Cu+  Cu95  1  0.74971612  0.75078676  0.00536397  1
  Cu+  Cu96  1  0.33755144  0.41936620  0.34244956  1
  Cu+  Cu97  1  0.33784667  0.91961788  0.33735036  1
  Cu+  Cu98  1  0.83423979  0.41655183  0.35074020  1
  Cu+  Cu99  1  0.83575563  0.91848235  0.34052855  1
  Cu+  Cu100  1  0.08246994  0.16647145  0.34146577  1
  Cu+  Cu101  1  0.07988217  0.66480510  0.34797449  1
  Cu+  Cu102  1  0.58349144  0.16492784  0.34438191  1
  Cu+  Cu103  1  0.58260727  0.66685663  0.33945946  1
  Cu+  Cu104  1  0.08126362  0.41611400  0.34133761  1
  Cu+  Cu105  1  0.08209595  0.91977786  0.34601648  1
  Cu+  Cu106  1  0.58140187  0.41470605  0.34195014  1
  Cu+  Cu107  1  0.58461968  0.91850393  0.33997458  1
  Cu+  Cu108  1  -0.00500540  0.00065639  0.11493370  1
  Cu+  Cu109  1  0.00330360  0.49863400  0.11444942  1
  Cu+  Cu110  1  0.49079075  -0.00620494  0.11141994  1
  Cu+  Cu111  1  0.49259955  0.49753065  0.11089692  1
  Cu+  Cu112  1  0.33415245  0.16616576  0.44637495  1
  Cu+  Cu113  1  0.33388706  0.66824789  0.44228526  1
  Cu+  Cu114  1  0.83477356  0.16228702  0.45301969  1
  Cu+  Cu115  1  0.82643147  0.66467839  0.44593750  1
  Cu+  Cu116  1  0.16749916  0.33691720  0.77874710  1
  Cu+  Cu117  1  0.16405340  0.83075209  0.78096054  1
  Cu+  Cu118  1  0.66133107  0.33387000  0.78731730  1
  Cu+  Cu119  1  0.66494033  0.82976206  0.77987524  1
  Te2-  Te120  1  -0.00128381  0.00300197  0.38865803  1
  Te2-  Te121  1  0.00122495  0.49867667  0.39142764  1
  Te2-  Te122  1  0.50056177  -0.00113956  0.38479325  1
  Te2-  Te123  1  0.50414254  0.50257392  0.38562318  1
  Te2-  Te124  1  0.33568411  0.16906568  0.72060280  1
  Te2-  Te125  1  0.33301160  0.66589009  0.71674576  1
  Te2-  Te126  1  0.83235870  0.16471701  0.72732537  1
  Te2-  Te127  1  0.83427156  0.66802006  0.71888791  1
  Te2-  Te128  1  0.16594838  0.33236858  0.05206812  1
  Te2-  Te129  1  0.17106080  0.83559877  0.05548659  1
  Te2-  Te130  1  0.66767473  0.33333524  0.06342303  1
  Te2-  Te131  1  0.67079609  0.83454338  0.05375143  1
  Te2-  Te132  1  0.50000525  0.24731201  0.88743953  1
  Te2-  Te133  1  0.49397103  0.74732132  0.88299542  1
  Te2-  Te134  1  0.99387112  0.24055802  0.88156631  1
  Te2-  Te135  1  0.99593045  0.75162190  0.88388307  1
  Te2-  Te136  1  0.25728561  0.00871600  0.88233748  1
  Te2-  Te137  1  0.24957375  0.50304155  0.88048465  1
  Te2-  Te138  1  0.75592631  0.00594120  0.88214694  1
  Te2-  Te139  1  0.75385182  0.50068291  0.88857663  1
  Te2-  Te140  1  0.25747557  0.24789804  0.88163538  1
  Te2-  Te141  1  0.25066151  0.74675246  0.88148539  1
  Te2-  Te142  1  0.75526975  0.24194447  0.88972125  1
  Te2-  Te143  1  0.75144990  0.74641901  0.88004752  1
  Te2-  Te144  1  0.33041795  0.41741629  0.21492893  1
  Te2-  Te145  1  0.33356816  0.91388910  0.21136341  1
  Te2-  Te146  1  0.82478292  0.41417732  0.22131593  1
  Te2-  Te147  1  0.83186907  0.91258079  0.21429133  1
  Te2-  Te148  1  0.08512025  0.17150952  0.21582161  1
  Te2-  Te149  1  0.08902196  0.67481773  0.21991979  1
  Te2-  Te150  1  0.58787370  0.17684609  0.21821966  1
  Te2-  Te151  1  0.59120384  0.67473565  0.21389892  1
  Te2-  Te152  1  0.08295330  0.41503417  0.21573602  1
  Te2-  Te153  1  0.09209896  0.91490154  0.21867632  1
  Te2-  Te154  1  0.58732670  0.41179509  0.21607137  1
  Te2-  Te155  1  0.59375682  0.91653763  0.21453625  1
  Te2-  Te156  1  0.15800980  0.08568863  0.54997457  1
  Te2-  Te157  1  0.16095242  0.57547292  0.54647419  1
  Te2-  Te158  1  0.65992683  0.08212827  0.55468398  1
  Te2-  Te159  1  0.66520923  0.57980318  0.54784631  1
  Te2-  Te160  1  0.42362041  0.34205872  0.55015443  1
  Te2-  Te161  1  0.41729030  0.83720870  0.54579375  1
  Te2-  Te162  1  0.92176048  0.34139703  0.55634887  1
  Te2-  Te163  1  0.91781610  0.84055863  0.54812687  1
  Te2-  Te164  1  0.41279792  0.07891213  0.54760683  1
  Te2-  Te165  1  0.42497784  0.58173105  0.54706713  1
  Te2-  Te166  1  0.91584427  0.08285651  0.54987659  1
  Te2-  Te167  1  0.92435735  0.57947783  0.55032730  1
  Te2-  Te168  1  -0.00100503  0.00003779  0.88098821  1
  Te2-  Te169  1  0.00042098  0.50068715  0.88470097  1
  Te2-  Te170  1  0.49740785  -0.00325757  0.88235413  1
  Te2-  Te171  1  0.49814333  0.50007659  0.88386331  1
  Te2-  Te172  1  0.33141717  0.16587828  0.21522202  1
  Te2-  Te173  1  0.33306063  0.66668935  0.21608142  1
  Te2-  Te174  1  0.83113076  0.16555291  0.21649095  1
  Te2-  Te175  1  0.83082740  0.66595687  0.21486366  1
  Te2-  Te176  1  0.16754862  0.33551431  0.54853506  1
  Te2-  Te177  1  0.16573864  0.83263129  0.54787989  1
  Te2-  Te178  1  0.66468620  0.33263541  0.55086129  1
  Te2-  Te179  1  0.66385980  0.83107632  0.54878616  1
  Te2-  Te180  1  0.32792500  0.41517913  0.71115298  1
  Te2-  Te181  1  0.32656890  0.91255847  0.71027651  1
  Te2-  Te182  1  0.82303954  0.41552166  0.71470998  1
  Te2-  Te183  1  0.82773120  0.91365472  0.71010420  1
  Te2-  Te184  1  0.08458303  0.17460975  0.70833906  1
  Te2-  Te185  1  0.08593568  0.67100265  0.71268288  1
  Te2-  Te186  1  0.58191359  0.17372511  0.71251846  1
  Te2-  Te187  1  0.58588395  0.67062235  0.71116300  1
  Te2-  Te188  1  0.08579464  0.41573790  0.71079486  1
  Te2-  Te189  1  0.08607207  0.91311676  0.70977518  1
  Te2-  Te190  1  0.58647320  0.41506185  0.71496283  1
  Te2-  Te191  1  0.58290560  0.91122001  0.70995859  1
  Te2-  Te192  1  0.15769238  0.07918140  0.04501587  1
  Te2-  Te193  1  0.16141263  0.58030672  0.04522611  1
  Te2-  Te194  1  0.65627522  0.07568794  0.04291049  1
  Te2-  Te195  1  0.66048782  0.58117007  0.04057537  1
  Te2-  Te196  1  0.41642736  0.33847574  0.04221197  1
  Te2-  Te197  1  0.41795572  0.83743837  0.04162796  1
  Te2-  Te198  1  0.92248503  0.33980604  0.04428492  1
  Te2-  Te199  1  0.91911395  0.84054095  0.04265722  1
  Te2-  Te200  1  0.41644679  0.07775867  0.04204441  1
  Te2-  Te201  1  0.41667672  0.57825068  0.04207155  1
  Te2-  Te202  1  0.91760320  0.08071513  0.04504740  1
  Te2-  Te203  1  0.92449447  0.58173324  0.04300871  1
  Te2-  Te204  1  0.49444921  0.24614679  0.37877665  1
  Te2-  Te205  1  0.49461347  0.74828581  0.37542290  1
  Te2-  Te206  1  0.99440078  0.24773521  0.37975359  1
  Te2-  Te207  1  0.98891315  0.74663711  0.37448140  1
  Te2-  Te208  1  0.25521690  0.00650436  0.37562411  1
  Te2-  Te209  1  0.25228484  0.50706619  0.37356310  1
  Te2-  Te210  1  0.75328286  0.00564150  0.37994893  1
  Te2-  Te211  1  0.75074947  0.50604020  0.37708013  1
  Te2-  Te212  1  0.25312057  0.24714377  0.37600609  1
  Te2-  Te213  1  0.25368700  0.75007753  0.37463326  1
  Te2-  Te214  1  0.75288900  0.24409066  0.38143791  1
  Te2-  Te215  1  0.75219646  0.74827411  0.37679266  1
