# generated using pymatgen
data_Ti(CuTe)4
_symmetry_space_group_name_H-M   'P 1'
_cell_length_a   16.85394305
_cell_length_b   16.85063546
_cell_length_c   20.65604235
_cell_angle_alpha   89.95838639
_cell_angle_beta   90.01901572
_cell_angle_gamma   120.01111331
_symmetry_Int_Tables_number   1
_chemical_formula_structural   Ti(CuTe)4
_chemical_formula_sum   'Ti24 Cu96 Te96'
_cell_volume   5079.80208809
_cell_formula_units_Z   24
loop_
 _symmetry_equiv_pos_site_id
 _symmetry_equiv_pos_as_xyz
  1  'x, y, z'
loop_
 _atom_type_symbol
 _atom_type_oxidation_number
  Ti4+  4.0
  Cu+  1.0
  Te2-  -2.0
loop_
 _atom_site_type_symbol
 _atom_site_label
 _atom_site_symmetry_multiplicity
 _atom_site_fract_x
 _atom_site_fract_y
 _atom_site_fract_z
 _atom_site_occupancy
  Ti4+  Ti0  1  -0.00005254  -0.00140890  0.25757874  1
  Ti4+  Ti1  1  -0.00277814  0.49781089  0.25856256  1
  Ti4+  Ti2  1  0.50121858  -0.00154680  0.25821514  1
  Ti4+  Ti3  1  0.50172390  0.50106988  0.26057427  1
  Ti4+  Ti4  1  0.33683779  0.17098388  0.58899278  1
  Ti4+  Ti5  1  0.33459589  0.67006160  0.58848566  1
  Ti4+  Ti6  1  0.83445330  0.17049390  0.59089753  1
  Ti4+  Ti7  1  0.83408783  0.66809856  0.59391027  1
  Ti4+  Ti8  1  0.16685067  0.33264202  0.92123994  1
  Ti4+  Ti9  1  0.16328362  0.83401543  0.92182126  1
  Ti4+  Ti10  1  0.66850415  0.33106939  0.92697537  1
  Ti4+  Ti11  1  0.66205228  0.82969081  0.92574213  1
  Ti4+  Ti12  1  0.00305717  0.00045364  0.75284472  1
  Ti4+  Ti13  1  -0.00103910  0.49805647  0.75419776  1
  Ti4+  Ti14  1  0.50078867  0.00043940  0.75718392  1
  Ti4+  Ti15  1  0.49929158  0.50285473  0.75672181  1
  Ti4+  Ti16  1  0.33207343  0.16542192  0.09033632  1
  Ti4+  Ti17  1  0.33464188  0.66589841  0.09146299  1
  Ti4+  Ti18  1  0.83242806  0.16630191  0.08882975  1
  Ti4+  Ti19  1  0.83273062  0.66529473  0.08918763  1
  Ti4+  Ti20  1  0.16595842  0.33336388  0.42176426  1
  Ti4+  Ti21  1  0.16773198  0.83226588  0.42252269  1
  Ti4+  Ti22  1  0.66558475  0.33190155  0.42252404  1
  Ti4+  Ti23  1  0.66655127  0.83230657  0.42288893  1
  Cu+  Cu24  1  0.40080800  0.59817139  0.80606887  1
  Cu+  Cu25  1  0.57899849  0.92966157  0.47497383  1
  Cu+  Cu26  1  0.90229172  0.30660798  0.80850302  1
  Cu+  Cu27  1  0.90484814  0.81742429  0.80976707  1
  Cu+  Cu28  1  0.34969736  0.43060485  0.47583398  1
  Cu+  Cu29  1  0.73775677  0.26037070  0.14313226  1
  Cu+  Cu30  1  0.07234840  0.43213591  0.47291844  1
  Cu+  Cu31  1  0.35371178  0.93364229  0.47329630  1
  Cu+  Cu32  1  0.58176664  0.43229634  0.47656843  1
  Cu+  Cu33  1  0.90108459  0.58221835  0.80988068  1
  Cu+  Cu34  1  0.52666863  0.76256594  0.14412752  1
  Cu+  Cu35  1  0.19406933  0.09637908  0.80277401  1
  Cu+  Cu36  1  0.16185205  0.08001226  0.17164148  1
  Cu+  Cu37  1  0.16331713  0.57940780  0.17347377  1
  Cu+  Cu38  1  0.66353918  0.08364597  0.17075668  1
  Cu+  Cu39  1  0.66456274  0.57900759  0.17325277  1
  Cu+  Cu40  1  0.41743217  0.33403497  0.17566195  1
  Cu+  Cu41  1  0.42212324  0.83421189  0.17343754  1
  Cu+  Cu42  1  0.91396939  0.33577017  0.17154110  1
  Cu+  Cu43  1  0.91766217  0.83546525  0.17126947  1
  Cu+  Cu44  1  0.41503596  0.07891247  0.17267216  1
  Cu+  Cu45  1  0.42336446  0.58593989  0.17394125  1
  Cu+  Cu46  1  0.91820577  0.08000931  0.17087116  1
  Cu+  Cu47  1  0.91848145  0.58126257  0.17129382  1
  Cu+  Cu48  1  0.49804124  0.25394699  0.50073135  1
  Cu+  Cu49  1  0.49783150  0.75288331  0.50141800  1
  Cu+  Cu50  1  0.99715039  0.25602336  0.50320317  1
  Cu+  Cu51  1  0.99737248  0.74936362  0.50760091  1
  Cu+  Cu52  1  0.25323831  0.00403492  0.50462750  1
  Cu+  Cu53  1  0.24922750  0.50356137  0.50283475  1
  Cu+  Cu54  1  0.74966269  0.00277789  0.50533861  1
  Cu+  Cu55  1  0.75174047  0.50325551  0.50799012  1
  Cu+  Cu56  1  0.25715183  0.25353621  0.50139325  1
  Cu+  Cu57  1  0.25771126  0.75564253  0.50047326  1
  Cu+  Cu58  1  0.75479877  0.25047066  0.50372748  1
  Cu+  Cu59  1  0.75524181  0.75139621  0.50645727  1
  Cu+  Cu60  1  0.33087477  0.42123909  0.83503355  1
  Cu+  Cu61  1  0.32967734  0.91549821  0.83691466  1
  Cu+  Cu62  1  0.82840515  0.40884177  0.83867003  1
  Cu+  Cu63  1  0.82896953  0.91291388  0.83725935  1
  Cu+  Cu64  1  0.09160766  0.16994986  0.83253680  1
  Cu+  Cu65  1  0.07998666  0.66898402  0.83384208  1
  Cu+  Cu66  1  0.58557787  0.16745372  0.84100127  1
  Cu+  Cu67  1  0.57644103  0.66891600  0.83809270  1
  Cu+  Cu68  1  0.07980802  0.40819799  0.83302975  1
  Cu+  Cu69  1  0.08577694  0.91567839  0.83207221  1
  Cu+  Cu70  1  0.58246291  0.41411151  0.84022072  1
  Cu+  Cu71  1  0.58033707  0.91139671  0.83987744  1
  Cu+  Cu72  1  0.17450459  0.08852968  0.67454090  1
  Cu+  Cu73  1  0.16891170  0.58431922  0.67198999  1
  Cu+  Cu74  1  0.66850687  0.08398841  0.67608367  1
  Cu+  Cu75  1  0.66696532  0.58498092  0.67772639  1
  Cu+  Cu76  1  0.41937765  0.33621607  0.67552908  1
  Cu+  Cu77  1  0.41896828  0.83567576  0.67541203  1
  Cu+  Cu78  1  0.91671908  0.33081839  0.67938944  1
  Cu+  Cu79  1  0.91656542  0.83106070  0.68023851  1
  Cu+  Cu80  1  0.41988677  0.08605962  0.67417801  1
  Cu+  Cu81  1  0.41562011  0.58739518  0.67755640  1
  Cu+  Cu82  1  0.91685636  0.08591089  0.67229083  1
  Cu+  Cu83  1  0.91485126  0.58465345  0.68044879  1
  Cu+  Cu84  1  0.00199536  0.24893312  0.00572139  1
  Cu+  Cu85  1  -0.00069609  0.75081826  0.00776468  1
  Cu+  Cu86  1  0.50139407  0.24893814  0.01078386  1
  Cu+  Cu87  1  0.50043341  0.74872939  0.01581806  1
  Cu+  Cu88  1  0.24820390  0.49785987  0.00702038  1
  Cu+  Cu89  1  0.24689965  0.99853379  0.00709245  1
  Cu+  Cu90  1  0.75109542  0.49733165  0.01121165  1
  Cu+  Cu91  1  0.74780782  0.99596454  0.00867326  1
  Cu+  Cu92  1  0.25110387  0.25180077  0.00627528  1
  Cu+  Cu93  1  0.24568686  0.74993075  0.00649186  1
  Cu+  Cu94  1  0.75013845  0.25121107  0.01512282  1
  Cu+  Cu95  1  0.74541036  0.74607941  0.00925917  1
  Cu+  Cu96  1  0.33671290  0.41651684  0.34622122  1
  Cu+  Cu97  1  0.33713427  0.91547762  0.34523677  1
  Cu+  Cu98  1  0.83237886  0.41400892  0.34250239  1
  Cu+  Cu99  1  0.83773297  0.91566411  0.34065609  1
  Cu+  Cu100  1  0.07966910  0.16056870  0.34006753  1
  Cu+  Cu101  1  0.07965679  0.66280752  0.34148683  1
  Cu+  Cu102  1  0.58492653  0.16516571  0.34203805  1
  Cu+  Cu103  1  0.58602553  0.66578677  0.34360643  1
  Cu+  Cu104  1  0.07711489  0.41640482  0.34432791  1
  Cu+  Cu105  1  0.08013565  0.91507672  0.34002316  1
  Cu+  Cu106  1  0.58026243  0.41623457  0.34776522  1
  Cu+  Cu107  1  0.58209715  0.91476181  0.34597540  1
  Cu+  Cu108  1  -0.00005212  -0.00149993  0.11363115  1
  Cu+  Cu109  1  0.00275805  0.50134749  0.11528693  1
  Cu+  Cu110  1  0.49586072  -0.00243215  0.11519576  1
  Cu+  Cu111  1  0.49809064  0.49626759  0.11859890  1
  Cu+  Cu112  1  0.32984858  0.16309897  0.44437832  1
  Cu+  Cu113  1  0.33173128  0.66437810  0.44316542  1
  Cu+  Cu114  1  0.83505636  0.16254674  0.44725089  1
  Cu+  Cu115  1  0.83537086  0.66581892  0.45124248  1
  Cu+  Cu116  1  0.16834192  0.33378904  0.77515889  1
  Cu+  Cu117  1  0.17059249  0.83271813  0.77621236  1
  Cu+  Cu118  1  0.66076746  0.33128931  0.78369731  1
  Cu+  Cu119  1  0.66866770  0.83697333  0.78157756  1
  Te2-  Te120  1  0.00059618  -0.00180262  0.38762752  1
  Te2-  Te121  1  -0.00457734  0.50051559  0.38969658  1
  Te2-  Te122  1  0.50320118  0.00236181  0.39059165  1
  Te2-  Te123  1  0.50184491  0.50354030  0.39325999  1
  Te2-  Te124  1  0.34070760  0.17141702  0.71921778  1
  Te2-  Te125  1  0.33176578  0.67095639  0.71872750  1
  Te2-  Te126  1  0.83260744  0.16360317  0.72157574  1
  Te2-  Te127  1  0.82993868  0.66542067  0.72635610  1
  Te2-  Te128  1  0.16674764  0.33250638  0.05011297  1
  Te2-  Te129  1  0.16463070  0.83347611  0.05074114  1
  Te2-  Te130  1  0.66511459  0.33338761  0.05738614  1
  Te2-  Te131  1  0.66842760  0.83274469  0.05630016  1
  Te2-  Te132  1  0.49729479  0.24700196  0.88491934  1
  Te2-  Te133  1  0.48679170  0.74547025  0.88802044  1
  Te2-  Te134  1  0.99344471  0.23940295  0.87956491  1
  Te2-  Te135  1  0.98725475  0.74475016  0.88118242  1
  Te2-  Te136  1  0.25360259  0.00761937  0.88098438  1
  Te2-  Te137  1  0.24678052  0.50649421  0.88064490  1
  Te2-  Te138  1  0.74987226  0.00037818  0.88253067  1
  Te2-  Te139  1  0.75087083  0.50356370  0.88491027  1
  Te2-  Te140  1  0.25952375  0.25199566  0.87968924  1
  Te2-  Te141  1  0.24703621  0.74655641  0.88032167  1
  Te2-  Te142  1  0.75316124  0.24155079  0.88740304  1
  Te2-  Te143  1  0.74560087  0.74126112  0.88267680  1
  Te2-  Te144  1  0.33098638  0.41715589  0.21890748  1
  Te2-  Te145  1  0.33049488  0.91122136  0.21814204  1
  Te2-  Te146  1  0.82320825  0.41450703  0.21694296  1
  Te2-  Te147  1  0.82752179  0.91280967  0.21521222  1
  Te2-  Te148  1  0.08518179  0.17121349  0.21470503  1
  Te2-  Te149  1  0.08519408  0.66970194  0.21602326  1
  Te2-  Te150  1  0.58301339  0.17169183  0.21675352  1
  Te2-  Te151  1  0.59308542  0.67438831  0.21815499  1
  Te2-  Te152  1  0.08168547  0.41072575  0.21731132  1
  Te2-  Te153  1  0.08540289  0.91187845  0.21442413  1
  Te2-  Te154  1  0.58548857  0.41304446  0.22081631  1
  Te2-  Te155  1  0.59274729  0.91663477  0.21845862  1
  Te2-  Te156  1  0.16626822  0.08565163  0.54742263  1
  Te2-  Te157  1  0.16219601  0.58705390  0.54632531  1
  Te2-  Te158  1  0.66058177  0.08417984  0.55035920  1
  Te2-  Te159  1  0.66129246  0.58485022  0.55212045  1
  Te2-  Te160  1  0.42487561  0.34824615  0.54967213  1
  Te2-  Te161  1  0.42407343  0.84708939  0.54957093  1
  Te2-  Te162  1  0.91986375  0.34575414  0.55218541  1
  Te2-  Te163  1  0.92101557  0.84026778  0.55344279  1
  Te2-  Te164  1  0.42600604  0.08720958  0.54809142  1
  Te2-  Te165  1  0.42229520  0.58542688  0.54946854  1
  Te2-  Te166  1  0.91919586  0.08554944  0.54610701  1
  Te2-  Te167  1  0.91824898  0.58074811  0.55307751  1
  Te2-  Te168  1  0.00000914  -0.00039314  0.88052588  1
  Te2-  Te169  1  0.00129938  0.49934818  0.88168746  1
  Te2-  Te170  1  0.49719624  -0.00248721  0.88392926  1
  Te2-  Te171  1  0.49841892  0.49885689  0.88391583  1
  Te2-  Te172  1  0.33056437  0.16353765  0.21704292  1
  Te2-  Te173  1  0.33240738  0.66454065  0.21858326  1
  Te2-  Te174  1  0.83373198  0.16528351  0.21582882  1
  Te2-  Te175  1  0.83468389  0.66633861  0.21579338  1
  Te2-  Te176  1  0.16738153  0.33348419  0.54938370  1
  Te2-  Te177  1  0.16803637  0.83425898  0.54992404  1
  Te2-  Te178  1  0.66656655  0.33213165  0.54990854  1
  Te2-  Te179  1  0.66716190  0.83346007  0.55031112  1
  Te2-  Te180  1  0.32782521  0.41474493  0.70768689  1
  Te2-  Te181  1  0.32988065  0.91651003  0.70964012  1
  Te2-  Te182  1  0.82365283  0.41115349  0.71077792  1
  Te2-  Te183  1  0.82842738  0.91644934  0.70936463  1
  Te2-  Te184  1  0.08689729  0.17329251  0.70586931  1
  Te2-  Te185  1  0.08788569  0.67215254  0.70749790  1
  Te2-  Te186  1  0.58828060  0.17304653  0.71355334  1
  Te2-  Te187  1  0.58755097  0.67615391  0.71093792  1
  Te2-  Te188  1  0.08971438  0.41569667  0.70664420  1
  Te2-  Te189  1  0.09115718  0.91509429  0.70520261  1
  Te2-  Te190  1  0.58693792  0.41618625  0.71353086  1
  Te2-  Te191  1  0.58718225  0.91434741  0.71262272  1
  Te2-  Te192  1  0.16100055  0.08188221  0.04423309  1
  Te2-  Te193  1  0.16301781  0.58136944  0.04606257  1
  Te2-  Te194  1  0.65868338  0.07665347  0.04394076  1
  Te2-  Te195  1  0.65930220  0.57642689  0.04628515  1
  Te2-  Te196  1  0.41972537  0.33764922  0.04741216  1
  Te2-  Te197  1  0.41527118  0.83768814  0.04546239  1
  Te2-  Te198  1  0.92371868  0.33971257  0.04418117  1
  Te2-  Te199  1  0.91635827  0.83746294  0.04395794  1
  Te2-  Te200  1  0.41673525  0.07836302  0.04540641  1
  Te2-  Te201  1  0.41688980  0.57558862  0.04634693  1
  Te2-  Te202  1  0.91805195  0.07960984  0.04395810  1
  Te2-  Te203  1  0.92120335  0.58090425  0.04465419  1
  Te2-  Te204  1  0.49214485  0.24278429  0.37495896  1
  Te2-  Te205  1  0.49280369  0.74278020  0.37526953  1
  Te2-  Te206  1  0.99340036  0.24416649  0.37623523  1
  Te2-  Te207  1  0.99481146  0.74664072  0.38033007  1
  Te2-  Te208  1  0.25135137  0.00360408  0.37593978  1
  Te2-  Te209  1  0.25152523  0.50567679  0.37415610  1
  Te2-  Te210  1  0.75540218  0.00415703  0.37684688  1
  Te2-  Te211  1  0.75379707  0.50575372  0.37944213  1
  Te2-  Te212  1  0.24971751  0.24398384  0.37506970  1
  Te2-  Te213  1  0.25041075  0.74280837  0.37439326  1
  Te2-  Te214  1  0.75326299  0.24542072  0.37827485  1
  Te2-  Te215  1  0.75505022  0.74727228  0.38017737  1
