# generated using pymatgen
data_Ti(CuTe)4
_symmetry_space_group_name_H-M   'P 1'
_cell_length_a   16.87196953
_cell_length_b   16.87034187
_cell_length_c   20.68309618
_cell_angle_alpha   89.98944601
_cell_angle_beta   89.98594416
_cell_angle_gamma   120.00830903
_symmetry_Int_Tables_number   1
_chemical_formula_structural   Ti(CuTe)4
_chemical_formula_sum   'Ti24 Cu96 Te96'
_cell_volume   5097.99541538
_cell_formula_units_Z   24
loop_
 _symmetry_equiv_pos_site_id
 _symmetry_equiv_pos_as_xyz
  1  'x, y, z'
loop_
 _atom_type_symbol
 _atom_type_oxidation_number
  Ti4+  4.0
  Cu+  1.0
  Te2-  -2.0
loop_
 _atom_site_type_symbol
 _atom_site_label
 _atom_site_symmetry_multiplicity
 _atom_site_fract_x
 _atom_site_fract_y
 _atom_site_fract_z
 _atom_site_occupancy
  Ti4+  Ti0  1  0.00104013  0.00255814  0.25699232  1
  Ti4+  Ti1  1  -0.00113364  0.50391324  0.25749629  1
  Ti4+  Ti2  1  0.50032257  -0.00068896  0.26211443  1
  Ti4+  Ti3  1  0.49802010  0.49845522  0.25533736  1
  Ti4+  Ti4  1  0.33133222  0.16641327  0.58993054  1
  Ti4+  Ti5  1  0.33369174  0.66413387  0.59172827  1
  Ti4+  Ti6  1  0.83088931  0.16435294  0.59065377  1
  Ti4+  Ti7  1  0.83457022  0.66336209  0.58997774  1
  Ti4+  Ti8  1  0.16801280  0.33475034  0.92421950  1
  Ti4+  Ti9  1  0.16941402  0.83195273  0.92692461  1
  Ti4+  Ti10  1  0.66620897  0.33274252  0.92582464  1
  Ti4+  Ti11  1  0.67004567  0.83805927  0.92285694  1
  Ti4+  Ti12  1  -0.00253842  -0.00142053  0.75569456  1
  Ti4+  Ti13  1  0.00231702  0.49958994  0.75669187  1
  Ti4+  Ti14  1  0.50054199  -0.00037031  0.75563997  1
  Ti4+  Ti15  1  0.49962632  0.49803369  0.75566079  1
  Ti4+  Ti16  1  0.33154909  0.16850855  0.08951860  1
  Ti4+  Ti17  1  0.33437230  0.66826889  0.08929605  1
  Ti4+  Ti18  1  0.83343125  0.16670337  0.09223679  1
  Ti4+  Ti19  1  0.83369246  0.66403987  0.08685738  1
  Ti4+  Ti20  1  0.16646724  0.33219165  0.42307336  1
  Ti4+  Ti21  1  0.16487048  0.83276702  0.42230625  1
  Ti4+  Ti22  1  0.66724663  0.33430802  0.42085813  1
  Ti4+  Ti23  1  0.66454248  0.83352432  0.42105410  1
  Cu+  Cu24  1  0.68427187  0.09723544  0.81012531  1
  Cu+  Cu25  1  0.91329838  0.09944512  0.80826915  1
  Cu+  Cu26  1  0.19489349  0.59846887  0.80795018  1
  Cu+  Cu27  1  0.73760747  0.47461904  0.13969247  1
  Cu+  Cu28  1  0.35732397  0.42793853  0.47214636  1
  Cu+  Cu29  1  0.23492560  0.26473640  0.14028218  1
  Cu+  Cu30  1  0.85628309  0.42554812  0.47328190  1
  Cu+  Cu31  1  0.57052560  0.92088760  0.47929128  1
  Cu+  Cu32  1  0.57225677  0.15191165  0.47842495  1
  Cu+  Cu33  1  0.01597550  0.76199313  0.14121143  1
  Cu+  Cu34  1  0.07007064  0.14110592  0.47440646  1
  Cu+  Cu35  1  0.24801530  0.76545814  0.14435724  1
  Cu+  Cu36  1  0.16393199  0.08931078  0.16965851  1
  Cu+  Cu37  1  0.16563699  0.58811415  0.16992173  1
  Cu+  Cu38  1  0.66420394  0.08056326  0.17712348  1
  Cu+  Cu39  1  0.66357315  0.57610530  0.16760255  1
  Cu+  Cu40  1  0.41044712  0.33680475  0.16891162  1
  Cu+  Cu41  1  0.41947792  0.83714350  0.17452309  1
  Cu+  Cu42  1  0.91548419  0.33633164  0.17333305  1
  Cu+  Cu43  1  0.91995732  0.83748110  0.16908176  1
  Cu+  Cu44  1  0.41965756  0.08454482  0.17387450  1
  Cu+  Cu45  1  0.41879164  0.58167665  0.16934296  1
  Cu+  Cu46  1  0.91953866  0.08407947  0.17243411  1
  Cu+  Cu47  1  0.91669553  0.58125664  0.16795698  1
  Cu+  Cu48  1  0.49401063  0.24612448  0.50209837  1
  Cu+  Cu49  1  0.49468017  0.74742526  0.50292011  1
  Cu+  Cu50  1  0.99567485  0.24213061  0.50315550  1
  Cu+  Cu51  1  0.99529091  0.74569862  0.50345275  1
  Cu+  Cu52  1  0.24981024  0.00168359  0.50323569  1
  Cu+  Cu53  1  0.25515732  0.50116024  0.50531145  1
  Cu+  Cu54  1  0.74768887  0.00191782  0.50285995  1
  Cu+  Cu55  1  0.75872577  0.50448426  0.50141767  1
  Cu+  Cu56  1  0.25007348  0.24811125  0.50278569  1
  Cu+  Cu57  1  0.24643497  0.74396368  0.50541026  1
  Cu+  Cu58  1  0.75063356  0.24864557  0.50207037  1
  Cu+  Cu59  1  0.74980200  0.74637107  0.50334986  1
  Cu+  Cu60  1  0.33032950  0.41210869  0.83818773  1
  Cu+  Cu61  1  0.33066402  0.91329779  0.83929809  1
  Cu+  Cu62  1  0.82976164  0.41560233  0.83911671  1
  Cu+  Cu63  1  0.83018875  0.92121932  0.83489720  1
  Cu+  Cu64  1  0.08415081  0.16954510  0.83913145  1
  Cu+  Cu65  1  0.09128170  0.66843480  0.84057792  1
  Cu+  Cu66  1  0.58617503  0.17057120  0.83882363  1
  Cu+  Cu67  1  0.58567750  0.66990553  0.83757365  1
  Cu+  Cu68  1  0.09105147  0.42125750  0.83627758  1
  Cu+  Cu69  1  0.08457661  0.91374441  0.84070680  1
  Cu+  Cu70  1  0.58536710  0.41551152  0.83958743  1
  Cu+  Cu71  1  0.59105318  0.92031838  0.83530608  1
  Cu+  Cu72  1  0.16616222  0.08217366  0.67487250  1
  Cu+  Cu73  1  0.17165975  0.58337698  0.67929959  1
  Cu+  Cu74  1  0.66567937  0.08344152  0.68154848  1
  Cu+  Cu75  1  0.67111010  0.58193106  0.67189737  1
  Cu+  Cu76  1  0.41526007  0.32988588  0.67386959  1
  Cu+  Cu77  1  0.41451557  0.83108869  0.67592722  1
  Cu+  Cu78  1  0.91519844  0.33244290  0.67509919  1
  Cu+  Cu79  1  0.91490939  0.82738174  0.67354213  1
  Cu+  Cu80  1  0.41304420  0.08242118  0.67618694  1
  Cu+  Cu81  1  0.41545843  0.58050115  0.67539866  1
  Cu+  Cu82  1  0.91329347  0.08184539  0.67964848  1
  Cu+  Cu83  1  0.91704389  0.58249186  0.67504424  1
  Cu+  Cu84  1  0.00048520  0.25140853  0.00865122  1
  Cu+  Cu85  1  0.00456037  0.74864430  0.01230346  1
  Cu+  Cu86  1  0.50040175  0.25049162  0.00868926  1
  Cu+  Cu87  1  0.50560019  0.75390473  0.00595519  1
  Cu+  Cu88  1  0.25199329  0.50082657  0.00773715  1
  Cu+  Cu89  1  0.25030710  0.99929584  0.00950537  1
  Cu+  Cu90  1  0.74631510  0.49367006  0.01181740  1
  Cu+  Cu91  1  0.75049166  0.99981300  0.01095520  1
  Cu+  Cu92  1  0.24602251  0.25196231  0.01186950  1
  Cu+  Cu93  1  0.25153232  0.75206104  0.01557691  1
  Cu+  Cu94  1  0.74718644  0.24787342  0.01059154  1
  Cu+  Cu95  1  0.74996824  0.75294925  0.00413015  1
  Cu+  Cu96  1  0.33537584  0.41920271  0.34475778  1
  Cu+  Cu97  1  0.33348604  0.91514588  0.34484424  1
  Cu+  Cu98  1  0.83606465  0.42192586  0.34607181  1
  Cu+  Cu99  1  0.83498117  0.91853349  0.33942553  1
  Cu+  Cu100  1  0.08086550  0.16470025  0.34652604  1
  Cu+  Cu101  1  0.08071544  0.66779121  0.34266945  1
  Cu+  Cu102  1  0.58193623  0.16349709  0.34832434  1
  Cu+  Cu103  1  0.58136808  0.66396132  0.33735237  1
  Cu+  Cu104  1  0.08129733  0.41966436  0.34057494  1
  Cu+  Cu105  1  0.08294597  0.91892067  0.34006896  1
  Cu+  Cu106  1  0.58107770  0.41686398  0.33828565  1
  Cu+  Cu107  1  0.58082550  0.91752986  0.34890098  1
  Cu+  Cu108  1  -0.00240280  -0.00148895  0.11255243  1
  Cu+  Cu109  1  0.00293428  0.49666160  0.11411460  1
  Cu+  Cu110  1  0.50202641  0.00303740  0.11956990  1
  Cu+  Cu111  1  0.50224506  0.50289461  0.11058268  1
  Cu+  Cu112  1  0.33126917  0.16528867  0.44464409  1
  Cu+  Cu113  1  0.32979214  0.66507713  0.44797510  1
  Cu+  Cu114  1  0.83454291  0.16765937  0.44543274  1
  Cu+  Cu115  1  0.83194614  0.67072748  0.44548910  1
  Cu+  Cu116  1  0.16685895  0.33200885  0.78010554  1
  Cu+  Cu117  1  0.16386885  0.83309600  0.78449809  1
  Cu+  Cu118  1  0.66586746  0.33496896  0.78243608  1
  Cu+  Cu119  1  0.66436562  0.82767165  0.77840286  1
  Te2-  Te120  1  -0.00205885  -0.00243476  0.38742004  1
  Te2-  Te121  1  0.00251266  0.50357694  0.38787214  1
  Te2-  Te122  1  0.49639444  -0.00170283  0.39440305  1
  Te2-  Te123  1  0.50241604  0.50125483  0.38585231  1
  Te2-  Te124  1  0.33093935  0.16555070  0.71877142  1
  Te2-  Te125  1  0.33839767  0.66722400  0.72213199  1
  Te2-  Te126  1  0.83320720  0.16858697  0.72227388  1
  Te2-  Te127  1  0.83398060  0.66383066  0.71925068  1
  Te2-  Te128  1  0.16462669  0.33726412  0.05457088  1
  Te2-  Te129  1  0.16951126  0.83645040  0.05917633  1
  Te2-  Te130  1  0.66333859  0.32802750  0.05652289  1
  Te2-  Te131  1  0.66897650  0.83422192  0.05204779  1
  Te2-  Te132  1  0.49528267  0.24706069  0.88295052  1
  Te2-  Te133  1  0.49929115  0.75259359  0.88007555  1
  Te2-  Te134  1  0.99547981  0.25311239  0.88245714  1
  Te2-  Te135  1  0.99913117  0.74515942  0.88474763  1
  Te2-  Te136  1  0.25300163  0.00276083  0.88395571  1
  Te2-  Te137  1  0.25927661  0.50840431  0.88214490  1
  Te2-  Te138  1  0.75841005  0.01582904  0.88419199  1
  Te2-  Te139  1  0.75259788  0.50460894  0.88470643  1
  Te2-  Te140  1  0.25074559  0.24605659  0.88465441  1
  Te2-  Te141  1  0.26021481  0.74871451  0.88781565  1
  Te2-  Te142  1  0.75637572  0.24918843  0.88481816  1
  Te2-  Te143  1  0.75508938  0.75282711  0.87862302  1
  Te2-  Te144  1  0.32310834  0.41675337  0.21745672  1
  Te2-  Te145  1  0.32823392  0.91717782  0.21915099  1
  Te2-  Te146  1  0.82510615  0.41352604  0.21844616  1
  Te2-  Te147  1  0.83063474  0.91529174  0.21373179  1
  Te2-  Te148  1  0.08513963  0.17739513  0.21893801  1
  Te2-  Te149  1  0.08691048  0.67905593  0.21629423  1
  Te2-  Te150  1  0.58574364  0.17034565  0.22076373  1
  Te2-  Te151  1  0.58712341  0.66850600  0.21173374  1
  Te2-  Te152  1  0.08485136  0.41980262  0.21480892  1
  Te2-  Te153  1  0.09087073  0.92018728  0.21419483  1
  Te2-  Te154  1  0.57951026  0.40696735  0.21279300  1
  Te2-  Te155  1  0.58511362  0.91298557  0.22157616  1
  Te2-  Te156  1  0.15809151  0.07713206  0.54863693  1
  Te2-  Te157  1  0.16297734  0.57695056  0.55160526  1
  Te2-  Te158  1  0.65609225  0.07907873  0.55262629  1
  Te2-  Te159  1  0.66380007  0.57745679  0.54604466  1
  Te2-  Te160  1  0.42102488  0.33953609  0.54781468  1
  Te2-  Te161  1  0.41445693  0.83715301  0.55007094  1
  Te2-  Te162  1  0.92086274  0.33626706  0.54880296  1
  Te2-  Te163  1  0.91751782  0.83510477  0.54773776  1
  Te2-  Te164  1  0.41597399  0.07707691  0.55014939  1
  Te2-  Te165  1  0.42422888  0.58119277  0.54948670  1
  Te2-  Te166  1  0.91406501  0.07438803  0.55155823  1
  Te2-  Te167  1  0.92562649  0.57942804  0.54915935  1
  Te2-  Te168  1  -0.00067613  -0.00112489  0.88279913  1
  Te2-  Te169  1  -0.00027244  0.49826805  0.88359243  1
  Te2-  Te170  1  0.50142956  0.00020484  0.88262145  1
  Te2-  Te171  1  0.50074673  0.50078960  0.88172512  1
  Te2-  Te172  1  0.33294196  0.16807589  0.21653922  1
  Te2-  Te173  1  0.33410077  0.66592823  0.21650871  1
  Te2-  Te174  1  0.83438320  0.16756029  0.21847256  1
  Te2-  Te175  1  0.83243132  0.66759727  0.21450421  1
  Te2-  Te176  1  0.16453545  0.33114729  0.55054828  1
  Te2-  Te177  1  0.16443837  0.83183762  0.54839357  1
  Te2-  Te178  1  0.66547908  0.33382173  0.54830766  1
  Te2-  Te179  1  0.66527919  0.83096449  0.54828769  1
  Te2-  Te180  1  0.32682347  0.41091915  0.71141675  1
  Te2-  Te181  1  0.32695194  0.91274277  0.71331048  1
  Te2-  Te182  1  0.82864037  0.41384107  0.71301586  1
  Te2-  Te183  1  0.82532877  0.90881412  0.70841311  1
  Te2-  Te184  1  0.08597510  0.17181719  0.71087535  1
  Te2-  Te185  1  0.08746402  0.67206682  0.71254546  1
  Te2-  Te186  1  0.58329969  0.17359599  0.71130026  1
  Te2-  Te187  1  0.58701852  0.66869277  0.70959965  1
  Te2-  Te188  1  0.08538414  0.41036290  0.70955214  1
  Te2-  Te189  1  0.08404020  0.91271195  0.71306065  1
  Te2-  Te190  1  0.58572317  0.41257127  0.71154874  1
  Te2-  Te191  1  0.58507448  0.91059891  0.70891195  1
  Te2-  Te192  1  0.15913799  0.07913372  0.04295293  1
  Te2-  Te193  1  0.16092438  0.57907168  0.04317257  1
  Te2-  Te194  1  0.66071936  0.07927623  0.04941024  1
  Te2-  Te195  1  0.66191235  0.58270553  0.04029800  1
  Te2-  Te196  1  0.41937744  0.34040890  0.04226461  1
  Te2-  Te197  1  0.42481734  0.84203789  0.04664846  1
  Te2-  Te198  1  0.91748958  0.33798294  0.04628639  1
  Te2-  Te199  1  0.91940187  0.83737660  0.04150511  1
  Te2-  Te200  1  0.41898075  0.08179597  0.04756474  1
  Te2-  Te201  1  0.42152352  0.58390893  0.04317292  1
  Te2-  Te202  1  0.92074720  0.08227648  0.04593859  1
  Te2-  Te203  1  0.91985378  0.57570550  0.04151058  1
  Te2-  Te204  1  0.49317366  0.24797136  0.37565705  1
  Te2-  Te205  1  0.49131212  0.74310553  0.37594966  1
  Te2-  Te206  1  0.99376888  0.25009389  0.37643377  1
  Te2-  Te207  1  0.99242025  0.74909125  0.37693668  1
  Te2-  Te208  1  0.25242874  0.00539605  0.37734064  1
  Te2-  Te209  1  0.25015739  0.50550991  0.37808159  1
  Te2-  Te210  1  0.75463084  0.00744703  0.37641109  1
  Te2-  Te211  1  0.74996864  0.50780406  0.37504658  1
  Te2-  Te212  1  0.25366323  0.24664802  0.37520084  1
  Te2-  Te213  1  0.25056479  0.74505999  0.37860889  1
  Te2-  Te214  1  0.75542514  0.24822994  0.37491259  1
  Te2-  Te215  1  0.75073425  0.74850069  0.37575423  1
