# generated using pymatgen
data_Ti(CuTe)4
_symmetry_space_group_name_H-M   'P 1'
_cell_length_a   16.86592676
_cell_length_b   16.86888724
_cell_length_c   20.68167744
_cell_angle_alpha   90.03963460
_cell_angle_beta   90.00001164
_cell_angle_gamma   119.99065148
_symmetry_Int_Tables_number   1
_chemical_formula_structural   Ti(CuTe)4
_chemical_formula_sum   'Ti24 Cu96 Te96'
_cell_volume   5096.28611831
_cell_formula_units_Z   24
loop_
 _symmetry_equiv_pos_site_id
 _symmetry_equiv_pos_as_xyz
  1  'x, y, z'
loop_
 _atom_type_symbol
 _atom_type_oxidation_number
  Ti4+  4.0
  Cu+  1.0
  Te2-  -2.0
loop_
 _atom_site_type_symbol
 _atom_site_label
 _atom_site_symmetry_multiplicity
 _atom_site_fract_x
 _atom_site_fract_y
 _atom_site_fract_z
 _atom_site_occupancy
  Ti4+  Ti0  1  -0.00288727  -0.00131251  0.25913583  1
  Ti4+  Ti1  1  0.00012067  0.50087321  0.25955869  1
  Ti4+  Ti2  1  0.49541631  0.00050707  0.25880780  1
  Ti4+  Ti3  1  0.50066362  0.50350987  0.25863067  1
  Ti4+  Ti4  1  0.33456031  0.16480255  0.58993798  1
  Ti4+  Ti5  1  0.33579205  0.66802479  0.59220007  1
  Ti4+  Ti6  1  0.83641778  0.16384329  0.58960797  1
  Ti4+  Ti7  1  0.83326577  0.66335729  0.59037256  1
  Ti4+  Ti8  1  0.16649994  0.33190181  0.92261612  1
  Ti4+  Ti9  1  0.16602566  0.83546106  0.92486192  1
  Ti4+  Ti10  1  0.67071537  0.33514599  0.92232944  1
  Ti4+  Ti11  1  0.66134285  0.83063422  0.92601063  1
  Ti4+  Ti12  1  0.00417563  0.00091396  0.75717671  1
  Ti4+  Ti13  1  -0.00162544  0.49874417  0.75413822  1
  Ti4+  Ti14  1  0.50098943  -0.00145343  0.75436247  1
  Ti4+  Ti15  1  0.50036218  0.50158941  0.75454349  1
  Ti4+  Ti16  1  0.33323694  0.16470516  0.09039576  1
  Ti4+  Ti17  1  0.33218644  0.66709245  0.09025590  1
  Ti4+  Ti18  1  0.83466505  0.16812259  0.08950946  1
  Ti4+  Ti19  1  0.83183787  0.66951396  0.09005090  1
  Ti4+  Ti20  1  0.16553315  0.33221595  0.42233779  1
  Ti4+  Ti21  1  0.16698444  0.83457180  0.42367480  1
  Ti4+  Ti22  1  0.66752822  0.33531714  0.42111232  1
  Ti4+  Ti23  1  0.66552986  0.83336017  0.42238557  1
  Cu+  Cu24  1  0.40211988  0.81608534  0.80989711  1
  Cu+  Cu25  1  0.07807129  0.14568570  0.47447834  1
  Cu+  Cu26  1  0.40489502  0.58884695  0.81188582  1
  Cu+  Cu27  1  0.90522268  0.59512045  0.80729276  1
  Cu+  Cu28  1  0.73492844  0.76517688  0.14213244  1
  Cu+  Cu29  1  0.23389654  0.97344157  0.14236426  1
  Cu+  Cu30  1  0.57114984  0.64335170  0.47494177  1
  Cu+  Cu31  1  0.19690728  0.09819592  0.80578925  1
  Cu+  Cu32  1  0.84730617  0.91632577  0.47657466  1
  Cu+  Cu33  1  0.90353866  0.30817023  0.80368362  1
  Cu+  Cu34  1  0.07534270  0.64366982  0.47445497  1
  Cu+  Cu35  1  0.35609742  0.92640246  0.47533407  1
  Cu+  Cu36  1  0.16458061  0.07890240  0.17378480  1
  Cu+  Cu37  1  0.16316513  0.58346603  0.17375212  1
  Cu+  Cu38  1  0.66447385  0.08500389  0.17291813  1
  Cu+  Cu39  1  0.66370397  0.58983007  0.17200651  1
  Cu+  Cu40  1  0.41950533  0.33750354  0.17275444  1
  Cu+  Cu41  1  0.41409447  0.83752786  0.17295097  1
  Cu+  Cu42  1  0.91945451  0.33783648  0.17253823  1
  Cu+  Cu43  1  0.90996245  0.83691664  0.17122172  1
  Cu+  Cu44  1  0.41121066  0.07634611  0.17160855  1
  Cu+  Cu45  1  0.41778631  0.58279005  0.17240283  1
  Cu+  Cu46  1  0.91825703  0.08363904  0.17256344  1
  Cu+  Cu47  1  0.91986756  0.58371662  0.17354886  1
  Cu+  Cu48  1  0.49918311  0.24886416  0.50276362  1
  Cu+  Cu49  1  0.49696006  0.74512186  0.50436484  1
  Cu+  Cu50  1  0.99841709  0.24278408  0.50285375  1
  Cu+  Cu51  1  0.99809251  0.74261545  0.50379596  1
  Cu+  Cu52  1  0.25754434  0.00492313  0.50266158  1
  Cu+  Cu53  1  0.25580661  0.50334062  0.50447665  1
  Cu+  Cu54  1  0.75767049  0.00378151  0.50131616  1
  Cu+  Cu55  1  0.75497683  0.50321215  0.50277693  1
  Cu+  Cu56  1  0.24847392  0.24534822  0.50418700  1
  Cu+  Cu57  1  0.25245197  0.75161437  0.50557146  1
  Cu+  Cu58  1  0.75289394  0.24925226  0.50412261  1
  Cu+  Cu59  1  0.74772115  0.74434209  0.50370230  1
  Cu+  Cu60  1  0.32911373  0.41625229  0.83525228  1
  Cu+  Cu61  1  0.33001185  0.91554768  0.83751819  1
  Cu+  Cu62  1  0.83099693  0.41519289  0.83388521  1
  Cu+  Cu63  1  0.83033533  0.91313507  0.84139543  1
  Cu+  Cu64  1  0.09122453  0.16896222  0.83632134  1
  Cu+  Cu65  1  0.07898403  0.67003705  0.83607891  1
  Cu+  Cu66  1  0.58800471  0.17127275  0.83516014  1
  Cu+  Cu67  1  0.58104990  0.67044323  0.83779722  1
  Cu+  Cu68  1  0.07883395  0.40905173  0.83425937  1
  Cu+  Cu69  1  0.09115366  0.92250040  0.83811458  1
  Cu+  Cu70  1  0.58716153  0.41567337  0.83618250  1
  Cu+  Cu71  1  0.57945687  0.91006991  0.83634994  1
  Cu+  Cu72  1  0.17272207  0.08432013  0.67839306  1
  Cu+  Cu73  1  0.16836149  0.58518236  0.67458762  1
  Cu+  Cu74  1  0.67071526  0.08298377  0.67184503  1
  Cu+  Cu75  1  0.66824436  0.58435207  0.67430788  1
  Cu+  Cu76  1  0.41623139  0.33125888  0.67245209  1
  Cu+  Cu77  1  0.41708074  0.83149086  0.68030574  1
  Cu+  Cu78  1  0.91618962  0.32722901  0.67541406  1
  Cu+  Cu79  1  0.91745333  0.83062609  0.67528533  1
  Cu+  Cu80  1  0.41841559  0.08280118  0.67376960  1
  Cu+  Cu81  1  0.41900938  0.58734268  0.68221413  1
  Cu+  Cu82  1  0.91836928  0.08123959  0.67691598  1
  Cu+  Cu83  1  0.91621172  0.58394843  0.67918780  1
  Cu+  Cu84  1  0.00158367  0.24959326  0.00662607  1
  Cu+  Cu85  1  -0.00086872  0.75294113  0.00916506  1
  Cu+  Cu86  1  0.50556826  0.25185411  0.00639089  1
  Cu+  Cu87  1  0.49690148  0.74930661  0.01242863  1
  Cu+  Cu88  1  0.24793683  0.49762394  0.00808567  1
  Cu+  Cu89  1  0.24926698  0.99789498  0.01437520  1
  Cu+  Cu90  1  0.75200181  0.50002189  0.00768514  1
  Cu+  Cu91  1  0.74920984  0.99890358  0.00825330  1
  Cu+  Cu92  1  0.25096360  0.25149880  0.00860060  1
  Cu+  Cu93  1  0.24827379  0.75065878  0.00945641  1
  Cu+  Cu94  1  0.75318708  0.25395174  0.00703148  1
  Cu+  Cu95  1  0.74477859  0.75196665  0.01343505  1
  Cu+  Cu96  1  0.33527297  0.41925030  0.34093219  1
  Cu+  Cu97  1  0.33463915  0.92174185  0.34768581  1
  Cu+  Cu98  1  0.83598398  0.41928290  0.34032861  1
  Cu+  Cu99  1  0.83307594  0.91910543  0.34767631  1
  Cu+  Cu100  1  0.07970596  0.16232528  0.34566597  1
  Cu+  Cu101  1  0.08033213  0.66199499  0.34636569  1
  Cu+  Cu102  1  0.57995856  0.16557876  0.34010768  1
  Cu+  Cu103  1  0.57944391  0.66496011  0.34699104  1
  Cu+  Cu104  1  0.08290971  0.41965929  0.34239105  1
  Cu+  Cu105  1  0.08089884  0.91614332  0.34178040  1
  Cu+  Cu106  1  0.58437335  0.42273730  0.34060783  1
  Cu+  Cu107  1  0.57876912  0.91885441  0.34121060  1
  Cu+  Cu108  1  0.00217738  0.00389599  0.11607471  1
  Cu+  Cu109  1  0.00038525  0.50011775  0.11676834  1
  Cu+  Cu110  1  0.50480328  0.00265009  0.11606416  1
  Cu+  Cu111  1  0.49855064  0.49664384  0.11531757  1
  Cu+  Cu112  1  0.33762906  0.17379807  0.44584223  1
  Cu+  Cu113  1  0.33080755  0.66624180  0.44841582  1
  Cu+  Cu114  1  0.83254855  0.17101441  0.44613248  1
  Cu+  Cu115  1  0.83387384  0.66794555  0.44599568  1
  Cu+  Cu116  1  0.16633280  0.33322867  0.77679521  1
  Cu+  Cu117  1  0.16636106  0.83277781  0.78033573  1
  Cu+  Cu118  1  0.66394642  0.33175238  0.77657507  1
  Cu+  Cu119  1  0.67310644  0.83812445  0.78263177  1
  Te2-  Te120  1  -0.00094174  -0.00330373  0.39122161  1
  Te2-  Te121  1  -0.00245091  0.49652403  0.39056937  1
  Te2-  Te122  1  0.50132340  0.00350180  0.38947351  1
  Te2-  Te123  1  0.49783657  0.49852167  0.38939007  1
  Te2-  Te124  1  0.34000903  0.16822572  0.72025228  1
  Te2-  Te125  1  0.33076289  0.66563703  0.72414677  1
  Te2-  Te126  1  0.83352575  0.16149411  0.71989932  1
  Te2-  Te127  1  0.83214990  0.66675521  0.72059837  1
  Te2-  Te128  1  0.16637845  0.33226776  0.05124098  1
  Te2-  Te129  1  0.16343153  0.83047224  0.05501490  1
  Te2-  Te130  1  0.66981807  0.33520770  0.05127887  1
  Te2-  Te131  1  0.66205372  0.83580253  0.05625816  1
  Te2-  Te132  1  0.49879087  0.24866667  0.88059552  1
  Te2-  Te133  1  0.48463602  0.74299213  0.88564846  1
  Te2-  Te134  1  0.99352232  0.24079660  0.88027371  1
  Te2-  Te135  1  0.99338126  0.75323076  0.88269698  1
  Te2-  Te136  1  0.25859583  0.00940783  0.88621624  1
  Te2-  Te137  1  0.24663928  0.50472454  0.88155087  1
  Te2-  Te138  1  0.74754262  0.00054859  0.88197014  1
  Te2-  Te139  1  0.75425441  0.50880330  0.88143568  1
  Te2-  Te140  1  0.25931951  0.25047652  0.88248845  1
  Te2-  Te141  1  0.24672372  0.74384769  0.88305766  1
  Te2-  Te142  1  0.75478074  0.24541889  0.88095384  1
  Te2-  Te143  1  0.74724198  0.74507151  0.88585314  1
  Te2-  Te144  1  0.32928466  0.41531103  0.21558867  1
  Te2-  Te145  1  0.32038660  0.90941124  0.22024554  1
  Te2-  Te146  1  0.82900813  0.41554867  0.21499291  1
  Te2-  Te147  1  0.82343083  0.91760528  0.21992381  1
  Te2-  Te148  1  0.08571208  0.16901172  0.21818389  1
  Te2-  Te149  1  0.08613862  0.67325775  0.21938136  1
  Te2-  Te150  1  0.58056014  0.17045085  0.21437046  1
  Te2-  Te151  1  0.58348474  0.67798762  0.21943155  1
  Te2-  Te152  1  0.08662429  0.41565995  0.21683000  1
  Te2-  Te153  1  0.07839507  0.90770539  0.21618515  1
  Te2-  Te154  1  0.58836959  0.42070503  0.21475231  1
  Te2-  Te155  1  0.58225578  0.91629627  0.21565603  1
  Te2-  Te156  1  0.16099429  0.07455854  0.55084756  1
  Te2-  Te157  1  0.16398181  0.57969515  0.54899165  1
  Te2-  Te158  1  0.66589291  0.07959632  0.54623159  1
  Te2-  Te159  1  0.65999295  0.57566191  0.54854850  1
  Te2-  Te160  1  0.41721391  0.33496659  0.54659578  1
  Te2-  Te161  1  0.42397148  0.84006175  0.55188555  1
  Te2-  Te162  1  0.92181822  0.33447830  0.54802651  1
  Te2-  Te163  1  0.92164163  0.83525906  0.54893833  1
  Te2-  Te164  1  0.42578947  0.08217031  0.54834030  1
  Te2-  Te165  1  0.42039435  0.57859399  0.55410572  1
  Te2-  Te166  1  0.92419663  0.07444937  0.55052640  1
  Te2-  Te167  1  0.91981935  0.57547240  0.55166519  1
  Te2-  Te168  1  -0.00019751  0.00046673  0.88411833  1
  Te2-  Te169  1  0.00024344  0.50024148  0.88154024  1
  Te2-  Te170  1  0.50128885  0.00190213  0.88137359  1
  Te2-  Te171  1  0.49964897  0.49885933  0.88141392  1
  Te2-  Te172  1  0.33440400  0.16887381  0.21738703  1
  Te2-  Te173  1  0.33253640  0.66755393  0.21660263  1
  Te2-  Te174  1  0.83350081  0.16896539  0.21614991  1
  Te2-  Te175  1  0.83319800  0.66748682  0.21690694  1
  Te2-  Te176  1  0.16786317  0.33362902  0.54955714  1
  Te2-  Te177  1  0.16717687  0.83561660  0.55121032  1
  Te2-  Te178  1  0.66822247  0.33337068  0.54774390  1
  Te2-  Te179  1  0.66813562  0.83468843  0.55004231  1
  Te2-  Te180  1  0.32750531  0.41254561  0.70814500  1
  Te2-  Te181  1  0.32669513  0.91392780  0.71009656  1
  Te2-  Te182  1  0.82568438  0.40992463  0.70640549  1
  Te2-  Te183  1  0.83106587  0.91256473  0.71363018  1
  Te2-  Te184  1  0.08877836  0.17304008  0.70947423  1
  Te2-  Te185  1  0.08801785  0.67358451  0.70945901  1
  Te2-  Te186  1  0.58855934  0.17042525  0.70883706  1
  Te2-  Te187  1  0.59135764  0.67638383  0.71114777  1
  Te2-  Te188  1  0.08792409  0.41495034  0.70779810  1
  Te2-  Te189  1  0.08734939  0.91186765  0.71087936  1
  Te2-  Te190  1  0.58573301  0.41454143  0.70974633  1
  Te2-  Te191  1  0.59000196  0.91388843  0.70950944  1
  Te2-  Te192  1  0.16051670  0.08196977  0.04558101  1
  Te2-  Te193  1  0.16043697  0.58046590  0.04608315  1
  Te2-  Te194  1  0.66336656  0.08354319  0.04487064  1
  Te2-  Te195  1  0.65994960  0.57891759  0.04442676  1
  Te2-  Te196  1  0.42064435  0.33641471  0.04550838  1
  Te2-  Te197  1  0.41734590  0.84039721  0.04644869  1
  Te2-  Te198  1  0.92221808  0.33989218  0.04508202  1
  Te2-  Te199  1  0.91825702  0.84232389  0.04430369  1
  Te2-  Te200  1  0.42281997  0.08209247  0.04437946  1
  Te2-  Te201  1  0.41734341  0.57906105  0.04621176  1
  Te2-  Te202  1  0.91900671  0.08023281  0.04536581  1
  Te2-  Te203  1  0.92000215  0.58410150  0.04684582  1
  Te2-  Te204  1  0.49571119  0.25130275  0.37599735  1
  Te2-  Te205  1  0.49182508  0.74968011  0.37806389  1
  Te2-  Te206  1  0.99289221  0.24823805  0.37611216  1
  Te2-  Te207  1  0.99354530  0.74727652  0.37749982  1
  Te2-  Te208  1  0.24968782  0.00858288  0.37714788  1
  Te2-  Te209  1  0.25264506  0.50541959  0.37879469  1
  Te2-  Te210  1  0.74891379  0.00715857  0.37591599  1
  Te2-  Te211  1  0.75448164  0.50781976  0.37678950  1
  Te2-  Te212  1  0.25338568  0.24831694  0.37586751  1
  Te2-  Te213  1  0.25322477  0.74785052  0.37749726  1
  Te2-  Te214  1  0.75138758  0.24821466  0.37602888  1
  Te2-  Te215  1  0.75262923  0.74627589  0.37564891  1
