# generated using pymatgen
data_Ti(CuTe)4
_symmetry_space_group_name_H-M   'P 1'
_cell_length_a   16.89799188
_cell_length_b   16.89798584
_cell_length_c   20.72131218
_cell_angle_alpha   89.95005510
_cell_angle_beta   90.04612929
_cell_angle_gamma   120.02436429
_symmetry_Int_Tables_number   1
_chemical_formula_structural   Ti(CuTe)4
_chemical_formula_sum   'Ti24 Cu96 Te96'
_cell_volume   5122.84296858
_cell_formula_units_Z   24
loop_
 _symmetry_equiv_pos_site_id
 _symmetry_equiv_pos_as_xyz
  1  'x, y, z'
loop_
 _atom_type_symbol
 _atom_type_oxidation_number
  Ti4+  4.0
  Cu+  1.0
  Te2-  -2.0
loop_
 _atom_site_type_symbol
 _atom_site_label
 _atom_site_symmetry_multiplicity
 _atom_site_fract_x
 _atom_site_fract_y
 _atom_site_fract_z
 _atom_site_occupancy
  Ti4+  Ti0  1  -0.00217270  0.00093322  0.25394402  1
  Ti4+  Ti1  1  0.00355543  0.50544201  0.25943997  1
  Ti4+  Ti2  1  0.50249718  0.00038464  0.26001383  1
  Ti4+  Ti3  1  0.49881659  0.49725868  0.25493407  1
  Ti4+  Ti4  1  0.33377917  0.16488363  0.58996868  1
  Ti4+  Ti5  1  0.33553180  0.66914916  0.59299335  1
  Ti4+  Ti6  1  0.83433971  0.16702862  0.59137339  1
  Ti4+  Ti7  1  0.83602380  0.66550313  0.59121700  1
  Ti4+  Ti8  1  0.16341828  0.33211024  0.92233936  1
  Ti4+  Ti9  1  0.16494919  0.83140610  0.92752438  1
  Ti4+  Ti10  1  0.66602641  0.33462168  0.92483118  1
  Ti4+  Ti11  1  0.66226023  0.83247837  0.92271840  1
  Ti4+  Ti12  1  -0.00062108  0.00042722  0.75565877  1
  Ti4+  Ti13  1  0.00070519  0.50126276  0.75621646  1
  Ti4+  Ti14  1  0.50057264  -0.00145187  0.75734808  1
  Ti4+  Ti15  1  0.50013734  0.49851608  0.75369685  1
  Ti4+  Ti16  1  0.33352018  0.16857257  0.08720250  1
  Ti4+  Ti17  1  0.33141343  0.66611426  0.09038660  1
  Ti4+  Ti18  1  0.83107420  0.16389783  0.08911419  1
  Ti4+  Ti19  1  0.83355763  0.66697888  0.08699316  1
  Ti4+  Ti20  1  0.16789692  0.33314186  0.42193240  1
  Ti4+  Ti21  1  0.16723779  0.83347861  0.42196402  1
  Ti4+  Ti22  1  0.66804983  0.33366851  0.42110730  1
  Ti4+  Ti23  1  0.66760510  0.83379870  0.42347971  1
  Cu+  Cu24  1  0.23963226  0.26370286  0.13608819  1
  Cu+  Cu25  1  0.24616696  0.76334776  0.14681359  1
  Cu+  Cu26  1  0.57969987  0.92869649  0.47992044  1
  Cu+  Cu27  1  0.52167522  0.26004798  0.14069720  1
  Cu+  Cu28  1  0.40368497  0.58641328  0.80853285  1
  Cu+  Cu29  1  0.01535329  0.76071857  0.14536889  1
  Cu+  Cu30  1  0.34852115  0.92588669  0.47890577  1
  Cu+  Cu31  1  0.40216025  0.81467134  0.81253862  1
  Cu+  Cu32  1  0.07615902  0.64743347  0.47809620  1
  Cu+  Cu33  1  0.73537835  0.97272542  0.13842420  1
  Cu+  Cu34  1  0.90480916  0.59463120  0.80896473  1
  Cu+  Cu35  1  0.90274276  0.09480838  0.80669622  1
  Cu+  Cu36  1  0.16330401  0.08909481  0.16677933  1
  Cu+  Cu37  1  0.16458647  0.58833410  0.17239840  1
  Cu+  Cu38  1  0.66505803  0.07552221  0.17150952  1
  Cu+  Cu39  1  0.66260926  0.58105791  0.16846650  1
  Cu+  Cu40  1  0.41807273  0.33657259  0.16712884  1
  Cu+  Cu41  1  0.41849138  0.83785755  0.17422326  1
  Cu+  Cu42  1  0.91908769  0.33601345  0.17351577  1
  Cu+  Cu43  1  0.91994586  0.83896627  0.16781187  1
  Cu+  Cu44  1  0.42232969  0.08605956  0.17106707  1
  Cu+  Cu45  1  0.41743636  0.57948615  0.17058663  1
  Cu+  Cu46  1  0.91104927  0.07547332  0.16779009  1
  Cu+  Cu47  1  0.92372111  0.58759498  0.17056198  1
  Cu+  Cu48  1  0.49863338  0.24714101  0.50287136  1
  Cu+  Cu49  1  0.49988911  0.75373367  0.50605934  1
  Cu+  Cu50  1  0.99953258  0.24803407  0.50523977  1
  Cu+  Cu51  1  0.99629114  0.74239537  0.50374932  1
  Cu+  Cu52  1  0.25548807  0.00586282  0.50374058  1
  Cu+  Cu53  1  0.25387359  0.50169285  0.50584006  1
  Cu+  Cu54  1  0.75219871  0.00468027  0.50628258  1
  Cu+  Cu55  1  0.75521777  0.50232278  0.50379246  1
  Cu+  Cu56  1  0.25051777  0.24557101  0.50409337  1
  Cu+  Cu57  1  0.25410849  0.74959243  0.50406963  1
  Cu+  Cu58  1  0.75335587  0.24934963  0.50352402  1
  Cu+  Cu59  1  0.75364307  0.74842690  0.50569472  1
  Cu+  Cu60  1  0.32843974  0.41490105  0.83619690  1
  Cu+  Cu61  1  0.32916417  0.91081704  0.84142476  1
  Cu+  Cu62  1  0.83099519  0.41973632  0.83814379  1
  Cu+  Cu63  1  0.82963429  0.92127962  0.83655293  1
  Cu+  Cu64  1  0.07841382  0.16838562  0.83679066  1
  Cu+  Cu65  1  0.08114543  0.66942777  0.83974543  1
  Cu+  Cu66  1  0.58372357  0.16924606  0.84031546  1
  Cu+  Cu67  1  0.57866623  0.66656824  0.83500527  1
  Cu+  Cu68  1  0.08403040  0.41347250  0.83580324  1
  Cu+  Cu69  1  0.08242750  0.91348864  0.83996259  1
  Cu+  Cu70  1  0.58378972  0.41144295  0.83652911  1
  Cu+  Cu71  1  0.57990434  0.90990021  0.83658834  1
  Cu+  Cu72  1  0.17088334  0.08350566  0.67410105  1
  Cu+  Cu73  1  0.16885622  0.58548174  0.67719293  1
  Cu+  Cu74  1  0.66928573  0.08426226  0.67673815  1
  Cu+  Cu75  1  0.67113968  0.58060275  0.67424339  1
  Cu+  Cu76  1  0.41655189  0.32922061  0.67219620  1
  Cu+  Cu77  1  0.41774999  0.83247815  0.68249145  1
  Cu+  Cu78  1  0.91788348  0.33233312  0.67429407  1
  Cu+  Cu79  1  0.91831705  0.83068998  0.67392344  1
  Cu+  Cu80  1  0.41578044  0.08396791  0.67553257  1
  Cu+  Cu81  1  0.41721455  0.58529541  0.67934130  1
  Cu+  Cu82  1  0.91545344  0.08572655  0.67783733  1
  Cu+  Cu83  1  0.91787453  0.58595429  0.67992984  1
  Cu+  Cu84  1  -0.00166776  0.24862929  0.00795615  1
  Cu+  Cu85  1  0.00180195  0.74956778  0.01531641  1
  Cu+  Cu86  1  0.50316698  0.25234461  0.01209353  1
  Cu+  Cu87  1  0.49700638  0.74879447  0.00944391  1
  Cu+  Cu88  1  0.24751382  0.49727456  0.00852472  1
  Cu+  Cu89  1  0.24921037  0.99751399  0.00859408  1
  Cu+  Cu90  1  0.74865595  0.49840424  0.00823768  1
  Cu+  Cu91  1  0.74466795  0.99545802  0.01070266  1
  Cu+  Cu92  1  0.24662953  0.25226000  0.00739467  1
  Cu+  Cu93  1  0.24659746  0.74999427  0.01658979  1
  Cu+  Cu94  1  0.74723431  0.25125618  0.00840843  1
  Cu+  Cu95  1  0.74664985  0.75106231  0.00445538  1
  Cu+  Cu96  1  0.33495320  0.41486451  0.34018260  1
  Cu+  Cu97  1  0.33691511  0.91927773  0.34883142  1
  Cu+  Cu98  1  0.83802327  0.42115082  0.34187217  1
  Cu+  Cu99  1  0.83420536  0.91642489  0.34016368  1
  Cu+  Cu100  1  0.08168634  0.16582428  0.33800649  1
  Cu+  Cu101  1  0.08305112  0.66659342  0.34847831  1
  Cu+  Cu102  1  0.58585604  0.16644348  0.34210873  1
  Cu+  Cu103  1  0.58185672  0.66118289  0.34078380  1
  Cu+  Cu104  1  0.08518253  0.42131049  0.34280523  1
  Cu+  Cu105  1  0.08094359  0.91926085  0.33927127  1
  Cu+  Cu106  1  0.58227887  0.41604399  0.33931303  1
  Cu+  Cu107  1  0.58278039  0.91698827  0.34940810  1
  Cu+  Cu108  1  0.00073783  0.00133035  0.10934369  1
  Cu+  Cu109  1  -0.00267171  0.49482518  0.11711153  1
  Cu+  Cu110  1  0.50022989  0.00139319  0.11654150  1
  Cu+  Cu111  1  0.50177059  0.50339082  0.11047158  1
  Cu+  Cu112  1  0.33558539  0.17042780  0.44594992  1
  Cu+  Cu113  1  0.33624534  0.66328524  0.44991760  1
  Cu+  Cu114  1  0.83792168  0.17007055  0.44837033  1
  Cu+  Cu115  1  0.83047874  0.66573729  0.44769288  1
  Cu+  Cu116  1  0.16711445  0.33117238  0.77827397  1
  Cu+  Cu117  1  0.16708179  0.83662139  0.78453012  1
  Cu+  Cu118  1  0.66757064  0.32904184  0.78181865  1
  Cu+  Cu119  1  0.67000846  0.82869679  0.77898107  1
  Te2-  Te120  1  -0.00087303  0.00170827  0.38271025  1
  Te2-  Te121  1  0.00081387  0.49999347  0.38951598  1
  Te2-  Te122  1  0.50332770  0.00386291  0.39177165  1
  Te2-  Te123  1  0.49923951  0.49671474  0.38393239  1
  Te2-  Te124  1  0.33427481  0.16664118  0.71928577  1
  Te2-  Te125  1  0.33161318  0.66565548  0.72484061  1
  Te2-  Te126  1  0.83306050  0.16941942  0.72188853  1
  Te2-  Te127  1  0.83355861  0.66819250  0.72193405  1
  Te2-  Te128  1  0.16233876  0.33323436  0.05267226  1
  Te2-  Te129  1  0.16757753  0.83684865  0.05999091  1
  Te2-  Te130  1  0.66915241  0.33561645  0.05552378  1
  Te2-  Te131  1  0.66174668  0.82837047  0.05283625  1
  Te2-  Te132  1  0.49356726  0.24643678  0.88542412  1
  Te2-  Te133  1  0.48528350  0.74174742  0.88375794  1
  Te2-  Te134  1  0.98900031  0.24778227  0.88244161  1
  Te2-  Te135  1  0.99164645  0.74725734  0.88763777  1
  Te2-  Te136  1  0.25132535  0.00117137  0.88288629  1
  Te2-  Te137  1  0.24944590  0.50609490  0.88286220  1
  Te2-  Te138  1  0.74625734  0.00606753  0.88378565  1
  Te2-  Te139  1  0.75000795  0.50822924  0.88281674  1
  Te2-  Te140  1  0.24821507  0.24696260  0.88033511  1
  Te2-  Te141  1  0.24770837  0.74112511  0.88865366  1
  Te2-  Te142  1  0.75296552  0.25076369  0.88235734  1
  Te2-  Te143  1  0.74844031  0.75010039  0.87807156  1
  Te2-  Te144  1  0.32463024  0.41221335  0.21456579  1
  Te2-  Te145  1  0.32990733  0.91949346  0.22055997  1
  Te2-  Te146  1  0.83346539  0.42010398  0.21572514  1
  Te2-  Te147  1  0.82318636  0.90746590  0.21451256  1
  Te2-  Te148  1  0.08008999  0.17390847  0.21214469  1
  Te2-  Te149  1  0.09137909  0.68288538  0.22097060  1
  Te2-  Te150  1  0.59194475  0.17163563  0.21591487  1
  Te2-  Te151  1  0.58487632  0.66971171  0.21492069  1
  Te2-  Te152  1  0.08843537  0.42005626  0.21649989  1
  Te2-  Te153  1  0.09063890  0.92084350  0.21343892  1
  Te2-  Te154  1  0.58846685  0.41361846  0.21356608  1
  Te2-  Te155  1  0.58458517  0.90905541  0.22104640  1
  Te2-  Te156  1  0.16156003  0.07764802  0.54838849  1
  Te2-  Te157  1  0.16351986  0.58017904  0.55086607  1
  Te2-  Te158  1  0.66041357  0.08342038  0.55111655  1
  Te2-  Te159  1  0.66498143  0.57968767  0.54843715  1
  Te2-  Te160  1  0.41943764  0.33589372  0.54648381  1
  Te2-  Te161  1  0.42241710  0.84474115  0.55430767  1
  Te2-  Te162  1  0.92084918  0.33795809  0.54858023  1
  Te2-  Te163  1  0.92262002  0.83645866  0.54809448  1
  Te2-  Te164  1  0.42479571  0.08108863  0.55020718  1
  Te2-  Te165  1  0.42159194  0.58561725  0.55171858  1
  Te2-  Te166  1  0.91913317  0.08038210  0.55083047  1
  Te2-  Te167  1  0.92085084  0.57565366  0.55276332  1
  Te2-  Te168  1  -0.00175296  -0.00074292  0.88240918  1
  Te2-  Te169  1  0.00045255  0.49872058  0.88289960  1
  Te2-  Te170  1  0.50029901  -0.00024152  0.88418561  1
  Te2-  Te171  1  0.49876776  0.49721233  0.88053511  1
  Te2-  Te172  1  0.33262288  0.16686629  0.21433840  1
  Te2-  Te173  1  0.33510704  0.66634423  0.21706222  1
  Te2-  Te174  1  0.83469615  0.16691315  0.21590034  1
  Te2-  Te175  1  0.83288588  0.66842731  0.21372997  1
  Te2-  Te176  1  0.16858587  0.33220709  0.54838221  1
  Te2-  Te177  1  0.16731620  0.83439548  0.54909029  1
  Te2-  Te178  1  0.66795898  0.33292776  0.54744957  1
  Te2-  Te179  1  0.66990119  0.83361723  0.55035147  1
  Te2-  Te180  1  0.32807924  0.41151568  0.70834907  1
  Te2-  Te181  1  0.32741622  0.91457390  0.71350029  1
  Te2-  Te182  1  0.82841926  0.41263283  0.71086334  1
  Te2-  Te183  1  0.82870769  0.91246187  0.70876216  1
  Te2-  Te184  1  0.08820533  0.17154949  0.70947928  1
  Te2-  Te185  1  0.08988219  0.67561253  0.71296875  1
  Te2-  Te186  1  0.58544747  0.17034745  0.71320926  1
  Te2-  Te187  1  0.59013591  0.67098420  0.70802128  1
  Te2-  Te188  1  0.08700413  0.41495424  0.71039553  1
  Te2-  Te189  1  0.08641502  0.91469343  0.71328960  1
  Te2-  Te190  1  0.58570894  0.41126757  0.71076624  1
  Te2-  Te191  1  0.59017911  0.91481716  0.71104767  1
  Te2-  Te192  1  0.16089252  0.08012838  0.04017437  1
  Te2-  Te193  1  0.15815628  0.57714672  0.04574691  1
  Te2-  Te194  1  0.65858814  0.08100690  0.04447047  1
  Te2-  Te195  1  0.66144693  0.58170086  0.04203123  1
  Te2-  Te196  1  0.41861333  0.34132354  0.03999486  1
  Te2-  Te197  1  0.41958040  0.83999938  0.04674521  1
  Te2-  Te198  1  0.91690879  0.33625791  0.04613690  1
  Te2-  Te199  1  0.91668422  0.83923699  0.04074137  1
  Te2-  Te200  1  0.41872613  0.07949637  0.04412444  1
  Te2-  Te201  1  0.41635770  0.57931466  0.04436736  1
  Te2-  Te202  1  0.91744848  0.07887259  0.04119105  1
  Te2-  Te203  1  0.91812812  0.57710123  0.04416538  1
  Te2-  Te204  1  0.49585345  0.24654100  0.37641487  1
  Te2-  Te205  1  0.49494194  0.74399448  0.37887609  1
  Te2-  Te206  1  0.99690617  0.24984911  0.37784564  1
  Te2-  Te207  1  0.99372509  0.75020970  0.37714988  1
  Te2-  Te208  1  0.25081352  0.00674616  0.37676820  1
  Te2-  Te209  1  0.25527030  0.50497581  0.37883174  1
  Te2-  Te210  1  0.75579928  0.00665246  0.37887531  1
  Te2-  Te211  1  0.75262423  0.50561194  0.37723459  1
  Te2-  Te212  1  0.25077410  0.24543850  0.37683368  1
  Te2-  Te213  1  0.25602402  0.74673645  0.37733134  1
  Te2-  Te214  1  0.75630320  0.24986597  0.37711220  1
  Te2-  Te215  1  0.75169297  0.74702579  0.37853880  1
