# generated using pymatgen
data_Ti(CuTe)4
_symmetry_space_group_name_H-M   'P 1'
_cell_length_a   16.86995332
_cell_length_b   16.87089632
_cell_length_c   20.68290848
_cell_angle_alpha   89.99936419
_cell_angle_beta   90.00174425
_cell_angle_gamma   120.00582195
_symmetry_Int_Tables_number   1
_chemical_formula_structural   Ti(CuTe)4
_chemical_formula_sum   'Ti24 Cu96 Te96'
_cell_volume   5097.63572678
_cell_formula_units_Z   24
loop_
 _symmetry_equiv_pos_site_id
 _symmetry_equiv_pos_as_xyz
  1  'x, y, z'
loop_
 _atom_type_symbol
 _atom_type_oxidation_number
  Ti4+  4.0
  Cu+  1.0
  Te2-  -2.0
loop_
 _atom_site_type_symbol
 _atom_site_label
 _atom_site_symmetry_multiplicity
 _atom_site_fract_x
 _atom_site_fract_y
 _atom_site_fract_z
 _atom_site_occupancy
  Ti4+  Ti0  1  -0.00142335  0.00070367  0.25414604  1
  Ti4+  Ti1  1  -0.00127102  0.50188208  0.25539094  1
  Ti4+  Ti2  1  0.50149971  0.00390022  0.25957957  1
  Ti4+  Ti3  1  0.49788313  0.50124385  0.25790967  1
  Ti4+  Ti4  1  0.33647686  0.16650487  0.59423049  1
  Ti4+  Ti5  1  0.33495716  0.66727702  0.59354649  1
  Ti4+  Ti6  1  0.83651847  0.16777542  0.58930143  1
  Ti4+  Ti7  1  0.83837011  0.66971512  0.58873678  1
  Ti4+  Ti8  1  0.16578243  0.33126379  0.92673167  1
  Ti4+  Ti9  1  0.16702224  0.83001942  0.92504395  1
  Ti4+  Ti10  1  0.66262653  0.32989080  0.92396588  1
  Ti4+  Ti11  1  0.66388331  0.83087379  0.92641392  1
  Ti4+  Ti12  1  0.00122937  0.00131924  0.75877247  1
  Ti4+  Ti13  1  0.00018468  0.49988130  0.75704303  1
  Ti4+  Ti14  1  0.50143281  -0.00109777  0.75499791  1
  Ti4+  Ti15  1  0.50160324  0.49885906  0.75468099  1
  Ti4+  Ti16  1  0.33226759  0.16635152  0.08942657  1
  Ti4+  Ti17  1  0.33319754  0.66463534  0.08842252  1
  Ti4+  Ti18  1  0.83015121  0.16582350  0.08667543  1
  Ti4+  Ti19  1  0.83415224  0.66680310  0.08762229  1
  Ti4+  Ti20  1  0.16597593  0.33416904  0.42333969  1
  Ti4+  Ti21  1  0.16627572  0.83429725  0.42255705  1
  Ti4+  Ti22  1  0.66665689  0.33315153  0.42188611  1
  Ti4+  Ti23  1  0.66893739  0.83579042  0.42202043  1
  Cu+  Cu24  1  0.73696997  0.98739659  0.14401836  1
  Cu+  Cu25  1  0.00814043  0.25847839  0.14471410  1
  Cu+  Cu26  1  0.40461783  0.80857252  0.80766736  1
  Cu+  Cu27  1  0.40126987  0.31335618  0.80801677  1
  Cu+  Cu28  1  0.73895385  0.75537644  0.14328105  1
  Cu+  Cu29  1  0.24313072  0.26312754  0.14268395  1
  Cu+  Cu30  1  0.73656467  0.26255480  0.14023489  1
  Cu+  Cu31  1  0.02346270  0.76324714  0.13934570  1
  Cu+  Cu32  1  0.40586043  0.08273600  0.81208171  1
  Cu+  Cu33  1  0.86262359  0.93141193  0.47125034  1
  Cu+  Cu34  1  0.85788391  0.42760759  0.47105263  1
  Cu+  Cu35  1  0.57294456  0.14500638  0.47734574  1
  Cu+  Cu36  1  0.16349486  0.08595400  0.16751616  1
  Cu+  Cu37  1  0.16403192  0.58336823  0.16834425  1
  Cu+  Cu38  1  0.65963590  0.08538667  0.16950779  1
  Cu+  Cu39  1  0.66126896  0.58307996  0.17041540  1
  Cu+  Cu40  1  0.41471004  0.33689771  0.17185818  1
  Cu+  Cu41  1  0.41537437  0.83381220  0.17180567  1
  Cu+  Cu42  1  0.91374620  0.33923189  0.16748003  1
  Cu+  Cu43  1  0.91843610  0.83562172  0.16739980  1
  Cu+  Cu44  1  0.41980930  0.08459751  0.17299934  1
  Cu+  Cu45  1  0.41754136  0.58081980  0.16935290  1
  Cu+  Cu46  1  0.91708713  0.07998213  0.16408566  1
  Cu+  Cu47  1  0.92300676  0.58688666  0.16778318  1
  Cu+  Cu48  1  0.49591179  0.24377473  0.50636232  1
  Cu+  Cu49  1  0.49686462  0.74905962  0.50745844  1
  Cu+  Cu50  1  0.99746901  0.24856027  0.50289632  1
  Cu+  Cu51  1  0.99622142  0.74840703  0.50192934  1
  Cu+  Cu52  1  0.25335746  0.00264460  0.50667778  1
  Cu+  Cu53  1  0.25251179  0.50368728  0.50737216  1
  Cu+  Cu54  1  0.75974517  0.00410146  0.50218266  1
  Cu+  Cu55  1  0.75838649  0.50456070  0.50212521  1
  Cu+  Cu56  1  0.25326635  0.25165099  0.50822126  1
  Cu+  Cu57  1  0.25304816  0.75049172  0.50738631  1
  Cu+  Cu58  1  0.75252657  0.24971784  0.50202892  1
  Cu+  Cu59  1  0.75898298  0.75589791  0.50249261  1
  Cu+  Cu60  1  0.33060550  0.41201270  0.83869171  1
  Cu+  Cu61  1  0.32866031  0.90896299  0.83669987  1
  Cu+  Cu62  1  0.82919999  0.41171674  0.83934824  1
  Cu+  Cu63  1  0.83026802  0.91557587  0.84225839  1
  Cu+  Cu64  1  0.08413363  0.16930199  0.84128441  1
  Cu+  Cu65  1  0.08319505  0.66750074  0.83892104  1
  Cu+  Cu66  1  0.58326924  0.17072916  0.83567000  1
  Cu+  Cu67  1  0.58686133  0.66947806  0.83749312  1
  Cu+  Cu68  1  0.08195053  0.41298341  0.84089333  1
  Cu+  Cu69  1  0.08168440  0.91251518  0.84037156  1
  Cu+  Cu70  1  0.57848329  0.40908201  0.83481216  1
  Cu+  Cu71  1  0.58020209  0.90892632  0.83768240  1
  Cu+  Cu72  1  0.16936659  0.08548929  0.67771586  1
  Cu+  Cu73  1  0.17027500  0.58520638  0.67691225  1
  Cu+  Cu74  1  0.67214215  0.08422906  0.67256955  1
  Cu+  Cu75  1  0.67347400  0.58768851  0.67045157  1
  Cu+  Cu76  1  0.41853060  0.32961338  0.67963731  1
  Cu+  Cu77  1  0.41756566  0.82851531  0.67976036  1
  Cu+  Cu78  1  0.91647975  0.33240912  0.67373958  1
  Cu+  Cu79  1  0.91681995  0.83397917  0.67476276  1
  Cu+  Cu80  1  0.42070818  0.08606502  0.68227930  1
  Cu+  Cu81  1  0.41828447  0.58488917  0.67611401  1
  Cu+  Cu82  1  0.91846194  0.08499570  0.67619002  1
  Cu+  Cu83  1  0.91689506  0.58428831  0.67390181  1
  Cu+  Cu84  1  0.00115705  0.25006343  0.01398415  1
  Cu+  Cu85  1  0.00524397  0.74941155  0.01196584  1
  Cu+  Cu86  1  0.49935823  0.24822708  0.00959118  1
  Cu+  Cu87  1  0.49953842  0.74817763  0.00880577  1
  Cu+  Cu88  1  0.24993300  0.49650279  0.00761487  1
  Cu+  Cu89  1  0.25133249  0.99591412  0.00906294  1
  Cu+  Cu90  1  0.74761133  0.49599941  0.00497362  1
  Cu+  Cu91  1  0.74380685  0.99483825  0.01279924  1
  Cu+  Cu92  1  0.24752616  0.24963701  0.01462191  1
  Cu+  Cu93  1  0.25081235  0.74873544  0.00799025  1
  Cu+  Cu94  1  0.74412892  0.25023831  0.01109231  1
  Cu+  Cu95  1  0.74797334  0.75120071  0.01331332  1
  Cu+  Cu96  1  0.33384483  0.41781657  0.34341198  1
  Cu+  Cu97  1  0.33497047  0.91959432  0.34296869  1
  Cu+  Cu98  1  0.83562984  0.42017958  0.34222552  1
  Cu+  Cu99  1  0.83464814  0.91827640  0.34379231  1
  Cu+  Cu100  1  0.08358850  0.16870161  0.34211245  1
  Cu+  Cu101  1  0.08362864  0.66865515  0.34139023  1
  Cu+  Cu102  1  0.58089740  0.16538947  0.34777217  1
  Cu+  Cu103  1  0.57978082  0.66547617  0.34227660  1
  Cu+  Cu104  1  0.08159931  0.41743005  0.34097771  1
  Cu+  Cu105  1  0.08361244  0.91785306  0.34063460  1
  Cu+  Cu106  1  0.57799839  0.41769185  0.34038830  1
  Cu+  Cu107  1  0.58232844  0.91915578  0.34337554  1
  Cu+  Cu108  1  0.00094506  -0.00157919  0.10844320  1
  Cu+  Cu109  1  0.00191932  0.50159084  0.10988906  1
  Cu+  Cu110  1  0.49206036  -0.00582266  0.11620646  1
  Cu+  Cu111  1  0.50138008  0.49824623  0.11257161  1
  Cu+  Cu112  1  0.32752807  0.16594178  0.45195992  1
  Cu+  Cu113  1  0.33099300  0.66610980  0.45151950  1
  Cu+  Cu114  1  0.83367234  0.16788714  0.44380092  1
  Cu+  Cu115  1  0.83015786  0.66571206  0.44362968  1
  Cu+  Cu116  1  0.16614107  0.33635106  0.78409735  1
  Cu+  Cu117  1  0.16176132  0.83156678  0.78181721  1
  Cu+  Cu118  1  0.67188571  0.33937511  0.78003400  1
  Cu+  Cu119  1  0.67092332  0.83407911  0.78334515  1
  Te2-  Te120  1  0.00287399  0.00265852  0.38380870  1
  Te2-  Te121  1  0.00228052  0.50310319  0.38535017  1
  Te2-  Te122  1  0.49872044  -0.00082939  0.39006326  1
  Te2-  Te123  1  0.49854661  0.50126366  0.38706047  1
  Te2-  Te124  1  0.33273523  0.16413756  0.72631958  1
  Te2-  Te125  1  0.33328442  0.66246074  0.72427412  1
  Te2-  Te126  1  0.83576930  0.16793300  0.71813747  1
  Te2-  Te127  1  0.83633767  0.66862610  0.71769515  1
  Te2-  Te128  1  0.16623820  0.33473313  0.05881152  1
  Te2-  Te129  1  0.17128287  0.83253025  0.05554642  1
  Te2-  Te130  1  0.66296290  0.33454150  0.05485357  1
  Te2-  Te131  1  0.66196388  0.83042509  0.05899259  1
  Te2-  Te132  1  0.48625718  0.24148254  0.88343218  1
  Te2-  Te133  1  0.49111401  0.74025819  0.88331837  1
  Te2-  Te134  1  0.99435892  0.24624586  0.88633223  1
  Te2-  Te135  1  0.99524186  0.74550824  0.88487702  1
  Te2-  Te136  1  0.25066220  0.00252884  0.88319697  1
  Te2-  Te137  1  0.25176171  0.50097615  0.88196408  1
  Te2-  Te138  1  0.74680803  0.00157152  0.88498738  1
  Te2-  Te139  1  0.74689232  0.49973509  0.87928233  1
  Te2-  Te140  1  0.25051437  0.24270684  0.88705608  1
  Te2-  Te141  1  0.25092155  0.74065831  0.88260931  1
  Te2-  Te142  1  0.74841763  0.24390760  0.88398937  1
  Te2-  Te143  1  0.75169019  0.74730428  0.88586888  1
  Te2-  Te144  1  0.32379075  0.41601714  0.21749081  1
  Te2-  Te145  1  0.33080406  0.91686005  0.21697366  1
  Te2-  Te146  1  0.82552517  0.41923923  0.21484152  1
  Te2-  Te147  1  0.82369971  0.91262600  0.21550746  1
  Te2-  Te148  1  0.08544093  0.17651995  0.21549152  1
  Te2-  Te149  1  0.09050470  0.67593530  0.21526769  1
  Te2-  Te150  1  0.58591568  0.17816918  0.21969972  1
  Te2-  Te151  1  0.58301284  0.67502959  0.21627094  1
  Te2-  Te152  1  0.08550185  0.41594087  0.21456127  1
  Te2-  Te153  1  0.08867188  0.91804962  0.21412078  1
  Te2-  Te154  1  0.58289189  0.41532385  0.21453493  1
  Te2-  Te155  1  0.58386849  0.91394525  0.21697962  1
  Te2-  Te156  1  0.16598264  0.08298193  0.55163869  1
  Te2-  Te157  1  0.16352224  0.58239297  0.55098513  1
  Te2-  Te158  1  0.66414037  0.07794031  0.54650331  1
  Te2-  Te159  1  0.66860934  0.58518926  0.54420013  1
  Te2-  Te160  1  0.42183312  0.33705681  0.55233567  1
  Te2-  Te161  1  0.42064001  0.83938174  0.55272156  1
  Te2-  Te162  1  0.92304060  0.34109559  0.54763868  1
  Te2-  Te163  1  0.92719504  0.84474009  0.54877794  1
  Te2-  Te164  1  0.41983008  0.07604789  0.55419424  1
  Te2-  Te165  1  0.42059327  0.58136434  0.55048163  1
  Te2-  Te166  1  0.92669812  0.08316472  0.54984264  1
  Te2-  Te167  1  0.92614117  0.58260726  0.54799736  1
  Te2-  Te168  1  -0.00061236  -0.00093399  0.88529999  1
  Te2-  Te169  1  -0.00238103  0.49805256  0.88360982  1
  Te2-  Te170  1  0.49989826  -0.00053943  0.88256595  1
  Te2-  Te171  1  0.50104132  0.49965855  0.88195592  1
  Te2-  Te172  1  0.33189495  0.16697554  0.21655201  1
  Te2-  Te173  1  0.33218273  0.66526034  0.21499215  1
  Te2-  Te174  1  0.83333020  0.16713657  0.21501862  1
  Te2-  Te175  1  0.83215852  0.66632305  0.21527602  1
  Te2-  Te176  1  0.16636259  0.33414717  0.54978566  1
  Te2-  Te177  1  0.16540063  0.83274536  0.54894036  1
  Te2-  Te178  1  0.66815335  0.33482310  0.54914364  1
  Te2-  Te179  1  0.66877587  0.83453018  0.54869592  1
  Te2-  Te180  1  0.32825327  0.41325507  0.71072337  1
  Te2-  Te181  1  0.32701982  0.91176516  0.70943016  1
  Te2-  Te182  1  0.82942628  0.41456050  0.71122275  1
  Te2-  Te183  1  0.82988228  0.91555743  0.71423826  1
  Te2-  Te184  1  0.08797717  0.17389081  0.71465921  1
  Te2-  Te185  1  0.08654487  0.67202707  0.71245031  1
  Te2-  Te186  1  0.59280430  0.17369294  0.71003701  1
  Te2-  Te187  1  0.58878910  0.67163841  0.71121699  1
  Te2-  Te188  1  0.08603460  0.41411050  0.71296165  1
  Te2-  Te189  1  0.08629957  0.91494574  0.71335479  1
  Te2-  Te190  1  0.59182785  0.41718704  0.70782259  1
  Te2-  Te191  1  0.59043326  0.91482815  0.71066694  1
  Te2-  Te192  1  0.16016562  0.07606300  0.04149498  1
  Te2-  Te193  1  0.16125117  0.57851745  0.04234931  1
  Te2-  Te194  1  0.65476683  0.07811560  0.04252639  1
  Te2-  Te195  1  0.66079938  0.57837827  0.04258411  1
  Te2-  Te196  1  0.42031438  0.33938016  0.04393110  1
  Te2-  Te197  1  0.41956717  0.83770503  0.04481162  1
  Te2-  Te198  1  0.91741907  0.33987328  0.04001960  1
  Te2-  Te199  1  0.92163548  0.83966322  0.03996345  1
  Te2-  Te200  1  0.41957355  0.07986625  0.04661864  1
  Te2-  Te201  1  0.41958587  0.57797884  0.04376105  1
  Te2-  Te202  1  0.91698461  0.07706087  0.03875467  1
  Te2-  Te203  1  0.91703741  0.57689651  0.04128703  1
  Te2-  Te204  1  0.49219680  0.24895729  0.37933318  1
  Te2-  Te205  1  0.49485622  0.74952052  0.38067161  1
  Te2-  Te206  1  0.99365858  0.24813989  0.37687876  1
  Te2-  Te207  1  0.99369940  0.74840734  0.37624071  1
  Te2-  Te208  1  0.25291679  0.00723281  0.37939056  1
  Te2-  Te209  1  0.25154674  0.50617647  0.37970098  1
  Te2-  Te210  1  0.75307782  0.00859902  0.37524034  1
  Te2-  Te211  1  0.74893287  0.50505116  0.37486468  1
  Te2-  Te212  1  0.25255540  0.24813115  0.38010186  1
  Te2-  Te213  1  0.25354624  0.74911900  0.37946789  1
  Te2-  Te214  1  0.75473474  0.24835620  0.37391654  1
  Te2-  Te215  1  0.75110946  0.74621203  0.37483496  1
