# generated using pymatgen
data_Ti(CuTe)4
_symmetry_space_group_name_H-M   'P 1'
_cell_length_a   16.88141911
_cell_length_b   16.88068393
_cell_length_c   20.70314955
_cell_angle_alpha   89.92701999
_cell_angle_beta   90.05473144
_cell_angle_gamma   120.00980616
_symmetry_Int_Tables_number   1
_chemical_formula_structural   Ti(CuTe)4
_chemical_formula_sum   'Ti24 Cu96 Te96'
_cell_volume   5108.84512612
_cell_formula_units_Z   24
loop_
 _symmetry_equiv_pos_site_id
 _symmetry_equiv_pos_as_xyz
  1  'x, y, z'
loop_
 _atom_type_symbol
 _atom_type_oxidation_number
  Ti4+  4.0
  Cu+  1.0
  Te2-  -2.0
loop_
 _atom_site_type_symbol
 _atom_site_label
 _atom_site_symmetry_multiplicity
 _atom_site_fract_x
 _atom_site_fract_y
 _atom_site_fract_z
 _atom_site_occupancy
  Ti4+  Ti0  1  0.00343949  0.00373571  0.25872538  1
  Ti4+  Ti1  1  -0.00082553  0.50064317  0.25666218  1
  Ti4+  Ti2  1  0.50160784  0.00083917  0.25752905  1
  Ti4+  Ti3  1  0.49904055  0.50225336  0.25726007  1
  Ti4+  Ti4  1  0.33099974  0.16826895  0.59370329  1
  Ti4+  Ti5  1  0.33052361  0.66842035  0.59077699  1
  Ti4+  Ti6  1  0.82882391  0.16516844  0.59172424  1
  Ti4+  Ti7  1  0.83121211  0.66553549  0.58794478  1
  Ti4+  Ti8  1  0.16803774  0.33165969  0.92275314  1
  Ti4+  Ti9  1  0.16921382  0.83127072  0.92477394  1
  Ti4+  Ti10  1  0.66658769  0.33226163  0.92542157  1
  Ti4+  Ti11  1  0.66982911  0.83481654  0.92467768  1
  Ti4+  Ti12  1  -0.00243583  -0.00069304  0.75464945  1
  Ti4+  Ti13  1  0.00127888  0.50040960  0.75582341  1
  Ti4+  Ti14  1  0.49818480  -0.00116101  0.75627457  1
  Ti4+  Ti15  1  0.49911243  0.49834759  0.75554145  1
  Ti4+  Ti16  1  0.33226348  0.16599520  0.09058401  1
  Ti4+  Ti17  1  0.33619980  0.66645197  0.08912654  1
  Ti4+  Ti18  1  0.83370349  0.16656599  0.08884039  1
  Ti4+  Ti19  1  0.83591512  0.66548418  0.08851506  1
  Ti4+  Ti20  1  0.16747456  0.33335792  0.42400405  1
  Ti4+  Ti21  1  0.16589151  0.83189056  0.42232716  1
  Ti4+  Ti22  1  0.66610625  0.33483921  0.42242680  1
  Ti4+  Ti23  1  0.66691338  0.83549660  0.42157537  1
  Cu+  Cu24  1  0.07208510  0.92720626  0.47402563  1
  Cu+  Cu25  1  0.17951335  0.08444188  0.81157920  1
  Cu+  Cu26  1  0.19287785  0.59459594  0.80826525  1
  Cu+  Cu27  1  0.06989721  0.64232448  0.47329930  1
  Cu+  Cu28  1  0.73806456  0.26167342  0.14074966  1
  Cu+  Cu29  1  0.41334068  0.31464117  0.81090317  1
  Cu+  Cu30  1  0.56713544  0.42871814  0.47226990  1
  Cu+  Cu31  1  0.56965138  0.92940987  0.47326118  1
  Cu+  Cu32  1  0.90474208  0.09490367  0.80576790  1
  Cu+  Cu33  1  0.24283347  0.76120265  0.14250213  1
  Cu+  Cu34  1  0.52582839  0.76320971  0.14040943  1
  Cu+  Cu35  1  0.23806187  0.26405098  0.14116433  1
  Cu+  Cu36  1  0.16502807  0.08786680  0.17228169  1
  Cu+  Cu37  1  0.16469917  0.58560626  0.17055544  1
  Cu+  Cu38  1  0.66532755  0.08588115  0.17052998  1
  Cu+  Cu39  1  0.66611513  0.58204222  0.17077627  1
  Cu+  Cu40  1  0.41231727  0.33568950  0.17213905  1
  Cu+  Cu41  1  0.42078784  0.83522319  0.17107394  1
  Cu+  Cu42  1  0.91376341  0.33502857  0.17000312  1
  Cu+  Cu43  1  0.92136978  0.83586829  0.17270033  1
  Cu+  Cu44  1  0.41876322  0.08160329  0.17179941  1
  Cu+  Cu45  1  0.42429545  0.58593466  0.16973718  1
  Cu+  Cu46  1  0.92261087  0.08438984  0.17130111  1
  Cu+  Cu47  1  0.92132824  0.58202636  0.16942126  1
  Cu+  Cu48  1  0.49817552  0.25550902  0.50605006  1
  Cu+  Cu49  1  0.49769948  0.75593859  0.50388924  1
  Cu+  Cu50  1  0.99655385  0.24740517  0.50707859  1
  Cu+  Cu51  1  0.99673883  0.74735092  0.50143526  1
  Cu+  Cu52  1  0.24538921  0.00187983  0.50636042  1
  Cu+  Cu53  1  0.24747845  0.50192759  0.50566852  1
  Cu+  Cu54  1  0.74451759  0.00234993  0.50438926  1
  Cu+  Cu55  1  0.74462949  0.50262660  0.50133103  1
  Cu+  Cu56  1  0.25176125  0.24865087  0.50669181  1
  Cu+  Cu57  1  0.24579090  0.74198497  0.50313382  1
  Cu+  Cu58  1  0.74967100  0.24681803  0.50481526  1
  Cu+  Cu59  1  0.75139274  0.74809481  0.50139360  1
  Cu+  Cu60  1  0.33129019  0.40871518  0.83534738  1
  Cu+  Cu61  1  0.32985038  0.91270762  0.83765678  1
  Cu+  Cu62  1  0.83096276  0.41430754  0.83957743  1
  Cu+  Cu63  1  0.82980289  0.91912926  0.83648169  1
  Cu+  Cu64  1  0.08354234  0.16744943  0.83481740  1
  Cu+  Cu65  1  0.09108044  0.66781332  0.83808307  1
  Cu+  Cu66  1  0.58594502  0.16833430  0.83883828  1
  Cu+  Cu67  1  0.58640658  0.66915673  0.83924517  1
  Cu+  Cu68  1  0.09039687  0.41927836  0.83596072  1
  Cu+  Cu69  1  0.08604166  0.91288947  0.83795508  1
  Cu+  Cu70  1  0.58461460  0.41168322  0.83878142  1
  Cu+  Cu71  1  0.58470984  0.91361797  0.83844143  1
  Cu+  Cu72  1  0.16578899  0.08356249  0.68114620  1
  Cu+  Cu73  1  0.16866778  0.58582298  0.67975350  1
  Cu+  Cu74  1  0.66447951  0.08121854  0.67643059  1
  Cu+  Cu75  1  0.66691574  0.58307623  0.67396954  1
  Cu+  Cu76  1  0.41518505  0.33138094  0.68179706  1
  Cu+  Cu77  1  0.41401179  0.83361647  0.67423929  1
  Cu+  Cu78  1  0.91362247  0.32980488  0.67498437  1
  Cu+  Cu79  1  0.91402491  0.82958040  0.67262125  1
  Cu+  Cu80  1  0.41387288  0.08492923  0.67586376  1
  Cu+  Cu81  1  0.41485026  0.58614305  0.67349554  1
  Cu+  Cu82  1  0.90862961  0.08198309  0.67738349  1
  Cu+  Cu83  1  0.91401537  0.58357146  0.67210550  1
  Cu+  Cu84  1  0.00147191  0.24844271  0.00684344  1
  Cu+  Cu85  1  0.00428802  0.74856073  0.00717222  1
  Cu+  Cu86  1  0.50158279  0.24906980  0.01033247  1
  Cu+  Cu87  1  0.50750819  0.75088788  0.01244630  1
  Cu+  Cu88  1  0.25268702  0.49727852  0.00750155  1
  Cu+  Cu89  1  0.24965386  0.99638922  0.01029150  1
  Cu+  Cu90  1  0.75095221  0.49711393  0.00802690  1
  Cu+  Cu91  1  0.75188363  0.99906453  0.00864575  1
  Cu+  Cu92  1  0.24768348  0.24781337  0.01305620  1
  Cu+  Cu93  1  0.25059832  0.74926246  0.01298067  1
  Cu+  Cu94  1  0.74779347  0.25085047  0.01224952  1
  Cu+  Cu95  1  0.75213188  0.75143966  0.00707009  1
  Cu+  Cu96  1  0.33360247  0.41709234  0.34206819  1
  Cu+  Cu97  1  0.33552819  0.91551710  0.34260710  1
  Cu+  Cu98  1  0.83356502  0.41679209  0.34122470  1
  Cu+  Cu99  1  0.83850816  0.92007051  0.34129123  1
  Cu+  Cu100  1  0.08710414  0.16761714  0.34414905  1
  Cu+  Cu101  1  0.08349116  0.66373587  0.34488821  1
  Cu+  Cu102  1  0.58470595  0.16752463  0.34329407  1
  Cu+  Cu103  1  0.58426956  0.66758879  0.34117948  1
  Cu+  Cu104  1  0.08118411  0.41732751  0.33975030  1
  Cu+  Cu105  1  0.08413854  0.92128494  0.34471376  1
  Cu+  Cu106  1  0.57909801  0.41899017  0.34393804  1
  Cu+  Cu107  1  0.58359469  0.92035904  0.34462235  1
  Cu+  Cu108  1  -0.00240494  -0.00440777  0.11587725  1
  Cu+  Cu109  1  0.00361257  0.49696316  0.11264644  1
  Cu+  Cu110  1  0.50051885  0.00008048  0.11403834  1
  Cu+  Cu111  1  0.50473396  0.49822312  0.11399706  1
  Cu+  Cu112  1  0.33584878  0.16350783  0.45077717  1
  Cu+  Cu113  1  0.33648869  0.66226186  0.44802858  1
  Cu+  Cu114  1  0.83689269  0.16877740  0.44930224  1
  Cu+  Cu115  1  0.83316683  0.66641221  0.44282053  1
  Cu+  Cu116  1  0.16591309  0.33301480  0.77806019  1
  Cu+  Cu117  1  0.16364488  0.83028317  0.78055825  1
  Cu+  Cu118  1  0.67021270  0.33293158  0.78212782  1
  Cu+  Cu119  1  0.66352818  0.82887091  0.78114898  1
  Te2-  Te120  1  0.00101896  0.00359348  0.38958251  1
  Te2-  Te121  1  -0.00246230  0.49680431  0.38705447  1
  Te2-  Te122  1  0.49933535  0.00287987  0.38773985  1
  Te2-  Te123  1  0.49752818  0.50377118  0.38761884  1
  Te2-  Te124  1  0.33177874  0.16495613  0.72558601  1
  Te2-  Te125  1  0.33587676  0.66990732  0.72118560  1
  Te2-  Te126  1  0.82829380  0.16692709  0.72255173  1
  Te2-  Te127  1  0.83192420  0.66537076  0.71672667  1
  Te2-  Te128  1  0.16532202  0.33345695  0.05284929  1
  Te2-  Te129  1  0.16700300  0.83214565  0.05525279  1
  Te2-  Te130  1  0.66527721  0.33454999  0.05613245  1
  Te2-  Te131  1  0.67380578  0.83577964  0.05554267  1
  Te2-  Te132  1  0.49212366  0.24122195  0.88472689  1
  Te2-  Te133  1  0.49771137  0.74722646  0.88552424  1
  Te2-  Te134  1  0.99638764  0.24995554  0.88077427  1
  Te2-  Te135  1  0.99895606  0.74525026  0.88119243  1
  Te2-  Te136  1  0.25634783  0.00536735  0.88440834  1
  Te2-  Te137  1  0.25966991  0.50448142  0.88161628  1
  Te2-  Te138  1  0.75245829  0.00941189  0.88304358  1
  Te2-  Te139  1  0.75181824  0.50330916  0.88242160  1
  Te2-  Te140  1  0.25343803  0.24123518  0.88488309  1
  Te2-  Te141  1  0.25923578  0.74719518  0.88540866  1
  Te2-  Te142  1  0.75268965  0.24689425  0.88509690  1
  Te2-  Te143  1  0.75584182  0.75059312  0.88114995  1
  Te2-  Te144  1  0.32548842  0.41865841  0.21625609  1
  Te2-  Te145  1  0.32840067  0.91418717  0.21670360  1
  Te2-  Te146  1  0.82540011  0.41574164  0.21556702  1
  Te2-  Te147  1  0.83288808  0.91675408  0.21544088  1
  Te2-  Te148  1  0.08806451  0.17894556  0.21850629  1
  Te2-  Te149  1  0.08648219  0.67532931  0.21779601  1
  Te2-  Te150  1  0.58542952  0.17467135  0.21741914  1
  Te2-  Te151  1  0.59231670  0.67623769  0.21562187  1
  Te2-  Te152  1  0.08378246  0.41550545  0.21339967  1
  Te2-  Te153  1  0.08969588  0.91932095  0.21757358  1
  Te2-  Te154  1  0.58147226  0.41415885  0.21640192  1
  Te2-  Te155  1  0.59087482  0.91772809  0.21714458  1
  Te2-  Te156  1  0.15719255  0.08201768  0.55332146  1
  Te2-  Te157  1  0.15551461  0.57628209  0.55253325  1
  Te2-  Te158  1  0.65416764  0.08039551  0.55078667  1
  Te2-  Te159  1  0.65649129  0.58217391  0.54825253  1
  Te2-  Te160  1  0.41744372  0.34231584  0.55416924  1
  Te2-  Te161  1  0.41345734  0.84152202  0.54857059  1
  Te2-  Te162  1  0.91665031  0.33640823  0.54948374  1
  Te2-  Te163  1  0.91801580  0.83930695  0.54711736  1
  Te2-  Te164  1  0.41602482  0.08440525  0.54911756  1
  Te2-  Te165  1  0.41767296  0.58583229  0.54707001  1
  Te2-  Te166  1  0.91260748  0.07828304  0.55026992  1
  Te2-  Te167  1  0.91412441  0.57606759  0.54600843  1
  Te2-  Te168  1  0.00004675  -0.00244545  0.88228225  1
  Te2-  Te169  1  0.00106431  0.49835375  0.88262451  1
  Te2-  Te170  1  0.49988637  -0.00168211  0.88240233  1
  Te2-  Te171  1  0.50100456  0.49899092  0.88247226  1
  Te2-  Te172  1  0.33451749  0.16646398  0.21731499  1
  Te2-  Te173  1  0.33380155  0.66501911  0.21657549  1
  Te2-  Te174  1  0.83493212  0.16645937  0.21568674  1
  Te2-  Te175  1  0.83549879  0.66616327  0.21476023  1
  Te2-  Te176  1  0.16557726  0.33315442  0.55023286  1
  Te2-  Te177  1  0.16543223  0.83169412  0.54978595  1
  Te2-  Te178  1  0.66764186  0.33446635  0.54924606  1
  Te2-  Te179  1  0.66674152  0.83246351  0.54834592  1
  Te2-  Te180  1  0.32617535  0.41583267  0.70910158  1
  Te2-  Te181  1  0.32567565  0.91448492  0.71168116  1
  Te2-  Te182  1  0.82917922  0.41471256  0.71237443  1
  Te2-  Te183  1  0.82461245  0.90989506  0.70972835  1
  Te2-  Te184  1  0.08204222  0.17301706  0.70783720  1
  Te2-  Te185  1  0.08316437  0.67252420  0.71041092  1
  Te2-  Te186  1  0.58419593  0.17136407  0.71244443  1
  Te2-  Te187  1  0.58436508  0.67013412  0.71177066  1
  Te2-  Te188  1  0.08453055  0.41209162  0.70911698  1
  Te2-  Te189  1  0.08293897  0.91084361  0.71039883  1
  Te2-  Te190  1  0.58795957  0.41374286  0.71144877  1
  Te2-  Te191  1  0.58328265  0.91172424  0.71215753  1
  Te2-  Te192  1  0.15926382  0.07604730  0.04542006  1
  Te2-  Te193  1  0.16306487  0.57713105  0.04325983  1
  Te2-  Te194  1  0.66077046  0.07819244  0.04383359  1
  Te2-  Te195  1  0.66434599  0.58108304  0.04395953  1
  Te2-  Te196  1  0.42037561  0.33830609  0.04460806  1
  Te2-  Te197  1  0.42339697  0.83980472  0.04341663  1
  Te2-  Te198  1  0.92120615  0.33837604  0.04241389  1
  Te2-  Te199  1  0.92224397  0.83699377  0.04477484  1
  Te2-  Te200  1  0.41906260  0.07977658  0.04614023  1
  Te2-  Te201  1  0.42173155  0.57830388  0.04369708  1
  Te2-  Te202  1  0.92105829  0.08058523  0.04522095  1
  Te2-  Te203  1  0.92131229  0.57886997  0.04379477  1
  Te2-  Te204  1  0.49331427  0.24695394  0.37814055  1
  Te2-  Te205  1  0.49427256  0.74778621  0.37616590  1
  Te2-  Te206  1  0.99642388  0.24811953  0.37943349  1
  Te2-  Te207  1  0.99407194  0.74776098  0.37386661  1
  Te2-  Te208  1  0.25543513  0.00565053  0.37872981  1
  Te2-  Te209  1  0.25038409  0.50427357  0.37845557  1
  Te2-  Te210  1  0.75608773  0.00836145  0.37719201  1
  Te2-  Te211  1  0.75231620  0.50629508  0.37456943  1
  Te2-  Te212  1  0.25583681  0.24857630  0.38108363  1
  Te2-  Te213  1  0.25495090  0.74641795  0.37748325  1
  Te2-  Te214  1  0.75329903  0.24828176  0.37913859  1
  Te2-  Te215  1  0.75394688  0.74995425  0.37598556  1
