# generated using pymatgen
data_Ti(CuTe)4
_symmetry_space_group_name_H-M   'P 1'
_cell_length_a   16.85501797
_cell_length_b   16.85532643
_cell_length_c   20.65869676
_cell_angle_alpha   90.02305273
_cell_angle_beta   89.98684702
_cell_angle_gamma   119.99019511
_symmetry_Int_Tables_number   1
_chemical_formula_structural   Ti(CuTe)4
_chemical_formula_sum   'Ti24 Cu96 Te96'
_cell_volume   5083.26563418
_cell_formula_units_Z   24
loop_
 _symmetry_equiv_pos_site_id
 _symmetry_equiv_pos_as_xyz
  1  'x, y, z'
loop_
 _atom_type_symbol
 _atom_type_oxidation_number
  Ti4+  4.0
  Cu+  1.0
  Te2-  -2.0
loop_
 _atom_site_type_symbol
 _atom_site_label
 _atom_site_symmetry_multiplicity
 _atom_site_fract_x
 _atom_site_fract_y
 _atom_site_fract_z
 _atom_site_occupancy
  Ti4+  Ti0  1  0.00102917  -0.00154995  0.25872429  1
  Ti4+  Ti1  1  -0.00185665  0.49729551  0.25706296  1
  Ti4+  Ti2  1  0.49686326  -0.00350139  0.26160407  1
  Ti4+  Ti3  1  0.49987038  0.49577702  0.25850545  1
  Ti4+  Ti4  1  0.33436794  0.17161435  0.59571352  1
  Ti4+  Ti5  1  0.33324643  0.67058787  0.59152938  1
  Ti4+  Ti6  1  0.83187200  0.16572150  0.59104555  1
  Ti4+  Ti7  1  0.83133183  0.66915099  0.58728385  1
  Ti4+  Ti8  1  0.16685427  0.33403981  0.92251573  1
  Ti4+  Ti9  1  0.16984945  0.83398662  0.92312524  1
  Ti4+  Ti10  1  0.66900187  0.33249400  0.92323229  1
  Ti4+  Ti11  1  0.66688981  0.83385835  0.92427344  1
  Ti4+  Ti12  1  0.00096771  0.00245278  0.75433907  1
  Ti4+  Ti13  1  -0.00014338  0.50063829  0.75412588  1
  Ti4+  Ti14  1  0.50018488  0.00110217  0.75129847  1
  Ti4+  Ti15  1  0.49904255  0.50135784  0.75394254  1
  Ti4+  Ti16  1  0.33296527  0.16469231  0.09058529  1
  Ti4+  Ti17  1  0.33467865  0.66839540  0.08997980  1
  Ti4+  Ti18  1  0.83425535  0.16754894  0.09045457  1
  Ti4+  Ti19  1  0.83249168  0.66397455  0.08774525  1
  Ti4+  Ti20  1  0.16645973  0.33241503  0.42397506  1
  Ti4+  Ti21  1  0.16650954  0.83177665  0.42428711  1
  Ti4+  Ti22  1  0.66416590  0.33315919  0.42439429  1
  Ti4+  Ti23  1  0.66706018  0.83425957  0.42076478  1
  Cu+  Cu24  1  0.23673895  0.97208266  0.14255467  1
  Cu+  Cu25  1  0.85605949  0.93093846  0.47216363  1
  Cu+  Cu26  1  0.57296432  0.93066818  0.47558669  1
  Cu+  Cu27  1  0.91125046  0.31596037  0.80791711  1
  Cu+  Cu28  1  0.41473014  0.32463317  0.81526903  1
  Cu+  Cu29  1  0.18083671  0.09009631  0.81348861  1
  Cu+  Cu30  1  0.41456549  0.08662197  0.81489588  1
  Cu+  Cu31  1  0.41499304  0.82222863  0.81046282  1
  Cu+  Cu32  1  0.68018119  0.08567610  0.80929552  1
  Cu+  Cu33  1  0.18569196  0.58836689  0.80667675  1
  Cu+  Cu34  1  0.73559825  0.47055569  0.14027957  1
  Cu+  Cu35  1  0.56633799  0.42892482  0.47516785  1
  Cu+  Cu36  1  0.16379844  0.07631756  0.17173360  1
  Cu+  Cu37  1  0.16441290  0.58146024  0.17153379  1
  Cu+  Cu38  1  0.66505523  0.08096533  0.17605067  1
  Cu+  Cu39  1  0.66355703  0.57395445  0.17082688  1
  Cu+  Cu40  1  0.41903834  0.33575543  0.17222568  1
  Cu+  Cu41  1  0.41892246  0.83644069  0.17425178  1
  Cu+  Cu42  1  0.92030070  0.33760440  0.17069496  1
  Cu+  Cu43  1  0.91816097  0.83657695  0.17088809  1
  Cu+  Cu44  1  0.41181813  0.07504476  0.17416833  1
  Cu+  Cu45  1  0.41531066  0.57920966  0.17337441  1
  Cu+  Cu46  1  0.91808939  0.08189351  0.17390404  1
  Cu+  Cu47  1  0.91261840  0.57521101  0.16923385  1
  Cu+  Cu48  1  0.49705818  0.25557321  0.50892701  1
  Cu+  Cu49  1  0.49654555  0.75590739  0.50300056  1
  Cu+  Cu50  1  0.99750642  0.25205078  0.50485928  1
  Cu+  Cu51  1  0.99721690  0.74964896  0.50314164  1
  Cu+  Cu52  1  0.24989907  0.00191803  0.51040647  1
  Cu+  Cu53  1  0.24811636  0.50203372  0.50645460  1
  Cu+  Cu54  1  0.75006888  0.00257498  0.50293224  1
  Cu+  Cu55  1  0.74341810  0.50242635  0.50276099  1
  Cu+  Cu56  1  0.25170559  0.25052126  0.50832152  1
  Cu+  Cu57  1  0.25064419  0.74855708  0.50655389  1
  Cu+  Cu58  1  0.75072634  0.24890247  0.50641444  1
  Cu+  Cu59  1  0.75745137  0.75373675  0.49911855  1
  Cu+  Cu60  1  0.32914487  0.41432357  0.83315999  1
  Cu+  Cu61  1  0.32469787  0.91031811  0.83066402  1
  Cu+  Cu62  1  0.83073422  0.41199679  0.83509500  1
  Cu+  Cu63  1  0.83082014  0.91470773  0.83643357  1
  Cu+  Cu64  1  0.08723177  0.17148887  0.83388954  1
  Cu+  Cu65  1  0.08995854  0.66982686  0.83385355  1
  Cu+  Cu66  1  0.59127714  0.17495478  0.83033288  1
  Cu+  Cu67  1  0.58574805  0.67008755  0.83604943  1
  Cu+  Cu68  1  0.08525882  0.41489404  0.83534512  1
  Cu+  Cu69  1  0.08565716  0.91675233  0.83664572  1
  Cu+  Cu70  1  0.58833947  0.41869573  0.83666168  1
  Cu+  Cu71  1  0.58900471  0.91182156  0.83301561  1
  Cu+  Cu72  1  0.16993994  0.08746478  0.68203575  1
  Cu+  Cu73  1  0.16999152  0.58859799  0.67860431  1
  Cu+  Cu74  1  0.66834229  0.08406594  0.67905547  1
  Cu+  Cu75  1  0.66846109  0.58767148  0.67084230  1
  Cu+  Cu76  1  0.41669020  0.33505942  0.68332594  1
  Cu+  Cu77  1  0.41391891  0.83332799  0.67945288  1
  Cu+  Cu78  1  0.91143793  0.32961124  0.67877036  1
  Cu+  Cu79  1  0.91478733  0.83261583  0.67199159  1
  Cu+  Cu80  1  0.41641241  0.08794743  0.68164139  1
  Cu+  Cu81  1  0.41618840  0.58796466  0.67183973  1
  Cu+  Cu82  1  0.91417547  0.08298782  0.67322846  1
  Cu+  Cu83  1  0.91248425  0.58586853  0.66954101  1
  Cu+  Cu84  1  0.00180940  0.25111889  0.00791251  1
  Cu+  Cu85  1  0.00291618  0.75309945  0.00664537  1
  Cu+  Cu86  1  0.49997994  0.24995614  0.01020187  1
  Cu+  Cu87  1  0.50303466  0.75346390  0.00936591  1
  Cu+  Cu88  1  0.24983251  0.49967768  0.00761578  1
  Cu+  Cu89  1  0.25060944  0.99889639  0.01405149  1
  Cu+  Cu90  1  0.74859087  0.49496927  0.01071522  1
  Cu+  Cu91  1  0.74862198  0.99820725  0.00922549  1
  Cu+  Cu92  1  0.25149532  0.25211234  0.01018160  1
  Cu+  Cu93  1  0.25401010  0.75376688  0.01003006  1
  Cu+  Cu94  1  0.75085563  0.24903239  0.01026681  1
  Cu+  Cu95  1  0.74930180  0.75109161  0.00733522  1
  Cu+  Cu96  1  0.33367847  0.41458209  0.34244962  1
  Cu+  Cu97  1  0.33294253  0.91423235  0.34625124  1
  Cu+  Cu98  1  0.83455498  0.41452036  0.34184469  1
  Cu+  Cu99  1  0.83870934  0.91870866  0.34430209  1
  Cu+  Cu100  1  0.08408446  0.16487824  0.34203807  1
  Cu+  Cu101  1  0.08170910  0.66100000  0.33966688  1
  Cu+  Cu102  1  0.58065727  0.16307892  0.34457863  1
  Cu+  Cu103  1  0.58185262  0.66250068  0.34053912  1
  Cu+  Cu104  1  0.08147737  0.41659928  0.34024270  1
  Cu+  Cu105  1  0.08468298  0.91745189  0.34335523  1
  Cu+  Cu106  1  0.57985247  0.41579287  0.34669441  1
  Cu+  Cu107  1  0.57931040  0.91737537  0.34745048  1
  Cu+  Cu108  1  -0.00039915  0.00248953  0.11569719  1
  Cu+  Cu109  1  0.00429750  0.50360940  0.11231922  1
  Cu+  Cu110  1  0.50430778  0.00338875  0.11936026  1
  Cu+  Cu111  1  0.50098529  0.50548971  0.11571917  1
  Cu+  Cu112  1  0.33109791  0.16268582  0.45427308  1
  Cu+  Cu113  1  0.33142528  0.66169077  0.44947676  1
  Cu+  Cu114  1  0.83574299  0.16853885  0.44794278  1
  Cu+  Cu115  1  0.83634049  0.66298545  0.44364812  1
  Cu+  Cu116  1  0.16569557  0.33489879  0.77428106  1
  Cu+  Cu117  1  0.15674702  0.82905140  0.77723061  1
  Cu+  Cu118  1  0.67021323  0.34202519  0.77742074  1
  Cu+  Cu119  1  0.67113600  0.82997748  0.77812461  1
  Te2-  Te120  1  0.00476621  0.00167668  0.38938246  1
  Te2-  Te121  1  -0.00113602  0.49755495  0.38649487  1
  Te2-  Te122  1  0.49649319  0.00048578  0.39255160  1
  Te2-  Te123  1  0.49681073  0.50034503  0.38916463  1
  Te2-  Te124  1  0.33463642  0.16991093  0.72993126  1
  Te2-  Te125  1  0.33559008  0.66790673  0.72429496  1
  Te2-  Te126  1  0.83385178  0.16424090  0.72366230  1
  Te2-  Te127  1  0.83227387  0.66847123  0.71662448  1
  Te2-  Te128  1  0.16741261  0.33432569  0.05102993  1
  Te2-  Te129  1  0.16616943  0.83072783  0.05343035  1
  Te2-  Te130  1  0.66491534  0.32815406  0.05345300  1
  Te2-  Te131  1  0.66781213  0.83342256  0.05343768  1
  Te2-  Te132  1  0.49389754  0.24529915  0.88360159  1
  Te2-  Te133  1  0.49334478  0.74495376  0.88290237  1
  Te2-  Te134  1  0.99414329  0.24428494  0.88138509  1
  Te2-  Te135  1  1.00020247  0.74873060  0.88003340  1
  Te2-  Te136  1  0.25722255  0.00946808  0.88540112  1
  Te2-  Te137  1  0.25628236  0.50660491  0.88125263  1
  Te2-  Te138  1  0.75600633  0.00732703  0.88272789  1
  Te2-  Te139  1  0.75453178  0.50301133  0.88290958  1
  Te2-  Te140  1  0.25596385  0.24651633  0.88415044  1
  Te2-  Te141  1  0.25793307  0.74588203  0.88313542  1
  Te2-  Te142  1  0.75559643  0.24291221  0.88332770  1
  Te2-  Te143  1  0.75246509  0.74770753  0.88143185  1
  Te2-  Te144  1  0.32785212  0.41122386  0.21685133  1
  Te2-  Te145  1  0.32258439  0.90634645  0.22010588  1
  Te2-  Te146  1  0.82333712  0.40653533  0.21593763  1
  Te2-  Te147  1  0.82889514  0.91361072  0.21763079  1
  Te2-  Te148  1  0.08796173  0.16914332  0.21567004  1
  Te2-  Te149  1  0.08156675  0.66798826  0.21329318  1
  Te2-  Te150  1  0.58068547  0.16690715  0.21812660  1
  Te2-  Te151  1  0.58580322  0.66595318  0.21413623  1
  Te2-  Te152  1  0.08685037  0.41375650  0.21475550  1
  Te2-  Te153  1  0.08427495  0.90747326  0.21732920  1
  Te2-  Te154  1  0.58433891  0.40544404  0.21919790  1
  Te2-  Te155  1  0.58535999  0.91293016  0.22075059  1
  Te2-  Te156  1  0.16364917  0.08388049  0.55473731  1
  Te2-  Te157  1  0.16100926  0.58201642  0.55222929  1
  Te2-  Te158  1  0.65873893  0.08114496  0.55163670  1
  Te2-  Te159  1  0.65747263  0.58730257  0.54545527  1
  Te2-  Te160  1  0.41762699  0.34478335  0.55556264  1
  Te2-  Te161  1  0.41786554  0.84448277  0.55217159  1
  Te2-  Te162  1  0.91699645  0.33749189  0.55214914  1
  Te2-  Te163  1  0.92411430  0.84400867  0.54687556  1
  Te2-  Te164  1  0.41985266  0.08704474  0.55367442  1
  Te2-  Te165  1  0.41933607  0.58717691  0.54604283  1
  Te2-  Te166  1  0.92079421  0.08284120  0.54764686  1
  Te2-  Te167  1  0.91342212  0.58021343  0.54405562  1
  Te2-  Te168  1  0.00004807  0.00089689  0.88192881  1
  Te2-  Te169  1  0.00064749  0.50113830  0.88191637  1
  Te2-  Te170  1  0.50081267  -0.00001219  0.87981927  1
  Te2-  Te171  1  0.50004423  0.50071881  0.88165704  1
  Te2-  Te172  1  0.33260487  0.16586293  0.21755638  1
  Te2-  Te173  1  0.33273000  0.66548673  0.21664625  1
  Te2-  Te174  1  0.83529292  0.16842017  0.21715874  1
  Te2-  Te175  1  0.83354082  0.66578696  0.21465469  1
  Te2-  Te176  1  0.16524440  0.33440776  0.55087187  1
  Te2-  Te177  1  0.16439935  0.83199140  0.55110295  1
  Te2-  Te178  1  0.66766533  0.33555188  0.55151476  1
  Te2-  Te179  1  0.66668550  0.83278866  0.54828051  1
  Te2-  Te180  1  0.32568899  0.41832150  0.70665255  1
  Te2-  Te181  1  0.32247985  0.91479232  0.70527521  1
  Te2-  Te182  1  0.82712245  0.41761113  0.70790057  1
  Te2-  Te183  1  0.82849472  0.91460674  0.70963580  1
  Te2-  Te184  1  0.08426351  0.17542637  0.70706086  1
  Te2-  Te185  1  0.08148754  0.67281530  0.70682365  1
  Te2-  Te186  1  0.58957165  0.17844343  0.70485756  1
  Te2-  Te187  1  0.58515842  0.67300079  0.70903729  1
  Te2-  Te188  1  0.08584119  0.41414356  0.70664879  1
  Te2-  Te189  1  0.08451768  0.91360411  0.70854724  1
  Te2-  Te190  1  0.59019020  0.41914082  0.70872631  1
  Te2-  Te191  1  0.58722696  0.91135616  0.70638762  1
  Te2-  Te192  1  0.16033550  0.08174979  0.04408227  1
  Te2-  Te193  1  0.16341858  0.58273845  0.04372267  1
  Te2-  Te194  1  0.66152327  0.07982983  0.04770594  1
  Te2-  Te195  1  0.66013408  0.57986952  0.04267550  1
  Te2-  Te196  1  0.42027142  0.33877625  0.04626258  1
  Te2-  Te197  1  0.42259166  0.84203558  0.04735551  1
  Te2-  Te198  1  0.92087810  0.33969442  0.04418165  1
  Te2-  Te199  1  0.91881470  0.83764546  0.04446860  1
  Te2-  Te200  1  0.42267178  0.08064140  0.04599318  1
  Te2-  Te201  1  0.41958526  0.58215551  0.04511341  1
  Te2-  Te202  1  0.91914379  0.08119837  0.04573565  1
  Te2-  Te203  1  0.92213865  0.58176239  0.04126799  1
  Te2-  Te204  1  0.49088116  0.24361914  0.38107327  1
  Te2-  Te205  1  0.49318084  0.74400843  0.37623573  1
  Te2-  Te206  1  0.99543671  0.24708845  0.37786520  1
  Te2-  Te207  1  0.99645080  0.74626410  0.37631714  1
  Te2-  Te208  1  0.25319200  0.00485571  0.38248131  1
  Te2-  Te209  1  0.25109195  0.50308676  0.37856108  1
  Te2-  Te210  1  0.75410211  0.00800941  0.37526301  1
  Te2-  Te211  1  0.75326659  0.50383829  0.37540390  1
  Te2-  Te212  1  0.25310584  0.24592529  0.38146889  1
  Te2-  Te213  1  0.25066324  0.74344890  0.37995499  1
  Te2-  Te214  1  0.75028726  0.24603306  0.38019608  1
  Te2-  Te215  1  0.75196111  0.74555777  0.37358872  1
