# generated using pymatgen
data_Ti(CuTe)4
_symmetry_space_group_name_H-M   'P 1'
_cell_length_a   16.85586862
_cell_length_b   16.85407030
_cell_length_c   20.65876166
_cell_angle_alpha   89.99135801
_cell_angle_beta   89.98743085
_cell_angle_gamma   120.00114514
_symmetry_Int_Tables_number   1
_chemical_formula_structural   Ti(CuTe)4
_chemical_formula_sum   'Ti24 Cu96 Te96'
_cell_volume   5082.59861696
_cell_formula_units_Z   24
loop_
 _symmetry_equiv_pos_site_id
 _symmetry_equiv_pos_as_xyz
  1  'x, y, z'
loop_
 _atom_type_symbol
 _atom_type_oxidation_number
  Ti4+  4.0
  Cu+  1.0
  Te2-  -2.0
loop_
 _atom_site_type_symbol
 _atom_site_label
 _atom_site_symmetry_multiplicity
 _atom_site_fract_x
 _atom_site_fract_y
 _atom_site_fract_z
 _atom_site_occupancy
  Ti4+  Ti0  1  0.00070814  -0.00228329  0.25590630  1
  Ti4+  Ti1  1  -0.00454845  0.49880680  0.25220968  1
  Ti4+  Ti2  1  0.50210142  -0.00349271  0.26047698  1
  Ti4+  Ti3  1  0.49448365  0.49571535  0.25707825  1
  Ti4+  Ti4  1  0.33489521  0.16814063  0.59390661  1
  Ti4+  Ti5  1  0.33607042  0.66763844  0.58914721  1
  Ti4+  Ti6  1  0.83486079  0.16766778  0.59238851  1
  Ti4+  Ti7  1  0.83283366  0.66616525  0.59180048  1
  Ti4+  Ti8  1  0.16860616  0.33451166  0.92494477  1
  Ti4+  Ti9  1  0.16890594  0.83788656  0.92242545  1
  Ti4+  Ti10  1  0.66781219  0.33427852  0.92680559  1
  Ti4+  Ti11  1  0.66588498  0.83492207  0.92713590  1
  Ti4+  Ti12  1  0.00136749  0.00057524  0.75527897  1
  Ti4+  Ti13  1  0.00012820  0.50009367  0.75659650  1
  Ti4+  Ti14  1  0.49977331  -0.00034812  0.75743547  1
  Ti4+  Ti15  1  0.49980262  0.50021857  0.75823639  1
  Ti4+  Ti16  1  0.33242735  0.16789249  0.09081782  1
  Ti4+  Ti17  1  0.33334380  0.66664006  0.08802308  1
  Ti4+  Ti18  1  0.83252644  0.16596847  0.08603976  1
  Ti4+  Ti19  1  0.83514108  0.66750529  0.08628287  1
  Ti4+  Ti20  1  0.16740682  0.33296239  0.42373424  1
  Ti4+  Ti21  1  0.16636991  0.83226022  0.42221096  1
  Ti4+  Ti22  1  0.66548707  0.33184275  0.42259051  1
  Ti4+  Ti23  1  0.66493358  0.83222985  0.42028567  1
  Cu+  Cu24  1  0.74325981  0.98100775  0.14323967  1
  Cu+  Cu25  1  0.18705109  0.09785725  0.80786326  1
  Cu+  Cu26  1  0.73332895  0.24809872  0.14148038  1
  Cu+  Cu27  1  0.41511402  0.09894855  0.81106713  1
  Cu+  Cu28  1  0.23419991  0.25599194  0.14245532  1
  Cu+  Cu29  1  0.23645623  0.48105420  0.14224940  1
  Cu+  Cu30  1  0.02660449  0.76253856  0.13512615  1
  Cu+  Cu31  1  0.35992943  0.42818020  0.47617944  1
  Cu+  Cu32  1  0.73726230  0.48355664  0.14137615  1
  Cu+  Cu33  1  0.58000901  0.92884698  0.47967332  1
  Cu+  Cu34  1  0.51513456  0.75210728  0.14400876  1
  Cu+  Cu35  1  0.35157560  0.93176367  0.47808688  1
  Cu+  Cu36  1  0.16325863  0.08281940  0.17023274  1
  Cu+  Cu37  1  0.16021299  0.57902818  0.16546074  1
  Cu+  Cu38  1  0.66223367  0.07603805  0.17020118  1
  Cu+  Cu39  1  0.66121710  0.57797955  0.16852257  1
  Cu+  Cu40  1  0.41024533  0.33411091  0.17048936  1
  Cu+  Cu41  1  0.42271545  0.83585661  0.17135838  1
  Cu+  Cu42  1  0.91211702  0.33686665  0.16314358  1
  Cu+  Cu43  1  0.92486090  0.83553535  0.16660819  1
  Cu+  Cu44  1  0.41439629  0.07861883  0.17400472  1
  Cu+  Cu45  1  0.41305464  0.57692807  0.16908148  1
  Cu+  Cu46  1  0.91641921  0.07803794  0.16682332  1
  Cu+  Cu47  1  0.91699670  0.58234900  0.16423647  1
  Cu+  Cu48  1  0.49749872  0.24760117  0.50595218  1
  Cu+  Cu49  1  0.49436814  0.74998775  0.50009856  1
  Cu+  Cu50  1  0.99755202  0.24942894  0.50578965  1
  Cu+  Cu51  1  0.99398165  0.74690201  0.50445810  1
  Cu+  Cu52  1  0.25205120  0.00344183  0.50852400  1
  Cu+  Cu53  1  0.25695308  0.50269405  0.50333613  1
  Cu+  Cu54  1  0.75309710  0.00551207  0.50432012  1
  Cu+  Cu55  1  0.74999610  0.50198098  0.50491042  1
  Cu+  Cu56  1  0.25643061  0.25356579  0.50788908  1
  Cu+  Cu57  1  0.25518926  0.75317965  0.50161603  1
  Cu+  Cu58  1  0.75450817  0.25058399  0.50477567  1
  Cu+  Cu59  1  0.75117391  0.74748607  0.50359921  1
  Cu+  Cu60  1  0.33061011  0.41620770  0.83972069  1
  Cu+  Cu61  1  0.33097997  0.92062771  0.83587228  1
  Cu+  Cu62  1  0.83166803  0.41571305  0.84143914  1
  Cu+  Cu63  1  0.83041386  0.91873675  0.83963097  1
  Cu+  Cu64  1  0.08890398  0.17089952  0.83793898  1
  Cu+  Cu65  1  0.08319535  0.66990155  0.83784137  1
  Cu+  Cu66  1  0.58595297  0.17093417  0.84164856  1
  Cu+  Cu67  1  0.58032445  0.66859372  0.84159840  1
  Cu+  Cu68  1  0.08798155  0.41992381  0.83924193  1
  Cu+  Cu69  1  0.08957609  0.92079022  0.83535784  1
  Cu+  Cu70  1  0.58705642  0.41904765  0.84085318  1
  Cu+  Cu71  1  0.58561515  0.91512531  0.84131394  1
  Cu+  Cu72  1  0.17074413  0.08415045  0.67973259  1
  Cu+  Cu73  1  0.17020041  0.58523010  0.67130878  1
  Cu+  Cu74  1  0.66961400  0.08241546  0.67753464  1
  Cu+  Cu75  1  0.66957844  0.58520748  0.67561537  1
  Cu+  Cu76  1  0.41743639  0.33497938  0.67867911  1
  Cu+  Cu77  1  0.41857835  0.83142283  0.67679393  1
  Cu+  Cu78  1  0.91570547  0.33074222  0.67595400  1
  Cu+  Cu79  1  0.91246793  0.82912294  0.67457461  1
  Cu+  Cu80  1  0.41584355  0.08327061  0.68279850  1
  Cu+  Cu81  1  0.41599051  0.58307275  0.67433332  1
  Cu+  Cu82  1  0.91468017  0.08414087  0.67509267  1
  Cu+  Cu83  1  0.91359636  0.58282335  0.67429976  1
  Cu+  Cu84  1  0.00208761  0.25018130  0.00496271  1
  Cu+  Cu85  1  0.00784530  0.75748068  0.00765180  1
  Cu+  Cu86  1  0.50013972  0.24968449  0.01075008  1
  Cu+  Cu87  1  0.50364451  0.75475218  0.01451079  1
  Cu+  Cu88  1  0.24875638  0.49742519  0.01231106  1
  Cu+  Cu89  1  0.25165467  1.00201507  0.00921240  1
  Cu+  Cu90  1  0.74903641  0.49709266  0.01250087  1
  Cu+  Cu91  1  0.74751052  0.99642580  0.01347634  1
  Cu+  Cu92  1  0.24961881  0.25258972  0.01346746  1
  Cu+  Cu93  1  0.25130122  0.75370688  0.00396123  1
  Cu+  Cu94  1  0.74861463  0.25241568  0.01273746  1
  Cu+  Cu95  1  0.74941507  0.75157997  0.00682841  1
  Cu+  Cu96  1  0.33244345  0.41495323  0.34842048  1
  Cu+  Cu97  1  0.33726318  0.91664110  0.34828093  1
  Cu+  Cu98  1  0.83099227  0.41664391  0.33900886  1
  Cu+  Cu99  1  0.83507787  0.91493308  0.33938654  1
  Cu+  Cu100  1  0.08095095  0.16301527  0.34234469  1
  Cu+  Cu101  1  0.07827459  0.66383201  0.33767323  1
  Cu+  Cu102  1  0.58387919  0.16498053  0.34421583  1
  Cu+  Cu103  1  0.58033738  0.66227872  0.34162096  1
  Cu+  Cu104  1  0.07838169  0.41505101  0.33756456  1
  Cu+  Cu105  1  0.08315370  0.91602375  0.34099333  1
  Cu+  Cu106  1  0.57827516  0.41203963  0.34170471  1
  Cu+  Cu107  1  0.58287369  0.91561560  0.34974456  1
  Cu+  Cu108  1  0.00037730  -0.00011768  0.10983830  1
  Cu+  Cu109  1  0.00028404  0.50191715  0.10492054  1
  Cu+  Cu110  1  0.49649001  0.00049822  0.11619371  1
  Cu+  Cu111  1  0.50105903  0.50126736  0.11141454  1
  Cu+  Cu112  1  0.33062059  0.16538425  0.45068594  1
  Cu+  Cu113  1  0.32521236  0.66165402  0.44350993  1
  Cu+  Cu114  1  0.83594627  0.16924520  0.44736485  1
  Cu+  Cu115  1  0.83088609  0.66331182  0.44764392  1
  Cu+  Cu116  1  0.16396382  0.33529350  0.78212303  1
  Cu+  Cu117  1  0.16349215  0.82812741  0.77934059  1
  Cu+  Cu118  1  0.66936009  0.33666867  0.78491961  1
  Cu+  Cu119  1  0.66745385  0.82966019  0.78573698  1
  Te2-  Te120  1  -0.00051684  -0.00254010  0.38473484  1
  Te2-  Te121  1  -0.00320019  0.49862847  0.38071488  1
  Te2-  Te122  1  0.50310145  0.00237516  0.39262186  1
  Te2-  Te123  1  0.50071269  0.49837058  0.38723178  1
  Te2-  Te124  1  0.33684442  0.17137435  0.72597605  1
  Te2-  Te125  1  0.33361682  0.66566680  0.71812512  1
  Te2-  Te126  1  0.83419555  0.16696531  0.72196814  1
  Te2-  Te127  1  0.83338097  0.66591304  0.72150775  1
  Te2-  Te128  1  0.16239201  0.33173754  0.05761856  1
  Te2-  Te129  1  0.17344388  0.83769168  0.05306902  1
  Te2-  Te130  1  0.66282358  0.33174144  0.05927159  1
  Te2-  Te131  1  0.66871779  0.83109426  0.06017915  1
  Te2-  Te132  1  0.49477987  0.25140583  0.88533832  1
  Te2-  Te133  1  0.49343839  0.74886556  0.88769936  1
  Te2-  Te134  1  0.99896473  0.24919300  0.87937010  1
  Te2-  Te135  1  0.99761798  0.75358128  0.88118682  1
  Te2-  Te136  1  0.25786084  0.01506730  0.88350633  1
  Te2-  Te137  1  0.25446199  0.50661908  0.88561334  1
  Te2-  Te138  1  0.75246718  0.00715369  0.88673937  1
  Te2-  Te139  1  0.75391457  0.50596991  0.88594056  1
  Te2-  Te140  1  0.25772040  0.24967245  0.88623869  1
  Te2-  Te141  1  0.25379003  0.75226346  0.87862414  1
  Te2-  Te142  1  0.75213429  0.24697670  0.88600785  1
  Te2-  Te143  1  0.75066959  0.74970692  0.88143839  1
  Te2-  Te144  1  0.31806254  0.40954870  0.21981220  1
  Te2-  Te145  1  0.33189872  0.91148502  0.22044541  1
  Te2-  Te146  1  0.81941396  0.41084907  0.21276165  1
  Te2-  Te147  1  0.82835132  0.90715663  0.21334930  1
  Te2-  Te148  1  0.08094423  0.17155189  0.21605765  1
  Te2-  Te149  1  0.08642645  0.67206162  0.21153932  1
  Te2-  Te150  1  0.58347935  0.16859705  0.21800440  1
  Te2-  Te151  1  0.58545104  0.66797199  0.21545035  1
  Te2-  Te152  1  0.07813084  0.40832075  0.21184705  1
  Te2-  Te153  1  0.09231207  0.91526112  0.21474790  1
  Te2-  Te154  1  0.57858367  0.40758230  0.21559619  1
  Te2-  Te155  1  0.59067175  0.90926785  0.22063051  1
  Te2-  Te156  1  0.16508277  0.08435774  0.55236650  1
  Te2-  Te157  1  0.16690365  0.58349368  0.54478283  1
  Te2-  Te158  1  0.66095037  0.08355472  0.55139532  1
  Te2-  Te159  1  0.66078238  0.58082498  0.54943938  1
  Te2-  Te160  1  0.42573126  0.34206589  0.55276006  1
  Te2-  Te161  1  0.42310509  0.84527098  0.55055253  1
  Te2-  Te162  1  0.92110710  0.33996659  0.55014416  1
  Te2-  Te163  1  0.91801165  0.83843903  0.54870159  1
  Te2-  Te164  1  0.42319210  0.08245505  0.55522061  1
  Te2-  Te165  1  0.42658169  0.58425564  0.54834461  1
  Te2-  Te166  1  0.91960513  0.08086751  0.54902540  1
  Te2-  Te167  1  0.91809446  0.57950784  0.54830196  1
  Te2-  Te168  1  0.00018724  0.00083653  0.88254167  1
  Te2-  Te169  1  0.00174891  0.50221136  0.88338195  1
  Te2-  Te170  1  0.49919678  -0.00049103  0.88464474  1
  Te2-  Te171  1  0.49953310  0.50039834  0.88509157  1
  Te2-  Te172  1  0.33181779  0.16481008  0.21830049  1
  Te2-  Te173  1  0.32950875  0.66425830  0.21578917  1
  Te2-  Te174  1  0.83470605  0.16744269  0.21384082  1
  Te2-  Te175  1  0.83182210  0.66529993  0.21411159  1
  Te2-  Te176  1  0.16695513  0.33468963  0.55076940  1
  Te2-  Te177  1  0.16404311  0.83084148  0.54932959  1
  Te2-  Te178  1  0.66779529  0.33328072  0.54912836  1
  Te2-  Te179  1  0.66563590  0.83309399  0.54721747  1
  Te2-  Te180  1  0.32715147  0.41444249  0.71320281  1
  Te2-  Te181  1  0.32672323  0.91020106  0.70982149  1
  Te2-  Te182  1  0.82814575  0.41341613  0.71377514  1
  Te2-  Te183  1  0.82840484  0.91459510  0.71275161  1
  Te2-  Te184  1  0.08607360  0.17339099  0.71032257  1
  Te2-  Te185  1  0.08485920  0.66986730  0.70976028  1
  Te2-  Te186  1  0.58949243  0.17322277  0.71371806  1
  Te2-  Te187  1  0.58519301  0.67125431  0.71367149  1
  Te2-  Te188  1  0.08697967  0.41610172  0.71136068  1
  Te2-  Te189  1  0.08398609  0.91063053  0.70871367  1
  Te2-  Te190  1  0.58763919  0.41553449  0.71404784  1
  Te2-  Te191  1  0.58704419  0.91333312  0.71487220  1
  Te2-  Te192  1  0.16021702  0.07990798  0.04291663  1
  Te2-  Te193  1  0.16191111  0.58423733  0.03869234  1
  Te2-  Te194  1  0.65672137  0.07904785  0.04276071  1
  Te2-  Te195  1  0.66074597  0.58187810  0.04136990  1
  Te2-  Te196  1  0.42152678  0.34107009  0.04392194  1
  Te2-  Te197  1  0.41825830  0.84140443  0.04462935  1
  Te2-  Te198  1  0.92199079  0.33978209  0.03773087  1
  Te2-  Te199  1  0.91950031  0.84073701  0.04007260  1
  Te2-  Te200  1  0.41942689  0.08145239  0.04708636  1
  Te2-  Te201  1  0.42124625  0.58043160  0.04170001  1
  Te2-  Te202  1  0.92159944  0.08122531  0.04008514  1
  Te2-  Te203  1  0.92320513  0.58355205  0.03697223  1
  Te2-  Te204  1  0.49181282  0.24321569  0.37924078  1
  Te2-  Te205  1  0.48988228  0.74166945  0.37422677  1
  Te2-  Te206  1  0.99557335  0.24747041  0.37843762  1
  Te2-  Te207  1  0.99382033  0.74675252  0.37766074  1
  Te2-  Te208  1  0.25287772  0.00577860  0.37947789  1
  Te2-  Te209  1  0.24739761  0.50360664  0.37514952  1
  Te2-  Te210  1  0.75704794  0.00652563  0.37645497  1
  Te2-  Te211  1  0.74878743  0.50337989  0.37709037  1
  Te2-  Te212  1  0.25006785  0.24250451  0.37955420  1
  Te2-  Te213  1  0.24834575  0.74291952  0.37412876  1
  Te2-  Te214  1  0.75395129  0.24773021  0.37768037  1
  Te2-  Te215  1  0.75070895  0.74518834  0.37661825  1
