# generated using pymatgen
data_Ti(CuTe)4
_symmetry_space_group_name_H-M   'P 1'
_cell_length_a   16.85264235
_cell_length_b   16.85760753
_cell_length_c   20.66131531
_cell_angle_alpha   90.04532702
_cell_angle_beta   90.00736922
_cell_angle_gamma   119.98987979
_symmetry_Int_Tables_number   1
_chemical_formula_structural   Ti(CuTe)4
_chemical_formula_sum   'Ti24 Cu96 Te96'
_cell_volume   5083.89537143
_cell_formula_units_Z   24
loop_
 _symmetry_equiv_pos_site_id
 _symmetry_equiv_pos_as_xyz
  1  'x, y, z'
loop_
 _atom_type_symbol
 _atom_type_oxidation_number
  Ti4+  4.0
  Cu+  1.0
  Te2-  -2.0
loop_
 _atom_site_type_symbol
 _atom_site_label
 _atom_site_symmetry_multiplicity
 _atom_site_fract_x
 _atom_site_fract_y
 _atom_site_fract_z
 _atom_site_occupancy
  Ti4+  Ti0  1  0.00030174  0.00026212  0.25856094  1
  Ti4+  Ti1  1  -0.00332700  0.49608545  0.25850532  1
  Ti4+  Ti2  1  0.49687311  -0.00151269  0.25496614  1
  Ti4+  Ti3  1  0.49700448  0.49853520  0.25818377  1
  Ti4+  Ti4  1  0.33446503  0.16663217  0.59125379  1
  Ti4+  Ti5  1  0.33432249  0.66699690  0.59109076  1
  Ti4+  Ti6  1  0.83581277  0.16553339  0.59120909  1
  Ti4+  Ti7  1  0.83240799  0.66342920  0.58692486  1
  Ti4+  Ti8  1  0.16719536  0.33624087  0.92552263  1
  Ti4+  Ti9  1  0.16685343  0.83645436  0.92531933  1
  Ti4+  Ti10  1  0.67088336  0.33424385  0.92694382  1
  Ti4+  Ti11  1  0.66520252  0.83241903  0.92358664  1
  Ti4+  Ti12  1  0.00168462  -0.00022739  0.75618082  1
  Ti4+  Ti13  1  -0.00039662  0.49804821  0.75814141  1
  Ti4+  Ti14  1  0.50160020  0.00125695  0.75440381  1
  Ti4+  Ti15  1  0.50073203  0.50367869  0.75800396  1
  Ti4+  Ti16  1  0.33414980  0.16654902  0.08797815  1
  Ti4+  Ti17  1  0.33341722  0.66628060  0.09008808  1
  Ti4+  Ti18  1  0.83436134  0.16984972  0.09009888  1
  Ti4+  Ti19  1  0.83337985  0.66749943  0.09050753  1
  Ti4+  Ti20  1  0.16631597  0.33298081  0.42169144  1
  Ti4+  Ti21  1  0.16583438  0.83225356  0.42079346  1
  Ti4+  Ti22  1  0.66762676  0.33545136  0.42189588  1
  Ti4+  Ti23  1  0.66651615  0.83325063  0.42022117  1
  Cu+  Cu24  1  0.85018364  0.91967819  0.47504890  1
  Cu+  Cu25  1  0.90383315  0.30691513  0.80963007  1
  Cu+  Cu26  1  0.07820410  0.14920182  0.47606764  1
  Cu+  Cu27  1  0.85008178  0.41996908  0.47879903  1
  Cu+  Cu28  1  0.57000836  0.64756945  0.47396363  1
  Cu+  Cu29  1  0.57068837  0.42099413  0.47569074  1
  Cu+  Cu30  1  0.07838037  0.64568378  0.47339443  1
  Cu+  Cu31  1  0.23598497  0.47468203  0.14093657  1
  Cu+  Cu32  1  0.39996023  0.59856573  0.80840758  1
  Cu+  Cu33  1  0.73610954  0.48208667  0.14457358  1
  Cu+  Cu34  1  0.73561739  0.25660423  0.14390769  1
  Cu+  Cu35  1  0.23499170  0.97533987  0.13963830  1
  Cu+  Cu36  1  0.16552444  0.08059279  0.17119450  1
  Cu+  Cu37  1  0.16512313  0.57823413  0.17319482  1
  Cu+  Cu38  1  0.66381195  0.08360890  0.17076287  1
  Cu+  Cu39  1  0.66303560  0.58129098  0.17343679  1
  Cu+  Cu40  1  0.41846114  0.33712320  0.16999389  1
  Cu+  Cu41  1  0.41752015  0.83713387  0.16957683  1
  Cu+  Cu42  1  0.91292633  0.33731392  0.17019363  1
  Cu+  Cu43  1  0.91555605  0.83871481  0.17142154  1
  Cu+  Cu44  1  0.41149621  0.07512557  0.16716663  1
  Cu+  Cu45  1  0.41161763  0.57714194  0.17195503  1
  Cu+  Cu46  1  0.91885616  0.08346981  0.17364791  1
  Cu+  Cu47  1  0.91217020  0.57844295  0.17238069  1
  Cu+  Cu48  1  0.49670042  0.24932717  0.50409991  1
  Cu+  Cu49  1  0.49548420  0.74606726  0.50276444  1
  Cu+  Cu50  1  0.99786568  0.24547825  0.50255710  1
  Cu+  Cu51  1  0.99832383  0.74371560  0.49907790  1
  Cu+  Cu52  1  0.25419789  0.00396592  0.50307952  1
  Cu+  Cu53  1  0.25426600  0.50478778  0.50321491  1
  Cu+  Cu54  1  0.75727383  0.00330070  0.50097711  1
  Cu+  Cu55  1  0.75312863  0.50341623  0.49913896  1
  Cu+  Cu56  1  0.25119047  0.24687845  0.50345131  1
  Cu+  Cu57  1  0.24951184  0.74722260  0.50431035  1
  Cu+  Cu58  1  0.75488682  0.24832011  0.50439861  1
  Cu+  Cu59  1  0.74879131  0.74518968  0.49902356  1
  Cu+  Cu60  1  0.33300473  0.42464530  0.84071609  1
  Cu+  Cu61  1  0.33190331  0.91959206  0.83865250  1
  Cu+  Cu62  1  0.83130625  0.41104498  0.84073834  1
  Cu+  Cu63  1  0.83164493  0.91385852  0.83809166  1
  Cu+  Cu64  1  0.08601429  0.16951905  0.83942336  1
  Cu+  Cu65  1  0.08391357  0.67154068  0.83993348  1
  Cu+  Cu66  1  0.58786015  0.16983627  0.83825300  1
  Cu+  Cu67  1  0.57950664  0.67148705  0.83713881  1
  Cu+  Cu68  1  0.08071910  0.41188450  0.83938185  1
  Cu+  Cu69  1  0.08684027  0.91703098  0.83930224  1
  Cu+  Cu70  1  0.58965026  0.42027351  0.84184887  1
  Cu+  Cu71  1  0.58622806  0.91603421  0.83564367  1
  Cu+  Cu72  1  0.16986449  0.08416530  0.67548604  1
  Cu+  Cu73  1  0.16684108  0.58415460  0.67649655  1
  Cu+  Cu74  1  0.66984847  0.08539674  0.67317492  1
  Cu+  Cu75  1  0.66727796  0.58297722  0.67474206  1
  Cu+  Cu76  1  0.41759128  0.33253652  0.67791330  1
  Cu+  Cu77  1  0.41642317  0.83313196  0.67380477  1
  Cu+  Cu78  1  0.91665914  0.33008590  0.68122450  1
  Cu+  Cu79  1  0.91743859  0.83021159  0.67239873  1
  Cu+  Cu80  1  0.41815736  0.08665632  0.67410419  1
  Cu+  Cu81  1  0.41679685  0.58727177  0.68008509  1
  Cu+  Cu82  1  0.91871874  0.08357476  0.67738434  1
  Cu+  Cu83  1  0.91589662  0.58131022  0.67576807  1
  Cu+  Cu84  1  0.00217369  0.25199951  0.01067223  1
  Cu+  Cu85  1  0.00175306  0.75522263  0.00884434  1
  Cu+  Cu86  1  0.50283178  0.25242224  0.00796051  1
  Cu+  Cu87  1  0.50311945  0.75182952  0.00829598  1
  Cu+  Cu88  1  0.24882162  0.49804679  0.01333151  1
  Cu+  Cu89  1  0.24747293  0.99676451  0.01132472  1
  Cu+  Cu90  1  0.75169355  0.49837443  0.01452995  1
  Cu+  Cu91  1  0.75084399  0.99707523  0.00649440  1
  Cu+  Cu92  1  0.25335674  0.25574655  0.00794331  1
  Cu+  Cu93  1  0.25054770  0.75403060  0.00734294  1
  Cu+  Cu94  1  0.75268396  0.25463291  0.01527136  1
  Cu+  Cu95  1  0.74820842  0.75161978  0.00622393  1
  Cu+  Cu96  1  0.33137096  0.41802174  0.34135583  1
  Cu+  Cu97  1  0.33435831  0.91823781  0.33936789  1
  Cu+  Cu98  1  0.83398731  0.41655058  0.34948476  1
  Cu+  Cu99  1  0.83680746  0.92146689  0.34560451  1
  Cu+  Cu100  1  0.08120211  0.16366769  0.34545433  1
  Cu+  Cu101  1  0.07939981  0.66054432  0.34450682  1
  Cu+  Cu102  1  0.58107866  0.16414905  0.33956349  1
  Cu+  Cu103  1  0.57883674  0.66285492  0.34416390  1
  Cu+  Cu104  1  0.08421293  0.41704379  0.34141884  1
  Cu+  Cu105  1  0.08487390  0.91865899  0.34041738  1
  Cu+  Cu106  1  0.58160878  0.41913464  0.34720798  1
  Cu+  Cu107  1  0.58030389  0.91848758  0.33805666  1
  Cu+  Cu108  1  0.00267906  0.00457907  0.11575085  1
  Cu+  Cu109  1  0.00496362  0.50763371  0.11596728  1
  Cu+  Cu110  1  0.50287698  0.00114187  0.11019779  1
  Cu+  Cu111  1  0.50234608  0.50540137  0.11505764  1
  Cu+  Cu112  1  0.33342182  0.16585054  0.44550522  1
  Cu+  Cu113  1  0.33367075  0.67105023  0.44599437  1
  Cu+  Cu114  1  0.83171768  0.16600218  0.44517221  1
  Cu+  Cu115  1  0.83532228  0.67067788  0.44009451  1
  Cu+  Cu116  1  0.16963008  0.33105393  0.78310260  1
  Cu+  Cu117  1  0.16894981  0.83454082  0.78282201  1
  Cu+  Cu118  1  0.66360202  0.33325324  0.78454721  1
  Cu+  Cu119  1  0.67147714  0.83759778  0.77897986  1
  Te2-  Te120  1  0.00222143  -0.00191376  0.39129404  1
  Te2-  Te121  1  0.00065630  0.49561502  0.39096676  1
  Te2-  Te122  1  0.49838723  -0.00012132  0.38430345  1
  Te2-  Te123  1  0.49391001  0.49770554  0.39084205  1
  Te2-  Te124  1  0.33448669  0.16693612  0.72041494  1
  Te2-  Te125  1  0.33130217  0.66992605  0.72142130  1
  Te2-  Te126  1  0.83261136  0.16216680  0.72151418  1
  Te2-  Te127  1  0.83336459  0.66524143  0.71544533  1
  Te2-  Te128  1  0.16605515  0.33085218  0.05616327  1
  Te2-  Te129  1  0.16464354  0.83049314  0.05627405  1
  Te2-  Te130  1  0.66408136  0.33270826  0.05969960  1
  Te2-  Te131  1  0.66711643  0.83380501  0.05311304  1
  Te2-  Te132  1  0.50071652  0.25086732  0.88246795  1
  Te2-  Te133  1  0.49001657  0.75019572  0.88275672  1
  Te2-  Te134  1  0.99284366  0.24334845  0.88503708  1
  Te2-  Te135  1  0.99452841  0.74965497  0.88339246  1
  Te2-  Te136  1  0.25386624  0.00879978  0.88467703  1
  Te2-  Te137  1  0.24853886  0.50995730  0.88610135  1
  Te2-  Te138  1  0.75330513  0.00394339  0.88086813  1
  Te2-  Te139  1  0.75753152  0.50538604  0.88704595  1
  Te2-  Te140  1  0.25548349  0.25447641  0.88204841  1
  Te2-  Te141  1  0.25247101  0.75083118  0.88176992  1
  Te2-  Te142  1  0.75340639  0.24279971  0.88772304  1
  Te2-  Te143  1  0.74858806  0.74472968  0.88046659  1
  Te2-  Te144  1  0.32336533  0.40811400  0.21636973  1
  Te2-  Te145  1  0.32173192  0.90754273  0.21445751  1
  Te2-  Te146  1  0.81972481  0.41008471  0.22122443  1
  Te2-  Te147  1  0.82797746  0.91645164  0.21902750  1
  Te2-  Te148  1  0.08774954  0.17095818  0.21779462  1
  Te2-  Te149  1  0.08194579  0.66521037  0.21695092  1
  Te2-  Te150  1  0.57925318  0.17160964  0.21392490  1
  Te2-  Te151  1  0.58096608  0.66820147  0.21653942  1
  Te2-  Te152  1  0.08078021  0.40743089  0.21603949  1
  Te2-  Te153  1  0.08283485  0.91034734  0.21521258  1
  Te2-  Te154  1  0.58289100  0.41038580  0.21997099  1
  Te2-  Te155  1  0.58550851  0.91533692  0.21272141  1
  Te2-  Te156  1  0.16073050  0.07683136  0.54962543  1
  Te2-  Te157  1  0.16046903  0.57709666  0.55058904  1
  Te2-  Te158  1  0.66629379  0.08032987  0.54691869  1
  Te2-  Te159  1  0.65674039  0.57690397  0.54802029  1
  Te2-  Te160  1  0.41755725  0.34036907  0.55098066  1
  Te2-  Te161  1  0.41815775  0.83676108  0.54711510  1
  Te2-  Te162  1  0.92496882  0.33897602  0.55269668  1
  Te2-  Te163  1  0.92151074  0.83522361  0.54586037  1
  Te2-  Te164  1  0.42191180  0.08264309  0.54809013  1
  Te2-  Te165  1  0.41952974  0.57775106  0.55243442  1
  Te2-  Te166  1  0.92374119  0.07669698  0.55072678  1
  Te2-  Te167  1  0.92204092  0.57629203  0.54922742  1
  Te2-  Te168  1  0.00047288  0.00024446  0.88271814  1
  Te2-  Te169  1  0.00145204  0.50277060  0.88503349  1
  Te2-  Te170  1  0.50172209  0.00062448  0.88090324  1
  Te2-  Te171  1  0.50285867  0.50310644  0.88495932  1
  Te2-  Te172  1  0.33480581  0.16722791  0.21516508  1
  Te2-  Te173  1  0.33418473  0.66867811  0.21727080  1
  Te2-  Te174  1  0.83293944  0.16767047  0.21737116  1
  Te2-  Te175  1  0.83329458  0.66959708  0.21774937  1
  Te2-  Te176  1  0.16830622  0.33463167  0.54883538  1
  Te2-  Te177  1  0.16681167  0.83452749  0.54807702  1
  Te2-  Te178  1  0.66873212  0.33377016  0.54958504  1
  Te2-  Te179  1  0.66731056  0.83344617  0.54790640  1
  Te2-  Te180  1  0.32847305  0.41447551  0.71266370  1
  Te2-  Te181  1  0.32914253  0.91623736  0.71104918  1
  Te2-  Te182  1  0.82625562  0.41264840  0.71329507  1
  Te2-  Te183  1  0.83026546  0.91255670  0.71029284  1
  Te2-  Te184  1  0.08847725  0.17245145  0.71232292  1
  Te2-  Te185  1  0.08453651  0.67067821  0.71326464  1
  Te2-  Te186  1  0.58857257  0.17380756  0.71097606  1
  Te2-  Te187  1  0.58966540  0.67520822  0.71002909  1
  Te2-  Te188  1  0.08957259  0.41469408  0.71253863  1
  Te2-  Te189  1  0.08699733  0.91340722  0.71164520  1
  Te2-  Te190  1  0.58650014  0.41603978  0.71472824  1
  Te2-  Te191  1  0.58717323  0.91477694  0.70881783  1
  Te2-  Te192  1  0.16157514  0.08454881  0.04335126  1
  Te2-  Te193  1  0.16156851  0.58413223  0.04476298  1
  Te2-  Te194  1  0.66300187  0.07989758  0.04281003  1
  Te2-  Te195  1  0.66139995  0.58201681  0.04498036  1
  Te2-  Te196  1  0.42202064  0.34065699  0.04444611  1
  Te2-  Te197  1  0.41946062  0.83812432  0.04377121  1
  Te2-  Te198  1  0.92483379  0.34424917  0.04466624  1
  Te2-  Te199  1  0.91702784  0.83960068  0.04548959  1
  Te2-  Te200  1  0.42168426  0.08162593  0.04069484  1
  Te2-  Te201  1  0.42180478  0.58228886  0.04433829  1
  Te2-  Te202  1  0.91922414  0.08212901  0.04673165  1
  Te2-  Te203  1  0.92380339  0.58502761  0.04529644  1
  Te2-  Te204  1  0.49409107  0.24620979  0.37685697  1
  Te2-  Te205  1  0.49316077  0.74944532  0.37547862  1
  Te2-  Te206  1  0.99242914  0.24739479  0.37590187  1
  Te2-  Te207  1  0.99361660  0.74785898  0.37240524  1
  Te2-  Te208  1  0.25319962  0.00542911  0.37682785  1
  Te2-  Te209  1  0.25254159  0.50723300  0.37751828  1
  Te2-  Te210  1  0.74965912  0.00646855  0.37469840  1
  Te2-  Te211  1  0.75433299  0.51018776  0.37292932  1
  Te2-  Te212  1  0.25453723  0.24792044  0.37598447  1
  Te2-  Te213  1  0.25296123  0.74741238  0.37547421  1
  Te2-  Te214  1  0.74972721  0.24384179  0.37682118  1
  Te2-  Te215  1  0.75274580  0.74690788  0.37137066  1
