# generated using pymatgen
data_Ti(CuTe)4
_symmetry_space_group_name_H-M   'P 1'
_cell_length_a   16.88991900
_cell_length_b   16.89125289
_cell_length_c   20.71170335
_cell_angle_alpha   90.02828734
_cell_angle_beta   89.98745691
_cell_angle_gamma   120.00099116
_symmetry_Int_Tables_number   1
_chemical_formula_structural   Ti(CuTe)4
_chemical_formula_sum   'Ti24 Cu96 Te96'
_cell_volume   5117.18936797
_cell_formula_units_Z   24
loop_
 _symmetry_equiv_pos_site_id
 _symmetry_equiv_pos_as_xyz
  1  'x, y, z'
loop_
 _atom_type_symbol
 _atom_type_oxidation_number
  Ti4+  4.0
  Cu+  1.0
  Te2-  -2.0
loop_
 _atom_site_type_symbol
 _atom_site_label
 _atom_site_symmetry_multiplicity
 _atom_site_fract_x
 _atom_site_fract_y
 _atom_site_fract_z
 _atom_site_occupancy
  Ti4+  Ti0  1  -0.00341091  -0.00212802  0.25551113  1
  Ti4+  Ti1  1  -0.00027785  0.49937457  0.25966436  1
  Ti4+  Ti2  1  0.49975618  0.00002331  0.26060904  1
  Ti4+  Ti3  1  0.50181647  0.49758880  0.25753505  1
  Ti4+  Ti4  1  0.33207661  0.16810594  0.58938769  1
  Ti4+  Ti5  1  0.33346724  0.66826387  0.58730808  1
  Ti4+  Ti6  1  0.83338830  0.16562100  0.59029411  1
  Ti4+  Ti7  1  0.83317622  0.66642322  0.59197061  1
  Ti4+  Ti8  1  0.16965440  0.33619174  0.92171878  1
  Ti4+  Ti9  1  0.16961555  0.83278760  0.92380465  1
  Ti4+  Ti10  1  0.66442957  0.33191486  0.92721681  1
  Ti4+  Ti11  1  0.66711446  0.83459941  0.92747614  1
  Ti4+  Ti12  1  -0.00106208  0.00043696  0.75526708  1
  Ti4+  Ti13  1  0.00291661  0.50253168  0.75570947  1
  Ti4+  Ti14  1  0.49984545  0.00099225  0.75713601  1
  Ti4+  Ti15  1  0.49821068  0.49882335  0.75628695  1
  Ti4+  Ti16  1  0.33307910  0.16708493  0.08970643  1
  Ti4+  Ti17  1  0.33356988  0.66677798  0.09139876  1
  Ti4+  Ti18  1  0.83400872  0.16685393  0.08871019  1
  Ti4+  Ti19  1  0.83354658  0.66668349  0.08578118  1
  Ti4+  Ti20  1  0.16743154  0.33239501  0.41974811  1
  Ti4+  Ti21  1  0.16555079  0.83243268  0.41944581  1
  Ti4+  Ti22  1  0.66676100  0.33403246  0.42319571  1
  Ti4+  Ti23  1  0.66610012  0.83389519  0.42149140  1
  Cu+  Cu24  1  0.73744206  0.98275446  0.14358187  1
  Cu+  Cu25  1  0.40565368  0.30835787  0.80803042  1
  Cu+  Cu26  1  0.35536994  0.42862910  0.47253306  1
  Cu+  Cu27  1  0.07173566  0.14358662  0.47064487  1
  Cu+  Cu28  1  0.07462003  0.41823122  0.47829470  1
  Cu+  Cu29  1  0.07029608  0.65088528  0.47587304  1
  Cu+  Cu30  1  0.74747341  0.48450046  0.14174627  1
  Cu+  Cu31  1  0.57779329  0.92954904  0.47736562  1
  Cu+  Cu32  1  0.51740733  0.25364992  0.14389056  1
  Cu+  Cu33  1  0.19649646  0.59889086  0.80500781  1
  Cu+  Cu34  1  0.73840270  0.75224484  0.14137725  1
  Cu+  Cu35  1  0.34647111  0.92713435  0.47717548  1
  Cu+  Cu36  1  0.16182729  0.08172993  0.17084506  1
  Cu+  Cu37  1  0.16399027  0.58194279  0.17487460  1
  Cu+  Cu38  1  0.66235317  0.07915319  0.17212269  1
  Cu+  Cu39  1  0.66202048  0.57701192  0.16747432  1
  Cu+  Cu40  1  0.42198031  0.33406642  0.17110000  1
  Cu+  Cu41  1  0.41697123  0.83529287  0.17477071  1
  Cu+  Cu42  1  0.92050765  0.33673930  0.17141242  1
  Cu+  Cu43  1  0.91410283  0.83727875  0.16597560  1
  Cu+  Cu44  1  0.41862225  0.08280656  0.17421262  1
  Cu+  Cu45  1  0.41564695  0.57928699  0.17277507  1
  Cu+  Cu46  1  0.91416176  0.07790317  0.16881804  1
  Cu+  Cu47  1  0.91902730  0.57982724  0.17025599  1
  Cu+  Cu48  1  0.49685312  0.25166662  0.50383584  1
  Cu+  Cu49  1  0.49650318  0.75290325  0.50054003  1
  Cu+  Cu50  1  0.99536304  0.24358661  0.50216810  1
  Cu+  Cu51  1  0.99326934  0.74537071  0.50355721  1
  Cu+  Cu52  1  0.25206268  0.00566253  0.50124636  1
  Cu+  Cu53  1  0.25345667  0.50432843  0.49951502  1
  Cu+  Cu54  1  0.75009430  0.00431232  0.50346897  1
  Cu+  Cu55  1  0.75121375  0.50367852  0.50561529  1
  Cu+  Cu56  1  0.25184104  0.24994873  0.50097314  1
  Cu+  Cu57  1  0.25025037  0.74801534  0.49894390  1
  Cu+  Cu58  1  0.75058264  0.24886761  0.50425823  1
  Cu+  Cu59  1  0.75082202  0.74848928  0.50609560  1
  Cu+  Cu60  1  0.32977727  0.41125779  0.83538113  1
  Cu+  Cu61  1  0.33059149  0.91425969  0.83803649  1
  Cu+  Cu62  1  0.83201523  0.41731382  0.84109106  1
  Cu+  Cu63  1  0.83018199  0.91673756  0.84048365  1
  Cu+  Cu64  1  0.08424077  0.17061377  0.83598711  1
  Cu+  Cu65  1  0.09373177  0.67036630  0.83657479  1
  Cu+  Cu66  1  0.58314195  0.16979928  0.84005243  1
  Cu+  Cu67  1  0.58482056  0.66999811  0.84087905  1
  Cu+  Cu68  1  0.09252339  0.42388196  0.83583269  1
  Cu+  Cu69  1  0.08483261  0.91613422  0.83823311  1
  Cu+  Cu70  1  0.57901624  0.40999723  0.84023252  1
  Cu+  Cu71  1  0.58585745  0.91738751  0.84143061  1
  Cu+  Cu72  1  0.16674959  0.08501229  0.67337324  1
  Cu+  Cu73  1  0.16952396  0.58614023  0.67632861  1
  Cu+  Cu74  1  0.66846365  0.08482223  0.67758631  1
  Cu+  Cu75  1  0.66932635  0.58448085  0.67668105  1
  Cu+  Cu76  1  0.41412717  0.33156103  0.67867291  1
  Cu+  Cu77  1  0.41758132  0.83629544  0.67574179  1
  Cu+  Cu78  1  0.91477913  0.33095476  0.67522500  1
  Cu+  Cu79  1  0.91327825  0.82967436  0.67504128  1
  Cu+  Cu80  1  0.41678657  0.08540518  0.67560802  1
  Cu+  Cu81  1  0.41778957  0.58505509  0.67342901  1
  Cu+  Cu82  1  0.91344015  0.08251613  0.67405767  1
  Cu+  Cu83  1  0.91587824  0.58542558  0.67657347  1
  Cu+  Cu84  1  0.00484415  0.25499101  0.00507040  1
  Cu+  Cu85  1  0.00553003  0.75055199  0.00482356  1
  Cu+  Cu86  1  0.50148881  0.25147473  0.01514010  1
  Cu+  Cu87  1  0.50244834  0.75235209  0.01109431  1
  Cu+  Cu88  1  0.24968790  0.49980825  0.00681583  1
  Cu+  Cu89  1  0.24758801  0.99609054  0.00772940  1
  Cu+  Cu90  1  0.74797173  0.49691283  0.01249538  1
  Cu+  Cu91  1  0.75054228  0.99823527  0.01430099  1
  Cu+  Cu92  1  0.24877693  0.25165408  0.00678039  1
  Cu+  Cu93  1  0.24956492  0.75014321  0.00978764  1
  Cu+  Cu94  1  0.75001333  0.25148649  0.01034572  1
  Cu+  Cu95  1  0.75100795  0.75423113  0.01245595  1
  Cu+  Cu96  1  0.33902952  0.41608805  0.34378579  1
  Cu+  Cu97  1  0.33569770  0.91863964  0.34667778  1
  Cu+  Cu98  1  0.83495518  0.41817365  0.34323651  1
  Cu+  Cu99  1  0.83305968  0.91633278  0.34151056  1
  Cu+  Cu100  1  0.07977841  0.16077152  0.34215546  1
  Cu+  Cu101  1  0.07938798  0.66222975  0.34585113  1
  Cu+  Cu102  1  0.58219671  0.16522625  0.34419779  1
  Cu+  Cu103  1  0.58377497  0.66349410  0.34183816  1
  Cu+  Cu104  1  0.08283068  0.41862399  0.34687772  1
  Cu+  Cu105  1  0.07955073  0.91612190  0.33773013  1
  Cu+  Cu106  1  0.58513104  0.41736290  0.34284838  1
  Cu+  Cu107  1  0.58197801  0.91851883  0.34826012  1
  Cu+  Cu108  1  0.00307040  0.00254281  0.11076067  1
  Cu+  Cu109  1  0.00368195  0.49943038  0.11554857  1
  Cu+  Cu110  1  0.49705417  -0.00159329  0.11764870  1
  Cu+  Cu111  1  0.49457341  0.49821159  0.11433388  1
  Cu+  Cu112  1  0.33376537  0.16682145  0.44437239  1
  Cu+  Cu113  1  0.33367168  0.66649418  0.44175867  1
  Cu+  Cu114  1  0.83244410  0.16796356  0.44624883  1
  Cu+  Cu115  1  0.82978105  0.66746743  0.44874637  1
  Cu+  Cu116  1  0.16354574  0.33229341  0.77802294  1
  Cu+  Cu117  1  0.16582102  0.83660495  0.78116725  1
  Cu+  Cu118  1  0.67091918  0.33520378  0.78520230  1
  Cu+  Cu119  1  0.66458293  0.83245136  0.78562813  1
  Te2-  Te120  1  -0.00314928  -0.00483728  0.38624914  1
  Te2-  Te121  1  -0.00253654  0.49788346  0.39217074  1
  Te2-  Te122  1  0.50045054  0.00291390  0.39268117  1
  Te2-  Te123  1  0.50454975  0.50042570  0.38824851  1
  Te2-  Te124  1  0.33070610  0.16423131  0.71933586  1
  Te2-  Te125  1  0.33765759  0.67008593  0.71669104  1
  Te2-  Te126  1  0.83385330  0.16664932  0.71900231  1
  Te2-  Te127  1  0.83322467  0.66658052  0.72112052  1
  Te2-  Te128  1  0.16816592  0.33534733  0.05068090  1
  Te2-  Te129  1  0.16733116  0.83248069  0.05312717  1
  Te2-  Te130  1  0.66786821  0.33179744  0.05945976  1
  Te2-  Te131  1  0.66492077  0.83279523  0.06036092  1
  Te2-  Te132  1  0.49023577  0.24244436  0.88788223  1
  Te2-  Te133  1  0.49621030  0.74920265  0.88522800  1
  Te2-  Te134  1  0.99917274  0.25422979  0.87907401  1
  Te2-  Te135  1  0.99951303  0.74586391  0.87911307  1
  Te2-  Te136  1  0.25318403  0.00450582  0.88212359  1
  Te2-  Te137  1  0.26119499  0.51041272  0.88118693  1
  Te2-  Te138  1  0.75298836  0.00599783  0.88744690  1
  Te2-  Te139  1  0.74796701  0.50205764  0.88518699  1
  Te2-  Te140  1  0.25142320  0.24317707  0.88130173  1
  Te2-  Te141  1  0.26085130  0.74816246  0.88406686  1
  Te2-  Te142  1  0.75132350  0.24831907  0.88441000  1
  Te2-  Te143  1  0.75268265  0.74916089  0.88582491  1
  Te2-  Te144  1  0.33160670  0.41124160  0.21675074  1
  Te2-  Te145  1  0.32979643  0.91584334  0.21937501  1
  Te2-  Te146  1  0.82690591  0.41036888  0.21734982  1
  Te2-  Te147  1  0.81963192  0.90915316  0.21598737  1
  Te2-  Te148  1  0.08130513  0.16899660  0.21537687  1
  Te2-  Te149  1  0.08386906  0.67044555  0.21852811  1
  Te2-  Te150  1  0.58982441  0.17275413  0.21831787  1
  Te2-  Te151  1  0.58497744  0.66961005  0.21583212  1
  Te2-  Te152  1  0.08612639  0.41405046  0.21937690  1
  Te2-  Te153  1  0.08103298  0.91207993  0.21211896  1
  Te2-  Te154  1  0.59116957  0.41071656  0.21713960  1
  Te2-  Te155  1  0.58406989  0.91103137  0.22080233  1
  Te2-  Te156  1  0.15948031  0.07959135  0.54727910  1
  Te2-  Te157  1  0.15849252  0.57967691  0.54861986  1
  Te2-  Te158  1  0.65920552  0.08280572  0.55142091  1
  Te2-  Te159  1  0.66117107  0.58081697  0.55081017  1
  Te2-  Te160  1  0.42036226  0.34174507  0.55071060  1
  Te2-  Te161  1  0.41964047  0.84415189  0.54923164  1
  Te2-  Te162  1  0.91832374  0.33857594  0.54907934  1
  Te2-  Te163  1  0.91930329  0.83780052  0.54913198  1
  Te2-  Te164  1  0.42154119  0.08412473  0.54939294  1
  Te2-  Te165  1  0.42273228  0.58505988  0.54699126  1
  Te2-  Te166  1  0.91685231  0.07566991  0.54824340  1
  Te2-  Te167  1  0.91823559  0.57630221  0.55101720  1
  Te2-  Te168  1  0.00096778  0.00176152  0.88140719  1
  Te2-  Te169  1  0.00192669  0.50152398  0.88247962  1
  Te2-  Te170  1  0.49933192  0.00053233  0.88337797  1
  Te2-  Te171  1  0.49833043  0.49996342  0.88305782  1
  Te2-  Te172  1  0.32997114  0.16490694  0.21660145  1
  Te2-  Te173  1  0.33321751  0.66533060  0.21760034  1
  Te2-  Te174  1  0.83378769  0.16673716  0.21565116  1
  Te2-  Te175  1  0.83365167  0.66679565  0.21335012  1
  Te2-  Te176  1  0.16649822  0.33498260  0.54818879  1
  Te2-  Te177  1  0.16596848  0.83448699  0.54698251  1
  Te2-  Te178  1  0.66614347  0.33385409  0.54925106  1
  Te2-  Te179  1  0.66544076  0.83369888  0.54841444  1
  Te2-  Te180  1  0.32589209  0.41576896  0.70885589  1
  Te2-  Te181  1  0.32770089  0.91555435  0.71173098  1
  Te2-  Te182  1  0.82994597  0.41554509  0.71395283  1
  Te2-  Te183  1  0.82661897  0.91315137  0.71345292  1
  Te2-  Te184  1  0.08387149  0.17161616  0.70946674  1
  Te2-  Te185  1  0.08682874  0.67486766  0.70981726  1
  Te2-  Te186  1  0.58637306  0.17333463  0.71371542  1
  Te2-  Te187  1  0.58625278  0.67149609  0.71382469  1
  Te2-  Te188  1  0.08584315  0.41402469  0.70850983  1
  Te2-  Te189  1  0.08439687  0.91482819  0.71082193  1
  Te2-  Te190  1  0.58638971  0.41388728  0.71293814  1
  Te2-  Te191  1  0.58654726  0.91507243  0.71434366  1
  Te2-  Te192  1  0.16277850  0.08166718  0.04379665  1
  Te2-  Te193  1  0.16265803  0.58095766  0.04735443  1
  Te2-  Te194  1  0.65978678  0.08081733  0.04535377  1
  Te2-  Te195  1  0.65844079  0.58063501  0.04094776  1
  Te2-  Te196  1  0.41755131  0.33981535  0.04431166  1
  Te2-  Te197  1  0.41918492  0.83856010  0.04818194  1
  Te2-  Te198  1  0.92057014  0.33939051  0.04510819  1
  Te2-  Te199  1  0.92417620  0.83986332  0.04009207  1
  Te2-  Te200  1  0.41750106  0.07855093  0.04647966  1
  Te2-  Te201  1  0.41890037  0.58168097  0.04583690  1
  Te2-  Te202  1  0.92383032  0.08483373  0.04221346  1
  Te2-  Te203  1  0.92160389  0.58068281  0.04297369  1
  Te2-  Te204  1  0.49463273  0.24771427  0.37790458  1
  Te2-  Te205  1  0.49390517  0.74461374  0.37434292  1
  Te2-  Te206  1  0.99267874  0.24548474  0.37482228  1
  Te2-  Te207  1  0.99152636  0.74712670  0.37630824  1
  Te2-  Te208  1  0.24936648  0.00574062  0.37448258  1
  Te2-  Te209  1  0.25603076  0.50635403  0.37277881  1
  Te2-  Te210  1  0.75485011  0.00745431  0.37670837  1
  Te2-  Te211  1  0.75419045  0.50658048  0.37941341  1
  Te2-  Te212  1  0.25229511  0.24373913  0.37374640  1
  Te2-  Te213  1  0.25276391  0.74521576  0.37263372  1
  Te2-  Te214  1  0.75261921  0.24777245  0.37814248  1
  Te2-  Te215  1  0.75249899  0.74740767  0.37889903  1
