# generated using pymatgen
data_Ti(CuTe)4
_symmetry_space_group_name_H-M   'P 1'
_cell_length_a   16.87419622
_cell_length_b   16.86787129
_cell_length_c   20.67875481
_cell_angle_alpha   89.95809396
_cell_angle_beta   89.99863930
_cell_angle_gamma   120.01037269
_symmetry_Int_Tables_number   1
_chemical_formula_structural   Ti(CuTe)4
_chemical_formula_sum   'Ti24 Cu96 Te96'
_cell_volume   5096.74406361
_cell_formula_units_Z   24
loop_
 _symmetry_equiv_pos_site_id
 _symmetry_equiv_pos_as_xyz
  1  'x, y, z'
loop_
 _atom_type_symbol
 _atom_type_oxidation_number
  Ti4+  4.0
  Cu+  1.0
  Te2-  -2.0
loop_
 _atom_site_type_symbol
 _atom_site_label
 _atom_site_symmetry_multiplicity
 _atom_site_fract_x
 _atom_site_fract_y
 _atom_site_fract_z
 _atom_site_occupancy
  Ti4+  Ti0  1  0.00062235  0.00404886  0.25516022  1
  Ti4+  Ti1  1  0.00160062  0.50380424  0.25542627  1
  Ti4+  Ti2  1  0.50152672  0.00500323  0.25876572  1
  Ti4+  Ti3  1  0.50089507  0.50181806  0.25848817  1
  Ti4+  Ti4  1  0.33423043  0.16343066  0.59354440  1
  Ti4+  Ti5  1  0.33317425  0.66588973  0.59194728  1
  Ti4+  Ti6  1  0.83422671  0.16617720  0.59016135  1
  Ti4+  Ti7  1  0.83444454  0.66541576  0.59424334  1
  Ti4+  Ti8  1  0.16847549  0.33145253  0.92347775  1
  Ti4+  Ti9  1  0.16465534  0.82954058  0.92690838  1
  Ti4+  Ti10  1  0.66393151  0.33372181  0.92546876  1
  Ti4+  Ti11  1  0.66256125  0.83044289  0.92152632  1
  Ti4+  Ti12  1  0.00039704  -0.00174257  0.75528978  1
  Ti4+  Ti13  1  -0.00057777  0.49988510  0.75722422  1
  Ti4+  Ti14  1  0.50025564  -0.00120932  0.75824223  1
  Ti4+  Ti15  1  0.49777966  0.49703535  0.75286297  1
  Ti4+  Ti16  1  0.33269121  0.16569276  0.08710827  1
  Ti4+  Ti17  1  0.33082908  0.66512885  0.08866452  1
  Ti4+  Ti18  1  0.83275215  0.16656861  0.08683720  1
  Ti4+  Ti19  1  0.83309329  0.66477924  0.08757504  1
  Ti4+  Ti20  1  0.16707947  0.33419507  0.42336403  1
  Ti4+  Ti21  1  0.16795202  0.83458652  0.42316598  1
  Ti4+  Ti22  1  0.66684337  0.33309474  0.42358889  1
  Ti4+  Ti23  1  0.66641360  0.83382930  0.42073294  1
  Cu+  Cu24  1  0.91090601  0.59629856  0.81121661  1
  Cu+  Cu25  1  0.01736180  0.76503518  0.14322368  1
  Cu+  Cu26  1  0.74584872  0.26590106  0.14180669  1
  Cu+  Cu27  1  0.40509819  0.30896475  0.80701950  1
  Cu+  Cu28  1  0.24889741  0.26427258  0.14255409  1
  Cu+  Cu29  1  0.67476749  0.59010079  0.81086723  1
  Cu+  Cu30  1  0.57849400  0.15090707  0.48098193  1
  Cu+  Cu31  1  0.35310367  0.92201091  0.47614623  1
  Cu+  Cu32  1  0.24693888  0.76769853  0.14260688  1
  Cu+  Cu33  1  0.01812593  0.26521685  0.14069808  1
  Cu+  Cu34  1  0.40505928  0.59098044  0.80619255  1
  Cu+  Cu35  1  0.51375898  0.26161175  0.14630149  1
  Cu+  Cu36  1  0.16058818  0.08602081  0.16532175  1
  Cu+  Cu37  1  0.16412401  0.58863254  0.16688664  1
  Cu+  Cu38  1  0.66394564  0.08945659  0.16842478  1
  Cu+  Cu39  1  0.66340351  0.58411735  0.17053922  1
  Cu+  Cu40  1  0.42094073  0.34111199  0.17016529  1
  Cu+  Cu41  1  0.41661662  0.83654703  0.17306184  1
  Cu+  Cu42  1  0.91905529  0.33907477  0.16890190  1
  Cu+  Cu43  1  0.91793569  0.83721349  0.16974899  1
  Cu+  Cu44  1  0.42365743  0.08535044  0.16875926  1
  Cu+  Cu45  1  0.41990881  0.58387924  0.17068851  1
  Cu+  Cu46  1  0.92313679  0.08704790  0.16611188  1
  Cu+  Cu47  1  0.92380536  0.58734926  0.16669221  1
  Cu+  Cu48  1  0.49639953  0.24396737  0.50648336  1
  Cu+  Cu49  1  0.49711322  0.74684257  0.50396800  1
  Cu+  Cu50  1  0.99723534  0.24832654  0.50439875  1
  Cu+  Cu51  1  0.99661948  0.74477781  0.50703161  1
  Cu+  Cu52  1  0.25518229  0.00119881  0.50501985  1
  Cu+  Cu53  1  0.25132550  0.50241058  0.50730415  1
  Cu+  Cu54  1  0.75318274  0.00316527  0.50202164  1
  Cu+  Cu55  1  0.75509945  0.50396814  0.50860961  1
  Cu+  Cu56  1  0.25131389  0.24792197  0.50821094  1
  Cu+  Cu57  1  0.25322089  0.74854394  0.50514679  1
  Cu+  Cu58  1  0.75300413  0.24625727  0.50337389  1
  Cu+  Cu59  1  0.75034360  0.74806179  0.50632868  1
  Cu+  Cu60  1  0.32843239  0.41092439  0.83321554  1
  Cu+  Cu61  1  0.33152945  0.91166436  0.84272987  1
  Cu+  Cu62  1  0.83250447  0.41913360  0.83843760  1
  Cu+  Cu63  1  0.83114080  0.91567608  0.83544876  1
  Cu+  Cu64  1  0.08494084  0.16681617  0.83762276  1
  Cu+  Cu65  1  0.08371459  0.66865229  0.84107023  1
  Cu+  Cu66  1  0.58323672  0.16797344  0.84124227  1
  Cu+  Cu67  1  0.58203872  0.67338551  0.83227015  1
  Cu+  Cu68  1  0.08298842  0.41194485  0.83767137  1
  Cu+  Cu69  1  0.08209795  0.91228856  0.83939312  1
  Cu+  Cu70  1  0.58117045  0.40990201  0.83413283  1
  Cu+  Cu71  1  0.58256616  0.91326060  0.83741666  1
  Cu+  Cu72  1  0.16857824  0.08155045  0.67581174  1
  Cu+  Cu73  1  0.16771884  0.58351162  0.67573082  1
  Cu+  Cu74  1  0.66994227  0.08535929  0.67524352  1
  Cu+  Cu75  1  0.66949411  0.58194191  0.68023251  1
  Cu+  Cu76  1  0.41356252  0.32565382  0.67878804  1
  Cu+  Cu77  1  0.41529389  0.83030083  0.67623792  1
  Cu+  Cu78  1  0.91532669  0.32928711  0.67357058  1
  Cu+  Cu79  1  0.91717390  0.83058761  0.67480235  1
  Cu+  Cu80  1  0.41725571  0.08199464  0.68085313  1
  Cu+  Cu81  1  0.41231983  0.58270431  0.67756118  1
  Cu+  Cu82  1  0.91722809  0.08527616  0.67243351  1
  Cu+  Cu83  1  0.91483096  0.58417311  0.68226158  1
  Cu+  Cu84  1  0.00351214  0.24834080  0.01098058  1
  Cu+  Cu85  1  0.00049465  0.74647365  0.01472689  1
  Cu+  Cu86  1  0.49994207  0.24737231  0.01466140  1
  Cu+  Cu87  1  0.49948709  0.74827940  0.00646225  1
  Cu+  Cu88  1  0.25093548  0.49705624  0.00618025  1
  Cu+  Cu89  1  0.24900504  0.99644501  0.00826388  1
  Cu+  Cu90  1  0.74610876  0.49768713  0.00900492  1
  Cu+  Cu91  1  0.74514111  0.99408702  0.00463234  1
  Cu+  Cu92  1  0.24833983  0.24826449  0.01188277  1
  Cu+  Cu93  1  0.24502095  0.74784243  0.01391716  1
  Cu+  Cu94  1  0.74545982  0.24997158  0.01242228  1
  Cu+  Cu95  1  0.74447009  0.74778310  0.00528158  1
  Cu+  Cu96  1  0.33611786  0.41817453  0.34320047  1
  Cu+  Cu97  1  0.33541850  0.92034132  0.34760237  1
  Cu+  Cu98  1  0.83557502  0.42088230  0.34085262  1
  Cu+  Cu99  1  0.83520944  0.91803802  0.33787160  1
  Cu+  Cu100  1  0.08411348  0.16797374  0.34185255  1
  Cu+  Cu101  1  0.08323894  0.66850703  0.34298878  1
  Cu+  Cu102  1  0.58279366  0.16857446  0.34991649  1
  Cu+  Cu103  1  0.58242425  0.66574215  0.34105696  1
  Cu+  Cu104  1  0.08378460  0.42040500  0.34018561  1
  Cu+  Cu105  1  0.08061578  0.91764383  0.34147125  1
  Cu+  Cu106  1  0.58349292  0.42017381  0.34417357  1
  Cu+  Cu107  1  0.58163776  0.91804324  0.34085494  1
  Cu+  Cu108  1  -0.00675982  -0.00493530  0.10899463  1
  Cu+  Cu109  1  -0.00036271  0.49795906  0.10821589  1
  Cu+  Cu110  1  0.50235331  -0.00509457  0.11398865  1
  Cu+  Cu111  1  0.50180655  0.50466610  0.11244454  1
  Cu+  Cu112  1  0.32955382  0.16741024  0.45065299  1
  Cu+  Cu113  1  0.33356027  0.66421902  0.44858492  1
  Cu+  Cu114  1  0.83698239  0.16543411  0.44463957  1
  Cu+  Cu115  1  0.83306280  0.66977542  0.45223759  1
  Cu+  Cu116  1  0.16135094  0.32941703  0.77990051  1
  Cu+  Cu117  1  0.17047498  0.83676741  0.78534352  1
  Cu+  Cu118  1  0.67038028  0.32929077  0.78309105  1
  Cu+  Cu119  1  0.67207210  0.84162211  0.77766880  1
  Te2-  Te120  1  -0.00062517  0.00206869  0.38372048  1
  Te2-  Te121  1  0.00094448  0.50255199  0.38378229  1
  Te2-  Te122  1  0.50238978  0.00108459  0.39053541  1
  Te2-  Te123  1  0.50058288  0.50218922  0.38749940  1
  Te2-  Te124  1  0.33102552  0.16031686  0.72415454  1
  Te2-  Te125  1  0.33087748  0.66671389  0.72273270  1
  Te2-  Te126  1  0.83442852  0.16565427  0.71947341  1
  Te2-  Te127  1  0.83406126  0.66938066  0.72704111  1
  Te2-  Te128  1  0.16899777  0.33502569  0.05581385  1
  Te2-  Te129  1  0.16663743  0.83517230  0.05938143  1
  Te2-  Te130  1  0.66566897  0.33535795  0.05778948  1
  Te2-  Te131  1  0.66375820  0.83082831  0.05063466  1
  Te2-  Te132  1  0.49060686  0.24351466  0.88643547  1
  Te2-  Te133  1  0.48806867  0.74566297  0.88097540  1
  Te2-  Te134  1  0.99736346  0.24596883  0.88400870  1
  Te2-  Te135  1  0.99132431  0.74668387  0.88750876  1
  Te2-  Te136  1  0.25017525  -0.00018796  0.88295207  1
  Te2-  Te137  1  0.25172272  0.50353772  0.88062815  1
  Te2-  Te138  1  0.75030000  0.00218745  0.87933512  1
  Te2-  Te139  1  0.75028563  0.50795707  0.88302160  1
  Te2-  Te140  1  0.25299201  0.24308745  0.88379310  1
  Te2-  Te141  1  0.25000369  0.74362473  0.88687540  1
  Te2-  Te142  1  0.75174655  0.25147219  0.88520128  1
  Te2-  Te143  1  0.75195994  0.74702390  0.87972323  1
  Te2-  Te144  1  0.32769192  0.41712614  0.21683339  1
  Te2-  Te145  1  0.32854499  0.92045889  0.21946411  1
  Te2-  Te146  1  0.82914999  0.42042473  0.21450997  1
  Te2-  Te147  1  0.83080277  0.91865929  0.21141763  1
  Te2-  Te148  1  0.09036652  0.18180648  0.21535186  1
  Te2-  Te149  1  0.09027969  0.68122032  0.21683146  1
  Te2-  Te150  1  0.59009770  0.18152520  0.22034902  1
  Te2-  Te151  1  0.58635550  0.67335380  0.21544545  1
  Te2-  Te152  1  0.09042457  0.42067663  0.21370266  1
  Te2-  Te153  1  0.09009780  0.92051137  0.21513580  1
  Te2-  Te154  1  0.59022856  0.41751173  0.21762974  1
  Te2-  Te155  1  0.58568509  0.92056433  0.21421913  1
  Te2-  Te156  1  0.16431734  0.07804980  0.54975166  1
  Te2-  Te157  1  0.16195939  0.58171829  0.54982970  1
  Te2-  Te158  1  0.66020568  0.07603162  0.54932036  1
  Te2-  Te159  1  0.66344643  0.58007398  0.55271707  1
  Te2-  Te160  1  0.42016785  0.33462669  0.55205199  1
  Te2-  Te161  1  0.42330685  0.83939470  0.55040560  1
  Te2-  Te162  1  0.91921947  0.33802565  0.54787409  1
  Te2-  Te163  1  0.91910594  0.83539682  0.54918710  1
  Te2-  Te164  1  0.42256343  0.07509229  0.55395980  1
  Te2-  Te165  1  0.41922323  0.58026121  0.55072386  1
  Te2-  Te166  1  0.91985638  0.08044180  0.54668444  1
  Te2-  Te167  1  0.92110010  0.57961340  0.55520628  1
  Te2-  Te168  1  -0.00174989  -0.00211158  0.88209417  1
  Te2-  Te169  1  0.00051988  0.49735641  0.88450311  1
  Te2-  Te170  1  0.50059366  -0.00139766  0.88509734  1
  Te2-  Te171  1  0.49949195  0.50051484  0.88101598  1
  Te2-  Te172  1  0.33219434  0.16720676  0.21451625  1
  Te2-  Te173  1  0.33313450  0.66643235  0.21585265  1
  Te2-  Te174  1  0.83410012  0.16773281  0.21447335  1
  Te2-  Te175  1  0.83370679  0.66745812  0.21464141  1
  Te2-  Te176  1  0.16571869  0.33217824  0.55003635  1
  Te2-  Te177  1  0.16628357  0.83134527  0.55021220  1
  Te2-  Te178  1  0.66834145  0.33176377  0.55045639  1
  Te2-  Te179  1  0.66690447  0.83408393  0.54735765  1
  Te2-  Te180  1  0.32374477  0.40937480  0.70645695  1
  Te2-  Te181  1  0.32795158  0.91143383  0.71495031  1
  Te2-  Te182  1  0.82734154  0.41053581  0.71117497  1
  Te2-  Te183  1  0.82993699  0.91457696  0.70835644  1
  Te2-  Te184  1  0.08645145  0.17005373  0.71063715  1
  Te2-  Te185  1  0.08815914  0.67335571  0.71367643  1
  Te2-  Te186  1  0.58733242  0.17119028  0.71417504  1
  Te2-  Te187  1  0.58554251  0.67194227  0.70611228  1
  Te2-  Te188  1  0.08428978  0.41344686  0.71120879  1
  Te2-  Te189  1  0.08636899  0.91141162  0.71236082  1
  Te2-  Te190  1  0.58604895  0.40914798  0.70812373  1
  Te2-  Te191  1  0.58588151  0.91438451  0.71059724  1
  Te2-  Te192  1  0.15850619  0.07599298  0.04008243  1
  Te2-  Te193  1  0.15876867  0.57484066  0.04062482  1
  Te2-  Te194  1  0.65961306  0.07759618  0.04154687  1
  Te2-  Te195  1  0.65980061  0.58015281  0.04395135  1
  Te2-  Te196  1  0.42060066  0.34125199  0.04214535  1
  Te2-  Te197  1  0.41872568  0.83735652  0.04401285  1
  Te2-  Te198  1  0.91992140  0.33892357  0.03967751  1
  Te2-  Te199  1  0.91509680  0.83615840  0.04106528  1
  Te2-  Te200  1  0.41783994  0.07528559  0.04303169  1
  Te2-  Te201  1  0.41849029  0.58018451  0.04413947  1
  Te2-  Te202  1  0.91490119  0.07627609  0.03976111  1
  Te2-  Te203  1  0.91612052  0.57387686  0.04070958  1
  Te2-  Te204  1  0.49252800  0.25032679  0.37958498  1
  Te2-  Te205  1  0.49395215  0.74774249  0.37685529  1
  Te2-  Te206  1  0.99643065  0.25041692  0.37682970  1
  Te2-  Te207  1  0.99501139  0.74887868  0.38000581  1
  Te2-  Te208  1  0.25054080  0.00788030  0.37800297  1
  Te2-  Te209  1  0.25299594  0.50562990  0.37921014  1
  Te2-  Te210  1  0.75249201  0.00546723  0.37497802  1
  Te2-  Te211  1  0.75309531  0.50623238  0.38149573  1
  Te2-  Te212  1  0.25317872  0.24850054  0.37994702  1
  Te2-  Te213  1  0.25333682  0.74689773  0.37751484  1
  Te2-  Te214  1  0.75682708  0.25077550  0.37611372  1
  Te2-  Te215  1  0.75280524  0.74833416  0.37804784  1
