# generated using pymatgen
data_Ti(CuTe)4
_symmetry_space_group_name_H-M   'P 1'
_cell_length_a   16.89568001
_cell_length_b   16.89795743
_cell_length_c   20.71656314
_cell_angle_alpha   89.98950369
_cell_angle_beta   90.03538938
_cell_angle_gamma   120.00673295
_symmetry_Int_Tables_number   1
_chemical_formula_structural   Ti(CuTe)4
_chemical_formula_sum   'Ti24 Cu96 Te96'
_cell_volume   5121.87140957
_cell_formula_units_Z   24
loop_
 _symmetry_equiv_pos_site_id
 _symmetry_equiv_pos_as_xyz
  1  'x, y, z'
loop_
 _atom_type_symbol
 _atom_type_oxidation_number
  Ti4+  4.0
  Cu+  1.0
  Te2-  -2.0
loop_
 _atom_site_type_symbol
 _atom_site_label
 _atom_site_symmetry_multiplicity
 _atom_site_fract_x
 _atom_site_fract_y
 _atom_site_fract_z
 _atom_site_occupancy
  Ti4+  Ti0  1  -0.00033697  0.00048066  0.25621531  1
  Ti4+  Ti1  1  0.00105966  0.50031888  0.26076213  1
  Ti4+  Ti2  1  0.49742750  -0.00091693  0.25697237  1
  Ti4+  Ti3  1  0.49683120  0.49763446  0.26037876  1
  Ti4+  Ti4  1  0.33662758  0.16576635  0.59363341  1
  Ti4+  Ti5  1  0.33454091  0.66825290  0.59120092  1
  Ti4+  Ti6  1  0.83789088  0.16730520  0.58688491  1
  Ti4+  Ti7  1  0.83258302  0.66649315  0.58595916  1
  Ti4+  Ti8  1  0.16811104  0.33613195  0.92649604  1
  Ti4+  Ti9  1  0.16504434  0.83307379  0.92659568  1
  Ti4+  Ti10  1  0.66496613  0.33273340  0.92354137  1
  Ti4+  Ti11  1  0.66534229  0.83284099  0.92252028  1
  Ti4+  Ti12  1  0.00111749  -0.00089181  0.75506636  1
  Ti4+  Ti13  1  0.00063509  0.50005186  0.75685072  1
  Ti4+  Ti14  1  0.50196604  0.00099752  0.75460860  1
  Ti4+  Ti15  1  0.50091688  0.50162225  0.75469404  1
  Ti4+  Ti16  1  0.33374893  0.16708403  0.08963990  1
  Ti4+  Ti17  1  0.33196683  0.66685103  0.09098090  1
  Ti4+  Ti18  1  0.83333362  0.16661307  0.08842898  1
  Ti4+  Ti19  1  0.83180305  0.66617783  0.09004986  1
  Ti4+  Ti20  1  0.16601359  0.33273602  0.42194713  1
  Ti4+  Ti21  1  0.16892164  0.83467229  0.42137722  1
  Ti4+  Ti22  1  0.66590388  0.33324972  0.41924823  1
  Ti4+  Ti23  1  0.66788972  0.83325011  0.41878982  1
  Cu+  Cu24  1  0.40557627  0.08626347  0.81283947  1
  Cu+  Cu25  1  0.07983699  0.42428549  0.48105179  1
  Cu+  Cu26  1  0.08134994  0.65844518  0.48070532  1
  Cu+  Cu27  1  0.57065216  0.41806930  0.47743539  1
  Cu+  Cu28  1  0.57265359  0.65136659  0.47470278  1
  Cu+  Cu29  1  0.85670223  0.92799953  0.46957213  1
  Cu+  Cu30  1  0.23570790  0.75930349  0.14260611  1
  Cu+  Cu31  1  0.84239459  0.42047550  0.47879811  1
  Cu+  Cu32  1  0.40524448  0.59457009  0.80990679  1
  Cu+  Cu33  1  0.23879674  0.47952149  0.14504520  1
  Cu+  Cu34  1  0.35930239  0.92991011  0.47301500  1
  Cu+  Cu35  1  0.40877719  0.32383839  0.81531975  1
  Cu+  Cu36  1  0.16369335  0.08314458  0.17137090  1
  Cu+  Cu37  1  0.16318365  0.58167947  0.17321616  1
  Cu+  Cu38  1  0.66367640  0.08145182  0.17099673  1
  Cu+  Cu39  1  0.66277765  0.58091819  0.17453110  1
  Cu+  Cu40  1  0.41814964  0.33507305  0.17301797  1
  Cu+  Cu41  1  0.41068779  0.83639618  0.17157027  1
  Cu+  Cu42  1  0.91869379  0.33491295  0.17257616  1
  Cu+  Cu43  1  0.91650878  0.83614875  0.17148788  1
  Cu+  Cu44  1  0.41502043  0.07927140  0.17111853  1
  Cu+  Cu45  1  0.41362141  0.57686373  0.17331007  1
  Cu+  Cu46  1  0.91781141  0.08161418  0.17043656  1
  Cu+  Cu47  1  0.91714958  0.58235354  0.17371412  1
  Cu+  Cu48  1  0.49313921  0.24610092  0.50482548  1
  Cu+  Cu49  1  0.49631545  0.74627169  0.50330501  1
  Cu+  Cu50  1  0.99572092  0.24907341  0.50061564  1
  Cu+  Cu51  1  0.99477975  0.74655024  0.49921091  1
  Cu+  Cu52  1  0.25895454  0.00212535  0.50502118  1
  Cu+  Cu53  1  0.25249359  0.50454051  0.50404310  1
  Cu+  Cu54  1  0.75870633  0.00349538  0.49995539  1
  Cu+  Cu55  1  0.74988780  0.50445421  0.49792978  1
  Cu+  Cu56  1  0.25216208  0.24834207  0.50613779  1
  Cu+  Cu57  1  0.25630485  0.75286569  0.50294660  1
  Cu+  Cu58  1  0.75465608  0.24806951  0.49992217  1
  Cu+  Cu59  1  0.75248995  0.74931769  0.49782226  1
  Cu+  Cu60  1  0.32862826  0.41890462  0.83801951  1
  Cu+  Cu61  1  0.32892420  0.91442015  0.83981081  1
  Cu+  Cu62  1  0.83032310  0.41609997  0.83862726  1
  Cu+  Cu63  1  0.83035724  0.91333064  0.83655225  1
  Cu+  Cu64  1  0.08419085  0.16710107  0.83856642  1
  Cu+  Cu65  1  0.08374045  0.66849310  0.84092239  1
  Cu+  Cu66  1  0.58181256  0.16993366  0.83525757  1
  Cu+  Cu67  1  0.58097084  0.67189742  0.83584454  1
  Cu+  Cu68  1  0.08583484  0.41775802  0.84011281  1
  Cu+  Cu69  1  0.08269060  0.91308947  0.83794462  1
  Cu+  Cu70  1  0.58404513  0.41215681  0.83588477  1
  Cu+  Cu71  1  0.58588486  0.91471490  0.83566926  1
  Cu+  Cu72  1  0.17122287  0.08275763  0.67644190  1
  Cu+  Cu73  1  0.16877458  0.58473644  0.67787575  1
  Cu+  Cu74  1  0.67446535  0.08553213  0.67067486  1
  Cu+  Cu75  1  0.66968021  0.58592162  0.67215759  1
  Cu+  Cu76  1  0.41825411  0.33156227  0.68344430  1
  Cu+  Cu77  1  0.41834887  0.83315854  0.67561561  1
  Cu+  Cu78  1  0.91903263  0.33272518  0.67535381  1
  Cu+  Cu79  1  0.91735413  0.83214803  0.67180607  1
  Cu+  Cu80  1  0.41847259  0.08499211  0.68150573  1
  Cu+  Cu81  1  0.41643617  0.58595621  0.68017958  1
  Cu+  Cu82  1  0.91971994  0.08465221  0.67182962  1
  Cu+  Cu83  1  0.91685169  0.58366665  0.67416325  1
  Cu+  Cu84  1  0.00278489  0.25257555  0.00963384  1
  Cu+  Cu85  1  0.00009668  0.74974108  0.01019782  1
  Cu+  Cu86  1  0.50113385  0.25033356  0.00942978  1
  Cu+  Cu87  1  0.50224413  0.75190998  0.00808207  1
  Cu+  Cu88  1  0.25027210  0.49929880  0.01512926  1
  Cu+  Cu89  1  0.24904397  0.99833369  0.01009551  1
  Cu+  Cu90  1  0.74669658  0.49652613  0.00840744  1
  Cu+  Cu91  1  0.74909660  0.99745275  0.00605601  1
  Cu+  Cu92  1  0.25178864  0.25466009  0.01089738  1
  Cu+  Cu93  1  0.24723452  0.75284963  0.01367660  1
  Cu+  Cu94  1  0.74827779  0.25130209  0.00693490  1
  Cu+  Cu95  1  0.74583741  0.74951974  0.00644825  1
  Cu+  Cu96  1  0.33299473  0.41474070  0.34326957  1
  Cu+  Cu97  1  0.33720573  0.91964212  0.34564095  1
  Cu+  Cu98  1  0.83663659  0.41750907  0.34700961  1
  Cu+  Cu99  1  0.83761367  0.91934328  0.34167733  1
  Cu+  Cu100  1  0.08236069  0.16441234  0.34025077  1
  Cu+  Cu101  1  0.08415411  0.66535367  0.34844727  1
  Cu+  Cu102  1  0.57923859  0.16385547  0.33942022  1
  Cu+  Cu103  1  0.57937052  0.66118542  0.34565482  1
  Cu+  Cu104  1  0.08325615  0.41829912  0.34880314  1
  Cu+  Cu105  1  0.08387868  0.92031469  0.33895620  1
  Cu+  Cu106  1  0.57882748  0.41639587  0.34756218  1
  Cu+  Cu107  1  0.58008055  0.91696923  0.33838660  1
  Cu+  Cu108  1  0.00016829  -0.00048422  0.11366859  1
  Cu+  Cu109  1  -0.00596755  0.49714906  0.11736345  1
  Cu+  Cu110  1  0.50263779  0.00167803  0.11421663  1
  Cu+  Cu111  1  0.50211221  0.50065328  0.11752838  1
  Cu+  Cu112  1  0.32674379  0.16364313  0.45011576  1
  Cu+  Cu113  1  0.33516908  0.66690186  0.44694808  1
  Cu+  Cu114  1  0.82967657  0.16342201  0.44125135  1
  Cu+  Cu115  1  0.83483798  0.66817954  0.43963145  1
  Cu+  Cu116  1  0.15975424  0.32864486  0.78428777  1
  Cu+  Cu117  1  0.16462691  0.83030202  0.78403149  1
  Cu+  Cu118  1  0.67133307  0.33387239  0.77960329  1
  Cu+  Cu119  1  0.67116375  0.83661972  0.77836565  1
  Te2-  Te120  1  0.00335179  0.00169076  0.38733783  1
  Te2-  Te121  1  0.00087046  0.50075433  0.39441065  1
  Te2-  Te122  1  0.50396424  0.00217343  0.38815424  1
  Te2-  Te123  1  0.49456362  0.49686965  0.39320392  1
  Te2-  Te124  1  0.33322612  0.16533178  0.72546671  1
  Te2-  Te125  1  0.33323003  0.66957325  0.72119492  1
  Te2-  Te126  1  0.83791091  0.16707724  0.71542904  1
  Te2-  Te127  1  0.83447482  0.66727485  0.71414512  1
  Te2-  Te128  1  0.16586059  0.33256870  0.05687552  1
  Te2-  Te129  1  0.16333425  0.83493939  0.05722848  1
  Te2-  Te130  1  0.66577611  0.33232877  0.05217380  1
  Te2-  Te131  1  0.66652113  0.83387263  0.05150289  1
  Te2-  Te132  1  0.48699222  0.24357637  0.88368006  1
  Te2-  Te133  1  0.48958580  0.74891695  0.88265026  1
  Te2-  Te134  1  0.99826904  0.24936177  0.88328753  1
  Te2-  Te135  1  0.99399608  0.74672896  0.88426104  1
  Te2-  Te136  1  0.24951478  0.00608798  0.88431644  1
  Te2-  Te137  1  0.25272006  0.50991910  0.88726911  1
  Te2-  Te138  1  0.75276380  0.00418291  0.88024352  1
  Te2-  Te139  1  0.74969306  0.50396604  0.88223198  1
  Te2-  Te140  1  0.25222878  0.24793470  0.88459126  1
  Te2-  Te141  1  0.25166471  0.74818872  0.88639832  1
  Te2-  Te142  1  0.74916551  0.24677607  0.88067306  1
  Te2-  Te143  1  0.74838240  0.74468891  0.88035635  1
  Te2-  Te144  1  0.32354521  0.40774698  0.21794729  1
  Te2-  Te145  1  0.32187052  0.91415515  0.21949581  1
  Te2-  Te146  1  0.83159014  0.41485531  0.21928496  1
  Te2-  Te147  1  0.82756821  0.91462253  0.21577954  1
  Te2-  Te148  1  0.08534262  0.17234250  0.21503533  1
  Te2-  Te149  1  0.08508515  0.67281555  0.22022081  1
  Te2-  Te150  1  0.58316784  0.16983966  0.21406386  1
  Te2-  Te151  1  0.58119447  0.66805883  0.21854797  1
  Te2-  Te152  1  0.08570833  0.41237558  0.22049584  1
  Te2-  Te153  1  0.08541819  0.91479670  0.21378398  1
  Te2-  Te154  1  0.58385578  0.41340266  0.22046402  1
  Te2-  Te155  1  0.58023444  0.91175794  0.21284726  1
  Te2-  Te156  1  0.16749565  0.07942141  0.54990081  1
  Te2-  Te157  1  0.15925625  0.58147875  0.55162629  1
  Te2-  Te158  1  0.66753465  0.08124970  0.54440375  1
  Te2-  Te159  1  0.65691458  0.57914013  0.54659133  1
  Te2-  Te160  1  0.41858977  0.33947226  0.55480206  1
  Te2-  Te161  1  0.42420257  0.84078193  0.54947285  1
  Te2-  Te162  1  0.92351769  0.34523878  0.54972199  1
  Te2-  Te163  1  0.92158111  0.83897073  0.54555543  1
  Te2-  Te164  1  0.42635944  0.08165428  0.55363980  1
  Te2-  Te165  1  0.41747702  0.57799702  0.55250014  1
  Te2-  Te166  1  0.92737253  0.08319759  0.54624350  1
  Te2-  Te167  1  0.91981552  0.57779145  0.54812370  1
  Te2-  Te168  1  -0.00148971  -0.00195421  0.88131321  1
  Te2-  Te169  1  -0.00160502  0.49943003  0.88324600  1
  Te2-  Te170  1  0.50129193  0.00003905  0.88146358  1
  Te2-  Te171  1  0.50144894  0.50118380  0.88200443  1
  Te2-  Te172  1  0.33242709  0.16553686  0.21584490  1
  Te2-  Te173  1  0.33382957  0.66704850  0.21821083  1
  Te2-  Te174  1  0.83255589  0.16534121  0.21462826  1
  Te2-  Te175  1  0.83243318  0.66714697  0.21623748  1
  Te2-  Te176  1  0.16630630  0.33291050  0.54904696  1
  Te2-  Te177  1  0.16399243  0.83156935  0.54907692  1
  Te2-  Te178  1  0.66759410  0.33305403  0.54690092  1
  Te2-  Te179  1  0.66786480  0.83375317  0.54623300  1
  Te2-  Te180  1  0.32588775  0.41309535  0.71074420  1
  Te2-  Te181  1  0.32758071  0.91205774  0.71209462  1
  Te2-  Te182  1  0.83017971  0.41420367  0.71106729  1
  Te2-  Te183  1  0.83073011  0.91490734  0.70910079  1
  Te2-  Te184  1  0.08861426  0.17111611  0.71146463  1
  Te2-  Te185  1  0.08588560  0.67184866  0.71338658  1
  Te2-  Te186  1  0.59225465  0.17322990  0.70845843  1
  Te2-  Te187  1  0.58937550  0.67456996  0.70899553  1
  Te2-  Te188  1  0.08796113  0.41502099  0.71329443  1
  Te2-  Te189  1  0.08643574  0.91234073  0.71132087  1
  Te2-  Te190  1  0.59109208  0.41740758  0.70965833  1
  Te2-  Te191  1  0.58895411  0.91626533  0.70942843  1
  Te2-  Te192  1  0.16223324  0.08277850  0.04480374  1
  Te2-  Te193  1  0.15803884  0.58018253  0.04586383  1
  Te2-  Te194  1  0.66255243  0.08098399  0.04378604  1
  Te2-  Te195  1  0.66064949  0.58038350  0.04675406  1
  Te2-  Te196  1  0.42124435  0.34004982  0.04673630  1
  Te2-  Te197  1  0.41978848  0.83921216  0.04487792  1
  Te2-  Te198  1  0.91842922  0.33871163  0.04552382  1
  Te2-  Te199  1  0.91612504  0.83687582  0.04475689  1
  Te2-  Te200  1  0.41889410  0.08003208  0.04507713  1
  Te2-  Te201  1  0.42217599  0.58350725  0.04658017  1
  Te2-  Te202  1  0.91915362  0.08115609  0.04388571  1
  Te2-  Te203  1  0.91691247  0.57955577  0.04676860  1
  Te2-  Te204  1  0.49065042  0.24363290  0.37831125  1
  Te2-  Te205  1  0.49354642  0.74806488  0.37610758  1
  Te2-  Te206  1  0.99336395  0.24497378  0.37477224  1
  Te2-  Te207  1  0.99610955  0.75070216  0.37317264  1
  Te2-  Te208  1  0.25277779  0.00758412  0.37766447  1
  Te2-  Te209  1  0.25566474  0.50692041  0.37743180  1
  Te2-  Te210  1  0.75076332  0.00507857  0.37274168  1
  Te2-  Te211  1  0.75323756  0.50750001  0.37164404  1
  Te2-  Te212  1  0.25129858  0.24545644  0.37928839  1
  Te2-  Te213  1  0.25626867  0.74721951  0.37606005  1
  Te2-  Te214  1  0.75009150  0.24435633  0.37327410  1
  Te2-  Te215  1  0.75342465  0.74625270  0.37101858  1
