# generated using pymatgen
data_Ti(CuTe)4
_symmetry_space_group_name_H-M   'P 1'
_cell_length_a   16.87348161
_cell_length_b   16.87508809
_cell_length_c   20.68513775
_cell_angle_alpha   90.03238976
_cell_angle_beta   90.00201011
_cell_angle_gamma   119.99992470
_symmetry_Int_Tables_number   1
_chemical_formula_structural   Ti(CuTe)4
_chemical_formula_sum   'Ti24 Cu96 Te96'
_cell_volume   5100.82038558
_cell_formula_units_Z   24
loop_
 _symmetry_equiv_pos_site_id
 _symmetry_equiv_pos_as_xyz
  1  'x, y, z'
loop_
 _atom_type_symbol
 _atom_type_oxidation_number
  Ti4+  4.0
  Cu+  1.0
  Te2-  -2.0
loop_
 _atom_site_type_symbol
 _atom_site_label
 _atom_site_symmetry_multiplicity
 _atom_site_fract_x
 _atom_site_fract_y
 _atom_site_fract_z
 _atom_site_occupancy
  Ti4+  Ti0  1  -0.00479397  -0.00423469  0.25568676  1
  Ti4+  Ti1  1  -0.00166127  0.49765507  0.25407170  1
  Ti4+  Ti2  1  0.49888561  -0.00157523  0.25606030  1
  Ti4+  Ti3  1  0.49791162  0.49579278  0.25943692  1
  Ti4+  Ti4  1  0.33426320  0.17048107  0.59163749  1
  Ti4+  Ti5  1  0.33344524  0.66903560  0.59212701  1
  Ti4+  Ti6  1  0.83397826  0.16818570  0.59176585  1
  Ti4+  Ti7  1  0.83398879  0.66856743  0.59426943  1
  Ti4+  Ti8  1  0.16651777  0.33155013  0.92284322  1
  Ti4+  Ti9  1  0.16956642  0.83497270  0.92825868  1
  Ti4+  Ti10  1  0.66717740  0.33345816  0.92268616  1
  Ti4+  Ti11  1  0.66927430  0.83202204  0.92582584  1
  Ti4+  Ti12  1  0.00087347  0.00194014  0.75673432  1
  Ti4+  Ti13  1  0.00008450  0.50043479  0.75683063  1
  Ti4+  Ti14  1  0.49985103  0.00169524  0.75635405  1
  Ti4+  Ti15  1  0.50243636  0.50206545  0.75685535  1
  Ti4+  Ti16  1  0.33487249  0.16776807  0.08889799  1
  Ti4+  Ti17  1  0.33386080  0.66565582  0.08592496  1
  Ti4+  Ti18  1  0.83319184  0.16594329  0.08725351  1
  Ti4+  Ti19  1  0.83333024  0.66583320  0.08588210  1
  Ti4+  Ti20  1  0.16697250  0.33335817  0.42160077  1
  Ti4+  Ti21  1  0.16572400  0.83261504  0.42300943  1
  Ti4+  Ti22  1  0.66595239  0.33400475  0.42294998  1
  Ti4+  Ti23  1  0.66556209  0.83194441  0.42257815  1
  Cu+  Cu24  1  0.73811304  0.74832726  0.14498447  1
  Cu+  Cu25  1  0.73451231  0.97863986  0.13952256  1
  Cu+  Cu26  1  0.57968255  0.43132235  0.48000220  1
  Cu+  Cu27  1  0.23649866  0.47183500  0.13660429  1
  Cu+  Cu28  1  0.73558375  0.47454507  0.13756100  1
  Cu+  Cu29  1  0.24496131  0.75181531  0.14626590  1
  Cu+  Cu30  1  0.24266718  0.98737210  0.14545670  1
  Cu+  Cu31  1  0.00384933  0.75171319  0.14789025  1
  Cu+  Cu32  1  0.40788851  0.31420012  0.80849168  1
  Cu+  Cu33  1  0.34909489  0.43034679  0.48000650  1
  Cu+  Cu34  1  0.69279762  0.59565177  0.80951669  1
  Cu+  Cu35  1  0.90503951  0.30916218  0.80632980  1
  Cu+  Cu36  1  0.16412444  0.08184285  0.16970654  1
  Cu+  Cu37  1  0.16431396  0.57628620  0.16522286  1
  Cu+  Cu38  1  0.66375110  0.07945555  0.16974835  1
  Cu+  Cu39  1  0.66100338  0.57445666  0.16924905  1
  Cu+  Cu40  1  0.41901222  0.33732135  0.17249527  1
  Cu+  Cu41  1  0.41926961  0.84023892  0.16501097  1
  Cu+  Cu42  1  0.91793854  0.33782303  0.16767362  1
  Cu+  Cu43  1  0.91685127  0.84096594  0.16400486  1
  Cu+  Cu44  1  0.41745986  0.08126803  0.16913270  1
  Cu+  Cu45  1  0.40959343  0.57423739  0.16876640  1
  Cu+  Cu46  1  0.91057767  0.07626231  0.16840701  1
  Cu+  Cu47  1  0.91312844  0.57517548  0.16435537  1
  Cu+  Cu48  1  0.49718206  0.25389359  0.50421833  1
  Cu+  Cu49  1  0.49623202  0.75127876  0.50471369  1
  Cu+  Cu50  1  0.99532078  0.24957827  0.50550289  1
  Cu+  Cu51  1  0.99784539  0.75032510  0.50759950  1
  Cu+  Cu52  1  0.25096638  0.00356736  0.50561664  1
  Cu+  Cu53  1  0.25338146  0.50652914  0.50500364  1
  Cu+  Cu54  1  0.75153953  0.00303096  0.50558165  1
  Cu+  Cu55  1  0.75113490  0.50561930  0.50726387  1
  Cu+  Cu56  1  0.25476045  0.25249368  0.50318872  1
  Cu+  Cu57  1  0.25165253  0.74976335  0.50578551  1
  Cu+  Cu58  1  0.75425788  0.25026595  0.50595032  1
  Cu+  Cu59  1  0.75186716  0.74992031  0.50650451  1
  Cu+  Cu60  1  0.33014243  0.41198441  0.83785779  1
  Cu+  Cu61  1  0.33159904  0.91658595  0.84105621  1
  Cu+  Cu62  1  0.83234183  0.41231684  0.83690629  1
  Cu+  Cu63  1  0.83217482  0.91528017  0.83999564  1
  Cu+  Cu64  1  0.08695000  0.17124208  0.83603934  1
  Cu+  Cu65  1  0.08834966  0.67266104  0.84198065  1
  Cu+  Cu66  1  0.58468546  0.17062591  0.83578842  1
  Cu+  Cu67  1  0.59377132  0.67067894  0.83905043  1
  Cu+  Cu68  1  0.08142660  0.41269803  0.83789336  1
  Cu+  Cu69  1  0.08661930  0.91781839  0.84158217  1
  Cu+  Cu70  1  0.58656337  0.41764316  0.83721210  1
  Cu+  Cu71  1  0.58536074  0.91727584  0.84014647  1
  Cu+  Cu72  1  0.16903505  0.08620713  0.67495155  1
  Cu+  Cu73  1  0.17021160  0.58797227  0.67471160  1
  Cu+  Cu74  1  0.66844524  0.08543457  0.67394355  1
  Cu+  Cu75  1  0.67229547  0.58841825  0.68219482  1
  Cu+  Cu76  1  0.41564822  0.33360008  0.68124266  1
  Cu+  Cu77  1  0.41411735  0.83237446  0.67567749  1
  Cu+  Cu78  1  0.91456724  0.32960861  0.67844157  1
  Cu+  Cu79  1  0.91690480  0.83382472  0.67737227  1
  Cu+  Cu80  1  0.41510692  0.08562915  0.67448978  1
  Cu+  Cu81  1  0.41664272  0.58913715  0.67685226  1
  Cu+  Cu82  1  0.91558557  0.08514492  0.67478294  1
  Cu+  Cu83  1  0.91752346  0.58698229  0.67694440  1
  Cu+  Cu84  1  0.00171058  0.25207038  0.00671823  1
  Cu+  Cu85  1  0.00469341  0.75239662  0.01455687  1
  Cu+  Cu86  1  0.50241080  0.25523020  0.00741321  1
  Cu+  Cu87  1  0.50273732  0.74865501  0.00561155  1
  Cu+  Cu88  1  0.24874656  0.49366057  0.00806833  1
  Cu+  Cu89  1  0.25111589  0.99832174  0.01436151  1
  Cu+  Cu90  1  0.74841366  0.49638793  0.00975876  1
  Cu+  Cu91  1  0.74808606  0.99442624  0.01220626  1
  Cu+  Cu92  1  0.25367809  0.25354353  0.00768171  1
  Cu+  Cu93  1  0.25217591  0.75278036  0.01404159  1
  Cu+  Cu94  1  0.75101636  0.25212995  0.00690198  1
  Cu+  Cu95  1  0.74993730  0.75017884  0.01478299  1
  Cu+  Cu96  1  0.33306115  0.41478314  0.34892298  1
  Cu+  Cu97  1  0.33338927  0.91626667  0.34246900  1
  Cu+  Cu98  1  0.83351028  0.41737974  0.34039575  1
  Cu+  Cu99  1  0.83100249  0.91292000  0.34258681  1
  Cu+  Cu100  1  0.07817326  0.16143475  0.33963492  1
  Cu+  Cu101  1  0.08149129  0.66439929  0.34051244  1
  Cu+  Cu102  1  0.58266087  0.16320116  0.34018494  1
  Cu+  Cu103  1  0.58194458  0.66421621  0.34227091  1
  Cu+  Cu104  1  0.08254131  0.41635922  0.33966417  1
  Cu+  Cu105  1  0.08038168  0.91447369  0.34259706  1
  Cu+  Cu106  1  0.58271942  0.41677410  0.34925103  1
  Cu+  Cu107  1  0.58189469  0.91620478  0.34094785  1
  Cu+  Cu108  1  0.00518528  0.01040581  0.11117146  1
  Cu+  Cu109  1  0.00154854  0.49905731  0.10698227  1
  Cu+  Cu110  1  0.50427672  0.00671304  0.11033875  1
  Cu+  Cu111  1  0.49844692  0.50112560  0.11385419  1
  Cu+  Cu112  1  0.33101378  0.16202980  0.44762683  1
  Cu+  Cu113  1  0.33284860  0.66996180  0.44767976  1
  Cu+  Cu114  1  0.83170059  0.16432165  0.44886904  1
  Cu+  Cu115  1  0.83708386  0.67015054  0.45122783  1
  Cu+  Cu116  1  0.16682420  0.33635777  0.77930186  1
  Cu+  Cu117  1  0.16734090  0.83637274  0.78593929  1
  Cu+  Cu118  1  0.66746789  0.33320435  0.77861399  1
  Cu+  Cu119  1  0.66656361  0.83845284  0.78428021  1
  Te2-  Te120  1  -0.00314298  -0.00326566  0.38414500  1
  Te2-  Te121  1  -0.00064012  0.49875581  0.38236582  1
  Te2-  Te122  1  0.49898107  -0.00159954  0.38455898  1
  Te2-  Te123  1  0.49992870  0.50090731  0.39129964  1
  Te2-  Te124  1  0.33266766  0.16649699  0.72202510  1
  Te2-  Te125  1  0.33303970  0.66906748  0.72165737  1
  Te2-  Te126  1  0.83091804  0.16341660  0.72252157  1
  Te2-  Te127  1  0.83876709  0.67082319  0.72513135  1
  Te2-  Te128  1  0.16493281  0.32827406  0.05356994  1
  Te2-  Te129  1  0.16863755  0.83353884  0.06179270  1
  Te2-  Te130  1  0.66573908  0.33030469  0.05322590  1
  Te2-  Te131  1  0.66322456  0.82884240  0.05826426  1
  Te2-  Te132  1  0.49408570  0.24647272  0.88172385  1
  Te2-  Te133  1  0.50013110  0.74655400  0.88033368  1
  Te2-  Te134  1  0.99253986  0.24280681  0.88136692  1
  Te2-  Te135  1  0.99904513  0.75028746  0.88659402  1
  Te2-  Te136  1  0.25382539  0.00534997  0.88691823  1
  Te2-  Te137  1  0.25114266  0.50161180  0.88099964  1
  Te2-  Te138  1  0.75271985  0.00282110  0.88515599  1
  Te2-  Te139  1  0.75752770  0.50600480  0.88262120  1
  Te2-  Te140  1  0.25251591  0.24299478  0.88236872  1
  Te2-  Te141  1  0.25513759  0.74991331  0.88655782  1
  Te2-  Te142  1  0.75065641  0.24341621  0.88149315  1
  Te2-  Te143  1  0.76070063  0.74909717  0.88704205  1
  Te2-  Te144  1  0.32433442  0.40850699  0.22010318  1
  Te2-  Te145  1  0.32247238  0.91052134  0.21621820  1
  Te2-  Te146  1  0.82372078  0.40955222  0.21429745  1
  Te2-  Te147  1  0.81848313  0.90736931  0.21610704  1
  Te2-  Te148  1  0.07957689  0.16562089  0.21300052  1
  Te2-  Te149  1  0.08527295  0.67182139  0.21354638  1
  Te2-  Te150  1  0.58493979  0.16876855  0.21378627  1
  Te2-  Te151  1  0.57948047  0.66625017  0.21534727  1
  Te2-  Te152  1  0.08431578  0.40944355  0.21357244  1
  Te2-  Te153  1  0.08491899  0.90970920  0.21633118  1
  Te2-  Te154  1  0.58491615  0.40906945  0.22047965  1
  Te2-  Te155  1  0.58257587  0.90857917  0.21507596  1
  Te2-  Te156  1  0.16401289  0.08509677  0.54886130  1
  Te2-  Te157  1  0.16209037  0.58226174  0.54898937  1
  Te2-  Te158  1  0.66264502  0.08237876  0.54835624  1
  Te2-  Te159  1  0.65990363  0.58465538  0.55440513  1
  Te2-  Te160  1  0.42258225  0.34727515  0.55295634  1
  Te2-  Te161  1  0.41894835  0.84051420  0.54962768  1
  Te2-  Te162  1  0.92050921  0.34079573  0.55139824  1
  Te2-  Te163  1  0.91892547  0.83923934  0.55127410  1
  Te2-  Te164  1  0.41963661  0.08574903  0.54843426  1
  Te2-  Te165  1  0.42418697  0.58556926  0.55092827  1
  Te2-  Te166  1  0.91947341  0.08209548  0.54900397  1
  Te2-  Te167  1  0.91866283  0.58254146  0.55108236  1
  Te2-  Te168  1  0.00215658  0.00298002  0.88322497  1
  Te2-  Te169  1  0.00161312  0.50153709  0.88380523  1
  Te2-  Te170  1  0.50165347  0.00243187  0.88296046  1
  Te2-  Te171  1  0.49995792  0.50041293  0.88431109  1
  Te2-  Te172  1  0.33304428  0.16617803  0.21637192  1
  Te2-  Te173  1  0.33388680  0.66894467  0.21398021  1
  Te2-  Te174  1  0.83328320  0.16793576  0.21429945  1
  Te2-  Te175  1  0.83353500  0.66754174  0.21473989  1
  Te2-  Te176  1  0.16658698  0.33503639  0.54854749  1
  Te2-  Te177  1  0.16754257  0.83507775  0.54934837  1
  Te2-  Te178  1  0.66761479  0.33417110  0.54989406  1
  Te2-  Te179  1  0.66603503  0.83458802  0.54884909  1
  Te2-  Te180  1  0.32904719  0.41902177  0.71110505  1
  Te2-  Te181  1  0.32756773  0.91593716  0.71334772  1
  Te2-  Te182  1  0.82802564  0.41602011  0.71003511  1
  Te2-  Te183  1  0.82828986  0.91540005  0.71322191  1
  Te2-  Te184  1  0.08614039  0.17354584  0.71038256  1
  Te2-  Te185  1  0.08703805  0.67341397  0.71465730  1
  Te2-  Te186  1  0.58574393  0.17299434  0.70970862  1
  Te2-  Te187  1  0.58678160  0.67556605  0.71252489  1
  Te2-  Te188  1  0.08774446  0.41704236  0.71004635  1
  Te2-  Te189  1  0.08756654  0.91642902  0.71357233  1
  Te2-  Te190  1  0.58880908  0.41504558  0.70952458  1
  Te2-  Te191  1  0.58517243  0.91566390  0.71223487  1
  Te2-  Te192  1  0.16259492  0.08296310  0.04225193  1
  Te2-  Te193  1  0.16082127  0.57858425  0.03794190  1
  Te2-  Te194  1  0.66114548  0.08125446  0.04131419  1
  Te2-  Te195  1  0.65771683  0.57704199  0.04130738  1
  Te2-  Te196  1  0.42110566  0.34132100  0.04619490  1
  Te2-  Te197  1  0.42485132  0.84047306  0.03998641  1
  Te2-  Te198  1  0.91978574  0.33893968  0.04206766  1
  Te2-  Te199  1  0.92300179  0.84318938  0.03948872  1
  Te2-  Te200  1  0.42391634  0.08458718  0.04194474  1
  Te2-  Te201  1  0.42027561  0.57907043  0.04130190  1
  Te2-  Te202  1  0.92107426  0.08143296  0.04118207  1
  Te2-  Te203  1  0.92116588  0.57902218  0.03796594  1
  Te2-  Te204  1  0.49303969  0.24358949  0.37724598  1
  Te2-  Te205  1  0.49344404  0.74617992  0.37780494  1
  Te2-  Te206  1  0.99467562  0.24716294  0.37818234  1
  Te2-  Te207  1  0.99340730  0.74530568  0.37947783  1
  Te2-  Te208  1  0.25082084  0.00400361  0.37774476  1
  Te2-  Te209  1  0.25166470  0.50686210  0.37703165  1
  Te2-  Te210  1  0.75152696  0.00375346  0.37804237  1
  Te2-  Te211  1  0.75535872  0.50774659  0.37915798  1
  Te2-  Te212  1  0.24837036  0.24151380  0.37633024  1
  Te2-  Te213  1  0.25109147  0.74633197  0.37808762  1
  Te2-  Te214  1  0.75195875  0.24812367  0.37873922  1
  Te2-  Te215  1  0.75107120  0.74389680  0.37952974  1
