# generated using pymatgen
data_Ti(CuTe)4
_symmetry_space_group_name_H-M   'P 1'
_cell_length_a   16.86441862
_cell_length_b   16.86201083
_cell_length_c   20.66969930
_cell_angle_alpha   89.97415355
_cell_angle_beta   89.98260264
_cell_angle_gamma   120.00882488
_symmetry_Int_Tables_number   1
_chemical_formula_structural   Ti(CuTe)4
_chemical_formula_sum   'Ti24 Cu96 Te96'
_cell_volume   5089.87100783
_cell_formula_units_Z   24
loop_
 _symmetry_equiv_pos_site_id
 _symmetry_equiv_pos_as_xyz
  1  'x, y, z'
loop_
 _atom_type_symbol
 _atom_type_oxidation_number
  Ti4+  4.0
  Cu+  1.0
  Te2-  -2.0
loop_
 _atom_site_type_symbol
 _atom_site_label
 _atom_site_symmetry_multiplicity
 _atom_site_fract_x
 _atom_site_fract_y
 _atom_site_fract_z
 _atom_site_occupancy
  Ti4+  Ti0  1  0.00473942  0.00527665  0.26087915  1
  Ti4+  Ti1  1  0.00112961  0.50096152  0.26028107  1
  Ti4+  Ti2  1  0.50396795  0.00067237  0.25639262  1
  Ti4+  Ti3  1  0.50382902  0.50312007  0.25621753  1
  Ti4+  Ti4  1  0.32667752  0.16296633  0.59249948  1
  Ti4+  Ti5  1  0.32670370  0.66144893  0.59096691  1
  Ti4+  Ti6  1  0.82966398  0.16423279  0.59219391  1
  Ti4+  Ti7  1  0.82947286  0.66508541  0.58973009  1
  Ti4+  Ti8  1  0.16729724  0.33475379  0.92823645  1
  Ti4+  Ti9  1  0.17040247  0.83531168  0.92295224  1
  Ti4+  Ti10  1  0.66954911  0.33465986  0.92097595  1
  Ti4+  Ti11  1  0.66912907  0.83403613  0.92284544  1
  Ti4+  Ti12  1  -0.00167256  -0.00137085  0.75661617  1
  Ti4+  Ti13  1  -0.00011624  0.49911993  0.75639996  1
  Ti4+  Ti14  1  0.49760593  -0.00155604  0.75261583  1
  Ti4+  Ti15  1  0.49902321  0.49826721  0.75506019  1
  Ti4+  Ti16  1  0.33212093  0.16673650  0.08941405  1
  Ti4+  Ti17  1  0.33653728  0.66801516  0.08874621  1
  Ti4+  Ti18  1  0.83526282  0.16778571  0.08919633  1
  Ti4+  Ti19  1  0.83476832  0.66663628  0.09001818  1
  Ti4+  Ti20  1  0.16660101  0.33348434  0.42223065  1
  Ti4+  Ti21  1  0.16649998  0.83302117  0.42083579  1
  Ti4+  Ti22  1  0.66622917  0.33277211  0.42282399  1
  Ti4+  Ti23  1  0.66730637  0.83347528  0.42270658  1
  Cu+  Cu24  1  0.19227706  0.59467525  0.80967991  1
  Cu+  Cu25  1  0.68827051  0.09321477  0.80719269  1
  Cu+  Cu26  1  0.02055594  0.26594799  0.14436361  1
  Cu+  Cu27  1  0.24518652  0.26303882  0.14719910  1
  Cu+  Cu28  1  0.53014667  0.76552342  0.13691042  1
  Cu+  Cu29  1  0.06740048  0.64867697  0.47632710  1
  Cu+  Cu30  1  0.06896497  0.15093904  0.47979021  1
  Cu+  Cu31  1  0.18186271  0.09647647  0.81422082  1
  Cu+  Cu32  1  0.06963728  0.91942301  0.47666205  1
  Cu+  Cu33  1  0.06741193  0.41767357  0.47748582  1
  Cu+  Cu34  1  0.69238295  0.59799121  0.80538608  1
  Cu+  Cu35  1  0.41401674  0.09645011  0.80758230  1
  Cu+  Cu36  1  0.16425009  0.08637463  0.17329638  1
  Cu+  Cu37  1  0.16414349  0.58364145  0.17357348  1
  Cu+  Cu38  1  0.66265316  0.08182263  0.16944931  1
  Cu+  Cu39  1  0.66483648  0.58165545  0.17021589  1
  Cu+  Cu40  1  0.41859382  0.33700273  0.17086226  1
  Cu+  Cu41  1  0.42549764  0.83619601  0.16965150  1
  Cu+  Cu42  1  0.92020263  0.33706220  0.17328071  1
  Cu+  Cu43  1  0.92163082  0.83619317  0.17496639  1
  Cu+  Cu44  1  0.42094337  0.08305730  0.17073610  1
  Cu+  Cu45  1  0.42656004  0.58931343  0.16860377  1
  Cu+  Cu46  1  0.92392544  0.08924315  0.17181912  1
  Cu+  Cu47  1  0.92030140  0.58447372  0.17393621  1
  Cu+  Cu48  1  0.49592284  0.24624903  0.50628113  1
  Cu+  Cu49  1  0.49571126  0.74524037  0.50536011  1
  Cu+  Cu50  1  0.99122437  0.24538866  0.50505232  1
  Cu+  Cu51  1  0.99182501  0.74610618  0.50219985  1
  Cu+  Cu52  1  0.24566201  0.00289517  0.50286146  1
  Cu+  Cu53  1  0.24439323  0.50209247  0.50246814  1
  Cu+  Cu54  1  0.74674548  0.00011392  0.50587758  1
  Cu+  Cu55  1  0.74502014  0.50062668  0.50407086  1
  Cu+  Cu56  1  0.24494786  0.24123574  0.50265723  1
  Cu+  Cu57  1  0.24369454  0.74036001  0.50152290  1
  Cu+  Cu58  1  0.74598047  0.24484899  0.50552850  1
  Cu+  Cu59  1  0.74654946  0.74520322  0.50380175  1
  Cu+  Cu60  1  0.32906508  0.41342505  0.83931759  1
  Cu+  Cu61  1  0.32740888  0.91692942  0.83241624  1
  Cu+  Cu62  1  0.82904426  0.41453774  0.83537370  1
  Cu+  Cu63  1  0.82807685  0.91378813  0.83657909  1
  Cu+  Cu64  1  0.08412381  0.17018042  0.84268604  1
  Cu+  Cu65  1  0.08973491  0.66900165  0.83714905  1
  Cu+  Cu66  1  0.58852722  0.17011211  0.83350824  1
  Cu+  Cu67  1  0.58849370  0.66770112  0.83708336  1
  Cu+  Cu68  1  0.08793507  0.41975447  0.84124562  1
  Cu+  Cu69  1  0.08884174  0.91961544  0.83602291  1
  Cu+  Cu70  1  0.59167864  0.42187676  0.83324313  1
  Cu+  Cu71  1  0.58876148  0.91798033  0.83523568  1
  Cu+  Cu72  1  0.16468235  0.08271779  0.68326095  1
  Cu+  Cu73  1  0.16669653  0.58105793  0.68137370  1
  Cu+  Cu74  1  0.66814971  0.08199250  0.67826921  1
  Cu+  Cu75  1  0.66824179  0.58398536  0.67685330  1
  Cu+  Cu76  1  0.41095007  0.32982114  0.67369443  1
  Cu+  Cu77  1  0.41099504  0.82681188  0.67209318  1
  Cu+  Cu78  1  0.91426975  0.33005346  0.67656598  1
  Cu+  Cu79  1  0.91264814  0.83085632  0.67409833  1
  Cu+  Cu80  1  0.40796926  0.08039636  0.67856165  1
  Cu+  Cu81  1  0.40964248  0.57844733  0.67380876  1
  Cu+  Cu82  1  0.91379539  0.08227289  0.67750128  1
  Cu+  Cu83  1  0.91350622  0.58192470  0.67387632  1
  Cu+  Cu84  1  0.00381014  0.25235874  0.01490836  1
  Cu+  Cu85  1  0.00443070  0.75130340  0.00572536  1
  Cu+  Cu86  1  0.50311140  0.25082857  0.00462338  1
  Cu+  Cu87  1  0.50686872  0.75253534  0.00810446  1
  Cu+  Cu88  1  0.24921893  0.50140101  0.01180755  1
  Cu+  Cu89  1  0.24926139  0.99875606  0.00977614  1
  Cu+  Cu90  1  0.75144492  0.49896329  0.00695164  1
  Cu+  Cu91  1  0.75069629  1.00063887  0.00823981  1
  Cu+  Cu92  1  0.24598270  0.24807468  0.01766672  1
  Cu+  Cu93  1  0.24937543  0.74981054  0.00741918  1
  Cu+  Cu94  1  0.74936651  0.25013486  0.00650053  1
  Cu+  Cu95  1  0.75225845  0.74968347  0.00870541  1
  Cu+  Cu96  1  0.33936409  0.42078336  0.34103905  1
  Cu+  Cu97  1  0.33992713  0.91849429  0.33854526  1
  Cu+  Cu98  1  0.83487894  0.41701409  0.34274878  1
  Cu+  Cu99  1  0.83794743  0.92038366  0.34269460  1
  Cu+  Cu100  1  0.08672745  0.16796218  0.35109233  1
  Cu+  Cu101  1  0.08355327  0.66418817  0.34708544  1
  Cu+  Cu102  1  0.58304008  0.16415463  0.33954560  1
  Cu+  Cu103  1  0.58513153  0.66681111  0.34027066  1
  Cu+  Cu104  1  0.08414246  0.41920317  0.34835070  1
  Cu+  Cu105  1  0.08719768  0.92344414  0.34748181  1
  Cu+  Cu106  1  0.58223442  0.41726183  0.33948757  1
  Cu+  Cu107  1  0.58409573  0.91784270  0.34074747  1
  Cu+  Cu108  1  -0.00537119  -0.00542298  0.11831253  1
  Cu+  Cu109  1  -0.00289693  0.50081637  0.11757071  1
  Cu+  Cu110  1  0.49598424  -0.00120821  0.11199521  1
  Cu+  Cu111  1  0.50160956  0.49817400  0.11104296  1
  Cu+  Cu112  1  0.33882896  0.16903863  0.44877048  1
  Cu+  Cu113  1  0.33896997  0.67058741  0.44729131  1
  Cu+  Cu114  1  0.82599578  0.16301787  0.44863658  1
  Cu+  Cu115  1  0.82731652  0.66326923  0.44540324  1
  Cu+  Cu116  1  0.16288965  0.33203198  0.78516495  1
  Cu+  Cu117  1  0.15860028  0.82798286  0.77801705  1
  Cu+  Cu118  1  0.66293519  0.33165163  0.77413588  1
  Cu+  Cu119  1  0.65918416  0.82778587  0.77862669  1
  Te2-  Te120  1  -0.00057221  0.00107456  0.39319553  1
  Te2-  Te121  1  -0.00307779  0.49836472  0.39286075  1
  Te2-  Te122  1  0.50268949  0.00051269  0.38576428  1
  Te2-  Te123  1  0.50364049  0.50255216  0.38532814  1
  Te2-  Te124  1  0.33123379  0.16856890  0.72494796  1
  Te2-  Te125  1  0.33405355  0.66523527  0.72157953  1
  Te2-  Te126  1  0.83405630  0.16649005  0.72270349  1
  Te2-  Te127  1  0.83495885  0.66705328  0.72004833  1
  Te2-  Te128  1  0.16958009  0.33830940  0.06071928  1
  Te2-  Te129  1  0.16827472  0.83333004  0.05172101  1
  Te2-  Te130  1  0.66753494  0.33350275  0.04959565  1
  Te2-  Te131  1  0.67370020  0.83605472  0.05301612  1
  Te2-  Te132  1  0.49795090  0.25236367  0.87832067  1
  Te2-  Te133  1  0.49949241  0.74890258  0.88029143  1
  Te2-  Te134  1  0.99743899  0.25108879  0.88716278  1
  Te2-  Te135  1  1.00091942  0.75049959  0.87935074  1
  Te2-  Te136  1  0.25796856  0.01328141  0.88340825  1
  Te2-  Te137  1  0.25760115  0.50798612  0.88606135  1
  Te2-  Te138  1  0.75744762  0.00867586  0.88255671  1
  Te2-  Te139  1  0.75883470  0.50960742  0.88126497  1
  Te2-  Te140  1  0.25500784  0.24886345  0.88960543  1
  Te2-  Te141  1  0.25989043  0.75146258  0.88158277  1
  Te2-  Te142  1  0.75703451  0.24800358  0.88070661  1
  Te2-  Te143  1  0.75827571  0.74863724  0.88284255  1
  Te2-  Te144  1  0.33067846  0.42129803  0.21500384  1
  Te2-  Te145  1  0.33322096  0.91352280  0.21232558  1
  Te2-  Te146  1  0.83104536  0.41525865  0.21661938  1
  Te2-  Te147  1  0.83544707  0.92056473  0.21625277  1
  Te2-  Te148  1  0.09121477  0.18151025  0.22245008  1
  Te2-  Te149  1  0.08715912  0.67266980  0.22020551  1
  Te2-  Te150  1  0.58806511  0.17317729  0.21423007  1
  Te2-  Te151  1  0.59425799  0.67754825  0.21474478  1
  Te2-  Te152  1  0.09075960  0.41739880  0.22082542  1
  Te2-  Te153  1  0.09010263  0.91968592  0.22032218  1
  Te2-  Te154  1  0.58592095  0.41397162  0.21372010  1
  Te2-  Te155  1  0.59439413  0.91628988  0.21499807  1
  Te2-  Te156  1  0.15064100  0.07504855  0.55380130  1
  Te2-  Te157  1  0.14953286  0.57372904  0.55274532  1
  Te2-  Te158  1  0.65841401  0.07824400  0.55148556  1
  Te2-  Te159  1  0.65777121  0.57934531  0.55019259  1
  Te2-  Te160  1  0.41200046  0.33277018  0.54797678  1
  Te2-  Te161  1  0.41152485  0.83148416  0.54629000  1
  Te2-  Te162  1  0.91393710  0.33735890  0.55083982  1
  Te2-  Te163  1  0.91435239  0.83834316  0.54848357  1
  Te2-  Te164  1  0.41161671  0.07723388  0.55110401  1
  Te2-  Te165  1  0.41139090  0.57560929  0.54798560  1
  Te2-  Te166  1  0.91445544  0.07566772  0.55157440  1
  Te2-  Te167  1  0.91325050  0.57603505  0.54823663  1
  Te2-  Te168  1  -0.00187346  -0.00216804  0.88372907  1
  Te2-  Te169  1  -0.00166783  0.50063706  0.88334731  1
  Te2-  Te170  1  0.49895593  -0.00065571  0.88011815  1
  Te2-  Te171  1  0.50027322  0.49846184  0.88214152  1
  Te2-  Te172  1  0.33606758  0.16723209  0.21645759  1
  Te2-  Te173  1  0.33536361  0.66742459  0.21565593  1
  Te2-  Te174  1  0.83173983  0.16662976  0.21634724  1
  Te2-  Te175  1  0.83359068  0.66677780  0.21685364  1
  Te2-  Te176  1  0.16441468  0.33108508  0.54986650  1
  Te2-  Te177  1  0.16385747  0.83107249  0.54848174  1
  Te2-  Te178  1  0.66381467  0.33183618  0.54972301  1
  Te2-  Te179  1  0.66331377  0.83045668  0.54954728  1
  Te2-  Te180  1  0.32455678  0.41089618  0.71320870  1
  Te2-  Te181  1  0.32303204  0.90809321  0.70713002  1
  Te2-  Te182  1  0.82728944  0.41305947  0.70998652  1
  Te2-  Te183  1  0.82548242  0.91221625  0.71133077  1
  Te2-  Te184  1  0.08289127  0.17314107  0.71401152  1
  Te2-  Te185  1  0.08286242  0.67077674  0.70896301  1
  Te2-  Te186  1  0.58303363  0.17145371  0.70537011  1
  Te2-  Te187  1  0.58114070  0.66960683  0.70873917  1
  Te2-  Te188  1  0.08330524  0.40886469  0.71294014  1
  Te2-  Te189  1  0.08200195  0.90976142  0.70885578  1
  Te2-  Te190  1  0.58222196  0.41054464  0.70611890  1
  Te2-  Te191  1  0.58107027  0.90894034  0.70774125  1
  Te2-  Te192  1  0.15715588  0.07570103  0.04654293  1
  Te2-  Te193  1  0.16155308  0.58223099  0.04729765  1
  Te2-  Te194  1  0.66262817  0.08146246  0.04378284  1
  Te2-  Te195  1  0.66319204  0.58008540  0.04375049  1
  Te2-  Te196  1  0.42145811  0.33864547  0.04248312  1
  Te2-  Te197  1  0.42077330  0.83930754  0.04161086  1
  Te2-  Te198  1  0.91896251  0.34098785  0.04502014  1
  Te2-  Te199  1  0.92219292  0.83806695  0.04619379  1
  Te2-  Te200  1  0.41958205  0.08258117  0.04363124  1
  Te2-  Te201  1  0.42124725  0.58009450  0.04173076  1
  Te2-  Te202  1  0.92048677  0.07928401  0.04452513  1
  Te2-  Te203  1  0.92119984  0.58204692  0.04554320  1
  Te2-  Te204  1  0.49601038  0.24714769  0.37780165  1
  Te2-  Te205  1  0.49666186  0.74780441  0.37739423  1
  Te2-  Te206  1  0.99066537  0.24607196  0.37727036  1
  Te2-  Te207  1  0.99265137  0.74797673  0.37445034  1
  Te2-  Te208  1  0.25933418  0.00714819  0.37662062  1
  Te2-  Te209  1  0.25673203  0.50757673  0.37662258  1
  Te2-  Te210  1  0.75351656  0.00583789  0.37874713  1
  Te2-  Te211  1  0.75163218  0.50442893  0.37716418  1
  Te2-  Te212  1  0.25937826  0.25162593  0.37678042  1
  Te2-  Te213  1  0.25627804  0.74914833  0.37536997  1
  Te2-  Te214  1  0.75202561  0.24666298  0.37839798  1
  Te2-  Te215  1  0.75471507  0.74934242  0.37689157  1
