# generated using pymatgen
data_Ti(CuTe)4
_symmetry_space_group_name_H-M   'P 1'
_cell_length_a   16.85947632
_cell_length_b   16.85933437
_cell_length_c   20.65957333
_cell_angle_alpha   90.00885436
_cell_angle_beta   90.00983912
_cell_angle_gamma   119.99992486
_symmetry_Int_Tables_number   1
_chemical_formula_structural   Ti(CuTe)4
_chemical_formula_sum   'Ti24 Cu96 Te96'
_cell_volume   5085.53667072
_cell_formula_units_Z   24
loop_
 _symmetry_equiv_pos_site_id
 _symmetry_equiv_pos_as_xyz
  1  'x, y, z'
loop_
 _atom_type_symbol
 _atom_type_oxidation_number
  Ti4+  4.0
  Cu+  1.0
  Te2-  -2.0
loop_
 _atom_site_type_symbol
 _atom_site_label
 _atom_site_symmetry_multiplicity
 _atom_site_fract_x
 _atom_site_fract_y
 _atom_site_fract_z
 _atom_site_occupancy
  Ti4+  Ti0  1  -0.00148668  -0.00062316  0.26059161  1
  Ti4+  Ti1  1  -0.00041726  0.49953613  0.26412495  1
  Ti4+  Ti2  1  0.50270209  0.00023851  0.25483838  1
  Ti4+  Ti3  1  0.50162292  0.50062584  0.25683031  1
  Ti4+  Ti4  1  0.32801579  0.16239407  0.58650577  1
  Ti4+  Ti5  1  0.33435280  0.66504236  0.58766391  1
  Ti4+  Ti6  1  0.83359246  0.16726245  0.59530908  1
  Ti4+  Ti7  1  0.83055208  0.66410854  0.59157777  1
  Ti4+  Ti8  1  0.16752856  0.33475943  0.92555492  1
  Ti4+  Ti9  1  0.16676331  0.83318611  0.92474691  1
  Ti4+  Ti10  1  0.66816575  0.33698852  0.92205575  1
  Ti4+  Ti11  1  0.66766786  0.83470597  0.92465156  1
  Ti4+  Ti12  1  -0.00139388  -0.00076913  0.75445006  1
  Ti4+  Ti13  1  -0.00039625  0.50060826  0.75338460  1
  Ti4+  Ti14  1  0.50040268  -0.00038444  0.75316218  1
  Ti4+  Ti15  1  0.50076801  0.49996125  0.75482036  1
  Ti4+  Ti16  1  0.33421349  0.16827316  0.08759988  1
  Ti4+  Ti17  1  0.33403915  0.66761895  0.08860959  1
  Ti4+  Ti18  1  0.83287719  0.16610364  0.09185232  1
  Ti4+  Ti19  1  0.83436119  0.66765629  0.09233414  1
  Ti4+  Ti20  1  0.16737133  0.33342455  0.41880504  1
  Ti4+  Ti21  1  0.16763915  0.83496824  0.41861807  1
  Ti4+  Ti22  1  0.66814338  0.33408419  0.42266765  1
  Ti4+  Ti23  1  0.66619341  0.83144105  0.42515591  1
  Cu+  Cu24  1  0.68691088  0.59858337  0.80853111  1
  Cu+  Cu25  1  0.73973822  0.97460243  0.14211332  1
  Cu+  Cu26  1  0.91321653  0.59513186  0.81152313  1
  Cu+  Cu27  1  0.07747804  0.41895448  0.48174867  1
  Cu+  Cu28  1  0.07811190  0.65711674  0.47993522  1
  Cu+  Cu29  1  0.06728209  0.15008533  0.47487528  1
  Cu+  Cu30  1  0.67944522  0.09086607  0.81395650  1
  Cu+  Cu31  1  0.91475433  0.32942234  0.81873189  1
  Cu+  Cu32  1  0.84539656  0.42244941  0.48319014  1
  Cu+  Cu33  1  0.56903030  0.63638211  0.47165915  1
  Cu+  Cu34  1  0.06811391  0.91802483  0.47480362  1
  Cu+  Cu35  1  0.91278062  0.09071473  0.81646234  1
  Cu+  Cu36  1  0.16546257  0.08383675  0.17417363  1
  Cu+  Cu37  1  0.16531560  0.58182284  0.17627109  1
  Cu+  Cu38  1  0.66352508  0.07648847  0.16971603  1
  Cu+  Cu39  1  0.66431392  0.58375367  0.17317236  1
  Cu+  Cu40  1  0.42027121  0.33756156  0.17021984  1
  Cu+  Cu41  1  0.42071844  0.83786466  0.16859377  1
  Cu+  Cu42  1  0.91734165  0.33693567  0.17777126  1
  Cu+  Cu43  1  0.91963604  0.83608689  0.17511858  1
  Cu+  Cu44  1  0.42089449  0.08498165  0.16879908  1
  Cu+  Cu45  1  0.42127164  0.58500452  0.17131491  1
  Cu+  Cu46  1  0.91381749  0.07785001  0.17487226  1
  Cu+  Cu47  1  0.91643694  0.58041035  0.17806913  1
  Cu+  Cu48  1  0.49540432  0.24637779  0.50162126  1
  Cu+  Cu49  1  0.49903223  0.74247088  0.50363595  1
  Cu+  Cu50  1  0.99276134  0.24568636  0.50522715  1
  Cu+  Cu51  1  0.99452783  0.74715207  0.50286815  1
  Cu+  Cu52  1  0.24634561  0.00428361  0.49728218  1
  Cu+  Cu53  1  0.25337134  0.50654040  0.49784283  1
  Cu+  Cu54  1  0.75017211  0.00248557  0.50890083  1
  Cu+  Cu55  1  0.75074189  0.50246682  0.50445420  1
  Cu+  Cu56  1  0.24516148  0.24081614  0.49718008  1
  Cu+  Cu57  1  0.25303568  0.74819684  0.49893197  1
  Cu+  Cu58  1  0.75075107  0.24893226  0.50729860  1
  Cu+  Cu59  1  0.74205669  0.74116471  0.50556316  1
  Cu+  Cu60  1  0.33061951  0.41600579  0.83813066  1
  Cu+  Cu61  1  0.32981960  0.91417902  0.83618580  1
  Cu+  Cu62  1  0.82562376  0.41713736  0.83199024  1
  Cu+  Cu63  1  0.82840439  0.91570273  0.83538308  1
  Cu+  Cu64  1  0.08558613  0.17081945  0.83719630  1
  Cu+  Cu65  1  0.08610779  0.67434338  0.83546943  1
  Cu+  Cu66  1  0.58394233  0.16991503  0.83399199  1
  Cu+  Cu67  1  0.58727508  0.67045350  0.83801542  1
  Cu+  Cu68  1  0.08872966  0.41529578  0.83588928  1
  Cu+  Cu69  1  0.08497833  0.91431335  0.83636413  1
  Cu+  Cu70  1  0.58927031  0.42099037  0.83425035  1
  Cu+  Cu71  1  0.58625240  0.91642361  0.83595224  1
  Cu+  Cu72  1  0.16601645  0.08106602  0.67312961  1
  Cu+  Cu73  1  0.16929704  0.58461201  0.67396606  1
  Cu+  Cu74  1  0.66942119  0.08469488  0.68207101  1
  Cu+  Cu75  1  0.66806385  0.58263000  0.68008393  1
  Cu+  Cu76  1  0.41082460  0.32739936  0.66907165  1
  Cu+  Cu77  1  0.41543107  0.82960203  0.66944559  1
  Cu+  Cu78  1  0.91794959  0.33283033  0.68556157  1
  Cu+  Cu79  1  0.91507850  0.83184370  0.67476852  1
  Cu+  Cu80  1  0.41137774  0.08097506  0.66842709  1
  Cu+  Cu81  1  0.41523056  0.58259203  0.67286808  1
  Cu+  Cu82  1  0.91594412  0.08370017  0.68391707  1
  Cu+  Cu83  1  0.91637823  0.58418649  0.68214399  1
  Cu+  Cu84  1  0.00212857  0.25337833  0.01322662  1
  Cu+  Cu85  1  0.00253127  0.75005468  0.01123018  1
  Cu+  Cu86  1  0.50369493  0.25401079  0.00424869  1
  Cu+  Cu87  1  0.50268397  0.75223218  0.00700577  1
  Cu+  Cu88  1  0.24863648  0.49851994  0.00886843  1
  Cu+  Cu89  1  0.24795676  0.99799582  0.00680465  1
  Cu+  Cu90  1  0.75200358  0.50214214  0.01097700  1
  Cu+  Cu91  1  0.75077647  0.99975791  0.01471209  1
  Cu+  Cu92  1  0.24815982  0.25121651  0.00807772  1
  Cu+  Cu93  1  0.24678121  0.74964679  0.00786345  1
  Cu+  Cu94  1  0.75289971  0.25443012  0.01012113  1
  Cu+  Cu95  1  0.75259807  0.75287684  0.01098647  1
  Cu+  Cu96  1  0.33729375  0.41892578  0.33770912  1
  Cu+  Cu97  1  0.33979885  0.92078523  0.33609102  1
  Cu+  Cu98  1  0.83643263  0.41798628  0.35147731  1
  Cu+  Cu99  1  0.83228034  0.91714337  0.34483211  1
  Cu+  Cu100  1  0.08115558  0.16285997  0.34560773  1
  Cu+  Cu101  1  0.08312704  0.66466223  0.34873143  1
  Cu+  Cu102  1  0.58471182  0.16357609  0.33734882  1
  Cu+  Cu103  1  0.58136065  0.66056191  0.34410526  1
  Cu+  Cu104  1  0.08297366  0.41846457  0.34978113  1
  Cu+  Cu105  1  0.08329541  0.92142360  0.34647399  1
  Cu+  Cu106  1  0.58471569  0.41839984  0.33890718  1
  Cu+  Cu107  1  0.58539000  0.91984057  0.34080823  1
  Cu+  Cu108  1  0.00363583  0.00115702  0.11919133  1
  Cu+  Cu109  1  0.00231118  0.50302708  0.12323299  1
  Cu+  Cu110  1  0.49580294  0.00048465  0.11067021  1
  Cu+  Cu111  1  0.49865450  0.49948289  0.11419645  1
  Cu+  Cu112  1  0.33903326  0.17023105  0.44118401  1
  Cu+  Cu113  1  0.33955299  0.67374809  0.44252862  1
  Cu+  Cu114  1  0.82689201  0.16283123  0.45083172  1
  Cu+  Cu115  1  0.83162031  0.66785073  0.44697892  1
  Cu+  Cu116  1  0.17214825  0.33282381  0.77999529  1
  Cu+  Cu117  1  0.17107327  0.83848524  0.77893332  1
  Cu+  Cu118  1  0.65626913  0.32832385  0.77556016  1
  Cu+  Cu119  1  0.66070092  0.82961458  0.77849540  1
  Te2-  Te120  1  -0.00507086  -0.00194168  0.39322387  1
  Te2-  Te121  1  0.00091833  0.50060398  0.39865026  1
  Te2-  Te122  1  0.50187403  0.00073328  0.38442539  1
  Te2-  Te123  1  0.49847913  0.49394922  0.38787456  1
  Te2-  Te124  1  0.33122556  0.16397009  0.71548322  1
  Te2-  Te125  1  0.33441636  0.66647523  0.71673537  1
  Te2-  Te126  1  0.83398764  0.16706408  0.72889511  1
  Te2-  Te127  1  0.83445590  0.66925455  0.72344822  1
  Te2-  Te128  1  0.16782150  0.33449022  0.05464309  1
  Te2-  Te129  1  0.16790929  0.83462019  0.05403636  1
  Te2-  Te130  1  0.66748860  0.33540857  0.05092374  1
  Te2-  Te131  1  0.66608424  0.83142013  0.05481288  1
  Te2-  Te132  1  0.49854363  0.25211789  0.87792141  1
  Te2-  Te133  1  0.49825706  0.74951859  0.88080715  1
  Te2-  Te134  1  0.99056111  0.24687491  0.88642656  1
  Te2-  Te135  1  0.99213658  0.74876083  0.88466323  1
  Te2-  Te136  1  0.25212279  0.00441717  0.88052983  1
  Te2-  Te137  1  0.25318428  0.50634787  0.88282067  1
  Te2-  Te138  1  0.75548807  0.01089146  0.88656634  1
  Te2-  Te139  1  0.75698323  0.51368308  0.88393696  1
  Te2-  Te140  1  0.25169316  0.24787725  0.88192950  1
  Te2-  Te141  1  0.25155870  0.74639020  0.88152962  1
  Te2-  Te142  1  0.75528079  0.24842317  0.88352198  1
  Te2-  Te143  1  0.75804949  0.75139225  0.88439403  1
  Te2-  Te144  1  0.33047603  0.41603963  0.21234247  1
  Te2-  Te145  1  0.33131450  0.91639845  0.21071601  1
  Te2-  Te146  1  0.82804887  0.41362881  0.22424317  1
  Te2-  Te147  1  0.82479462  0.90834974  0.21944433  1
  Te2-  Te148  1  0.08223406  0.16983206  0.21848680  1
  Te2-  Te149  1  0.08491821  0.66951928  0.22133585  1
  Te2-  Te150  1  0.58961718  0.17135368  0.21170807  1
  Te2-  Te151  1  0.58752520  0.67359487  0.21773754  1
  Te2-  Te152  1  0.08468846  0.41405986  0.22233310  1
  Te2-  Te153  1  0.08664791  0.91613775  0.21961835  1
  Te2-  Te154  1  0.58785765  0.41514536  0.21367732  1
  Te2-  Te155  1  0.58624969  0.90833066  0.21540817  1
  Te2-  Te156  1  0.14996793  0.07426566  0.54732165  1
  Te2-  Te157  1  0.15771460  0.57869396  0.54855455  1
  Te2-  Te158  1  0.66387046  0.08325046  0.55435018  1
  Te2-  Te159  1  0.65683578  0.57337556  0.55272396  1
  Te2-  Te160  1  0.41231551  0.33309024  0.54314145  1
  Te2-  Te161  1  0.42009633  0.83485536  0.54349009  1
  Te2-  Te162  1  0.92158607  0.34165326  0.55600270  1
  Te2-  Te163  1  0.91212417  0.83539883  0.54890257  1
  Te2-  Te164  1  0.41317696  0.07677829  0.54279834  1
  Te2-  Te165  1  0.41643110  0.57275228  0.54741693  1
  Te2-  Te166  1  0.91731107  0.07807280  0.55535298  1
  Te2-  Te167  1  0.92119358  0.57980528  0.55388396  1
  Te2-  Te168  1  0.00019890  -0.00023833  0.88175827  1
  Te2-  Te169  1  0.00021180  0.50130736  0.88120000  1
  Te2-  Te170  1  0.49939336  0.00061338  0.88081686  1
  Te2-  Te171  1  0.50014020  0.50031973  0.88213976  1
  Te2-  Te172  1  0.33650943  0.16880025  0.21441496  1
  Te2-  Te173  1  0.33648822  0.66940848  0.21532469  1
  Te2-  Te174  1  0.83158468  0.16573877  0.21887803  1
  Te2-  Te175  1  0.83276892  0.66681086  0.21933089  1
  Te2-  Te176  1  0.16857112  0.33424400  0.54669072  1
  Te2-  Te177  1  0.16835281  0.83418388  0.54669423  1
  Te2-  Te178  1  0.66245176  0.33155354  0.55030433  1
  Te2-  Te179  1  0.66563683  0.83306861  0.55252455  1
  Te2-  Te180  1  0.32911724  0.41339332  0.71037792  1
  Te2-  Te181  1  0.32920917  0.91271299  0.70839707  1
  Te2-  Te182  1  0.82225653  0.41094803  0.70626305  1
  Te2-  Te183  1  0.82376644  0.91009851  0.70907026  1
  Te2-  Te184  1  0.08897504  0.17333218  0.70978344  1
  Te2-  Te185  1  0.08986466  0.67490620  0.70858965  1
  Te2-  Te186  1  0.58152285  0.17121666  0.70598828  1
  Te2-  Te187  1  0.58482500  0.67249073  0.70922515  1
  Te2-  Te188  1  0.09089335  0.41565537  0.70974417  1
  Te2-  Te189  1  0.08429579  0.91209210  0.70976602  1
  Te2-  Te190  1  0.58083744  0.40909668  0.70650311  1
  Te2-  Te191  1  0.58463117  0.91093544  0.70798392  1
  Te2-  Te192  1  0.16156163  0.08120385  0.04607515  1
  Te2-  Te193  1  0.16085658  0.58038422  0.04816916  1
  Te2-  Te194  1  0.66117588  0.08359882  0.04303676  1
  Te2-  Te195  1  0.66268453  0.58290204  0.04632911  1
  Te2-  Te196  1  0.41978059  0.33958404  0.04260479  1
  Te2-  Te197  1  0.41879247  0.83872960  0.04185018  1
  Te2-  Te198  1  0.92019739  0.34046048  0.05064706  1
  Te2-  Te199  1  0.92188798  0.83987373  0.04820294  1
  Te2-  Te200  1  0.41973490  0.08350900  0.04094386  1
  Te2-  Te201  1  0.42017747  0.58212441  0.04380888  1
  Te2-  Te202  1  0.92286479  0.08262036  0.04736733  1
  Te2-  Te203  1  0.92049357  0.58102964  0.05025227  1
  Te2-  Te204  1  0.49904866  0.24802861  0.37419490  1
  Te2-  Te205  1  0.49691499  0.74892388  0.37566247  1
  Te2-  Te206  1  0.99012672  0.24452068  0.37749489  1
  Te2-  Te207  1  0.99173982  0.74734959  0.37502431  1
  Te2-  Te208  1  0.25697701  0.00776300  0.37155081  1
  Te2-  Te209  1  0.25723563  0.50820264  0.37270804  1
  Te2-  Te210  1  0.75211128  0.00506232  0.38192741  1
  Te2-  Te211  1  0.75271026  0.50804002  0.37778159  1
  Te2-  Te212  1  0.25493766  0.24829426  0.37115067  1
  Te2-  Te213  1  0.25724487  0.75118663  0.37235573  1
  Te2-  Te214  1  0.75213880  0.24430890  0.37933659  1
  Te2-  Te215  1  0.75308580  0.74647437  0.37817279  1
