# generated using pymatgen
data_Ti(CuTe)4
_symmetry_space_group_name_H-M   'P 1'
_cell_length_a   16.87095751
_cell_length_b   16.87465703
_cell_length_c   20.68504803
_cell_angle_alpha   90.01253249
_cell_angle_beta   90.01480204
_cell_angle_gamma   120.00353582
_symmetry_Int_Tables_number   1
_chemical_formula_structural   Ti(CuTe)4
_chemical_formula_sum   'Ti24 Cu96 Te96'
_cell_volume   5099.71994797
_cell_formula_units_Z   24
loop_
 _symmetry_equiv_pos_site_id
 _symmetry_equiv_pos_as_xyz
  1  'x, y, z'
loop_
 _atom_type_symbol
 _atom_type_oxidation_number
  Ti4+  4.0
  Cu+  1.0
  Te2-  -2.0
loop_
 _atom_site_type_symbol
 _atom_site_label
 _atom_site_symmetry_multiplicity
 _atom_site_fract_x
 _atom_site_fract_y
 _atom_site_fract_z
 _atom_site_occupancy
  Ti4+  Ti0  1  0.00109106  0.00131220  0.26012740  1
  Ti4+  Ti1  1  -0.00028144  0.49903962  0.26177903  1
  Ti4+  Ti2  1  0.50165295  0.00134466  0.26012907  1
  Ti4+  Ti3  1  0.50134389  0.50024423  0.25779379  1
  Ti4+  Ti4  1  0.33312707  0.16435272  0.59142439  1
  Ti4+  Ti5  1  0.33166519  0.66547549  0.58720047  1
  Ti4+  Ti6  1  0.83403026  0.16782174  0.59632428  1
  Ti4+  Ti7  1  0.83169143  0.66846159  0.58851550  1
  Ti4+  Ti8  1  0.16788554  0.33552418  0.92333003  1
  Ti4+  Ti9  1  0.16535603  0.83000322  0.92283719  1
  Ti4+  Ti10  1  0.66297509  0.33092754  0.92306314  1
  Ti4+  Ti11  1  0.66844976  0.83348099  0.92286001  1
  Ti4+  Ti12  1  -0.00152901  -0.00219976  0.75274254  1
  Ti4+  Ti13  1  0.00302668  0.50263699  0.75413319  1
  Ti4+  Ti14  1  0.49984148  0.00108045  0.75201393  1
  Ti4+  Ti15  1  0.49869759  0.49881301  0.75404144  1
  Ti4+  Ti16  1  0.33261636  0.16562070  0.09008524  1
  Ti4+  Ti17  1  0.33395473  0.66712033  0.09104816  1
  Ti4+  Ti18  1  0.83397930  0.16697165  0.09063005  1
  Ti4+  Ti19  1  0.83364187  0.66633898  0.09002648  1
  Ti4+  Ti20  1  0.16652698  0.33513525  0.42336816  1
  Ti4+  Ti21  1  0.16860274  0.83618651  0.42001029  1
  Ti4+  Ti22  1  0.66754595  0.33324038  0.42364324  1
  Ti4+  Ti23  1  0.66680734  0.83189659  0.42297626  1
  Cu+  Cu24  1  0.07389043  0.92866212  0.47403083  1
  Cu+  Cu25  1  0.90339796  0.80629309  0.80439178  1
  Cu+  Cu26  1  0.06656958  0.42059232  0.47710884  1
  Cu+  Cu27  1  0.91182661  0.08620533  0.81462241  1
  Cu+  Cu28  1  0.67427006  0.08815308  0.81469817  1
  Cu+  Cu29  1  0.07363374  0.65684935  0.47663927  1
  Cu+  Cu30  1  0.91440860  0.32777410  0.81660833  1
  Cu+  Cu31  1  0.19518895  0.59784707  0.80398702  1
  Cu+  Cu32  1  0.40357659  0.08631819  0.80915584  1
  Cu+  Cu33  1  0.40217723  0.31319566  0.80772438  1
  Cu+  Cu34  1  0.35477410  0.92790562  0.47361386  1
  Cu+  Cu35  1  0.57017261  0.64045823  0.47131166  1
  Cu+  Cu36  1  0.16386658  0.08205004  0.17419936  1
  Cu+  Cu37  1  0.16367698  0.58000719  0.17640159  1
  Cu+  Cu38  1  0.66474109  0.08318928  0.17368408  1
  Cu+  Cu39  1  0.66400521  0.58245995  0.17245498  1
  Cu+  Cu40  1  0.41904491  0.33653087  0.17234253  1
  Cu+  Cu41  1  0.41891458  0.83717772  0.17465742  1
  Cu+  Cu42  1  0.91980395  0.33573418  0.17443582  1
  Cu+  Cu43  1  0.92002038  0.83708669  0.17406162  1
  Cu+  Cu44  1  0.41861398  0.08192586  0.17407498  1
  Cu+  Cu45  1  0.42111148  0.58393746  0.17317869  1
  Cu+  Cu46  1  0.91982258  0.08337052  0.17374104  1
  Cu+  Cu47  1  0.91764293  0.58137551  0.17455255  1
  Cu+  Cu48  1  0.49839286  0.24777293  0.50580507  1
  Cu+  Cu49  1  0.49809122  0.74303054  0.50152507  1
  Cu+  Cu50  1  0.99687702  0.25048213  0.50919524  1
  Cu+  Cu51  1  0.99477750  0.75275752  0.50154375  1
  Cu+  Cu52  1  0.25369557  0.00450927  0.50161620  1
  Cu+  Cu53  1  0.24469319  0.50282864  0.50097576  1
  Cu+  Cu54  1  0.75212637  0.00300559  0.50921693  1
  Cu+  Cu55  1  0.74975697  0.50262836  0.50233110  1
  Cu+  Cu56  1  0.25327634  0.25110618  0.50508425  1
  Cu+  Cu57  1  0.25244064  0.74916468  0.49913049  1
  Cu+  Cu58  1  0.75121994  0.24857523  0.50822726  1
  Cu+  Cu59  1  0.74736224  0.74576787  0.50260557  1
  Cu+  Cu60  1  0.32957498  0.41355970  0.83579016  1
  Cu+  Cu61  1  0.32728369  0.91336137  0.83390422  1
  Cu+  Cu62  1  0.82900142  0.41598336  0.83552190  1
  Cu+  Cu63  1  0.82922273  0.90997519  0.83321155  1
  Cu+  Cu64  1  0.08544264  0.17127143  0.83326972  1
  Cu+  Cu65  1  0.09137983  0.67057231  0.83427389  1
  Cu+  Cu66  1  0.58254421  0.17268390  0.83190936  1
  Cu+  Cu67  1  0.58571670  0.67106301  0.83585146  1
  Cu+  Cu68  1  0.09104959  0.42110479  0.83435728  1
  Cu+  Cu69  1  0.07812485  0.90737152  0.83351438  1
  Cu+  Cu70  1  0.57894607  0.41068090  0.83531646  1
  Cu+  Cu71  1  0.58574478  0.91466605  0.83367287  1
  Cu+  Cu72  1  0.16704100  0.08136033  0.67273101  1
  Cu+  Cu73  1  0.17002420  0.58786729  0.67713252  1
  Cu+  Cu74  1  0.67023089  0.08568911  0.68247911  1
  Cu+  Cu75  1  0.66619525  0.58525161  0.67344989  1
  Cu+  Cu76  1  0.41444484  0.32805900  0.67922620  1
  Cu+  Cu77  1  0.41599543  0.83166922  0.67001577  1
  Cu+  Cu78  1  0.91727290  0.33329186  0.68423383  1
  Cu+  Cu79  1  0.91422515  0.83011939  0.67570771  1
  Cu+  Cu80  1  0.41448666  0.08272157  0.67900634  1
  Cu+  Cu81  1  0.41506544  0.58280411  0.67129302  1
  Cu+  Cu82  1  0.91602864  0.08582173  0.68206595  1
  Cu+  Cu83  1  0.91718839  0.58786489  0.67277621  1
  Cu+  Cu84  1  0.00135877  0.25203867  0.00975885  1
  Cu+  Cu85  1  0.00012559  0.74783880  0.00746272  1
  Cu+  Cu86  1  0.49848209  0.24712551  0.00995143  1
  Cu+  Cu87  1  0.50379976  0.75330514  0.00775069  1
  Cu+  Cu88  1  0.25018469  0.50035383  0.00926994  1
  Cu+  Cu89  1  0.24718080  0.99628985  0.00784378  1
  Cu+  Cu90  1  0.74742428  0.49622200  0.00760647  1
  Cu+  Cu91  1  0.75133750  0.99964322  0.00936261  1
  Cu+  Cu92  1  0.24817438  0.24996772  0.00954016  1
  Cu+  Cu93  1  0.24898004  0.74928820  0.00947400  1
  Cu+  Cu94  1  0.74917935  0.24988631  0.01034138  1
  Cu+  Cu95  1  0.75207461  0.75196519  0.00834828  1
  Cu+  Cu96  1  0.33650613  0.41871193  0.34021830  1
  Cu+  Cu97  1  0.34073002  0.92217738  0.34579477  1
  Cu+  Cu98  1  0.83497192  0.41549419  0.34352778  1
  Cu+  Cu99  1  0.83677493  0.91949689  0.34245163  1
  Cu+  Cu100  1  0.08274406  0.16556655  0.34386018  1
  Cu+  Cu101  1  0.08239294  0.66380598  0.34691908  1
  Cu+  Cu102  1  0.58402021  0.16519575  0.34311979  1
  Cu+  Cu103  1  0.58259305  0.66132533  0.34436410  1
  Cu+  Cu104  1  0.08062300  0.41824078  0.34871153  1
  Cu+  Cu105  1  0.08313380  0.92234427  0.34610524  1
  Cu+  Cu106  1  0.58290641  0.41689646  0.34041278  1
  Cu+  Cu107  1  0.58440487  0.91969345  0.34286730  1
  Cu+  Cu108  1  -0.00040858  0.00008111  0.11778818  1
  Cu+  Cu109  1  -0.00088383  0.50001994  0.11962606  1
  Cu+  Cu110  1  0.50105331  0.00011260  0.11803309  1
  Cu+  Cu111  1  0.49982262  0.49952940  0.11522205  1
  Cu+  Cu112  1  0.33663665  0.17313474  0.44782448  1
  Cu+  Cu113  1  0.33650856  0.66786367  0.44258027  1
  Cu+  Cu114  1  0.83135015  0.16375162  0.45341401  1
  Cu+  Cu115  1  0.83116107  0.66463994  0.44392680  1
  Cu+  Cu116  1  0.16843694  0.33382230  0.77653580  1
  Cu+  Cu117  1  0.16650707  0.83421374  0.77609067  1
  Cu+  Cu118  1  0.66938677  0.33997386  0.77689036  1
  Cu+  Cu119  1  0.66255897  0.82980600  0.77601935  1
  Te2-  Te120  1  -0.00123848  0.00292855  0.39145309  1
  Te2-  Te121  1  -0.00336035  0.49963894  0.39419733  1
  Te2-  Te122  1  0.50539844  0.00286250  0.39144043  1
  Te2-  Te123  1  0.49866221  0.49524774  0.38869426  1
  Te2-  Te124  1  0.32870289  0.16233388  0.72354170  1
  Te2-  Te125  1  0.33744055  0.66882768  0.71748074  1
  Te2-  Te126  1  0.83457350  0.16844699  0.72942906  1
  Te2-  Te127  1  0.83015533  0.66394673  0.71887554  1
  Te2-  Te128  1  0.16711423  0.33461884  0.05150789  1
  Te2-  Te129  1  0.16514302  0.83119491  0.05112491  1
  Te2-  Te130  1  0.66441705  0.33112021  0.05116140  1
  Te2-  Te131  1  0.66902718  0.83425743  0.05123722  1
  Te2-  Te132  1  0.48614156  0.24193060  0.88321079  1
  Te2-  Te133  1  0.49724732  0.74954922  0.88130631  1
  Te2-  Te134  1  0.99262335  0.24768450  0.88312187  1
  Te2-  Te135  1  0.99192667  0.73925308  0.88091813  1
  Te2-  Te136  1  0.24635852  0.00287050  0.88098621  1
  Te2-  Te137  1  0.25804537  0.50902404  0.88253999  1
  Te2-  Te138  1  0.75568887  0.00921744  0.88286705  1
  Te2-  Te139  1  0.74728977  0.50096141  0.88088123  1
  Te2-  Te140  1  0.24974302  0.24382019  0.88291338  1
  Te2-  Te141  1  0.25825574  0.74826399  0.88288468  1
  Te2-  Te142  1  0.75298690  0.24499697  0.88352203  1
  Te2-  Te143  1  0.75262844  0.74323864  0.88181218  1
  Te2-  Te144  1  0.32976086  0.41538532  0.21485126  1
  Te2-  Te145  1  0.32957071  0.91521392  0.21878548  1
  Te2-  Te146  1  0.82901690  0.41291149  0.21794328  1
  Te2-  Te147  1  0.82986590  0.91539219  0.21676805  1
  Te2-  Te148  1  0.08711467  0.17302058  0.21814036  1
  Te2-  Te149  1  0.08524448  0.66995640  0.21928778  1
  Te2-  Te150  1  0.58668175  0.17275317  0.21739702  1
  Te2-  Te151  1  0.58797081  0.67273489  0.21767124  1
  Te2-  Te152  1  0.08558550  0.41295666  0.22152737  1
  Te2-  Te153  1  0.08709584  0.91526827  0.21901390  1
  Te2-  Te154  1  0.58702176  0.41435658  0.21502719  1
  Te2-  Te155  1  0.58736965  0.91561330  0.21727279  1
  Te2-  Te156  1  0.16087421  0.08223065  0.54746549  1
  Te2-  Te157  1  0.15534144  0.58065253  0.54984143  1
  Te2-  Te158  1  0.66384910  0.08206119  0.55439461  1
  Te2-  Te159  1  0.65795607  0.57711854  0.54786021  1
  Te2-  Te160  1  0.41926473  0.33565418  0.55171011  1
  Te2-  Te161  1  0.42264525  0.83742016  0.54463842  1
  Te2-  Te162  1  0.91731084  0.34116865  0.55572526  1
  Te2-  Te163  1  0.91541462  0.84162686  0.54864041  1
  Te2-  Te164  1  0.42217968  0.08028215  0.55107528  1
  Te2-  Te165  1  0.41287768  0.57386785  0.54581091  1
  Te2-  Te166  1  0.91959562  0.08324639  0.55417936  1
  Te2-  Te167  1  0.91711221  0.58099590  0.54722955  1
  Te2-  Te168  1  0.00068051  0.00024871  0.88064089  1
  Te2-  Te169  1  -0.00057480  0.50058740  0.88213154  1
  Te2-  Te170  1  0.49916780  -0.00018985  0.88008132  1
  Te2-  Te171  1  0.49972866  0.50104068  0.88096398  1
  Te2-  Te172  1  0.33414884  0.16757380  0.21626692  1
  Te2-  Te173  1  0.33497964  0.66718701  0.21724856  1
  Te2-  Te174  1  0.83396020  0.16651899  0.21683668  1
  Te2-  Te175  1  0.83350258  0.66700467  0.21638807  1
  Te2-  Te176  1  0.16834650  0.33503154  0.55065411  1
  Te2-  Te177  1  0.16641269  0.83339266  0.54850346  1
  Te2-  Te178  1  0.66716713  0.33496713  0.55029414  1
  Te2-  Te179  1  0.66566618  0.83242577  0.55018354  1
  Te2-  Te180  1  0.32609346  0.41331426  0.70820072  1
  Te2-  Te181  1  0.32594866  0.91009517  0.70684459  1
  Te2-  Te182  1  0.82872140  0.41816447  0.70881745  1
  Te2-  Te183  1  0.82402006  0.91218417  0.70651654  1
  Te2-  Te184  1  0.08910709  0.17297767  0.70758115  1
  Te2-  Te185  1  0.08614064  0.67558933  0.70788095  1
  Te2-  Te186  1  0.58770188  0.17687059  0.70617204  1
  Te2-  Te187  1  0.58364885  0.67139021  0.70912970  1
  Te2-  Te188  1  0.09059195  0.41549201  0.70738201  1
  Te2-  Te189  1  0.08599384  0.91214152  0.70663431  1
  Te2-  Te190  1  0.58745255  0.41490572  0.70812319  1
  Te2-  Te191  1  0.58502009  0.91208638  0.70703675  1
  Te2-  Te192  1  0.16048923  0.07964838  0.04656118  1
  Te2-  Te193  1  0.16108864  0.58012393  0.04861001  1
  Te2-  Te194  1  0.66158731  0.07984911  0.04646983  1
  Te2-  Te195  1  0.66213196  0.58122594  0.04513862  1
  Te2-  Te196  1  0.41854525  0.33766295  0.04528201  1
  Te2-  Te197  1  0.41964386  0.83868669  0.04686893  1
  Te2-  Te198  1  0.91935406  0.33960352  0.04711517  1
  Te2-  Te199  1  0.92126981  0.83846820  0.04632840  1
  Te2-  Te200  1  0.41694255  0.07750415  0.04659494  1
  Te2-  Te201  1  0.42098584  0.58301598  0.04571269  1
  Te2-  Te202  1  0.92113854  0.08195435  0.04635430  1
  Te2-  Te203  1  0.91743124  0.57820414  0.04650315  1
  Te2-  Te204  1  0.49599751  0.24758810  0.37887179  1
  Te2-  Te205  1  0.49574750  0.74801681  0.37464718  1
  Te2-  Te206  1  0.99250112  0.24543718  0.38116246  1
  Te2-  Te207  1  0.99381702  0.74862654  0.37414650  1
  Te2-  Te208  1  0.25626948  0.01077836  0.37488369  1
  Te2-  Te209  1  0.25468991  0.50703469  0.37508328  1
  Te2-  Te210  1  0.75348436  0.00525952  0.38155902  1
  Te2-  Te211  1  0.75271896  0.50450073  0.37651669  1
  Te2-  Te212  1  0.25315616  0.24959293  0.37875231  1
  Te2-  Te213  1  0.25560131  0.74849277  0.37284016  1
  Te2-  Te214  1  0.75374185  0.24623684  0.38142998  1
  Te2-  Te215  1  0.75535904  0.74853840  0.37594256  1
