# generated using pymatgen
data_Ti(CuTe)4
_symmetry_space_group_name_H-M   'P 1'
_cell_length_a   16.88945247
_cell_length_b   16.88934838
_cell_length_c   20.70805454
_cell_angle_alpha   89.98589804
_cell_angle_beta   90.02920085
_cell_angle_gamma   120.00711238
_symmetry_Int_Tables_number   1
_chemical_formula_structural   Ti(CuTe)4
_chemical_formula_sum   'Ti24 Cu96 Te96'
_cell_volume   5115.25407570
_cell_formula_units_Z   24
loop_
 _symmetry_equiv_pos_site_id
 _symmetry_equiv_pos_as_xyz
  1  'x, y, z'
loop_
 _atom_type_symbol
 _atom_type_oxidation_number
  Ti4+  4.0
  Cu+  1.0
  Te2-  -2.0
loop_
 _atom_site_type_symbol
 _atom_site_label
 _atom_site_symmetry_multiplicity
 _atom_site_fract_x
 _atom_site_fract_y
 _atom_site_fract_z
 _atom_site_occupancy
  Ti4+  Ti0  1  -0.00068186  -0.00164896  0.26043490  1
  Ti4+  Ti1  1  0.00330706  0.50458898  0.25811309  1
  Ti4+  Ti2  1  0.50265967  -0.00103656  0.25675866  1
  Ti4+  Ti3  1  0.50081444  0.49920413  0.25706507  1
  Ti4+  Ti4  1  0.32918674  0.16392118  0.59171816  1
  Ti4+  Ti5  1  0.33075052  0.66614538  0.59397618  1
  Ti4+  Ti6  1  0.83316910  0.16845716  0.58919187  1
  Ti4+  Ti7  1  0.83157983  0.66699809  0.59190173  1
  Ti4+  Ti8  1  0.16462709  0.33094262  0.92281717  1
  Ti4+  Ti9  1  0.16822918  0.83412402  0.92547696  1
  Ti4+  Ti10  1  0.66793093  0.33401158  0.91928593  1
  Ti4+  Ti11  1  0.66634008  0.83311140  0.92441965  1
  Ti4+  Ti12  1  0.00011173  0.00079770  0.75649244  1
  Ti4+  Ti13  1  -0.00196937  0.49940755  0.75414378  1
  Ti4+  Ti14  1  0.49973786  -0.00064693  0.75328765  1
  Ti4+  Ti15  1  0.49909219  0.49947702  0.75243897  1
  Ti4+  Ti16  1  0.33454465  0.16759632  0.08962074  1
  Ti4+  Ti17  1  0.33326349  0.66659279  0.08755027  1
  Ti4+  Ti18  1  0.83300002  0.16530124  0.08995088  1
  Ti4+  Ti19  1  0.83513857  0.66698642  0.08788584  1
  Ti4+  Ti20  1  0.16561412  0.33393325  0.42143929  1
  Ti4+  Ti21  1  0.16786907  0.83429624  0.42525700  1
  Ti4+  Ti22  1  0.66721549  0.33286220  0.42135229  1
  Ti4+  Ti23  1  0.66697415  0.83245505  0.42294583  1
  Cu+  Cu24  1  0.41270460  0.81816677  0.81124927  1
  Cu+  Cu25  1  0.07032036  0.15103657  0.47534848  1
  Cu+  Cu26  1  0.17590515  0.58577466  0.81484050  1
  Cu+  Cu27  1  0.07223990  0.43037886  0.47409110  1
  Cu+  Cu28  1  0.90800022  0.59686650  0.80670156  1
  Cu+  Cu29  1  0.18290013  0.09286358  0.81331272  1
  Cu+  Cu30  1  0.41118600  0.09279585  0.80851144  1
  Cu+  Cu31  1  0.24708998  0.76073543  0.14734394  1
  Cu+  Cu32  1  0.01977280  0.76347184  0.14437568  1
  Cu+  Cu33  1  0.73893105  0.97329692  0.14054887  1
  Cu+  Cu34  1  0.90613824  0.31143208  0.80545347  1
  Cu+  Cu35  1  0.07018789  0.92137567  0.47998216  1
  Cu+  Cu36  1  0.16585120  0.08268715  0.17443386  1
  Cu+  Cu37  1  0.16410348  0.58541138  0.17025309  1
  Cu+  Cu38  1  0.66660564  0.07676882  0.17062285  1
  Cu+  Cu39  1  0.66361121  0.58070123  0.17020476  1
  Cu+  Cu40  1  0.41956546  0.33688485  0.17157741  1
  Cu+  Cu41  1  0.41980876  0.83973733  0.16910976  1
  Cu+  Cu42  1  0.92057342  0.33740921  0.17286448  1
  Cu+  Cu43  1  0.92271274  0.83797916  0.17144319  1
  Cu+  Cu44  1  0.41981844  0.08351252  0.17122347  1
  Cu+  Cu45  1  0.41930383  0.58088739  0.17050067  1
  Cu+  Cu46  1  0.91266859  0.07759708  0.17361394  1
  Cu+  Cu47  1  0.92488073  0.58834241  0.16933225  1
  Cu+  Cu48  1  0.49731010  0.24580691  0.50477157  1
  Cu+  Cu49  1  0.49818995  0.75031032  0.50684691  1
  Cu+  Cu50  1  0.99536995  0.25130937  0.50237213  1
  Cu+  Cu51  1  0.99501522  0.74970185  0.50790334  1
  Cu+  Cu52  1  0.24590810  0.00259442  0.50595307  1
  Cu+  Cu53  1  0.24453463  0.50333811  0.50524897  1
  Cu+  Cu54  1  0.75068444  0.00165715  0.50349364  1
  Cu+  Cu55  1  0.75072128  0.50114667  0.50550853  1
  Cu+  Cu56  1  0.24424249  0.24125283  0.50223511  1
  Cu+  Cu57  1  0.25269445  0.74853587  0.50854088  1
  Cu+  Cu58  1  0.75208011  0.25003792  0.50261030  1
  Cu+  Cu59  1  0.75000156  0.74807927  0.50462311  1
  Cu+  Cu60  1  0.33089602  0.41430203  0.83410369  1
  Cu+  Cu61  1  0.33128541  0.91438095  0.83563205  1
  Cu+  Cu62  1  0.83041418  0.41546047  0.83270465  1
  Cu+  Cu63  1  0.83069483  0.91773963  0.83956560  1
  Cu+  Cu64  1  0.08698300  0.17093813  0.83697008  1
  Cu+  Cu65  1  0.08415271  0.67114818  0.83712298  1
  Cu+  Cu66  1  0.58548637  0.17229840  0.83270467  1
  Cu+  Cu67  1  0.58485709  0.66834332  0.83579040  1
  Cu+  Cu68  1  0.08193197  0.41012052  0.83543740  1
  Cu+  Cu69  1  0.08684370  0.91710755  0.83822732  1
  Cu+  Cu70  1  0.58558697  0.41559419  0.83170361  1
  Cu+  Cu71  1  0.58594379  0.91295807  0.83696359  1
  Cu+  Cu72  1  0.16692609  0.08265178  0.68223890  1
  Cu+  Cu73  1  0.16792995  0.58544470  0.68250380  1
  Cu+  Cu74  1  0.66849896  0.08405004  0.67206452  1
  Cu+  Cu75  1  0.66700443  0.58427620  0.67378623  1
  Cu+  Cu76  1  0.41306969  0.32995432  0.67187553  1
  Cu+  Cu77  1  0.41591571  0.82912106  0.68175954  1
  Cu+  Cu78  1  0.91472087  0.33043314  0.67648986  1
  Cu+  Cu79  1  0.91354182  0.83148759  0.67716759  1
  Cu+  Cu80  1  0.41263054  0.08340958  0.67879712  1
  Cu+  Cu81  1  0.41437328  0.58459984  0.67441330  1
  Cu+  Cu82  1  0.91578868  0.08588178  0.67462081  1
  Cu+  Cu83  1  0.91254588  0.58666325  0.67826202  1
  Cu+  Cu84  1  0.00110255  0.24996181  0.00775873  1
  Cu+  Cu85  1  0.00333283  0.75101433  0.01447249  1
  Cu+  Cu86  1  0.50247375  0.25218199  0.00571917  1
  Cu+  Cu87  1  0.50118476  0.74982639  0.00830486  1
  Cu+  Cu88  1  0.24765184  0.49561255  0.00750869  1
  Cu+  Cu89  1  0.25096902  1.00065189  0.01119880  1
  Cu+  Cu90  1  0.75056725  0.49858578  0.00460699  1
  Cu+  Cu91  1  0.74733271  0.99473753  0.01248191  1
  Cu+  Cu92  1  0.24871047  0.25042204  0.00918966  1
  Cu+  Cu93  1  0.24860809  0.74956543  0.01522828  1
  Cu+  Cu94  1  0.75056984  0.25250882  0.00508292  1
  Cu+  Cu95  1  0.75008934  0.75099722  0.00764885  1
  Cu+  Cu96  1  0.33784144  0.41928454  0.34076220  1
  Cu+  Cu97  1  0.33871086  0.91731218  0.34365240  1
  Cu+  Cu98  1  0.83740473  0.41994599  0.34047169  1
  Cu+  Cu99  1  0.83472948  0.91513252  0.34379966  1
  Cu+  Cu100  1  0.08126728  0.16386328  0.34603965  1
  Cu+  Cu101  1  0.08740949  0.66880596  0.34478475  1
  Cu+  Cu102  1  0.58420107  0.16347701  0.33944202  1
  Cu+  Cu103  1  0.58148131  0.66242876  0.34106021  1
  Cu+  Cu104  1  0.08384906  0.42192242  0.34533550  1
  Cu+  Cu105  1  0.08422303  0.91850717  0.35009872  1
  Cu+  Cu106  1  0.58200166  0.41678284  0.34063324  1
  Cu+  Cu107  1  0.58313337  0.91604800  0.34108824  1
  Cu+  Cu108  1  0.00344230  0.00557365  0.11844070  1
  Cu+  Cu109  1  -0.00312818  0.49597052  0.11446132  1
  Cu+  Cu110  1  0.50479134  0.00738421  0.11390703  1
  Cu+  Cu111  1  0.50132829  0.50011375  0.11377209  1
  Cu+  Cu112  1  0.33755232  0.16950255  0.44803179  1
  Cu+  Cu113  1  0.33784248  0.66725573  0.45128868  1
  Cu+  Cu114  1  0.82875109  0.16398685  0.44584049  1
  Cu+  Cu115  1  0.82983494  0.66251642  0.44952584  1
  Cu+  Cu116  1  0.16913951  0.33435001  0.77809207  1
  Cu+  Cu117  1  0.16686816  0.83466300  0.78056900  1
  Cu+  Cu118  1  0.66500963  0.33354508  0.77323891  1
  Cu+  Cu119  1  0.67004353  0.83185911  0.78135143  1
  Te2-  Te120  1  -0.00253940  -0.00145553  0.39248888  1
  Te2-  Te121  1  -0.00012602  0.50419285  0.38856049  1
  Te2-  Te122  1  0.50365438  0.00040219  0.38568778  1
  Te2-  Te123  1  0.50080332  0.49888477  0.38666020  1
  Te2-  Te124  1  0.33330592  0.16909276  0.72386995  1
  Te2-  Te125  1  0.33301339  0.66404340  0.72672853  1
  Te2-  Te126  1  0.83076401  0.16421583  0.72013306  1
  Te2-  Te127  1  0.82899828  0.66827563  0.72306582  1
  Te2-  Te128  1  0.16520042  0.33165562  0.05156167  1
  Te2-  Te129  1  0.16977688  0.83703122  0.05705921  1
  Te2-  Te130  1  0.66766178  0.33415908  0.04781875  1
  Te2-  Te131  1  0.66454320  0.82815703  0.05503937  1
  Te2-  Te132  1  0.49374002  0.24965166  0.87989359  1
  Te2-  Te133  1  0.49250186  0.74285247  0.88283743  1
  Te2-  Te134  1  0.99079058  0.24178106  0.88200673  1
  Te2-  Te135  1  0.99573711  0.75032398  0.88639401  1
  Te2-  Te136  1  0.25672625  0.00894325  0.88459913  1
  Te2-  Te137  1  0.25359234  0.50401129  0.88153147  1
  Te2-  Te138  1  0.75126754  0.00524290  0.88548019  1
  Te2-  Te139  1  0.75270968  0.50763650  0.87879530  1
  Te2-  Te140  1  0.25672285  0.24898100  0.88325913  1
  Te2-  Te141  1  0.25442631  0.74558845  0.88637789  1
  Te2-  Te142  1  0.75232443  0.24490421  0.87921464  1
  Te2-  Te143  1  0.75259807  0.74864493  0.88172943  1
  Te2-  Te144  1  0.32817936  0.41368370  0.21533852  1
  Te2-  Te145  1  0.32782839  0.91658141  0.21778584  1
  Te2-  Te146  1  0.83383192  0.42037426  0.21425985  1
  Te2-  Te147  1  0.82656770  0.90774348  0.21769318  1
  Te2-  Te148  1  0.08189819  0.16744734  0.21842354  1
  Te2-  Te149  1  0.09240377  0.68206845  0.21884003  1
  Te2-  Te150  1  0.58894003  0.16900679  0.21334018  1
  Te2-  Te151  1  0.58676444  0.67149835  0.21525916  1
  Te2-  Te152  1  0.08870151  0.41910659  0.21802152  1
  Te2-  Te153  1  0.09053336  0.91592215  0.22177772  1
  Te2-  Te154  1  0.58748095  0.41350566  0.21508188  1
  Te2-  Te155  1  0.58509060  0.90727492  0.21543299  1
  Te2-  Te156  1  0.15166318  0.07609321  0.55428020  1
  Te2-  Te157  1  0.15622309  0.58218702  0.55457663  1
  Te2-  Te158  1  0.66280696  0.08199967  0.54657707  1
  Te2-  Te159  1  0.66127160  0.58052789  0.54833755  1
  Te2-  Te160  1  0.41274329  0.33208013  0.54575474  1
  Te2-  Te161  1  0.41911676  0.83789744  0.55462727  1
  Te2-  Te162  1  0.91860582  0.34227151  0.54970044  1
  Te2-  Te163  1  0.91572719  0.84119750  0.55188292  1
  Te2-  Te164  1  0.41363113  0.07809265  0.55137193  1
  Te2-  Te165  1  0.41362923  0.58020748  0.54842685  1
  Te2-  Te166  1  0.91793499  0.08018786  0.54899920  1
  Te2-  Te167  1  0.91847511  0.58221630  0.55152702  1
  Te2-  Te168  1  0.00053397  0.00105773  0.88339977  1
  Te2-  Te169  1  0.00030148  0.49961201  0.88254974  1
  Te2-  Te170  1  0.50303781  0.00213851  0.88078601  1
  Te2-  Te171  1  0.50026815  0.49851122  0.87847468  1
  Te2-  Te172  1  0.33587985  0.16802356  0.21608411  1
  Te2-  Te173  1  0.33557345  0.66789342  0.21427490  1
  Te2-  Te174  1  0.83468406  0.16888237  0.21676468  1
  Te2-  Te175  1  0.83356784  0.66656649  0.21473795  1
  Te2-  Te176  1  0.16537376  0.33251487  0.54893562  1
  Te2-  Te177  1  0.16607962  0.83290800  0.55200083  1
  Te2-  Te178  1  0.66587737  0.33198201  0.54778809  1
  Te2-  Te179  1  0.66673111  0.83359219  0.54945499  1
  Te2-  Te180  1  0.32681968  0.41357110  0.70781736  1
  Te2-  Te181  1  0.32441972  0.91116134  0.70884469  1
  Te2-  Te182  1  0.82530530  0.41342838  0.70605215  1
  Te2-  Te183  1  0.82837601  0.91642047  0.71268851  1
  Te2-  Te184  1  0.08467149  0.17336939  0.71030656  1
  Te2-  Te185  1  0.08459607  0.67482125  0.71029906  1
  Te2-  Te186  1  0.58631401  0.17191393  0.70622064  1
  Te2-  Te187  1  0.58476009  0.67219457  0.70957947  1
  Te2-  Te188  1  0.08594928  0.41237795  0.70845536  1
  Te2-  Te189  1  0.08314708  0.91049806  0.71172129  1
  Te2-  Te190  1  0.58377679  0.41308292  0.70588180  1
  Te2-  Te191  1  0.58930569  0.91486490  0.71018198  1
  Te2-  Te192  1  0.16178489  0.08108765  0.04732050  1
  Te2-  Te193  1  0.15908819  0.57671424  0.04366253  1
  Te2-  Te194  1  0.66214185  0.08250710  0.04301937  1
  Te2-  Te195  1  0.66327459  0.58064823  0.04359667  1
  Te2-  Te196  1  0.41947420  0.33836943  0.04478632  1
  Te2-  Te197  1  0.42213941  0.84079286  0.04281013  1
  Te2-  Te198  1  0.91870212  0.33655015  0.04543071  1
  Te2-  Te199  1  0.92021739  0.84108597  0.04467648  1
  Te2-  Te200  1  0.42141794  0.08309717  0.04438174  1
  Te2-  Te201  1  0.41826405  0.57931925  0.04405709  1
  Te2-  Te202  1  0.91990211  0.08006712  0.04584790  1
  Te2-  Te203  1  0.91944459  0.57819835  0.04247565  1
  Te2-  Te204  1  0.49644855  0.24620676  0.37729819  1
  Te2-  Te205  1  0.49577896  0.74663562  0.37948456  1
  Te2-  Te206  1  0.99227497  0.24815249  0.37485886  1
  Te2-  Te207  1  0.99441987  0.74587763  0.38055959  1
  Te2-  Te208  1  0.25720229  0.00682877  0.37947150  1
  Te2-  Te209  1  0.25583306  0.50738067  0.37818198  1
  Te2-  Te210  1  0.75297494  0.00386862  0.37723645  1
  Te2-  Te211  1  0.75216208  0.50433626  0.37821823  1
  Te2-  Te212  1  0.25396828  0.24875946  0.37620880  1
  Te2-  Te213  1  0.25581536  0.74891421  0.38265525  1
  Te2-  Te214  1  0.75434987  0.24922553  0.37602119  1
  Te2-  Te215  1  0.75154954  0.74517764  0.37864613  1
