# generated using pymatgen
data_Ti(CuTe)4
_symmetry_space_group_name_H-M   'P 1'
_cell_length_a   16.90380324
_cell_length_b   16.89983687
_cell_length_c   20.72330882
_cell_angle_alpha   90.00322936
_cell_angle_beta   89.94926560
_cell_angle_gamma   119.98450807
_symmetry_Int_Tables_number   1
_chemical_formula_structural   Ti(CuTe)4
_chemical_formula_sum   'Ti24 Cu96 Te96'
_cell_volume   5127.71919238
_cell_formula_units_Z   24
loop_
 _symmetry_equiv_pos_site_id
 _symmetry_equiv_pos_as_xyz
  1  'x, y, z'
loop_
 _atom_type_symbol
 _atom_type_oxidation_number
  Ti4+  4.0
  Cu+  1.0
  Te2-  -2.0
loop_
 _atom_site_type_symbol
 _atom_site_label
 _atom_site_symmetry_multiplicity
 _atom_site_fract_x
 _atom_site_fract_y
 _atom_site_fract_z
 _atom_site_occupancy
  Ti4+  Ti0  1  0.00004349  0.00359369  0.25562370  1
  Ti4+  Ti1  1  0.00067809  0.50140788  0.25578676  1
  Ti4+  Ti2  1  0.50193095  0.00231995  0.25870106  1
  Ti4+  Ti3  1  0.50065464  0.50075127  0.25508120  1
  Ti4+  Ti4  1  0.33489085  0.16462656  0.59044244  1
  Ti4+  Ti5  1  0.33323689  0.66617838  0.58997719  1
  Ti4+  Ti6  1  0.83166164  0.16554934  0.59420259  1
  Ti4+  Ti7  1  0.83171149  0.66667672  0.59390924  1
  Ti4+  Ti8  1  0.16471530  0.33014376  0.92302686  1
  Ti4+  Ti9  1  0.16746303  0.83375743  0.92119055  1
  Ti4+  Ti10  1  0.66664685  0.33336654  0.92501445  1
  Ti4+  Ti11  1  0.66771939  0.83220763  0.92851806  1
  Ti4+  Ti12  1  0.00073424  0.00110685  0.75392003  1
  Ti4+  Ti13  1  -0.00139706  0.49881944  0.75366112  1
  Ti4+  Ti14  1  0.49867278  -0.00194045  0.75752833  1
  Ti4+  Ti15  1  0.49984098  0.49872277  0.75652505  1
  Ti4+  Ti16  1  0.33463114  0.16687792  0.08837632  1
  Ti4+  Ti17  1  0.33178676  0.66520385  0.08626737  1
  Ti4+  Ti18  1  0.83421094  0.16693866  0.08652805  1
  Ti4+  Ti19  1  0.83292234  0.66679417  0.08689364  1
  Ti4+  Ti20  1  0.16650154  0.33368637  0.42265898  1
  Ti4+  Ti21  1  0.16686181  0.83494036  0.42065766  1
  Ti4+  Ti22  1  0.66626317  0.33385711  0.42283061  1
  Ti4+  Ti23  1  0.66636684  0.83353950  0.42425954  1
  Cu+  Cu24  1  0.74581122  0.75698441  0.14849795  1
  Cu+  Cu25  1  0.35029436  0.92099853  0.47589349  1
  Cu+  Cu26  1  0.01623089  0.26384514  0.14097236  1
  Cu+  Cu27  1  0.74766609  0.99586892  0.15255725  1
  Cu+  Cu28  1  0.68377841  0.58873692  0.81121652  1
  Cu+  Cu29  1  0.91339924  0.82381572  0.81314973  1
  Cu+  Cu30  1  0.24618351  0.26269284  0.14011276  1
  Cu+  Cu31  1  0.18728637  0.09345558  0.80563113  1
  Cu+  Cu32  1  0.57898860  0.14938468  0.47763914  1
  Cu+  Cu33  1  0.90434636  0.08970557  0.81081850  1
  Cu+  Cu34  1  0.50896768  0.75635997  0.14779778  1
  Cu+  Cu35  1  0.52428885  0.26205289  0.14080413  1
  Cu+  Cu36  1  0.16453053  0.08740083  0.16888446  1
  Cu+  Cu37  1  0.16099863  0.58136376  0.16774706  1
  Cu+  Cu38  1  0.66001959  0.08207022  0.16922152  1
  Cu+  Cu39  1  0.66141458  0.58260585  0.16730952  1
  Cu+  Cu40  1  0.42047651  0.33640460  0.16877960  1
  Cu+  Cu41  1  0.41657797  0.83651597  0.17040419  1
  Cu+  Cu42  1  0.92192241  0.34138708  0.16837822  1
  Cu+  Cu43  1  0.91797214  0.83849105  0.16870566  1
  Cu+  Cu44  1  0.42357833  0.08781388  0.17184426  1
  Cu+  Cu45  1  0.41890321  0.58225436  0.16677853  1
  Cu+  Cu46  1  0.92338665  0.08515508  0.16656008  1
  Cu+  Cu47  1  0.91809996  0.58206864  0.16998003  1
  Cu+  Cu48  1  0.49728566  0.24366769  0.50268591  1
  Cu+  Cu49  1  0.49607496  0.74696034  0.50469029  1
  Cu+  Cu50  1  0.99788235  0.24780329  0.50786329  1
  Cu+  Cu51  1  0.99536163  0.75036751  0.50547214  1
  Cu+  Cu52  1  0.25516673  0.00238622  0.50248214  1
  Cu+  Cu53  1  0.25202503  0.50215759  0.50476449  1
  Cu+  Cu54  1  0.75163738  0.00215109  0.50810908  1
  Cu+  Cu55  1  0.74825412  0.50370476  0.50664649  1
  Cu+  Cu56  1  0.25128967  0.24819762  0.50533803  1
  Cu+  Cu57  1  0.25414738  0.74985063  0.50297165  1
  Cu+  Cu58  1  0.74932425  0.24576294  0.50661061  1
  Cu+  Cu59  1  0.74959713  0.74710055  0.50821723  1
  Cu+  Cu60  1  0.32921819  0.41083509  0.83677838  1
  Cu+  Cu61  1  0.33015096  0.91427267  0.83670004  1
  Cu+  Cu62  1  0.82983694  0.41400611  0.83640250  1
  Cu+  Cu63  1  0.82680764  0.91375049  0.83805077  1
  Cu+  Cu64  1  0.08467794  0.17017955  0.83500726  1
  Cu+  Cu65  1  0.08402470  0.66734911  0.83434759  1
  Cu+  Cu66  1  0.58157463  0.16716095  0.84078467  1
  Cu+  Cu67  1  0.58669654  0.66646334  0.84054159  1
  Cu+  Cu68  1  0.08071676  0.41203775  0.83561354  1
  Cu+  Cu69  1  0.08980593  0.91620824  0.83369927  1
  Cu+  Cu70  1  0.58636870  0.41523175  0.83914680  1
  Cu+  Cu71  1  0.58340256  0.91449646  0.84167299  1
  Cu+  Cu72  1  0.17122070  0.08533716  0.67654064  1
  Cu+  Cu73  1  0.16891690  0.58372675  0.67171140  1
  Cu+  Cu74  1  0.66769685  0.08247023  0.67906497  1
  Cu+  Cu75  1  0.66882144  0.58498517  0.68213808  1
  Cu+  Cu76  1  0.41575831  0.33016837  0.67359372  1
  Cu+  Cu77  1  0.41507258  0.82937858  0.67546073  1
  Cu+  Cu78  1  0.91374798  0.32985462  0.67561765  1
  Cu+  Cu79  1  0.91300046  0.83055415  0.68109029  1
  Cu+  Cu80  1  0.41556639  0.08180472  0.67642354  1
  Cu+  Cu81  1  0.41387024  0.58361188  0.67483176  1
  Cu+  Cu82  1  0.91517127  0.08660390  0.68130427  1
  Cu+  Cu83  1  0.91357168  0.58340384  0.67503743  1
  Cu+  Cu84  1  0.00140448  0.24945007  0.01115412  1
  Cu+  Cu85  1  0.00386614  0.75121072  0.00510891  1
  Cu+  Cu86  1  0.50496704  0.25088514  0.01220600  1
  Cu+  Cu87  1  0.50205674  0.75009953  0.01550423  1
  Cu+  Cu88  1  0.24555696  0.49636371  0.00540074  1
  Cu+  Cu89  1  0.24980815  0.99594869  0.00592595  1
  Cu+  Cu90  1  0.74914752  0.49780298  0.00865787  1
  Cu+  Cu91  1  0.74814879  0.99706130  0.01772216  1
  Cu+  Cu92  1  0.24621932  0.24752862  0.01122749  1
  Cu+  Cu93  1  0.24772425  0.74958185  0.00494696  1
  Cu+  Cu94  1  0.74822555  0.25046335  0.00722846  1
  Cu+  Cu95  1  0.74950291  0.75089889  0.01575589  1
  Cu+  Cu96  1  0.33582380  0.41813512  0.34012325  1
  Cu+  Cu97  1  0.33684544  0.92090425  0.34555318  1
  Cu+  Cu98  1  0.83728403  0.42068724  0.34054123  1
  Cu+  Cu99  1  0.83439525  0.91813738  0.34386412  1
  Cu+  Cu100  1  0.08163911  0.16731600  0.34178246  1
  Cu+  Cu101  1  0.08085217  0.66584408  0.33947357  1
  Cu+  Cu102  1  0.58343895  0.16649279  0.34762943  1
  Cu+  Cu103  1  0.58368569  0.66653045  0.34316939  1
  Cu+  Cu104  1  0.08106755  0.41783805  0.34148926  1
  Cu+  Cu105  1  0.08039583  0.91885237  0.33957362  1
  Cu+  Cu106  1  0.58370319  0.41953545  0.34049391  1
  Cu+  Cu107  1  0.58436942  0.91790220  0.34492541  1
  Cu+  Cu108  1  0.00376943  -0.00119882  0.11130890  1
  Cu+  Cu109  1  -0.00066541  0.50358140  0.11066511  1
  Cu+  Cu110  1  0.49423817  -0.00247033  0.11422610  1
  Cu+  Cu111  1  0.49694339  0.49853250  0.11021202  1
  Cu+  Cu112  1  0.33205278  0.16847028  0.44719020  1
  Cu+  Cu113  1  0.33138375  0.66380128  0.44679006  1
  Cu+  Cu114  1  0.83584551  0.16779486  0.45236312  1
  Cu+  Cu115  1  0.83307468  0.66655008  0.45104853  1
  Cu+  Cu116  1  0.16926798  0.33925888  0.77881826  1
  Cu+  Cu117  1  0.16761107  0.82820491  0.77728352  1
  Cu+  Cu118  1  0.66489184  0.32931012  0.78273067  1
  Cu+  Cu119  1  0.65820228  0.82874759  0.78543568  1
  Te2-  Te120  1  0.00012919  0.00238280  0.38402768  1
  Te2-  Te121  1  0.00109644  0.50235707  0.38477516  1
  Te2-  Te122  1  0.50228500  -0.00003796  0.39019580  1
  Te2-  Te123  1  0.50027015  0.50071796  0.38334195  1
  Te2-  Te124  1  0.33677638  0.16737965  0.72071343  1
  Te2-  Te125  1  0.33134640  0.66500214  0.71908230  1
  Te2-  Te126  1  0.83119185  0.16794485  0.72510850  1
  Te2-  Te127  1  0.83446605  0.66584961  0.72672943  1
  Te2-  Te128  1  0.16720133  0.33483572  0.05520645  1
  Te2-  Te129  1  0.16727468  0.83238360  0.05030401  1
  Te2-  Te130  1  0.67084793  0.33496883  0.05598139  1
  Te2-  Te131  1  0.66636264  0.83240817  0.06154438  1
  Te2-  Te132  1  0.49507146  0.24844794  0.88540215  1
  Te2-  Te133  1  0.49887859  0.74650582  0.88717983  1
  Te2-  Te134  1  0.99156363  0.24547876  0.88381842  1
  Te2-  Te135  1  0.99437846  0.74548210  0.87982926  1
  Te2-  Te136  1  0.25694253  0.00842601  0.88077316  1
  Te2-  Te137  1  0.24910359  0.49958678  0.87957242  1
  Te2-  Te138  1  0.75102925  0.00479627  0.88849689  1
  Te2-  Te139  1  0.75655296  0.50678973  0.88342173  1
  Te2-  Te140  1  0.25258055  0.24459371  0.88403872  1
  Te2-  Te141  1  0.25131189  0.74631245  0.87947102  1
  Te2-  Te142  1  0.75088896  0.24687922  0.88194786  1
  Te2-  Te143  1  0.75617389  0.74557170  0.88736733  1
  Te2-  Te144  1  0.32863709  0.41644368  0.21396129  1
  Te2-  Te145  1  0.33285925  0.91913186  0.21735142  1
  Te2-  Te146  1  0.82880428  0.41427416  0.21454885  1
  Te2-  Te147  1  0.82396528  0.91455722  0.21773845  1
  Te2-  Te148  1  0.08890663  0.18012290  0.21588293  1
  Te2-  Te149  1  0.08589613  0.67307377  0.21373438  1
  Te2-  Te150  1  0.59129577  0.17592829  0.21987174  1
  Te2-  Te151  1  0.58796983  0.67761128  0.21703984  1
  Te2-  Te152  1  0.09057905  0.41619723  0.21576340  1
  Te2-  Te153  1  0.08491656  0.91844669  0.21316388  1
  Te2-  Te154  1  0.58984763  0.41703111  0.21448735  1
  Te2-  Te155  1  0.58802597  0.91290337  0.21855755  1
  Te2-  Te156  1  0.16451397  0.07937993  0.54926703  1
  Te2-  Te157  1  0.16268979  0.58230020  0.54591631  1
  Te2-  Te158  1  0.65828316  0.07581584  0.55305568  1
  Te2-  Te159  1  0.65980773  0.58065851  0.55505712  1
  Te2-  Te160  1  0.42054798  0.33471706  0.54764341  1
  Te2-  Te161  1  0.42365431  0.84095387  0.54987196  1
  Te2-  Te162  1  0.91630818  0.33564767  0.54981619  1
  Te2-  Te163  1  0.91688013  0.83807242  0.55361089  1
  Te2-  Te164  1  0.42284200  0.07584194  0.55046550  1
  Te2-  Te165  1  0.41933650  0.58004237  0.54924193  1
  Te2-  Te166  1  0.91844835  0.08058233  0.55421403  1
  Te2-  Te167  1  0.91673379  0.58193394  0.54924783  1
  Te2-  Te168  1  0.00045564  -0.00134034  0.88196452  1
  Te2-  Te169  1  -0.00082299  0.49911362  0.87985789  1
  Te2-  Te170  1  0.49763285  -0.00206762  0.88379622  1
  Te2-  Te171  1  0.49722150  0.49630664  0.88340414  1
  Te2-  Te172  1  0.33297337  0.16702759  0.21574896  1
  Te2-  Te173  1  0.33122018  0.66508117  0.21338674  1
  Te2-  Te174  1  0.83399495  0.16894158  0.21406055  1
  Te2-  Te175  1  0.83265479  0.66722243  0.21382697  1
  Te2-  Te176  1  0.16770506  0.33331917  0.54893879  1
  Te2-  Te177  1  0.16590878  0.83259052  0.54746159  1
  Te2-  Te178  1  0.66582736  0.33352064  0.54966623  1
  Te2-  Te179  1  0.66472679  0.83193322  0.55041920  1
  Te2-  Te180  1  0.32919686  0.41322217  0.71039537  1
  Te2-  Te181  1  0.32807247  0.91219327  0.71064581  1
  Te2-  Te182  1  0.82619339  0.41304874  0.71046017  1
  Te2-  Te183  1  0.82434492  0.91382415  0.71174053  1
  Te2-  Te184  1  0.08880318  0.17525849  0.70846432  1
  Te2-  Te185  1  0.08470861  0.66988152  0.70792678  1
  Te2-  Te186  1  0.58458259  0.16987102  0.71389048  1
  Te2-  Te187  1  0.58319033  0.67190293  0.71332726  1
  Te2-  Te188  1  0.08473789  0.41355921  0.70912618  1
  Te2-  Te189  1  0.08668871  0.91292521  0.70717007  1
  Te2-  Te190  1  0.58495820  0.41129569  0.71178901  1
  Te2-  Te191  1  0.58446029  0.91199853  0.71460077  1
  Te2-  Te192  1  0.16182786  0.07673734  0.04233384  1
  Te2-  Te193  1  0.16003144  0.58005075  0.04166726  1
  Te2-  Te194  1  0.65904514  0.08134201  0.04347957  1
  Te2-  Te195  1  0.65910093  0.57770222  0.04147585  1
  Te2-  Te196  1  0.41940121  0.33906866  0.04104708  1
  Te2-  Te197  1  0.41708952  0.83860113  0.04303850  1
  Te2-  Te198  1  0.91887297  0.34007009  0.04153541  1
  Te2-  Te199  1  0.92278411  0.83963726  0.04167968  1
  Te2-  Te200  1  0.41884584  0.07859889  0.04421319  1
  Te2-  Te201  1  0.41577743  0.57622339  0.04019151  1
  Te2-  Te202  1  0.92117939  0.07778486  0.04065828  1
  Te2-  Te203  1  0.91945352  0.58176949  0.04304390  1
  Te2-  Te204  1  0.49392612  0.24975329  0.37623988  1
  Te2-  Te205  1  0.49448678  0.74741268  0.37861335  1
  Te2-  Te206  1  0.99440907  0.24875418  0.38047142  1
  Te2-  Te207  1  0.99466410  0.74937108  0.37835937  1
  Te2-  Te208  1  0.25080052  0.00771109  0.37563790  1
  Te2-  Te209  1  0.25193987  0.50429863  0.37757167  1
  Te2-  Te210  1  0.75366084  0.00671709  0.38152107  1
  Te2-  Te211  1  0.75263667  0.50584627  0.37961124  1
  Te2-  Te212  1  0.25208637  0.24846919  0.37790358  1
  Te2-  Te213  1  0.25174279  0.74746362  0.37543616  1
  Te2-  Te214  1  0.75590039  0.25056109  0.37906768  1
  Te2-  Te215  1  0.75300501  0.74804992  0.38110351  1
