# generated using pymatgen
data_Ti(CuTe)4
_symmetry_space_group_name_H-M   'P 1'
_cell_length_a   16.89615057
_cell_length_b   16.90437393
_cell_length_c   20.71922168
_cell_angle_alpha   90.02889942
_cell_angle_beta   90.04021075
_cell_angle_gamma   120.00586036
_symmetry_Int_Tables_number   1
_chemical_formula_structural   Ti(CuTe)4
_chemical_formula_sum   'Ti24 Cu96 Te96'
_cell_volume   5124.65888338
_cell_formula_units_Z   24
loop_
 _symmetry_equiv_pos_site_id
 _symmetry_equiv_pos_as_xyz
  1  'x, y, z'
loop_
 _atom_type_symbol
 _atom_type_oxidation_number
  Ti4+  4.0
  Cu+  1.0
  Te2-  -2.0
loop_
 _atom_site_type_symbol
 _atom_site_label
 _atom_site_symmetry_multiplicity
 _atom_site_fract_x
 _atom_site_fract_y
 _atom_site_fract_z
 _atom_site_occupancy
  Ti4+  Ti0  1  -0.00071533  -0.00169244  0.25948781  1
  Ti4+  Ti1  1  0.00303986  0.50467216  0.25595830  1
  Ti4+  Ti2  1  0.50315434  0.00191446  0.25877557  1
  Ti4+  Ti3  1  0.50262870  0.50084961  0.25791696  1
  Ti4+  Ti4  1  0.32894225  0.16362008  0.58679515  1
  Ti4+  Ti5  1  0.33441239  0.66600723  0.58899975  1
  Ti4+  Ti6  1  0.82966621  0.16461891  0.58930423  1
  Ti4+  Ti7  1  0.83128845  0.66697546  0.59664954  1
  Ti4+  Ti8  1  0.16476921  0.33204419  0.92102019  1
  Ti4+  Ti9  1  0.16689580  0.83368640  0.92472354  1
  Ti4+  Ti10  1  0.66719650  0.33269998  0.92173828  1
  Ti4+  Ti11  1  0.66799897  0.83282101  0.92901072  1
  Ti4+  Ti12  1  -0.00055159  0.00011770  0.75621147  1
  Ti4+  Ti13  1  -0.00126343  0.49742265  0.75244886  1
  Ti4+  Ti14  1  0.49884060  -0.00026901  0.75607077  1
  Ti4+  Ti15  1  0.49878423  0.49949984  0.75454429  1
  Ti4+  Ti16  1  0.33413390  0.16776261  0.08923612  1
  Ti4+  Ti17  1  0.33398996  0.66691827  0.08796761  1
  Ti4+  Ti18  1  0.83309047  0.16686985  0.08960222  1
  Ti4+  Ti19  1  0.83582943  0.66706352  0.08880026  1
  Ti4+  Ti20  1  0.16690085  0.33386419  0.41891098  1
  Ti4+  Ti21  1  0.16862046  0.83582752  0.42240895  1
  Ti4+  Ti22  1  0.66786844  0.33437163  0.42229227  1
  Ti4+  Ti23  1  0.66718999  0.83276232  0.42278719  1
  Cu+  Cu24  1  0.67537210  0.58845255  0.81744220  1
  Cu+  Cu25  1  0.57187114  0.91986372  0.47615358  1
  Cu+  Cu26  1  0.74054975  0.98406603  0.14694079  1
  Cu+  Cu27  1  0.90524553  0.30903796  0.80453171  1
  Cu+  Cu28  1  0.91451286  0.58562197  0.81723621  1
  Cu+  Cu29  1  0.57361932  0.64383109  0.47534770  1
  Cu+  Cu30  1  0.06930275  0.14987366  0.47426690  1
  Cu+  Cu31  1  0.56943050  0.14823606  0.47387573  1
  Cu+  Cu32  1  0.02447616  0.76322135  0.14179680  1
  Cu+  Cu33  1  0.06804927  0.91891291  0.47777022  1
  Cu+  Cu34  1  0.91165039  0.82499928  0.82012833  1
  Cu+  Cu35  1  0.74527609  0.75342237  0.15074556  1
  Cu+  Cu36  1  0.16580272  0.08247332  0.17295286  1
  Cu+  Cu37  1  0.16524009  0.58467502  0.16936331  1
  Cu+  Cu38  1  0.66366830  0.08012362  0.17275094  1
  Cu+  Cu39  1  0.66121004  0.58117946  0.17134150  1
  Cu+  Cu40  1  0.42088347  0.33643919  0.17145832  1
  Cu+  Cu41  1  0.42028120  0.83653108  0.17115145  1
  Cu+  Cu42  1  0.91780817  0.33942919  0.17076660  1
  Cu+  Cu43  1  0.92268740  0.83819389  0.17065461  1
  Cu+  Cu44  1  0.42170161  0.08636123  0.17244136  1
  Cu+  Cu45  1  0.42082534  0.58497623  0.17025252  1
  Cu+  Cu46  1  0.91477639  0.08055365  0.17250205  1
  Cu+  Cu47  1  0.92639964  0.58755485  0.16936544  1
  Cu+  Cu48  1  0.49520665  0.24499932  0.50240887  1
  Cu+  Cu49  1  0.49615320  0.74535370  0.50292198  1
  Cu+  Cu50  1  0.99537561  0.24678446  0.50284193  1
  Cu+  Cu51  1  0.99664973  0.75040831  0.50993578  1
  Cu+  Cu52  1  0.24611369  0.00375019  0.50003857  1
  Cu+  Cu53  1  0.25283798  0.50381399  0.50114614  1
  Cu+  Cu54  1  0.74789911  0.00476687  0.50177294  1
  Cu+  Cu55  1  0.75059097  0.50339917  0.50830944  1
  Cu+  Cu56  1  0.24507171  0.24400271  0.49907768  1
  Cu+  Cu57  1  0.25360709  0.75028733  0.50318798  1
  Cu+  Cu58  1  0.74577894  0.24517326  0.50270737  1
  Cu+  Cu59  1  0.74859232  0.74436352  0.50746709  1
  Cu+  Cu60  1  0.32796167  0.41324996  0.83529049  1
  Cu+  Cu61  1  0.33130335  0.91651121  0.83880451  1
  Cu+  Cu62  1  0.82872501  0.40962160  0.83317215  1
  Cu+  Cu63  1  0.82874865  0.91437356  0.84150950  1
  Cu+  Cu64  1  0.08566934  0.17200660  0.83529906  1
  Cu+  Cu65  1  0.08693122  0.67263462  0.83599332  1
  Cu+  Cu66  1  0.58343558  0.16920118  0.83541073  1
  Cu+  Cu67  1  0.58639578  0.67068409  0.83989534  1
  Cu+  Cu68  1  0.08052677  0.40847852  0.83287859  1
  Cu+  Cu69  1  0.08487880  0.91409608  0.83814622  1
  Cu+  Cu70  1  0.58504815  0.41467042  0.83488215  1
  Cu+  Cu71  1  0.58538924  0.91824290  0.84197470  1
  Cu+  Cu72  1  0.16578475  0.08361939  0.67363669  1
  Cu+  Cu73  1  0.16988670  0.58406264  0.67148945  1
  Cu+  Cu74  1  0.66487386  0.08233670  0.67569892  1
  Cu+  Cu75  1  0.66757682  0.58492799  0.68415025  1
  Cu+  Cu76  1  0.41148730  0.32826228  0.66940907  1
  Cu+  Cu77  1  0.41611648  0.82990650  0.67577144  1
  Cu+  Cu78  1  0.91385480  0.32826694  0.67516235  1
  Cu+  Cu79  1  0.91376022  0.83077268  0.68536285  1
  Cu+  Cu80  1  0.41236673  0.08188593  0.67229013  1
  Cu+  Cu81  1  0.41602135  0.58427445  0.67392454  1
  Cu+  Cu82  1  0.91523594  0.08437723  0.67509775  1
  Cu+  Cu83  1  0.91510120  0.58552435  0.68334075  1
  Cu+  Cu84  1  0.00179155  0.25239868  0.00652132  1
  Cu+  Cu85  1  0.00403430  0.75054200  0.01365236  1
  Cu+  Cu86  1  0.50260981  0.25200946  0.00623024  1
  Cu+  Cu87  1  0.50273179  0.75064080  0.01023729  1
  Cu+  Cu88  1  0.24815975  0.49696431  0.00396951  1
  Cu+  Cu89  1  0.24887227  0.99901789  0.00885347  1
  Cu+  Cu90  1  0.75004347  0.49652558  0.00789260  1
  Cu+  Cu91  1  0.74894980  0.99638367  0.01674297  1
  Cu+  Cu92  1  0.24873000  0.25184365  0.00637213  1
  Cu+  Cu93  1  0.24941885  0.75108172  0.00811966  1
  Cu+  Cu94  1  0.74987631  0.25082660  0.00653837  1
  Cu+  Cu95  1  0.75009191  0.75069679  0.01863644  1
  Cu+  Cu96  1  0.33806231  0.42145768  0.33947482  1
  Cu+  Cu97  1  0.33813065  0.91926611  0.34107095  1
  Cu+  Cu98  1  0.84016166  0.42454732  0.34056293  1
  Cu+  Cu99  1  0.83477955  0.91473925  0.34458069  1
  Cu+  Cu100  1  0.08133189  0.16384847  0.34508978  1
  Cu+  Cu101  1  0.08469764  0.66774916  0.34122547  1
  Cu+  Cu102  1  0.58642169  0.16583983  0.34506351  1
  Cu+  Cu103  1  0.58495197  0.66360949  0.34684629  1
  Cu+  Cu104  1  0.08404835  0.42129388  0.33828298  1
  Cu+  Cu105  1  0.08274868  0.91750844  0.34791643  1
  Cu+  Cu106  1  0.58744444  0.42195971  0.34141972  1
  Cu+  Cu107  1  0.58599395  0.91987534  0.34705397  1
  Cu+  Cu108  1  0.00533573  0.00818897  0.11669222  1
  Cu+  Cu109  1  0.00260141  0.49829115  0.11185315  1
  Cu+  Cu110  1  0.49658899  0.00005662  0.11611854  1
  Cu+  Cu111  1  0.49481201  0.49687058  0.11440110  1
  Cu+  Cu112  1  0.33575322  0.17192535  0.44264141  1
  Cu+  Cu113  1  0.32960795  0.66554228  0.44467152  1
  Cu+  Cu114  1  0.83509438  0.17174433  0.44535826  1
  Cu+  Cu115  1  0.83546067  0.66461301  0.45362661  1
  Cu+  Cu116  1  0.16895369  0.33465956  0.77566621  1
  Cu+  Cu117  1  0.17065814  0.83611839  0.78097483  1
  Cu+  Cu118  1  0.66211992  0.33018248  0.77686607  1
  Cu+  Cu119  1  0.66362214  0.83559546  0.78661631  1
  Te2-  Te120  1  -0.00232843  -0.00150361  0.39121518  1
  Te2-  Te121  1  0.00388063  0.50376790  0.38513063  1
  Te2-  Te122  1  0.49991219  -0.00003391  0.39072615  1
  Te2-  Te123  1  0.49990476  0.49713646  0.38870674  1
  Te2-  Te124  1  0.33091530  0.16514313  0.71519550  1
  Te2-  Te125  1  0.33277118  0.66503768  0.71776074  1
  Te2-  Te126  1  0.82939116  0.16263000  0.71932189  1
  Te2-  Te127  1  0.83209974  0.66626000  0.73048438  1
  Te2-  Te128  1  0.16627334  0.33377224  0.04990636  1
  Te2-  Te129  1  0.17092559  0.83575852  0.05510759  1
  Te2-  Te130  1  0.66687068  0.33202874  0.05029421  1
  Te2-  Te131  1  0.66425732  0.83082255  0.06109406  1
  Te2-  Te132  1  0.49629203  0.24929010  0.88035877  1
  Te2-  Te133  1  0.49867542  0.74888232  0.88439541  1
  Te2-  Te134  1  0.98928366  0.24144866  0.88111684  1
  Te2-  Te135  1  0.99006700  0.74416680  0.88657949  1
  Te2-  Te136  1  0.25096759  0.00422649  0.88280882  1
  Te2-  Te137  1  0.24857148  0.50281676  0.87786123  1
  Te2-  Te138  1  0.75277065  0.00335232  0.88897160  1
  Te2-  Te139  1  0.75589157  0.50822387  0.88239812  1
  Te2-  Te140  1  0.25196635  0.24664878  0.88067411  1
  Te2-  Te141  1  0.25176865  0.74809446  0.88217544  1
  Te2-  Te142  1  0.75125582  0.24306797  0.88063013  1
  Te2-  Te143  1  0.75532752  0.74421630  0.89014011  1
  Te2-  Te144  1  0.33272030  0.41701709  0.21381698  1
  Te2-  Te145  1  0.33353506  0.91762765  0.21534214  1
  Te2-  Te146  1  0.83108563  0.42086778  0.21475298  1
  Te2-  Te147  1  0.82453363  0.91035426  0.21882372  1
  Te2-  Te148  1  0.08238905  0.16798262  0.21765662  1
  Te2-  Te149  1  0.09397827  0.67974120  0.21596697  1
  Te2-  Te150  1  0.58963495  0.17240613  0.21808041  1
  Te2-  Te151  1  0.58698584  0.67549397  0.21978825  1
  Te2-  Te152  1  0.08639812  0.41684284  0.21287062  1
  Te2-  Te153  1  0.08889548  0.91507643  0.22019375  1
  Te2-  Te154  1  0.58909369  0.41609788  0.21587766  1
  Te2-  Te155  1  0.58632383  0.91090812  0.22002548  1
  Te2-  Te156  1  0.15132032  0.07629599  0.54823772  1
  Te2-  Te157  1  0.16364115  0.58200217  0.54603049  1
  Te2-  Te158  1  0.65300577  0.07686304  0.54987692  1
  Te2-  Te159  1  0.65869877  0.57778007  0.55602642  1
  Te2-  Te160  1  0.41396772  0.33316961  0.54330611  1
  Te2-  Te161  1  0.41993374  0.83980002  0.54979402  1
  Te2-  Te162  1  0.91505324  0.33430698  0.54766483  1
  Te2-  Te163  1  0.91457863  0.83891754  0.55647842  1
  Te2-  Te164  1  0.41285983  0.07404910  0.54668798  1
  Te2-  Te165  1  0.41933214  0.57683369  0.54828461  1
  Te2-  Te166  1  0.91397574  0.07594771  0.54910339  1
  Te2-  Te167  1  0.91786269  0.58376152  0.55522523  1
  Te2-  Te168  1  0.00196180  0.00267905  0.88316317  1
  Te2-  Te169  1  0.00101519  0.49932898  0.88014854  1
  Te2-  Te170  1  0.49980570  0.00216850  0.88244166  1
  Te2-  Te171  1  0.49762908  0.49766767  0.88158887  1
  Te2-  Te172  1  0.33515033  0.16838844  0.21572699  1
  Te2-  Te173  1  0.33441163  0.66745940  0.21437042  1
  Te2-  Te174  1  0.83478168  0.17051949  0.21644347  1
  Te2-  Te175  1  0.83419813  0.66618210  0.21605700  1
  Te2-  Te176  1  0.16633096  0.33413705  0.54586661  1
  Te2-  Te177  1  0.16924248  0.83506509  0.54930139  1
  Te2-  Te178  1  0.66447871  0.33267576  0.54927958  1
  Te2-  Te179  1  0.66682083  0.83478356  0.55005302  1
  Te2-  Te180  1  0.32825249  0.41356511  0.70827839  1
  Te2-  Te181  1  0.32793482  0.91286121  0.71131897  1
  Te2-  Te182  1  0.82430975  0.41129550  0.70652730  1
  Te2-  Te183  1  0.82509116  0.91526856  0.71409911  1
  Te2-  Te184  1  0.08457872  0.17151818  0.70952882  1
  Te2-  Te185  1  0.08851933  0.67201303  0.70953945  1
  Te2-  Te186  1  0.58234568  0.17028624  0.70892490  1
  Te2-  Te187  1  0.58452864  0.67421633  0.71298821  1
  Te2-  Te188  1  0.08664173  0.41372008  0.70608832  1
  Te2-  Te189  1  0.08731933  0.91468741  0.71125541  1
  Te2-  Te190  1  0.58122201  0.41026824  0.70780736  1
  Te2-  Te191  1  0.58541378  0.91360245  0.71436359  1
  Te2-  Te192  1  0.16236933  0.08235491  0.04579105  1
  Te2-  Te193  1  0.16277255  0.58098758  0.04281385  1
  Te2-  Te194  1  0.66026698  0.08153668  0.04545855  1
  Te2-  Te195  1  0.66114400  0.57708601  0.04485704  1
  Te2-  Te196  1  0.41908274  0.33811655  0.04413777  1
  Te2-  Te197  1  0.42032448  0.83919543  0.04454453  1
  Te2-  Te198  1  0.91868890  0.33799204  0.04395547  1
  Te2-  Te199  1  0.92361674  0.84256641  0.04433364  1
  Te2-  Te200  1  0.41992988  0.08246352  0.04503667  1
  Te2-  Te201  1  0.41840490  0.57979215  0.04341906  1
  Te2-  Te202  1  0.92227881  0.08326758  0.04531611  1
  Te2-  Te203  1  0.91972288  0.57794292  0.04298901  1
  Te2-  Te204  1  0.49705189  0.25019272  0.37471391  1
  Te2-  Te205  1  0.49392102  0.74655048  0.37583888  1
  Te2-  Te206  1  0.99452093  0.25058439  0.37481044  1
  Te2-  Te207  1  0.99443987  0.74593916  0.38143227  1
  Te2-  Te208  1  0.25652543  0.00793442  0.37435848  1
  Te2-  Te209  1  0.25353871  0.50621612  0.37501140  1
  Te2-  Te210  1  0.75750892  0.00737798  0.37650241  1
  Te2-  Te211  1  0.75537234  0.50760589  0.38140754  1
  Te2-  Te212  1  0.25511093  0.25009497  0.37233988  1
  Te2-  Te213  1  0.25469871  0.75023224  0.37686375  1
  Te2-  Te214  1  0.75862405  0.25371937  0.37594094  1
  Te2-  Te215  1  0.75632114  0.74659928  0.38087033  1
