# generated using pymatgen
data_Ti(CuTe)4
_symmetry_space_group_name_H-M   'P 1'
_cell_length_a   16.88158951
_cell_length_b   16.88499626
_cell_length_c   20.70369679
_cell_angle_alpha   89.98616470
_cell_angle_beta   90.03098324
_cell_angle_gamma   120.01036608
_symmetry_Int_Tables_number   1
_chemical_formula_structural   Ti(CuTe)4
_chemical_formula_sum   'Ti24 Cu96 Te96'
_cell_volume   5110.31178119
_cell_formula_units_Z   24
loop_
 _symmetry_equiv_pos_site_id
 _symmetry_equiv_pos_as_xyz
  1  'x, y, z'
loop_
 _atom_type_symbol
 _atom_type_oxidation_number
  Ti4+  4.0
  Cu+  1.0
  Te2-  -2.0
loop_
 _atom_site_type_symbol
 _atom_site_label
 _atom_site_symmetry_multiplicity
 _atom_site_fract_x
 _atom_site_fract_y
 _atom_site_fract_z
 _atom_site_occupancy
  Ti4+  Ti0  1  -0.00032215  0.00096938  0.25600798  1
  Ti4+  Ti1  1  -0.00171527  0.50368873  0.25515021  1
  Ti4+  Ti2  1  0.50250281  0.00372575  0.26111162  1
  Ti4+  Ti3  1  0.49761238  0.50053500  0.25652331  1
  Ti4+  Ti4  1  0.33143625  0.16632230  0.59065192  1
  Ti4+  Ti5  1  0.33177340  0.66325942  0.58891514  1
  Ti4+  Ti6  1  0.83055282  0.16126300  0.59151123  1
  Ti4+  Ti7  1  0.83367348  0.66392755  0.59056661  1
  Ti4+  Ti8  1  0.16810699  0.33487971  0.92496710  1
  Ti4+  Ti9  1  0.17036964  0.83601324  0.92422668  1
  Ti4+  Ti10  1  0.66633410  0.33112148  0.92433745  1
  Ti4+  Ti11  1  0.66903161  0.83511182  0.92765789  1
  Ti4+  Ti12  1  -0.00031946  -0.00210144  0.75713272  1
  Ti4+  Ti13  1  0.00037129  0.49777074  0.75531262  1
  Ti4+  Ti14  1  0.50051353  0.00028661  0.75660196  1
  Ti4+  Ti15  1  0.49946466  0.49872086  0.75669266  1
  Ti4+  Ti16  1  0.33277314  0.16865874  0.09072717  1
  Ti4+  Ti17  1  0.33559708  0.66770729  0.08876924  1
  Ti4+  Ti18  1  0.83244015  0.16746878  0.08950839  1
  Ti4+  Ti19  1  0.83673919  0.66762280  0.08674288  1
  Ti4+  Ti20  1  0.16685234  0.33291234  0.42135702  1
  Ti4+  Ti21  1  0.16509545  0.83160731  0.42129413  1
  Ti4+  Ti22  1  0.66594008  0.33398665  0.42179594  1
  Ti4+  Ti23  1  0.66734497  0.83581040  0.42179324  1
  Cu+  Cu24  1  0.74139381  0.75417222  0.14336591  1
  Cu+  Cu25  1  0.07101816  0.14161621  0.47271580  1
  Cu+  Cu26  1  0.57099330  0.92093348  0.47948339  1
  Cu+  Cu27  1  0.40643719  0.09524443  0.80777060  1
  Cu+  Cu28  1  0.57185849  0.15035529  0.48000046  1
  Cu+  Cu29  1  0.73626100  0.26208515  0.14109372  1
  Cu+  Cu30  1  0.35603690  0.42624598  0.47264950  1
  Cu+  Cu31  1  0.02624601  0.76533942  0.13778448  1
  Cu+  Cu32  1  0.68901310  0.09325348  0.81082024  1
  Cu+  Cu33  1  0.23498522  0.26371296  0.14052594  1
  Cu+  Cu34  1  0.06925776  0.63970644  0.47314790  1
  Cu+  Cu35  1  0.73903637  0.98747392  0.14704483  1
  Cu+  Cu36  1  0.16379981  0.08882539  0.17064667  1
  Cu+  Cu37  1  0.16511391  0.58626069  0.16959835  1
  Cu+  Cu38  1  0.66272777  0.08569953  0.17331752  1
  Cu+  Cu39  1  0.66260565  0.58195270  0.16956110  1
  Cu+  Cu40  1  0.41060244  0.33605650  0.17144278  1
  Cu+  Cu41  1  0.42050598  0.83592863  0.17302018  1
  Cu+  Cu42  1  0.91070050  0.33763126  0.16954561  1
  Cu+  Cu43  1  0.91997151  0.83600746  0.16743761  1
  Cu+  Cu44  1  0.42107157  0.08677107  0.17447412  1
  Cu+  Cu45  1  0.41735597  0.58071061  0.16924676  1
  Cu+  Cu46  1  0.91585695  0.07966115  0.16921465  1
  Cu+  Cu47  1  0.92552357  0.58879409  0.16701386  1
  Cu+  Cu48  1  0.49457871  0.24619123  0.50407433  1
  Cu+  Cu49  1  0.49532874  0.74799916  0.50314954  1
  Cu+  Cu50  1  0.99741652  0.24158623  0.50372011  1
  Cu+  Cu51  1  0.99627856  0.74235985  0.50340817  1
  Cu+  Cu52  1  0.24971186  0.00216639  0.50356555  1
  Cu+  Cu53  1  0.25622479  0.50216113  0.50122435  1
  Cu+  Cu54  1  0.74803103  0.00326569  0.50349243  1
  Cu+  Cu55  1  0.75214676  0.50476461  0.50319696  1
  Cu+  Cu56  1  0.24988977  0.24804558  0.50225312  1
  Cu+  Cu57  1  0.24485731  0.74154614  0.50168109  1
  Cu+  Cu58  1  0.74646269  0.24403672  0.50408980  1
  Cu+  Cu59  1  0.75205828  0.74817645  0.50491466  1
  Cu+  Cu60  1  0.33070855  0.41432732  0.83950248  1
  Cu+  Cu61  1  0.33098467  0.92016644  0.83746527  1
  Cu+  Cu62  1  0.83237767  0.41235332  0.83796537  1
  Cu+  Cu63  1  0.83120737  0.91557723  0.84083809  1
  Cu+  Cu64  1  0.08683927  0.16907251  0.84005993  1
  Cu+  Cu65  1  0.08700320  0.66856935  0.83848168  1
  Cu+  Cu66  1  0.58574765  0.16917970  0.83734380  1
  Cu+  Cu67  1  0.58497111  0.66796311  0.84070640  1
  Cu+  Cu68  1  0.08697338  0.41562140  0.83791700  1
  Cu+  Cu69  1  0.08647498  0.91526334  0.83859178  1
  Cu+  Cu70  1  0.58366655  0.41392489  0.83794692  1
  Cu+  Cu71  1  0.59115306  0.91970714  0.83978839  1
  Cu+  Cu72  1  0.16619991  0.08224410  0.67555181  1
  Cu+  Cu73  1  0.16722937  0.58090973  0.67303778  1
  Cu+  Cu74  1  0.66737932  0.08132575  0.68173972  1
  Cu+  Cu75  1  0.66989469  0.58402225  0.67495633  1
  Cu+  Cu76  1  0.41496212  0.33130525  0.67532548  1
  Cu+  Cu77  1  0.41415836  0.82829417  0.67491977  1
  Cu+  Cu78  1  0.91416067  0.32675643  0.67444839  1
  Cu+  Cu79  1  0.91506923  0.82733046  0.67473262  1
  Cu+  Cu80  1  0.41501013  0.08447512  0.67991889  1
  Cu+  Cu81  1  0.41574602  0.58278950  0.67482724  1
  Cu+  Cu82  1  0.91427729  0.07906307  0.67636339  1
  Cu+  Cu83  1  0.91601989  0.58199154  0.67485799  1
  Cu+  Cu84  1  0.00391839  0.25284805  0.00726279  1
  Cu+  Cu85  1  0.00804924  0.75163398  0.01034443  1
  Cu+  Cu86  1  0.50088377  0.24962106  0.00903446  1
  Cu+  Cu87  1  0.50453674  0.75197981  0.00951447  1
  Cu+  Cu88  1  0.25187387  0.50039990  0.00745184  1
  Cu+  Cu89  1  0.25181946  1.00086335  0.00942109  1
  Cu+  Cu90  1  0.75160155  0.49662348  0.00676557  1
  Cu+  Cu91  1  0.75001222  0.99841201  0.01628192  1
  Cu+  Cu92  1  0.24785399  0.25386746  0.01246256  1
  Cu+  Cu93  1  0.25338038  0.75415162  0.00678013  1
  Cu+  Cu94  1  0.74621290  0.24936268  0.01278701  1
  Cu+  Cu95  1  0.75068192  0.75209367  0.01370752  1
  Cu+  Cu96  1  0.33523685  0.41868208  0.34480362  1
  Cu+  Cu97  1  0.33643649  0.91936245  0.34273746  1
  Cu+  Cu98  1  0.83299345  0.42091436  0.33923868  1
  Cu+  Cu99  1  0.83441052  0.91782518  0.34207844  1
  Cu+  Cu100  1  0.08094297  0.16447609  0.34469084  1
  Cu+  Cu101  1  0.08071311  0.66531884  0.34439531  1
  Cu+  Cu102  1  0.58410078  0.16631095  0.34922040  1
  Cu+  Cu103  1  0.58261571  0.66673163  0.34089646  1
  Cu+  Cu104  1  0.08052040  0.41978383  0.33793620  1
  Cu+  Cu105  1  0.08332938  0.91841992  0.34019735  1
  Cu+  Cu106  1  0.58041294  0.41884110  0.33956859  1
  Cu+  Cu107  1  0.58597489  0.92328814  0.34932243  1
  Cu+  Cu108  1  0.00161872  0.00023842  0.11149336  1
  Cu+  Cu109  1  0.00507332  0.49870242  0.11158584  1
  Cu+  Cu110  1  0.49303911  -0.00298861  0.11839582  1
  Cu+  Cu111  1  0.50242246  0.49877431  0.11244151  1
  Cu+  Cu112  1  0.33167210  0.16498895  0.44606780  1
  Cu+  Cu113  1  0.33295875  0.66642917  0.44410999  1
  Cu+  Cu114  1  0.83717325  0.17343687  0.44783286  1
  Cu+  Cu115  1  0.83250100  0.66957180  0.44664366  1
  Cu+  Cu116  1  0.16569802  0.33104970  0.78228547  1
  Cu+  Cu117  1  0.16435306  0.82902475  0.78107877  1
  Cu+  Cu118  1  0.67014139  0.33869657  0.78127416  1
  Cu+  Cu119  1  0.66592987  0.82900915  0.78495123  1
  Te2-  Te120  1  -0.00124451  -0.00277913  0.38622816  1
  Te2-  Te121  1  -0.00354700  0.49801715  0.38556704  1
  Te2-  Te122  1  0.49791951  0.00073348  0.39347779  1
  Te2-  Te123  1  0.50198487  0.50291787  0.38714228  1
  Te2-  Te124  1  0.33056775  0.16745326  0.72077289  1
  Te2-  Te125  1  0.33153961  0.66347952  0.71762443  1
  Te2-  Te126  1  0.83466240  0.16376278  0.72183972  1
  Te2-  Te127  1  0.83387217  0.66361248  0.71975003  1
  Te2-  Te128  1  0.16573774  0.33808783  0.05622983  1
  Te2-  Te129  1  0.17377909  0.83712863  0.05503439  1
  Te2-  Te130  1  0.66443924  0.33447267  0.05510970  1
  Te2-  Te131  1  0.66615063  0.83271512  0.06012144  1
  Te2-  Te132  1  0.49307571  0.24664282  0.88318119  1
  Te2-  Te133  1  0.49907566  0.75134364  0.88348275  1
  Te2-  Te134  1  0.99659158  0.24781415  0.88192994  1
  Te2-  Te135  1  0.99863472  0.74796833  0.88360450  1
  Te2-  Te136  1  0.25341680  0.01066347  0.88382494  1
  Te2-  Te137  1  0.25456149  0.50625948  0.88205017  1
  Te2-  Te138  1  0.75865720  0.00939564  0.88823899  1
  Te2-  Te139  1  0.75248050  0.50112905  0.88092627  1
  Te2-  Te140  1  0.25379780  0.24794716  0.88582545  1
  Te2-  Te141  1  0.25662860  0.75177808  0.88088511  1
  Te2-  Te142  1  0.75485622  0.24572916  0.88552320  1
  Te2-  Te143  1  0.75301290  0.74821684  0.88635335  1
  Te2-  Te144  1  0.32270114  0.41606272  0.21798352  1
  Te2-  Te145  1  0.33318015  0.91769160  0.21673336  1
  Te2-  Te146  1  0.82458020  0.42112779  0.21369601  1
  Te2-  Te147  1  0.82409353  0.91098922  0.21606008  1
  Te2-  Te148  1  0.08138891  0.17467871  0.21761934  1
  Te2-  Te149  1  0.09096653  0.67863270  0.21711027  1
  Te2-  Te150  1  0.58742251  0.17770113  0.22149817  1
  Te2-  Te151  1  0.58401790  0.67409058  0.21533288  1
  Te2-  Te152  1  0.08073362  0.41631974  0.21180373  1
  Te2-  Te153  1  0.08960611  0.91904832  0.21406978  1
  Te2-  Te154  1  0.58106621  0.41412115  0.21347587  1
  Te2-  Te155  1  0.58705068  0.91519692  0.22137060  1
  Te2-  Te156  1  0.15849107  0.07781638  0.54920926  1
  Te2-  Te157  1  0.15873235  0.57246346  0.54700950  1
  Te2-  Te158  1  0.65320977  0.07537622  0.55380708  1
  Te2-  Te159  1  0.66149777  0.58035228  0.54915293  1
  Te2-  Te160  1  0.42031752  0.33890023  0.54907836  1
  Te2-  Te161  1  0.41299106  0.83655788  0.54885362  1
  Te2-  Te162  1  0.91578514  0.32983757  0.54765280  1
  Te2-  Te163  1  0.92055886  0.83528835  0.54849093  1
  Te2-  Te164  1  0.41559967  0.07669806  0.55238678  1
  Te2-  Te165  1  0.42396224  0.58142383  0.54866951  1
  Te2-  Te166  1  0.91508355  0.07260571  0.55007767  1
  Te2-  Te167  1  0.91801376  0.57323154  0.54913866  1
  Te2-  Te168  1  0.00164085  -0.00036571  0.88314274  1
  Te2-  Te169  1  0.00179852  0.49943930  0.88132689  1
  Te2-  Te170  1  0.50048187  -0.00055321  0.88388759  1
  Te2-  Te171  1  0.50040096  0.49890449  0.88279525  1
  Te2-  Te172  1  0.33233833  0.16761060  0.21766543  1
  Te2-  Te173  1  0.33348143  0.66644472  0.21480570  1
  Te2-  Te174  1  0.83489657  0.16859739  0.21696615  1
  Te2-  Te175  1  0.83292979  0.66627894  0.21436968  1
  Te2-  Te176  1  0.16617316  0.33330937  0.54881269  1
  Te2-  Te177  1  0.16608862  0.83194384  0.54812753  1
  Te2-  Te178  1  0.66576746  0.33378996  0.54868156  1
  Te2-  Te179  1  0.66604330  0.83209997  0.54870162  1
  Te2-  Te180  1  0.32736392  0.41307262  0.71259660  1
  Te2-  Te181  1  0.32738116  0.91158539  0.71088137  1
  Te2-  Te182  1  0.82846659  0.41121359  0.71098765  1
  Te2-  Te183  1  0.82724147  0.90957651  0.71401479  1
  Te2-  Te184  1  0.08458284  0.16994045  0.71276150  1
  Te2-  Te185  1  0.08623659  0.66937835  0.71110557  1
  Te2-  Te186  1  0.58756987  0.17448077  0.71025329  1
  Te2-  Te187  1  0.58590860  0.67020917  0.71309005  1
  Te2-  Te188  1  0.08496896  0.41096581  0.71077546  1
  Te2-  Te189  1  0.08537760  0.91212049  0.71203223  1
  Te2-  Te190  1  0.58538017  0.41342826  0.71123218  1
  Te2-  Te191  1  0.58347552  0.90915103  0.71278225  1
  Te2-  Te192  1  0.16140643  0.08112830  0.04370448  1
  Te2-  Te193  1  0.16467193  0.58390983  0.04281818  1
  Te2-  Te194  1  0.65700086  0.07804869  0.04595010  1
  Te2-  Te195  1  0.66296395  0.57860720  0.04208889  1
  Te2-  Te196  1  0.42062133  0.33984065  0.04399777  1
  Te2-  Te197  1  0.42253527  0.84019855  0.04591392  1
  Te2-  Te198  1  0.91985177  0.33917423  0.04238597  1
  Te2-  Te199  1  0.92431745  0.84135423  0.04034361  1
  Te2-  Te200  1  0.42002628  0.08234909  0.04803759  1
  Te2-  Te201  1  0.42163409  0.58140068  0.04374720  1
  Te2-  Te202  1  0.92309625  0.08399885  0.04349175  1
  Te2-  Te203  1  0.92166533  0.57893137  0.04127093  1
  Te2-  Te204  1  0.49292029  0.24913535  0.37692601  1
  Te2-  Te205  1  0.49445073  0.74851760  0.37606445  1
  Te2-  Te206  1  0.99429259  0.25020988  0.37600613  1
  Te2-  Te207  1  0.99237466  0.74888142  0.37608847  1
  Te2-  Te208  1  0.25230533  0.00503775  0.37752824  1
  Te2-  Te209  1  0.24975828  0.50587807  0.37484734  1
  Te2-  Te210  1  0.75823947  0.01066222  0.37763808  1
  Te2-  Te211  1  0.74998737  0.50638681  0.37726232  1
  Te2-  Te212  1  0.25346768  0.24608814  0.37480131  1
  Te2-  Te213  1  0.25391468  0.74815087  0.37497252  1
  Te2-  Te214  1  0.75672422  0.25167266  0.37683968  1
  Te2-  Te215  1  0.75194485  0.74812991  0.37776126  1
