# generated using pymatgen
data_Ti(CuTe)4
_symmetry_space_group_name_H-M   'P 1'
_cell_length_a   16.86798806
_cell_length_b   16.86777896
_cell_length_c   20.67352232
_cell_angle_alpha   90.01825830
_cell_angle_beta   89.99058395
_cell_angle_gamma   119.99888034
_symmetry_Int_Tables_number   1
_chemical_formula_structural   Ti(CuTe)4
_chemical_formula_sum   'Ti24 Cu96 Te96'
_cell_volume   5094.14348087
_cell_formula_units_Z   24
loop_
 _symmetry_equiv_pos_site_id
 _symmetry_equiv_pos_as_xyz
  1  'x, y, z'
loop_
 _atom_type_symbol
 _atom_type_oxidation_number
  Ti4+  4.0
  Cu+  1.0
  Te2-  -2.0
loop_
 _atom_site_type_symbol
 _atom_site_label
 _atom_site_symmetry_multiplicity
 _atom_site_fract_x
 _atom_site_fract_y
 _atom_site_fract_z
 _atom_site_occupancy
  Ti4+  Ti0  1  -0.00125829  0.00002180  0.26272895  1
  Ti4+  Ti1  1  0.00225475  0.49890671  0.25814639  1
  Ti4+  Ti2  1  0.50201546  0.00457914  0.25581906  1
  Ti4+  Ti3  1  0.50070707  0.50125051  0.25620278  1
  Ti4+  Ti4  1  0.33590416  0.16772593  0.58930143  1
  Ti4+  Ti5  1  0.33315110  0.66869866  0.58888506  1
  Ti4+  Ti6  1  0.83482386  0.16782422  0.59185428  1
  Ti4+  Ti7  1  0.83602654  0.66620348  0.59170858  1
  Ti4+  Ti8  1  0.16440233  0.33172722  0.92801440  1
  Ti4+  Ti9  1  0.16298979  0.82987608  0.92263393  1
  Ti4+  Ti10  1  0.66476681  0.33194642  0.92597531  1
  Ti4+  Ti11  1  0.66322590  0.83049270  0.92268800  1
  Ti4+  Ti12  1  0.00037779  -0.00010666  0.75614568  1
  Ti4+  Ti13  1  0.00085438  0.50163285  0.75625118  1
  Ti4+  Ti14  1  0.49961890  -0.00141241  0.75613674  1
  Ti4+  Ti15  1  0.50060327  0.50092155  0.75500922  1
  Ti4+  Ti16  1  0.33346484  0.16647920  0.08823765  1
  Ti4+  Ti17  1  0.33115372  0.66518431  0.08901345  1
  Ti4+  Ti18  1  0.83259037  0.16630005  0.08721527  1
  Ti4+  Ti19  1  0.83296449  0.66698164  0.09194961  1
  Ti4+  Ti20  1  0.16549564  0.33278758  0.42106604  1
  Ti4+  Ti21  1  0.16881586  0.83298555  0.41984000  1
  Ti4+  Ti22  1  0.66721339  0.33447383  0.42335819  1
  Ti4+  Ti23  1  0.66819415  0.83592528  0.42074204  1
  Cu+  Cu24  1  0.40018587  0.80392228  0.80557212  1
  Cu+  Cu25  1  0.84746807  0.92350257  0.48039646  1
  Cu+  Cu26  1  0.90131944  0.58559488  0.81021505  1
  Cu+  Cu27  1  0.51799465  0.26297105  0.14211692  1
  Cu+  Cu28  1  0.35736231  0.92781479  0.47170621  1
  Cu+  Cu29  1  0.24344835  0.48005878  0.14196495  1
  Cu+  Cu30  1  0.90316013  0.81477002  0.80973646  1
  Cu+  Cu31  1  0.07277823  0.64550401  0.47391194  1
  Cu+  Cu32  1  0.74952249  0.26562207  0.14053232  1
  Cu+  Cu33  1  0.08236199  0.91766648  0.48512849  1
  Cu+  Cu34  1  0.07847069  0.15563197  0.48186669  1
  Cu+  Cu35  1  0.01560691  0.25163197  0.14476656  1
  Cu+  Cu36  1  0.16345923  0.08083318  0.17367316  1
  Cu+  Cu37  1  0.16575191  0.57945064  0.17149901  1
  Cu+  Cu38  1  0.66263659  0.08711266  0.16590703  1
  Cu+  Cu39  1  0.66458528  0.58393674  0.17177123  1
  Cu+  Cu40  1  0.42155052  0.33886553  0.16841401  1
  Cu+  Cu41  1  0.41710534  0.83831183  0.17048914  1
  Cu+  Cu42  1  0.92217837  0.33754397  0.16792444  1
  Cu+  Cu43  1  0.91653657  0.83523115  0.17737059  1
  Cu+  Cu44  1  0.42171593  0.08643937  0.16855808  1
  Cu+  Cu45  1  0.41649675  0.58141179  0.17067513  1
  Cu+  Cu46  1  0.91843572  0.07963421  0.17282198  1
  Cu+  Cu47  1  0.92069773  0.58554161  0.17375277  1
  Cu+  Cu48  1  0.49852268  0.25093940  0.50423034  1
  Cu+  Cu49  1  0.49750918  0.75159797  0.50195472  1
  Cu+  Cu50  1  0.99545418  0.24795692  0.50324134  1
  Cu+  Cu51  1  0.99245922  0.74103548  0.50145114  1
  Cu+  Cu52  1  0.25974574  0.00731620  0.49878363  1
  Cu+  Cu53  1  0.25268295  0.50390732  0.50238735  1
  Cu+  Cu54  1  0.75343254  0.00499805  0.50256081  1
  Cu+  Cu55  1  0.75481750  0.50208178  0.50574389  1
  Cu+  Cu56  1  0.25280692  0.25091783  0.50260894  1
  Cu+  Cu57  1  0.25306203  0.74779503  0.49904304  1
  Cu+  Cu58  1  0.75256936  0.25062316  0.50637088  1
  Cu+  Cu59  1  0.75109790  0.74971880  0.50376277  1
  Cu+  Cu60  1  0.33152879  0.41709833  0.84078183  1
  Cu+  Cu61  1  0.33022389  0.90998455  0.83693355  1
  Cu+  Cu62  1  0.82849027  0.41382801  0.84005391  1
  Cu+  Cu63  1  0.82813552  0.91221855  0.83762514  1
  Cu+  Cu64  1  0.08267843  0.17037068  0.84115115  1
  Cu+  Cu65  1  0.07972710  0.67054215  0.83425264  1
  Cu+  Cu66  1  0.58384900  0.16958291  0.84060431  1
  Cu+  Cu67  1  0.58428250  0.67045650  0.83480634  1
  Cu+  Cu68  1  0.08316189  0.41312478  0.84162631  1
  Cu+  Cu69  1  0.07931715  0.91032676  0.83611408  1
  Cu+  Cu70  1  0.58017030  0.41147703  0.83832811  1
  Cu+  Cu71  1  0.57719722  0.90846938  0.83650658  1
  Cu+  Cu72  1  0.17038110  0.08807849  0.67593075  1
  Cu+  Cu73  1  0.16783876  0.58319230  0.67405155  1
  Cu+  Cu74  1  0.67107471  0.08710894  0.67476425  1
  Cu+  Cu75  1  0.66862076  0.58328980  0.67480930  1
  Cu+  Cu76  1  0.41567508  0.33269775  0.67366822  1
  Cu+  Cu77  1  0.41439295  0.83043024  0.67721555  1
  Cu+  Cu78  1  0.91891047  0.33187671  0.67556090  1
  Cu+  Cu79  1  0.91850820  0.83241490  0.68096281  1
  Cu+  Cu80  1  0.41902104  0.08707753  0.67388123  1
  Cu+  Cu81  1  0.41749107  0.58500002  0.67219211  1
  Cu+  Cu82  1  0.91839102  0.08669908  0.67815602  1
  Cu+  Cu83  1  0.91788141  0.58512802  0.68151379  1
  Cu+  Cu84  1  0.00119343  0.24832305  0.01496985  1
  Cu+  Cu85  1  -0.00084131  0.75102965  0.01090620  1
  Cu+  Cu86  1  0.50181231  0.24895762  0.01291837  1
  Cu+  Cu87  1  0.49993900  0.75150546  0.00737230  1
  Cu+  Cu88  1  0.24428106  0.49419997  0.01426420  1
  Cu+  Cu89  1  0.24435780  0.99525799  0.00491199  1
  Cu+  Cu90  1  0.75056987  0.50028294  0.00957168  1
  Cu+  Cu91  1  0.74796357  0.99536083  0.00475901  1
  Cu+  Cu92  1  0.24681595  0.24688290  0.00917682  1
  Cu+  Cu93  1  0.24709683  0.75014746  0.00638333  1
  Cu+  Cu94  1  0.74608945  0.24963794  0.01210517  1
  Cu+  Cu95  1  0.74975891  0.75255391  0.00891677  1
  Cu+  Cu96  1  0.33633893  0.41938825  0.34033317  1
  Cu+  Cu97  1  0.33957037  0.92091912  0.34248172  1
  Cu+  Cu98  1  0.83544396  0.41787899  0.34187122  1
  Cu+  Cu99  1  0.83599111  0.91910368  0.34927134  1
  Cu+  Cu100  1  0.08090987  0.16474170  0.34988166  1
  Cu+  Cu101  1  0.08366988  0.66146399  0.34500718  1
  Cu+  Cu102  1  0.58285400  0.16780487  0.34212380  1
  Cu+  Cu103  1  0.58107083  0.66527835  0.33913073  1
  Cu+  Cu104  1  0.08308210  0.41672763  0.34348651  1
  Cu+  Cu105  1  0.08153609  0.91552351  0.35053941  1
  Cu+  Cu106  1  0.58354896  0.41966257  0.34150780  1
  Cu+  Cu107  1  0.58278480  0.91906900  0.33676049  1
  Cu+  Cu108  1  -0.00038458  -0.00443637  0.12024831  1
  Cu+  Cu109  1  0.00103516  0.50541130  0.11502812  1
  Cu+  Cu110  1  0.49603455  -0.00354260  0.11140517  1
  Cu+  Cu111  1  0.50189390  0.50443483  0.11143665  1
  Cu+  Cu112  1  0.33805088  0.17427446  0.44442822  1
  Cu+  Cu113  1  0.33633898  0.66488087  0.44440236  1
  Cu+  Cu114  1  0.82859807  0.16821087  0.44660684  1
  Cu+  Cu115  1  0.82385964  0.66166031  0.44752948  1
  Cu+  Cu116  1  0.17075892  0.33566282  0.78649722  1
  Cu+  Cu117  1  0.17126124  0.83968528  0.77788220  1
  Cu+  Cu118  1  0.66478894  0.33268300  0.78271316  1
  Cu+  Cu119  1  0.66677005  0.83619674  0.77732039  1
  Te2-  Te120  1  0.00071708  -0.00047157  0.39667177  1
  Te2-  Te121  1  -0.00149639  0.49582798  0.38869837  1
  Te2-  Te122  1  0.50538979  0.00351314  0.38636257  1
  Te2-  Te123  1  0.50061088  0.50162006  0.38529255  1
  Te2-  Te124  1  0.33569985  0.16832557  0.71822619  1
  Te2-  Te125  1  0.33209914  0.66294108  0.71915111  1
  Te2-  Te126  1  0.83463084  0.16785100  0.72102775  1
  Te2-  Te127  1  0.83106422  0.66528159  0.72353187  1
  Te2-  Te128  1  0.16672149  0.32832496  0.06069422  1
  Te2-  Te129  1  0.16499262  0.83209232  0.05162282  1
  Te2-  Te130  1  0.66802100  0.33705914  0.05814659  1
  Te2-  Te131  1  0.66439466  0.83235443  0.05186195  1
  Te2-  Te132  1  0.49299595  0.24555719  0.88586471  1
  Te2-  Te133  1  0.48849700  0.74008292  0.88173286  1
  Te2-  Te134  1  0.99225199  0.24589486  0.88789846  1
  Te2-  Te135  1  0.98520453  0.74237449  0.88441569  1
  Te2-  Te136  1  0.24852906  -0.00056965  0.87871479  1
  Te2-  Te137  1  0.25008494  0.50319732  0.88718896  1
  Te2-  Te138  1  0.74775000  0.00061654  0.87871143  1
  Te2-  Te139  1  0.74768646  0.50448965  0.88376469  1
  Te2-  Te140  1  0.25070578  0.24771326  0.88353296  1
  Te2-  Te141  1  0.24620400  0.73981207  0.88071867  1
  Te2-  Te142  1  0.75180033  0.24748018  0.88521380  1
  Te2-  Te143  1  0.74940316  0.74225926  0.88306948  1
  Te2-  Te144  1  0.32720127  0.40994644  0.21482354  1
  Te2-  Te145  1  0.33047640  0.91950820  0.21546560  1
  Te2-  Te146  1  0.83012602  0.41636286  0.21606302  1
  Te2-  Te147  1  0.82809359  0.91545360  0.22156070  1
  Te2-  Te148  1  0.08806277  0.17201991  0.22150304  1
  Te2-  Te149  1  0.08879472  0.66978159  0.21813146  1
  Te2-  Te150  1  0.59108731  0.18115992  0.21582777  1
  Te2-  Te151  1  0.58432504  0.67237840  0.21335546  1
  Te2-  Te152  1  0.08867776  0.40957261  0.21742733  1
  Te2-  Te153  1  0.08450588  0.91488270  0.22242687  1
  Te2-  Te154  1  0.59076723  0.41713174  0.21593401  1
  Te2-  Te155  1  0.58721416  0.91973533  0.21112455  1
  Te2-  Te156  1  0.16048065  0.07881539  0.54955131  1
  Te2-  Te157  1  0.15986255  0.57858963  0.54760000  1
  Te2-  Te158  1  0.66394547  0.08161579  0.54868258  1
  Te2-  Te159  1  0.66652127  0.58281645  0.54870140  1
  Te2-  Te160  1  0.41875952  0.33915399  0.54784496  1
  Te2-  Te161  1  0.42148692  0.84228573  0.54916990  1
  Te2-  Te162  1  0.92134875  0.33915955  0.54969375  1
  Te2-  Te163  1  0.92270873  0.84058619  0.55225116  1
  Te2-  Te164  1  0.42525974  0.08309168  0.54808395  1
  Te2-  Te165  1  0.41966715  0.58421055  0.54658645  1
  Te2-  Te166  1  0.92272584  0.07900133  0.55216816  1
  Te2-  Te167  1  0.92101628  0.57660750  0.55352386  1
  Te2-  Te168  1  -0.00139674  -0.00069210  0.88312727  1
  Te2-  Te169  1  -0.00049489  0.50099189  0.88331096  1
  Te2-  Te170  1  0.49863747  -0.00111981  0.88305822  1
  Te2-  Te171  1  0.50077200  0.50137920  0.88175459  1
  Te2-  Te172  1  0.33449704  0.16843371  0.21544783  1
  Te2-  Te173  1  0.33553907  0.66996668  0.21618586  1
  Te2-  Te174  1  0.83202224  0.16637628  0.21493590  1
  Te2-  Te175  1  0.83275385  0.66595075  0.21894116  1
  Te2-  Te176  1  0.16716351  0.33498288  0.54843979  1
  Te2-  Te177  1  0.16807246  0.83401136  0.54813674  1
  Te2-  Te178  1  0.66692370  0.33367233  0.55022126  1
  Te2-  Te179  1  0.66639557  0.83465798  0.54828904  1
  Te2-  Te180  1  0.32876714  0.41559043  0.71225478  1
  Te2-  Te181  1  0.32872934  0.91696608  0.70879178  1
  Te2-  Te182  1  0.82785764  0.41144733  0.71194665  1
  Te2-  Te183  1  0.82784738  0.91516696  0.70954908  1
  Te2-  Te184  1  0.08758422  0.17376323  0.71425223  1
  Te2-  Te185  1  0.09054127  0.67518369  0.70868240  1
  Te2-  Te186  1  0.58688256  0.17163685  0.71341661  1
  Te2-  Te187  1  0.58718500  0.67274396  0.70859600  1
  Te2-  Te188  1  0.08736489  0.41488380  0.71440202  1
  Te2-  Te189  1  0.09067564  0.91753086  0.70893383  1
  Te2-  Te190  1  0.58551822  0.41340473  0.71119442  1
  Te2-  Te191  1  0.58759920  0.91580617  0.70855262  1
  Te2-  Te192  1  0.15959211  0.07789279  0.04667884  1
  Te2-  Te193  1  0.15821109  0.58114237  0.04415192  1
  Te2-  Te194  1  0.65959269  0.07691227  0.04009435  1
  Te2-  Te195  1  0.66238985  0.58221140  0.04488519  1
  Te2-  Te196  1  0.41817948  0.33938296  0.04171178  1
  Te2-  Te197  1  0.41587814  0.83661725  0.04334076  1
  Te2-  Te198  1  0.91952180  0.34113322  0.04130016  1
  Te2-  Te199  1  0.91809340  0.83886220  0.04905121  1
  Te2-  Te200  1  0.41473422  0.07573052  0.04151885  1
  Te2-  Te201  1  0.41887816  0.58098155  0.04281293  1
  Te2-  Te202  1  0.91610560  0.07508947  0.04541190  1
  Te2-  Te203  1  0.91923848  0.58153512  0.04652068  1
  Te2-  Te204  1  0.49592246  0.25018009  0.37722556  1
  Te2-  Te205  1  0.49676780  0.75049795  0.37527600  1
  Te2-  Te206  1  0.99042792  0.24698926  0.37666088  1
  Te2-  Te207  1  0.99201745  0.74242929  0.37531792  1
  Te2-  Te208  1  0.25533748  0.00873294  0.37291908  1
  Te2-  Te209  1  0.25317535  0.50532857  0.37599488  1
  Te2-  Te210  1  0.75177833  0.00885135  0.37521076  1
  Te2-  Te211  1  0.75357483  0.50557404  0.37803283  1
  Te2-  Te212  1  0.25516400  0.24941113  0.37515189  1
  Te2-  Te213  1  0.25712382  0.74781774  0.37233235  1
  Te2-  Te214  1  0.75261150  0.24875398  0.37818027  1
  Te2-  Te215  1  0.75070185  0.74515231  0.37605740  1
