# generated using pymatgen
data_Ti(CuTe)4
_symmetry_space_group_name_H-M   'P 1'
_cell_length_a   16.88342037
_cell_length_b   16.88325972
_cell_length_c   20.70600855
_cell_angle_alpha   89.98862893
_cell_angle_beta   89.98576591
_cell_angle_gamma   119.99592350
_symmetry_Int_Tables_number   1
_chemical_formula_structural   Ti(CuTe)4
_chemical_formula_sum   'Ti24 Cu96 Te96'
_cell_volume   5111.65519478
_cell_formula_units_Z   24
loop_
 _symmetry_equiv_pos_site_id
 _symmetry_equiv_pos_as_xyz
  1  'x, y, z'
loop_
 _atom_type_symbol
 _atom_type_oxidation_number
  Ti4+  4.0
  Cu+  1.0
  Te2-  -2.0
loop_
 _atom_site_type_symbol
 _atom_site_label
 _atom_site_symmetry_multiplicity
 _atom_site_fract_x
 _atom_site_fract_y
 _atom_site_fract_z
 _atom_site_occupancy
  Ti4+  Ti0  1  0.00254463  0.00334314  0.25657479  1
  Ti4+  Ti1  1  -0.00092353  0.49763285  0.25877379  1
  Ti4+  Ti2  1  0.50152647  -0.00211618  0.26145337  1
  Ti4+  Ti3  1  0.50388502  0.50187924  0.25642447  1
  Ti4+  Ti4  1  0.33761893  0.16696156  0.58993713  1
  Ti4+  Ti5  1  0.32778838  0.66292083  0.59079786  1
  Ti4+  Ti6  1  0.83414552  0.16464138  0.59216959  1
  Ti4+  Ti7  1  0.83252906  0.66751818  0.58731978  1
  Ti4+  Ti8  1  0.16762473  0.33691061  0.92552637  1
  Ti4+  Ti9  1  0.16563018  0.83614367  0.92420737  1
  Ti4+  Ti10  1  0.66599625  0.33171158  0.92517256  1
  Ti4+  Ti11  1  0.66364847  0.83494802  0.92402068  1
  Ti4+  Ti12  1  0.00041196  -0.00128823  0.75542306  1
  Ti4+  Ti13  1  -0.00176777  0.49853296  0.75646944  1
  Ti4+  Ti14  1  0.50015701  0.00020102  0.75483821  1
  Ti4+  Ti15  1  0.49812675  0.50092048  0.75626836  1
  Ti4+  Ti16  1  0.33253764  0.16671215  0.08937898  1
  Ti4+  Ti17  1  0.33438019  0.66945841  0.09045032  1
  Ti4+  Ti18  1  0.83521380  0.16834227  0.09030803  1
  Ti4+  Ti19  1  0.82999106  0.66437977  0.08827107  1
  Ti4+  Ti20  1  0.16753734  0.33372817  0.42211119  1
  Ti4+  Ti21  1  0.16701197  0.83163139  0.41904910  1
  Ti4+  Ti22  1  0.66545384  0.33240206  0.42179619  1
  Ti4+  Ti23  1  0.66934169  0.83358047  0.42257908  1
  Cu+  Cu24  1  0.86093438  0.93093367  0.47102340  1
  Cu+  Cu25  1  0.57115254  0.42671025  0.47300335  1
  Cu+  Cu26  1  0.68691128  0.09514195  0.80939059  1
  Cu+  Cu27  1  0.40637953  0.09399334  0.80900341  1
  Cu+  Cu28  1  0.57902569  0.15018246  0.47837833  1
  Cu+  Cu29  1  0.34703601  0.91829426  0.47641596  1
  Cu+  Cu30  1  0.06937342  0.42041050  0.47555696  1
  Cu+  Cu31  1  0.73877326  0.47485521  0.14141289  1
  Cu+  Cu32  1  0.02618867  0.26312206  0.14082684  1
  Cu+  Cu33  1  0.07079859  0.64886946  0.47410571  1
  Cu+  Cu34  1  0.52541087  0.76385269  0.14111258  1
  Cu+  Cu35  1  0.40146485  0.59645816  0.80795361  1
  Cu+  Cu36  1  0.16377861  0.08322178  0.16999006  1
  Cu+  Cu37  1  0.16355196  0.58223702  0.17270958  1
  Cu+  Cu38  1  0.66368063  0.08220181  0.17436508  1
  Cu+  Cu39  1  0.66286706  0.57558749  0.16896074  1
  Cu+  Cu40  1  0.41903887  0.33572600  0.17069839  1
  Cu+  Cu41  1  0.42307821  0.83612214  0.17365158  1
  Cu+  Cu42  1  0.92511371  0.33667455  0.17107594  1
  Cu+  Cu43  1  0.91521027  0.83644657  0.17104925  1
  Cu+  Cu44  1  0.41744023  0.08140715  0.17520954  1
  Cu+  Cu45  1  0.42466229  0.58967090  0.17079163  1
  Cu+  Cu46  1  0.92388055  0.08766840  0.17121223  1
  Cu+  Cu47  1  0.91265225  0.57752055  0.17196971  1
  Cu+  Cu48  1  0.49750134  0.24769755  0.50226235  1
  Cu+  Cu49  1  0.49637293  0.74382515  0.50514848  1
  Cu+  Cu50  1  0.99652350  0.24920850  0.50501894  1
  Cu+  Cu51  1  0.99401193  0.74478653  0.49987664  1
  Cu+  Cu52  1  0.25724932  0.00244881  0.50097053  1
  Cu+  Cu53  1  0.24564837  0.50050131  0.50337211  1
  Cu+  Cu54  1  0.75610885  0.00059010  0.50521315  1
  Cu+  Cu55  1  0.74610429  0.50332691  0.50109621  1
  Cu+  Cu56  1  0.25443851  0.24946188  0.50355548  1
  Cu+  Cu57  1  0.24810295  0.74236683  0.50118332  1
  Cu+  Cu58  1  0.75029538  0.24440353  0.50558286  1
  Cu+  Cu59  1  0.75758078  0.75425077  0.50167049  1
  Cu+  Cu60  1  0.33011234  0.42207595  0.83841772  1
  Cu+  Cu61  1  0.32788136  0.91948958  0.83681407  1
  Cu+  Cu62  1  0.82948639  0.41524373  0.83886354  1
  Cu+  Cu63  1  0.83058510  0.91621592  0.83776388  1
  Cu+  Cu64  1  0.08411242  0.16851699  0.83937443  1
  Cu+  Cu65  1  0.08366530  0.66945261  0.83936421  1
  Cu+  Cu66  1  0.58506341  0.17011890  0.83642146  1
  Cu+  Cu67  1  0.57503390  0.66896804  0.83760270  1
  Cu+  Cu68  1  0.08291318  0.41431556  0.83939767  1
  Cu+  Cu69  1  0.08577791  0.91643380  0.83701351  1
  Cu+  Cu70  1  0.58509731  0.41687318  0.83919861  1
  Cu+  Cu71  1  0.58785767  0.91829184  0.83624516  1
  Cu+  Cu72  1  0.17115550  0.08295849  0.67393970  1
  Cu+  Cu73  1  0.16276284  0.58003583  0.67617321  1
  Cu+  Cu74  1  0.66979160  0.08177330  0.67999475  1
  Cu+  Cu75  1  0.66754399  0.58541713  0.67203858  1
  Cu+  Cu76  1  0.41879870  0.33291952  0.67586133  1
  Cu+  Cu77  1  0.41297379  0.82930452  0.67499285  1
  Cu+  Cu78  1  0.91371508  0.32949149  0.67782826  1
  Cu+  Cu79  1  0.91680737  0.83155780  0.67309027  1
  Cu+  Cu80  1  0.41790743  0.08451118  0.67897975  1
  Cu+  Cu81  1  0.41066384  0.58278721  0.67885353  1
  Cu+  Cu82  1  0.91709489  0.08251031  0.67606147  1
  Cu+  Cu83  1  0.91307879  0.58311229  0.67319621  1
  Cu+  Cu84  1  0.00490314  0.25326575  0.01285788  1
  Cu+  Cu85  1  0.00090787  0.75198407  0.00717383  1
  Cu+  Cu86  1  0.50047888  0.24821976  0.00875254  1
  Cu+  Cu87  1  0.50162992  0.75501541  0.01216824  1
  Cu+  Cu88  1  0.24837565  0.50201029  0.00963584  1
  Cu+  Cu89  1  0.24849271  0.99929297  0.00895395  1
  Cu+  Cu90  1  0.74658118  0.49475830  0.01322658  1
  Cu+  Cu91  1  0.74823725  1.00052360  0.00956616  1
  Cu+  Cu92  1  0.24857786  0.25261413  0.00787677  1
  Cu+  Cu93  1  0.24733299  0.75517334  0.00817771  1
  Cu+  Cu94  1  0.74934133  0.24980200  0.00951771  1
  Cu+  Cu95  1  0.74434484  0.74906748  0.00634241  1
  Cu+  Cu96  1  0.33905171  0.41948851  0.33945139  1
  Cu+  Cu97  1  0.33740038  0.91627184  0.34639597  1
  Cu+  Cu98  1  0.83416474  0.41446254  0.34124991  1
  Cu+  Cu99  1  0.84052821  0.92195549  0.34349622  1
  Cu+  Cu100  1  0.08508604  0.16752932  0.34172855  1
  Cu+  Cu101  1  0.08082598  0.66185025  0.34466576  1
  Cu+  Cu102  1  0.57961441  0.16089211  0.34881393  1
  Cu+  Cu103  1  0.58606527  0.66645431  0.33979468  1
  Cu+  Cu104  1  0.08344991  0.41775481  0.34732287  1
  Cu+  Cu105  1  0.08296917  0.91880556  0.33806100  1
  Cu+  Cu106  1  0.58295764  0.41799893  0.34468741  1
  Cu+  Cu107  1  0.58320184  0.91548783  0.34454950  1
  Cu+  Cu108  1  -0.00207343  -0.00403038  0.11310393  1
  Cu+  Cu109  1  0.00194879  0.50418050  0.11528278  1
  Cu+  Cu110  1  0.49917087  0.00226421  0.11876011  1
  Cu+  Cu111  1  0.49451467  0.49779541  0.11330550  1
  Cu+  Cu112  1  0.32827375  0.16387106  0.44531598  1
  Cu+  Cu113  1  0.33719871  0.66461224  0.44712023  1
  Cu+  Cu114  1  0.83344034  0.16587019  0.44896081  1
  Cu+  Cu115  1  0.83260919  0.66550565  0.44232512  1
  Cu+  Cu116  1  0.16571906  0.32894944  0.78325699  1
  Cu+  Cu117  1  0.16366965  0.82950226  0.78108194  1
  Cu+  Cu118  1  0.66678424  0.33794553  0.78159374  1
  Cu+  Cu119  1  0.66888956  0.83001368  0.78088993  1
  Te2-  Te120  1  0.00684967  0.00398244  0.38765321  1
  Te2-  Te121  1  -0.00426534  0.49661377  0.39099640  1
  Te2-  Te122  1  0.50152221  -0.00409961  0.39414971  1
  Te2-  Te123  1  0.50148367  0.50331732  0.38715394  1
  Te2-  Te124  1  0.33474152  0.16838461  0.72009119  1
  Te2-  Te125  1  0.32703653  0.66618522  0.72104029  1
  Te2-  Te126  1  0.83623727  0.16541710  0.72231642  1
  Te2-  Te127  1  0.83180498  0.66679993  0.71602301  1
  Te2-  Te128  1  0.17165919  0.33839371  0.05609830  1
  Te2-  Te129  1  0.16402437  0.83523652  0.05347142  1
  Te2-  Te130  1  0.66386711  0.32790691  0.05571717  1
  Te2-  Te131  1  0.66877894  0.83603313  0.05431696  1
  Te2-  Te132  1  0.49334762  0.24810282  0.88269544  1
  Te2-  Te133  1  0.48980164  0.75232849  0.88472765  1
  Te2-  Te134  1  0.99572376  0.24777377  0.88592830  1
  Te2-  Te135  1  0.99422318  0.74897174  0.88152963  1
  Te2-  Te136  1  0.25203969  0.01178807  0.88342650  1
  Te2-  Te137  1  0.25005345  0.51124509  0.88403033  1
  Te2-  Te138  1  0.75557494  0.00898991  0.88364581  1
  Te2-  Te139  1  0.75149473  0.50349127  0.88606667  1
  Te2-  Te140  1  0.25368296  0.25273673  0.88175602  1
  Te2-  Te141  1  0.25296593  0.75195680  0.88200578  1
  Te2-  Te142  1  0.75518182  0.24766024  0.88361767  1
  Te2-  Te143  1  0.74502925  0.74674456  0.88003335  1
  Te2-  Te144  1  0.33382704  0.41965233  0.21336603  1
  Te2-  Te145  1  0.33129136  0.91252395  0.21923355  1
  Te2-  Te146  1  0.82660845  0.40674410  0.21547728  1
  Te2-  Te147  1  0.83090973  0.91962813  0.21675465  1
  Te2-  Te148  1  0.09270220  0.17803290  0.21651852  1
  Te2-  Te149  1  0.08130116  0.66776418  0.21748927  1
  Te2-  Te150  1  0.58491244  0.16973701  0.22159923  1
  Te2-  Te151  1  0.59454417  0.67512555  0.21436023  1
  Te2-  Te152  1  0.09158354  0.41597073  0.22001260  1
  Te2-  Te153  1  0.08476136  0.91472830  0.21266541  1
  Te2-  Te154  1  0.58558623  0.40886698  0.21787838  1
  Te2-  Te155  1  0.59208748  0.91481817  0.21882397  1
  Te2-  Te156  1  0.16773843  0.08047597  0.54718176  1
  Te2-  Te157  1  0.15136109  0.57525452  0.55022546  1
  Te2-  Te158  1  0.66139458  0.07421421  0.55226589  1
  Te2-  Te159  1  0.65894989  0.58514678  0.54622721  1
  Te2-  Te160  1  0.42124195  0.34035665  0.54974365  1
  Te2-  Te161  1  0.41851540  0.83526069  0.54891634  1
  Te2-  Te162  1  0.91582562  0.33820103  0.55159345  1
  Te2-  Te163  1  0.92596658  0.84188071  0.54723444  1
  Te2-  Te164  1  0.42487997  0.07767219  0.55132977  1
  Te2-  Te165  1  0.41230970  0.57682741  0.55133201  1
  Te2-  Te166  1  0.92502423  0.08259014  0.55013510  1
  Te2-  Te167  1  0.91387597  0.57527929  0.54717462  1
  Te2-  Te168  1  -0.00041993  -0.00057237  0.88180552  1
  Te2-  Te169  1  -0.00140397  0.50027625  0.88298813  1
  Te2-  Te170  1  0.49841916  -0.00063597  0.88198667  1
  Te2-  Te171  1  0.49938220  0.50059809  0.88319223  1
  Te2-  Te172  1  0.33278452  0.16695388  0.21572027  1
  Te2-  Te173  1  0.33278259  0.66629923  0.21722827  1
  Te2-  Te174  1  0.83430883  0.16732690  0.21704923  1
  Te2-  Te175  1  0.83215772  0.66715883  0.21512869  1
  Te2-  Te176  1  0.16721294  0.33110706  0.54896577  1
  Te2-  Te177  1  0.16500932  0.83131851  0.54658539  1
  Te2-  Te178  1  0.66797754  0.33375137  0.54916442  1
  Te2-  Te179  1  0.66558964  0.83043319  0.54933657  1
  Te2-  Te180  1  0.32580009  0.41065069  0.71110680  1
  Te2-  Te181  1  0.32605611  0.91205266  0.70992800  1
  Te2-  Te182  1  0.82673885  0.41360586  0.71212005  1
  Te2-  Te183  1  0.82861554  0.91271954  0.71108192  1
  Te2-  Te184  1  0.08769442  0.17022830  0.71174191  1
  Te2-  Te185  1  0.08242765  0.66978904  0.71185140  1
  Te2-  Te186  1  0.58984689  0.17486400  0.70923538  1
  Te2-  Te187  1  0.58402609  0.67204946  0.70956955  1
  Te2-  Te188  1  0.08366838  0.41094678  0.71343226  1
  Te2-  Te189  1  0.08654417  0.91323131  0.71055532  1
  Te2-  Te190  1  0.58736095  0.41739724  0.71240185  1
  Te2-  Te191  1  0.58313461  0.90891575  0.71021128  1
  Te2-  Te192  1  0.16114327  0.08257446  0.04407716  1
  Te2-  Te193  1  0.16218851  0.58521384  0.04629291  1
  Te2-  Te194  1  0.66116480  0.08144304  0.04819952  1
  Te2-  Te195  1  0.65732764  0.57933318  0.04256340  1
  Te2-  Te196  1  0.41904332  0.33781063  0.04400277  1
  Te2-  Te197  1  0.41718481  0.84206798  0.04644752  1
  Te2-  Te198  1  0.91997237  0.34118516  0.04463781  1
  Te2-  Te199  1  0.91462987  0.83599566  0.04386106  1
  Te2-  Te200  1  0.41777643  0.07946208  0.04758985  1
  Te2-  Te201  1  0.41896270  0.58229955  0.04345551  1
  Te2-  Te202  1  0.91911681  0.08003024  0.04421578  1
  Te2-  Te203  1  0.91990552  0.58173473  0.04430508  1
  Te2-  Te204  1  0.49118125  0.24555808  0.37575061  1
  Te2-  Te205  1  0.49669211  0.74557237  0.37852561  1
  Te2-  Te206  1  0.99381724  0.24535760  0.37798807  1
  Te2-  Te207  1  0.99395449  0.74843734  0.37317454  1
  Te2-  Te208  1  0.25287177  0.00547302  0.37417207  1
  Te2-  Te209  1  0.25644494  0.50632154  0.37650760  1
  Te2-  Te210  1  0.75371019  0.00673593  0.37840208  1
  Te2-  Te211  1  0.75536202  0.50551080  0.37463140  1
  Te2-  Te212  1  0.25534969  0.24997835  0.37686097  1
  Te2-  Te213  1  0.25370845  0.74305400  0.37430222  1
  Te2-  Te214  1  0.75309208  0.24535057  0.37833861  1
  Te2-  Te215  1  0.75563183  0.74881632  0.37487159  1
