# generated using pymatgen
data_Ti(CuTe)4
_symmetry_space_group_name_H-M   'P 1'
_cell_length_a   16.89764297
_cell_length_b   16.89974224
_cell_length_c   20.72324324
_cell_angle_alpha   89.99942852
_cell_angle_beta   90.00386409
_cell_angle_gamma   120.00533485
_symmetry_Int_Tables_number   1
_chemical_formula_structural   Ti(CuTe)4
_chemical_formula_sum   'Ti24 Cu96 Te96'
_cell_volume   5124.73268014
_cell_formula_units_Z   24
loop_
 _symmetry_equiv_pos_site_id
 _symmetry_equiv_pos_as_xyz
  1  'x, y, z'
loop_
 _atom_type_symbol
 _atom_type_oxidation_number
  Ti4+  4.0
  Cu+  1.0
  Te2-  -2.0
loop_
 _atom_site_type_symbol
 _atom_site_label
 _atom_site_symmetry_multiplicity
 _atom_site_fract_x
 _atom_site_fract_y
 _atom_site_fract_z
 _atom_site_occupancy
  Ti4+  Ti0  1  0.00036457  0.00141361  0.25659668  1
  Ti4+  Ti1  1  0.00205505  0.50159537  0.25973595  1
  Ti4+  Ti2  1  0.50022178  0.00167501  0.26058101  1
  Ti4+  Ti3  1  0.50078393  0.50212669  0.25994660  1
  Ti4+  Ti4  1  0.33155625  0.16496943  0.59275079  1
  Ti4+  Ti5  1  0.32852634  0.66289028  0.59219611  1
  Ti4+  Ti6  1  0.82878180  0.16294375  0.58638305  1
  Ti4+  Ti7  1  0.83153890  0.66712462  0.59009853  1
  Ti4+  Ti8  1  0.17026607  0.33435055  0.92079316  1
  Ti4+  Ti9  1  0.16904603  0.83386942  0.92496886  1
  Ti4+  Ti10  1  0.66980720  0.33563727  0.92362773  1
  Ti4+  Ti11  1  0.66736509  0.83250553  0.92511328  1
  Ti4+  Ti12  1  -0.00042019  -0.00023978  0.75483150  1
  Ti4+  Ti13  1  -0.00089396  0.49883626  0.75446506  1
  Ti4+  Ti14  1  0.49805250  -0.00183942  0.75551492  1
  Ti4+  Ti15  1  0.50069311  0.50005195  0.75181948  1
  Ti4+  Ti16  1  0.33567426  0.16791053  0.08950896  1
  Ti4+  Ti17  1  0.33421886  0.66602630  0.09140751  1
  Ti4+  Ti18  1  0.83576256  0.16793909  0.08883731  1
  Ti4+  Ti19  1  0.83399322  0.66875214  0.08999502  1
  Ti4+  Ti20  1  0.16618387  0.33410976  0.42209603  1
  Ti4+  Ti21  1  0.16589773  0.83328886  0.42190354  1
  Ti4+  Ti22  1  0.66577756  0.33269359  0.42059634  1
  Ti4+  Ti23  1  0.66727661  0.83304234  0.42070262  1
  Cu+  Cu24  1  0.41681824  0.59160308  0.81356669  1
  Cu+  Cu25  1  0.57128031  0.64623348  0.47625493  1
  Cu+  Cu26  1  0.41758018  0.32398855  0.81182993  1
  Cu+  Cu27  1  0.06963175  0.42102119  0.47627494  1
  Cu+  Cu28  1  0.73804240  0.76194308  0.14333037  1
  Cu+  Cu29  1  0.57030711  0.91616351  0.47638434  1
  Cu+  Cu30  1  0.18301789  0.59440089  0.81164280  1
  Cu+  Cu31  1  0.85463925  0.92593313  0.47087941  1
  Cu+  Cu32  1  0.68808916  0.59324978  0.80862961  1
  Cu+  Cu33  1  0.06829388  0.64813108  0.47498298  1
  Cu+  Cu34  1  0.56743569  0.14839846  0.47500545  1
  Cu+  Cu35  1  0.18493897  0.08776909  0.80898586  1
  Cu+  Cu36  1  0.16552595  0.08261382  0.17110413  1
  Cu+  Cu37  1  0.16448950  0.58244895  0.17416326  1
  Cu+  Cu38  1  0.66532994  0.08437739  0.17397546  1
  Cu+  Cu39  1  0.66470266  0.58856885  0.17340129  1
  Cu+  Cu40  1  0.41873763  0.33655674  0.17320207  1
  Cu+  Cu41  1  0.41864577  0.83659551  0.17508793  1
  Cu+  Cu42  1  0.92265158  0.33778797  0.17238481  1
  Cu+  Cu43  1  0.91404920  0.83770537  0.17086655  1
  Cu+  Cu44  1  0.42017974  0.08443608  0.17313596  1
  Cu+  Cu45  1  0.41894969  0.58211087  0.17415715  1
  Cu+  Cu46  1  0.92045630  0.08360137  0.16997423  1
  Cu+  Cu47  1  0.92248850  0.58558231  0.17333229  1
  Cu+  Cu48  1  0.49470519  0.24613419  0.50518201  1
  Cu+  Cu49  1  0.49332066  0.74324206  0.50458217  1
  Cu+  Cu50  1  0.99321972  0.24781732  0.50142879  1
  Cu+  Cu51  1  0.99465144  0.74725026  0.50318509  1
  Cu+  Cu52  1  0.24830336  0.00334561  0.50438345  1
  Cu+  Cu53  1  0.24577285  0.50182416  0.50476672  1
  Cu+  Cu54  1  0.75088715  0.00187431  0.49886143  1
  Cu+  Cu55  1  0.74811039  0.50303551  0.50250992  1
  Cu+  Cu56  1  0.25001199  0.24730841  0.50697874  1
  Cu+  Cu57  1  0.24391361  0.74332248  0.50305811  1
  Cu+  Cu58  1  0.74398833  0.24164346  0.49871162  1
  Cu+  Cu59  1  0.75025484  0.74788803  0.50232648  1
  Cu+  Cu60  1  0.32761784  0.41330928  0.83079078  1
  Cu+  Cu61  1  0.32998412  0.91342867  0.83684905  1
  Cu+  Cu62  1  0.83099802  0.41543622  0.83707591  1
  Cu+  Cu63  1  0.83083773  0.91406011  0.83880890  1
  Cu+  Cu64  1  0.08902248  0.16867636  0.83409967  1
  Cu+  Cu65  1  0.08754188  0.67000224  0.83828130  1
  Cu+  Cu66  1  0.58575253  0.16815754  0.83681029  1
  Cu+  Cu67  1  0.59154873  0.67395695  0.83503405  1
  Cu+  Cu68  1  0.08886959  0.41853574  0.83397632  1
  Cu+  Cu69  1  0.08794355  0.91725465  0.83831963  1
  Cu+  Cu70  1  0.59229633  0.41634603  0.83390073  1
  Cu+  Cu71  1  0.58279582  0.91429512  0.83799257  1
  Cu+  Cu72  1  0.16877965  0.08432043  0.67996166  1
  Cu+  Cu73  1  0.16499150  0.58188702  0.68176246  1
  Cu+  Cu74  1  0.66345934  0.07949357  0.67276181  1
  Cu+  Cu75  1  0.66845244  0.58617751  0.67849749  1
  Cu+  Cu76  1  0.41562763  0.32895966  0.67934828  1
  Cu+  Cu77  1  0.41295206  0.82963644  0.67609262  1
  Cu+  Cu78  1  0.91006842  0.32757793  0.67169938  1
  Cu+  Cu79  1  0.91312832  0.83141550  0.67417034  1
  Cu+  Cu80  1  0.41438019  0.08197860  0.67639613  1
  Cu+  Cu81  1  0.41389865  0.58332093  0.68082618  1
  Cu+  Cu82  1  0.91067549  0.08112608  0.67158685  1
  Cu+  Cu83  1  0.91287316  0.58278756  0.67550689  1
  Cu+  Cu84  1  0.00501015  0.25223861  0.00519028  1
  Cu+  Cu85  1  0.00577328  0.75330124  0.00801262  1
  Cu+  Cu86  1  0.50545384  0.25318100  0.00828733  1
  Cu+  Cu87  1  0.50142680  0.74893537  0.01005180  1
  Cu+  Cu88  1  0.25161924  0.49941504  0.00883936  1
  Cu+  Cu89  1  0.25207066  0.99859251  0.00996321  1
  Cu+  Cu90  1  0.75071157  0.49966547  0.00878375  1
  Cu+  Cu91  1  0.75007136  0.99902014  0.00911638  1
  Cu+  Cu92  1  0.25328027  0.25179272  0.00741704  1
  Cu+  Cu93  1  0.24945329  0.75027655  0.01119854  1
  Cu+  Cu94  1  0.75149956  0.25292574  0.00858007  1
  Cu+  Cu95  1  0.74829996  0.75090214  0.01355984  1
  Cu+  Cu96  1  0.33691428  0.41859725  0.34400692  1
  Cu+  Cu97  1  0.33501843  0.91992937  0.34311123  1
  Cu+  Cu98  1  0.83679434  0.42002131  0.34037118  1
  Cu+  Cu99  1  0.83828500  0.91815510  0.34325157  1
  Cu+  Cu100  1  0.08404654  0.16508588  0.34016413  1
  Cu+  Cu101  1  0.08282804  0.66446951  0.34647110  1
  Cu+  Cu102  1  0.58035155  0.16426087  0.34650621  1
  Cu+  Cu103  1  0.58256610  0.66373753  0.34733413  1
  Cu+  Cu104  1  0.08416000  0.42087333  0.34693677  1
  Cu+  Cu105  1  0.08226812  0.91834689  0.33932389  1
  Cu+  Cu106  1  0.58280273  0.41939666  0.34134644  1
  Cu+  Cu107  1  0.58183719  0.91963815  0.34666524  1
  Cu+  Cu108  1  0.00400859  0.00269766  0.11321287  1
  Cu+  Cu109  1  -0.00038632  0.50035433  0.11656999  1
  Cu+  Cu110  1  0.50120084  -0.00024678  0.11866504  1
  Cu+  Cu111  1  0.50010077  0.49788236  0.11752384  1
  Cu+  Cu112  1  0.33001139  0.16717488  0.44913126  1
  Cu+  Cu113  1  0.33122561  0.66732524  0.44773442  1
  Cu+  Cu114  1  0.83386100  0.16820911  0.44074202  1
  Cu+  Cu115  1  0.83300960  0.66462216  0.44534661  1
  Cu+  Cu116  1  0.15947214  0.32878374  0.77597850  1
  Cu+  Cu117  1  0.16363224  0.83178755  0.78180675  1
  Cu+  Cu118  1  0.66973629  0.32787737  0.77935499  1
  Cu+  Cu119  1  0.67073694  0.84191159  0.78185421  1
  Te2-  Te120  1  0.00389557  0.00213380  0.38755679  1
  Te2-  Te121  1  -0.00259196  0.49926407  0.39246508  1
  Te2-  Te122  1  0.49645694  -0.00120195  0.39318708  1
  Te2-  Te123  1  0.49976007  0.49810621  0.39112771  1
  Te2-  Te124  1  0.33459043  0.16458745  0.72451687  1
  Te2-  Te125  1  0.33182134  0.66682597  0.72341101  1
  Te2-  Te126  1  0.82855513  0.16318941  0.71473914  1
  Te2-  Te127  1  0.83465688  0.66843573  0.72054359  1
  Te2-  Te128  1  0.16944931  0.33344752  0.04890201  1
  Te2-  Te129  1  0.16873967  0.83435809  0.05377001  1
  Te2-  Te130  1  0.66963484  0.33542508  0.05231102  1
  Te2-  Te131  1  0.66579700  0.83502353  0.05526405  1
  Te2-  Te132  1  0.49647576  0.24661491  0.88221803  1
  Te2-  Te133  1  0.49418038  0.74708146  0.88394928  1
  Te2-  Te134  1  1.00134154  0.25004256  0.87844847  1
  Te2-  Te135  1  0.99871993  0.74916670  0.88205662  1
  Te2-  Te136  1  0.25837630  0.00759180  0.88382804  1
  Te2-  Te137  1  0.25814240  0.51099465  0.88235504  1
  Te2-  Te138  1  0.75104209  0.00254305  0.88263030  1
  Te2-  Te139  1  0.75905013  0.51028611  0.88293510  1
  Te2-  Te140  1  0.25854495  0.24620029  0.88124482  1
  Te2-  Te141  1  0.25770072  0.74823919  0.88500505  1
  Te2-  Te142  1  0.75349944  0.24834057  0.88218713  1
  Te2-  Te143  1  0.75675641  0.74760194  0.88594650  1
  Te2-  Te144  1  0.32959268  0.41493693  0.21832491  1
  Te2-  Te145  1  0.32965517  0.91656844  0.21756069  1
  Te2-  Te146  1  0.83202582  0.41655196  0.21488786  1
  Te2-  Te147  1  0.82562831  0.91727692  0.21696393  1
  Te2-  Te148  1  0.08752305  0.17260733  0.21475942  1
  Te2-  Te149  1  0.08874750  0.67360453  0.21992379  1
  Te2-  Te150  1  0.58650975  0.17286101  0.21988660  1
  Te2-  Te151  1  0.58527994  0.67702259  0.22050184  1
  Te2-  Te152  1  0.08850511  0.41617845  0.22019049  1
  Te2-  Te153  1  0.08313715  0.91385308  0.21389595  1
  Te2-  Te154  1  0.58763557  0.41916313  0.21584037  1
  Te2-  Te155  1  0.58657555  0.91668877  0.21957498  1
  Te2-  Te156  1  0.16000850  0.08025948  0.55278978  1
  Te2-  Te157  1  0.15231240  0.57621902  0.55316831  1
  Te2-  Te158  1  0.65280037  0.07378221  0.54699706  1
  Te2-  Te159  1  0.65808131  0.57874420  0.55080417  1
  Te2-  Te160  1  0.41787832  0.33590065  0.55165368  1
  Te2-  Te161  1  0.41227605  0.83391176  0.54967692  1
  Te2-  Te162  1  0.91086590  0.33610364  0.54607337  1
  Te2-  Te163  1  0.91996042  0.83980984  0.54850948  1
  Te2-  Te164  1  0.41512244  0.07538716  0.55048128  1
  Te2-  Te165  1  0.41335113  0.57527229  0.55228239  1
  Te2-  Te166  1  0.91918725  0.07999728  0.54599272  1
  Te2-  Te167  1  0.91452748  0.57706824  0.54948856  1
  Te2-  Te168  1  0.00108563  0.00083944  0.88174155  1
  Te2-  Te169  1  0.00087633  0.49913248  0.88137094  1
  Te2-  Te170  1  0.49978865  -0.00030569  0.88137657  1
  Te2-  Te171  1  0.50087408  0.49938253  0.87986845  1
  Te2-  Te172  1  0.33397753  0.16762956  0.21562439  1
  Te2-  Te173  1  0.33392721  0.66693323  0.21747982  1
  Te2-  Te174  1  0.83610020  0.16835162  0.21478336  1
  Te2-  Te175  1  0.83531198  0.66859660  0.21659335  1
  Te2-  Te176  1  0.16240745  0.33070118  0.54882039  1
  Te2-  Te177  1  0.16400946  0.83308803  0.54880898  1
  Te2-  Te178  1  0.66612639  0.33258942  0.54743819  1
  Te2-  Te179  1  0.66457196  0.83276056  0.54902898  1
  Te2-  Te180  1  0.32418624  0.41046125  0.70555539  1
  Te2-  Te181  1  0.32510560  0.91176228  0.71136651  1
  Te2-  Te182  1  0.82696219  0.41291828  0.71056589  1
  Te2-  Te183  1  0.82697485  0.91356099  0.71184516  1
  Te2-  Te184  1  0.08143043  0.17052649  0.70724703  1
  Te2-  Te185  1  0.08292664  0.67239062  0.71083513  1
  Te2-  Te186  1  0.58462372  0.16973386  0.71023500  1
  Te2-  Te187  1  0.58648967  0.67605388  0.70843870  1
  Te2-  Te188  1  0.08038114  0.40850097  0.70723540  1
  Te2-  Te189  1  0.08359812  0.91130169  0.71062525  1
  Te2-  Te190  1  0.58851078  0.41304363  0.70727765  1
  Te2-  Te191  1  0.58292236  0.91106452  0.71115307  1
  Te2-  Te192  1  0.16450302  0.08187362  0.04429855  1
  Te2-  Te193  1  0.16245671  0.58010992  0.04747256  1
  Te2-  Te194  1  0.66324965  0.08256126  0.04681354  1
  Te2-  Te195  1  0.66090324  0.57930731  0.04601945  1
  Te2-  Te196  1  0.42217119  0.33961635  0.04580620  1
  Te2-  Te197  1  0.41999288  0.83782508  0.04815401  1
  Te2-  Te198  1  0.92236220  0.33931760  0.04506922  1
  Te2-  Te199  1  0.92199090  0.84032180  0.04378594  1
  Te2-  Te200  1  0.42260501  0.08279315  0.04662502  1
  Te2-  Te201  1  0.42046310  0.57995472  0.04768127  1
  Te2-  Te202  1  0.92141464  0.08227739  0.04355637  1
  Te2-  Te203  1  0.92104699  0.58371256  0.04668820  1
  Te2-  Te204  1  0.49233603  0.24887695  0.37788849  1
  Te2-  Te205  1  0.49245841  0.74689318  0.37700738  1
  Te2-  Te206  1  0.99522775  0.24687944  0.37456646  1
  Te2-  Te207  1  0.99383675  0.74866018  0.37630049  1
  Te2-  Te208  1  0.25123652  0.00601288  0.37855389  1
  Te2-  Te209  1  0.25592921  0.50780169  0.37860316  1
  Te2-  Te210  1  0.75467431  0.00713293  0.37289846  1
  Te2-  Te211  1  0.75258541  0.50539985  0.37680332  1
  Te2-  Te212  1  0.25259420  0.24825530  0.37994641  1
  Te2-  Te213  1  0.25525305  0.74937921  0.37689196  1
  Te2-  Te214  1  0.75424848  0.24907770  0.37298515  1
  Te2-  Te215  1  0.75524587  0.74668481  0.37549956  1
