# generated using pymatgen
data_Ti(CuTe)4
_symmetry_space_group_name_H-M   'P 1'
_cell_length_a   16.89194682
_cell_length_b   16.89049941
_cell_length_c   20.70891431
_cell_angle_alpha   90.00286825
_cell_angle_beta   89.99691300
_cell_angle_gamma   119.99080386
_symmetry_Int_Tables_number   1
_chemical_formula_structural   Ti(CuTe)4
_chemical_formula_sum   'Ti24 Cu96 Te96'
_cell_volume   5117.41214589
_cell_formula_units_Z   24
loop_
 _symmetry_equiv_pos_site_id
 _symmetry_equiv_pos_as_xyz
  1  'x, y, z'
loop_
 _atom_type_symbol
 _atom_type_oxidation_number
  Ti4+  4.0
  Cu+  1.0
  Te2-  -2.0
loop_
 _atom_site_type_symbol
 _atom_site_label
 _atom_site_symmetry_multiplicity
 _atom_site_fract_x
 _atom_site_fract_y
 _atom_site_fract_z
 _atom_site_occupancy
  Ti4+  Ti0  1  -0.00286867  -0.00116016  0.25547454  1
  Ti4+  Ti1  1  0.00230733  0.49892322  0.25331246  1
  Ti4+  Ti2  1  0.49954941  0.00126206  0.26055222  1
  Ti4+  Ti3  1  0.50065205  0.50104783  0.25804890  1
  Ti4+  Ti4  1  0.33590031  0.16752427  0.59349745  1
  Ti4+  Ti5  1  0.33315907  0.66639474  0.58955466  1
  Ti4+  Ti6  1  0.83356852  0.16731319  0.59218512  1
  Ti4+  Ti7  1  0.82996361  0.66326171  0.59060831  1
  Ti4+  Ti8  1  0.16725859  0.33371246  0.92469798  1
  Ti4+  Ti9  1  0.16681174  0.83617355  0.91976926  1
  Ti4+  Ti10  1  0.66552685  0.33225300  0.93130135  1
  Ti4+  Ti11  1  0.66652447  0.83181671  0.92323912  1
  Ti4+  Ti12  1  -0.00071023  -0.00259666  0.75249163  1
  Ti4+  Ti13  1  0.00000854  0.49969373  0.75591250  1
  Ti4+  Ti14  1  0.50009973  0.00096705  0.75644523  1
  Ti4+  Ti15  1  0.49989123  0.50030537  0.75789724  1
  Ti4+  Ti16  1  0.33369195  0.16629676  0.09013624  1
  Ti4+  Ti17  1  0.33251749  0.66659697  0.08722375  1
  Ti4+  Ti18  1  0.83453141  0.16697779  0.08532035  1
  Ti4+  Ti19  1  0.83296690  0.66850142  0.08704723  1
  Ti4+  Ti20  1  0.16628659  0.33281571  0.42286925  1
  Ti4+  Ti21  1  0.16698982  0.83255813  0.42148477  1
  Ti4+  Ti22  1  0.66698792  0.33473678  0.42220484  1
  Ti4+  Ti23  1  0.66650593  0.83326286  0.42181169  1
  Cu+  Cu24  1  0.17888495  0.09358135  0.81019659  1
  Cu+  Cu25  1  0.01661392  0.25344754  0.13982340  1
  Cu+  Cu26  1  0.74620179  0.25304844  0.14846689  1
  Cu+  Cu27  1  0.58084680  0.15654820  0.48266216  1
  Cu+  Cu28  1  0.57069224  0.42668279  0.47618231  1
  Cu+  Cu29  1  0.24554850  0.48124926  0.13950182  1
  Cu+  Cu30  1  0.90333483  0.80957893  0.80472336  1
  Cu+  Cu31  1  0.35039339  0.92255061  0.47852766  1
  Cu+  Cu32  1  0.74664730  0.49400965  0.14946149  1
  Cu+  Cu33  1  0.73699169  0.76270351  0.13869370  1
  Cu+  Cu34  1  0.51060923  0.25445884  0.15296220  1
  Cu+  Cu35  1  0.41375614  0.09911948  0.81186308  1
  Cu+  Cu36  1  0.16227340  0.08013573  0.17052115  1
  Cu+  Cu37  1  0.16457254  0.57761081  0.16579014  1
  Cu+  Cu38  1  0.66092219  0.08136496  0.16981106  1
  Cu+  Cu39  1  0.66385115  0.58590054  0.16945574  1
  Cu+  Cu40  1  0.42005652  0.33727124  0.17121560  1
  Cu+  Cu41  1  0.41449833  0.83576365  0.17249016  1
  Cu+  Cu42  1  0.92390191  0.33932101  0.16399762  1
  Cu+  Cu43  1  0.91192885  0.83700733  0.16840968  1
  Cu+  Cu44  1  0.41915601  0.08128183  0.17356005  1
  Cu+  Cu45  1  0.41650986  0.58035416  0.17053042  1
  Cu+  Cu46  1  0.92110319  0.08059566  0.16681619  1
  Cu+  Cu47  1  0.92052219  0.58215755  0.16692045  1
  Cu+  Cu48  1  0.49642425  0.24932076  0.50403866  1
  Cu+  Cu49  1  0.49676464  0.74695211  0.50291848  1
  Cu+  Cu50  1  0.99774655  0.25062650  0.50628495  1
  Cu+  Cu51  1  0.99585411  0.74556340  0.50460105  1
  Cu+  Cu52  1  0.25451941  0.00088338  0.50555485  1
  Cu+  Cu53  1  0.25129485  0.50230809  0.50446158  1
  Cu+  Cu54  1  0.75011534  0.00208129  0.50469961  1
  Cu+  Cu55  1  0.74643711  0.50382751  0.50308863  1
  Cu+  Cu56  1  0.25113276  0.24926267  0.50669365  1
  Cu+  Cu57  1  0.25427229  0.74889968  0.50310050  1
  Cu+  Cu58  1  0.75371958  0.24703370  0.50527426  1
  Cu+  Cu59  1  0.74922567  0.74643032  0.50425878  1
  Cu+  Cu60  1  0.33120107  0.41781599  0.83866641  1
  Cu+  Cu61  1  0.33123368  0.92203876  0.83412353  1
  Cu+  Cu62  1  0.83213497  0.41546334  0.84343897  1
  Cu+  Cu63  1  0.82892157  0.90838417  0.83544132  1
  Cu+  Cu64  1  0.08641316  0.17255372  0.83682974  1
  Cu+  Cu65  1  0.08609729  0.67038345  0.83427315  1
  Cu+  Cu66  1  0.58355995  0.17101449  0.84299295  1
  Cu+  Cu67  1  0.58495289  0.66983977  0.83828292  1
  Cu+  Cu68  1  0.08511118  0.41627080  0.83925786  1
  Cu+  Cu69  1  0.08461385  0.91458514  0.83161881  1
  Cu+  Cu70  1  0.58304260  0.41472573  0.84370218  1
  Cu+  Cu71  1  0.58459890  0.91530268  0.83845422  1
  Cu+  Cu72  1  0.17005689  0.08343849  0.67995544  1
  Cu+  Cu73  1  0.16914906  0.58336187  0.67228325  1
  Cu+  Cu74  1  0.67005121  0.08589537  0.67741501  1
  Cu+  Cu75  1  0.66544760  0.58156744  0.67636302  1
  Cu+  Cu76  1  0.41808812  0.33384602  0.67860549  1
  Cu+  Cu77  1  0.41604155  0.83027911  0.67409926  1
  Cu+  Cu78  1  0.91443904  0.32973512  0.67653524  1
  Cu+  Cu79  1  0.91196057  0.82665942  0.67644985  1
  Cu+  Cu80  1  0.41884515  0.08695379  0.68189571  1
  Cu+  Cu81  1  0.41523612  0.58508783  0.67427917  1
  Cu+  Cu82  1  0.91453700  0.08409023  0.67393799  1
  Cu+  Cu83  1  0.91257830  0.58065631  0.67399916  1
  Cu+  Cu84  1  0.00372416  0.25115729  0.01050809  1
  Cu+  Cu85  1  0.00314892  0.75440654  0.00365321  1
  Cu+  Cu86  1  0.50259673  0.24896273  0.01972473  1
  Cu+  Cu87  1  0.50126966  0.75194356  0.00757405  1
  Cu+  Cu88  1  0.24791603  0.49730090  0.01150293  1
  Cu+  Cu89  1  0.24934044  0.99962234  0.00683592  1
  Cu+  Cu90  1  0.74782995  0.49647689  0.01699451  1
  Cu+  Cu91  1  0.74957540  0.99668327  0.00522735  1
  Cu+  Cu92  1  0.24977596  0.25024570  0.00835871  1
  Cu+  Cu93  1  0.25025674  0.75501331  0.00306012  1
  Cu+  Cu94  1  0.74715514  0.24960683  0.01586531  1
  Cu+  Cu95  1  0.74882633  0.75283124  0.01073826  1
  Cu+  Cu96  1  0.33486318  0.41572430  0.34341204  1
  Cu+  Cu97  1  0.33612939  0.91978616  0.34818583  1
  Cu+  Cu98  1  0.83684112  0.41780994  0.34076463  1
  Cu+  Cu99  1  0.83425883  0.91743357  0.34033345  1
  Cu+  Cu100  1  0.08078134  0.16350587  0.34181625  1
  Cu+  Cu101  1  0.08255608  0.66377314  0.33693962  1
  Cu+  Cu102  1  0.58286009  0.16626996  0.35088367  1
  Cu+  Cu103  1  0.58409388  0.66599360  0.34219939  1
  Cu+  Cu104  1  0.08303848  0.41562749  0.33996144  1
  Cu+  Cu105  1  0.07925605  0.91624460  0.33913231  1
  Cu+  Cu106  1  0.58437083  0.42027526  0.34782350  1
  Cu+  Cu107  1  0.58222801  0.91853157  0.34230619  1
  Cu+  Cu108  1  0.00338192  -0.00185924  0.11076932  1
  Cu+  Cu109  1  0.00362040  0.50572263  0.10716059  1
  Cu+  Cu110  1  0.49770924  -0.00522009  0.11578456  1
  Cu+  Cu111  1  0.49820751  0.50058975  0.11385476  1
  Cu+  Cu112  1  0.32634975  0.16312747  0.45050719  1
  Cu+  Cu113  1  0.33249395  0.66400636  0.44595808  1
  Cu+  Cu114  1  0.83676538  0.16506275  0.44931896  1
  Cu+  Cu115  1  0.83688907  0.67018693  0.44705814  1
  Cu+  Cu116  1  0.16781502  0.33747048  0.78135597  1
  Cu+  Cu117  1  0.16780067  0.83010490  0.77484348  1
  Cu+  Cu118  1  0.67042303  0.33852509  0.78923522  1
  Cu+  Cu119  1  0.66348273  0.83358344  0.78030549  1
  Te2-  Te120  1  -0.00171235  -0.00132276  0.38434119  1
  Te2-  Te121  1  0.00223633  0.50005458  0.38176001  1
  Te2-  Te122  1  0.50164574  -0.00000739  0.39249378  1
  Te2-  Te123  1  0.49902340  0.50223838  0.38806306  1
  Te2-  Te124  1  0.33562470  0.17024193  0.72518701  1
  Te2-  Te125  1  0.33228415  0.66628181  0.71860777  1
  Te2-  Te126  1  0.83419015  0.16607873  0.72149259  1
  Te2-  Te127  1  0.82967368  0.66103469  0.72110227  1
  Te2-  Te128  1  0.16866128  0.33151522  0.05700453  1
  Te2-  Te129  1  0.16662822  0.83465438  0.04867022  1
  Te2-  Te130  1  0.66713782  0.33272947  0.06511439  1
  Te2-  Te131  1  0.66444027  0.83492728  0.05416498  1
  Te2-  Te132  1  0.49212200  0.24809659  0.89124466  1
  Te2-  Te133  1  0.49480935  0.74753117  0.88205117  1
  Te2-  Te134  1  0.99614362  0.24771123  0.88345561  1
  Te2-  Te135  1  0.99364850  0.74626191  0.87839192  1
  Te2-  Te136  1  0.25430678  0.01331244  0.88133809  1
  Te2-  Te137  1  0.25222979  0.50516873  0.88482437  1
  Te2-  Te138  1  0.75429647  0.00230685  0.87960416  1
  Te2-  Te139  1  0.75081226  0.50237521  0.88893869  1
  Te2-  Te140  1  0.25657729  0.25002261  0.88286776  1
  Te2-  Te141  1  0.25461809  0.75367093  0.87726507  1
  Te2-  Te142  1  0.75018913  0.24693275  0.88832929  1
  Te2-  Te143  1  0.75143994  0.74183874  0.88432821  1
  Te2-  Te144  1  0.32804072  0.41067520  0.21716268  1
  Te2-  Te145  1  0.32856020  0.91609156  0.22058107  1
  Te2-  Te146  1  0.82627641  0.41153245  0.21499518  1
  Te2-  Te147  1  0.82242872  0.91595882  0.21467166  1
  Te2-  Te148  1  0.08887392  0.17349531  0.21600346  1
  Te2-  Te149  1  0.08719198  0.66890434  0.21070983  1
  Te2-  Te150  1  0.58963800  0.17775511  0.22224306  1
  Te2-  Te151  1  0.58377111  0.67323232  0.21604047  1
  Te2-  Te152  1  0.08947397  0.40965621  0.21400221  1
  Te2-  Te153  1  0.08070632  0.91139995  0.21296976  1
  Te2-  Te154  1  0.59008918  0.41479907  0.22005981  1
  Te2-  Te155  1  0.58371311  0.91590922  0.21596330  1
  Te2-  Te156  1  0.16668404  0.08099607  0.55182674  1
  Te2-  Te157  1  0.16190525  0.58151340  0.54657910  1
  Te2-  Te158  1  0.65869113  0.07738396  0.55173916  1
  Te2-  Te159  1  0.65513550  0.57985196  0.55064966  1
  Te2-  Te160  1  0.41909728  0.33990811  0.55213817  1
  Te2-  Te161  1  0.42443960  0.84129825  0.54873126  1
  Te2-  Te162  1  0.91870319  0.33936980  0.55065904  1
  Te2-  Te163  1  0.91670762  0.83453073  0.54949042  1
  Te2-  Te164  1  0.42404159  0.08023796  0.55364842  1
  Te2-  Te165  1  0.41902453  0.58030881  0.54849988  1
  Te2-  Te166  1  0.91835929  0.08134639  0.54817006  1
  Te2-  Te167  1  0.91406022  0.57663765  0.54788358  1
  Te2-  Te168  1  0.00027300  0.00019928  0.87994297  1
  Te2-  Te169  1  0.00278612  0.50315510  0.88222635  1
  Te2-  Te170  1  0.49918330  -0.00123301  0.88334789  1
  Te2-  Te171  1  0.49930118  0.50154281  0.88427148  1
  Te2-  Te172  1  0.33159638  0.16592261  0.21721515  1
  Te2-  Te173  1  0.33209552  0.66624820  0.21426179  1
  Te2-  Te174  1  0.83508946  0.16720712  0.21300122  1
  Te2-  Te175  1  0.83577822  0.66733163  0.21483632  1
  Te2-  Te176  1  0.16666385  0.33387423  0.54927367  1
  Te2-  Te177  1  0.16543206  0.83025306  0.54847006  1
  Te2-  Te178  1  0.66830256  0.33368349  0.54955642  1
  Te2-  Te179  1  0.66576408  0.83248534  0.54802586  1
  Te2-  Te180  1  0.32863443  0.41543404  0.71233405  1
  Te2-  Te181  1  0.32864180  0.91316534  0.70772229  1
  Te2-  Te182  1  0.82744443  0.41238054  0.71556415  1
  Te2-  Te183  1  0.82591878  0.91321581  0.70872741  1
  Te2-  Te184  1  0.08510890  0.17195329  0.70974789  1
  Te2-  Te185  1  0.08406882  0.66892715  0.70777254  1
  Te2-  Te186  1  0.59028159  0.17566837  0.71543974  1
  Te2-  Te187  1  0.58483479  0.67120635  0.71209707  1
  Te2-  Te188  1  0.08545826  0.41408291  0.71201706  1
  Te2-  Te189  1  0.08558305  0.90987644  0.70505369  1
  Te2-  Te190  1  0.58659997  0.41335604  0.71669257  1
  Te2-  Te191  1  0.58550372  0.91489127  0.71176202  1
  Te2-  Te192  1  0.16233993  0.08132751  0.04400928  1
  Te2-  Te193  1  0.16199537  0.58472369  0.03888208  1
  Te2-  Te194  1  0.65946240  0.07635139  0.04315102  1
  Te2-  Te195  1  0.65804515  0.58016013  0.04259029  1
  Te2-  Te196  1  0.41924565  0.33989200  0.04468977  1
  Te2-  Te197  1  0.41803397  0.83853309  0.04475495  1
  Te2-  Te198  1  0.92140417  0.34198305  0.03821583  1
  Te2-  Te199  1  0.92114433  0.84087092  0.04128752  1
  Te2-  Te200  1  0.41747366  0.07622186  0.04662203  1
  Te2-  Te201  1  0.42061533  0.58172662  0.04318747  1
  Te2-  Te202  1  0.91945868  0.07817876  0.04064142  1
  Te2-  Te203  1  0.92195171  0.58471148  0.04026813  1
  Te2-  Te204  1  0.49111993  0.24747258  0.37751324  1
  Te2-  Te205  1  0.49459982  0.74754989  0.37670505  1
  Te2-  Te206  1  0.99487164  0.24715496  0.37885268  1
  Te2-  Te207  1  0.99605689  0.74646923  0.37691220  1
  Te2-  Te208  1  0.24919020  0.00566289  0.37798997  1
  Te2-  Te209  1  0.25240147  0.50381002  0.37747773  1
  Te2-  Te210  1  0.75234934  0.00551676  0.37803578  1
  Te2-  Te211  1  0.75721228  0.50797266  0.37659488  1
  Te2-  Te212  1  0.25106304  0.24572425  0.37955208  1
  Te2-  Te213  1  0.25195357  0.74558969  0.37553413  1
  Te2-  Te214  1  0.75611691  0.24913192  0.37840363  1
  Te2-  Te215  1  0.75352359  0.74794263  0.37789245  1
