# generated using pymatgen
data_Ti(CuTe)4
_symmetry_space_group_name_H-M   'P 1'
_cell_length_a   16.84695040
_cell_length_b   16.84625158
_cell_length_c   20.64575830
_cell_angle_alpha   89.95083999
_cell_angle_beta   90.03873747
_cell_angle_gamma   120.01576149
_symmetry_Int_Tables_number   1
_chemical_formula_structural   Ti(CuTe)4
_chemical_formula_sum   'Ti24 Cu96 Te96'
_cell_volume   5073.60758884
_cell_formula_units_Z   24
loop_
 _symmetry_equiv_pos_site_id
 _symmetry_equiv_pos_as_xyz
  1  'x, y, z'
loop_
 _atom_type_symbol
 _atom_type_oxidation_number
  Ti4+  4.0
  Cu+  1.0
  Te2-  -2.0
loop_
 _atom_site_type_symbol
 _atom_site_label
 _atom_site_symmetry_multiplicity
 _atom_site_fract_x
 _atom_site_fract_y
 _atom_site_fract_z
 _atom_site_occupancy
  Ti4+  Ti0  1  -0.00394661  -0.00136905  0.25486404  1
  Ti4+  Ti1  1  0.00079542  0.50344950  0.25914931  1
  Ti4+  Ti2  1  0.50237622  0.00327297  0.25646291  1
  Ti4+  Ti3  1  0.50013043  0.49955827  0.25852929  1
  Ti4+  Ti4  1  0.33334120  0.16624595  0.59061814  1
  Ti4+  Ti5  1  0.32892958  0.66480314  0.59349614  1
  Ti4+  Ti6  1  0.83154551  0.16465226  0.59189022  1
  Ti4+  Ti7  1  0.83038131  0.66483823  0.59069703  1
  Ti4+  Ti8  1  0.16950258  0.33454474  0.91983805  1
  Ti4+  Ti9  1  0.16881060  0.83556414  0.92600568  1
  Ti4+  Ti10  1  0.66747330  0.33335348  0.92564997  1
  Ti4+  Ti11  1  0.66906654  0.83614187  0.92486057  1
  Ti4+  Ti12  1  -0.00013097  -0.00064011  0.75649328  1
  Ti4+  Ti13  1  -0.00024879  0.49850614  0.75710554  1
  Ti4+  Ti14  1  0.49978283  -0.00140697  0.75561535  1
  Ti4+  Ti15  1  0.49895376  0.49843386  0.75523101  1
  Ti4+  Ti16  1  0.33472047  0.16661564  0.08837667  1
  Ti4+  Ti17  1  0.33403630  0.66669566  0.09041905  1
  Ti4+  Ti18  1  0.83377125  0.16687401  0.08849578  1
  Ti4+  Ti19  1  0.83523541  0.66755919  0.08594641  1
  Ti4+  Ti20  1  0.16577308  0.33262727  0.42197574  1
  Ti4+  Ti21  1  0.16669944  0.83133664  0.42394430  1
  Ti4+  Ti22  1  0.66681169  0.33526315  0.42129458  1
  Ti4+  Ti23  1  0.66749242  0.83327283  0.42476354  1
  Cu+  Cu24  1  0.18497389  0.59844652  0.81331225  1
  Cu+  Cu25  1  0.01824283  0.76446622  0.14107376  1
  Cu+  Cu26  1  0.19161896  0.09559224  0.80616678  1
  Cu+  Cu27  1  0.90439750  0.09545520  0.80674738  1
  Cu+  Cu28  1  0.73506580  0.98262112  0.14200602  1
  Cu+  Cu29  1  0.24251564  0.76041149  0.14594740  1
  Cu+  Cu30  1  0.56787452  0.42940830  0.47252152  1
  Cu+  Cu31  1  0.74067590  0.26529146  0.14079694  1
  Cu+  Cu32  1  0.06870909  0.64424673  0.48047925  1
  Cu+  Cu33  1  0.41423159  0.59888231  0.80777069  1
  Cu+  Cu34  1  0.73687423  0.75255291  0.14054932  1
  Cu+  Cu35  1  0.06999008  0.42131044  0.47726944  1
  Cu+  Cu36  1  0.16561280  0.08510484  0.16854350  1
  Cu+  Cu37  1  0.16418490  0.58587338  0.17315271  1
  Cu+  Cu38  1  0.66428151  0.08580742  0.16978513  1
  Cu+  Cu39  1  0.66122927  0.58052411  0.17015654  1
  Cu+  Cu40  1  0.41813654  0.33358922  0.17256219  1
  Cu+  Cu41  1  0.41645195  0.83639931  0.17077956  1
  Cu+  Cu42  1  0.91542043  0.33609470  0.17131914  1
  Cu+  Cu43  1  0.91622806  0.83860896  0.16509377  1
  Cu+  Cu44  1  0.41999230  0.08323723  0.16958049  1
  Cu+  Cu45  1  0.41762330  0.57995804  0.17167517  1
  Cu+  Cu46  1  0.91363471  0.07669994  0.16645047  1
  Cu+  Cu47  1  0.92595212  0.58755396  0.16739157  1
  Cu+  Cu48  1  0.49814814  0.25314238  0.50311937  1
  Cu+  Cu49  1  0.49892232  0.74855686  0.50887249  1
  Cu+  Cu50  1  0.99533334  0.24737875  0.50483648  1
  Cu+  Cu51  1  0.99624708  0.74592092  0.50552016  1
  Cu+  Cu52  1  0.25050086  0.00167283  0.50545369  1
  Cu+  Cu53  1  0.24610713  0.50205625  0.50503634  1
  Cu+  Cu54  1  0.75072643  0.00089898  0.50685298  1
  Cu+  Cu55  1  0.74467194  0.50221314  0.50218812  1
  Cu+  Cu56  1  0.24861639  0.24383024  0.50332730  1
  Cu+  Cu57  1  0.24584588  0.74178004  0.50558944  1
  Cu+  Cu58  1  0.74899605  0.24587096  0.50299738  1
  Cu+  Cu59  1  0.74989387  0.74714529  0.50518144  1
  Cu+  Cu60  1  0.33184905  0.41967526  0.83311811  1
  Cu+  Cu61  1  0.33170674  0.91475897  0.83720507  1
  Cu+  Cu62  1  0.83058919  0.41392097  0.84024161  1
  Cu+  Cu63  1  0.83046424  0.91967793  0.83809060  1
  Cu+  Cu64  1  0.08478693  0.16726218  0.83485224  1
  Cu+  Cu65  1  0.08605701  0.67100532  0.84108002  1
  Cu+  Cu66  1  0.58566905  0.16719258  0.83955123  1
  Cu+  Cu67  1  0.58536573  0.66954140  0.83941842  1
  Cu+  Cu68  1  0.09205583  0.42109511  0.83423649  1
  Cu+  Cu69  1  0.09014545  0.92054150  0.83819988  1
  Cu+  Cu70  1  0.58602271  0.41516892  0.83806485  1
  Cu+  Cu71  1  0.58891332  0.91827316  0.83691588  1
  Cu+  Cu72  1  0.17151178  0.08191406  0.67835795  1
  Cu+  Cu73  1  0.16621052  0.58310721  0.68352084  1
  Cu+  Cu74  1  0.66668273  0.08082109  0.67403914  1
  Cu+  Cu75  1  0.66744251  0.58170198  0.67535426  1
  Cu+  Cu76  1  0.41755585  0.33068452  0.67422088  1
  Cu+  Cu77  1  0.41473020  0.83118355  0.67529275  1
  Cu+  Cu78  1  0.91375382  0.32985563  0.67604138  1
  Cu+  Cu79  1  0.91413172  0.82889030  0.67476995  1
  Cu+  Cu80  1  0.41623260  0.08270627  0.67329485  1
  Cu+  Cu81  1  0.41156541  0.58350142  0.67996795  1
  Cu+  Cu82  1  0.91103649  0.08246666  0.67908484  1
  Cu+  Cu83  1  0.91219390  0.58093119  0.67589023  1
  Cu+  Cu84  1  0.00428477  0.25228436  0.00404676  1
  Cu+  Cu85  1  0.00587479  0.74988787  0.01216828  1
  Cu+  Cu86  1  0.50280129  0.25029636  0.00744051  1
  Cu+  Cu87  1  0.50133247  0.74840109  0.00863990  1
  Cu+  Cu88  1  0.25190928  0.49819031  0.00819842  1
  Cu+  Cu89  1  0.25105198  0.99961127  0.00828862  1
  Cu+  Cu90  1  0.75096611  0.49884013  0.00851751  1
  Cu+  Cu91  1  0.75194269  0.99796807  0.01299191  1
  Cu+  Cu92  1  0.25127154  0.25196793  0.00394204  1
  Cu+  Cu93  1  0.24784632  0.74896051  0.01557565  1
  Cu+  Cu94  1  0.75032054  0.25485925  0.01286355  1
  Cu+  Cu95  1  0.74837819  0.75135597  0.01128164  1
  Cu+  Cu96  1  0.33370207  0.41410368  0.34214296  1
  Cu+  Cu97  1  0.33686694  0.91864068  0.34252406  1
  Cu+  Cu98  1  0.83550588  0.41814413  0.34147733  1
  Cu+  Cu99  1  0.83461971  0.91683569  0.34139828  1
  Cu+  Cu100  1  0.08147513  0.16307219  0.33825950  1
  Cu+  Cu101  1  0.08545156  0.66542937  0.34971573  1
  Cu+  Cu102  1  0.58570299  0.16610379  0.34103448  1
  Cu+  Cu103  1  0.58402335  0.66642018  0.34329011  1
  Cu+  Cu104  1  0.08279182  0.41955459  0.34697357  1
  Cu+  Cu105  1  0.08211206  0.91770299  0.34016318  1
  Cu+  Cu106  1  0.58168295  0.42069546  0.34493450  1
  Cu+  Cu107  1  0.58411710  0.91856345  0.34283887  1
  Cu+  Cu108  1  0.00596122  0.00496200  0.10925237  1
  Cu+  Cu109  1  0.00274768  0.49617472  0.11515733  1
  Cu+  Cu110  1  0.50017984  -0.00021915  0.11067484  1
  Cu+  Cu111  1  0.49598449  0.49369329  0.11545890  1
  Cu+  Cu112  1  0.33614912  0.16487291  0.44711013  1
  Cu+  Cu113  1  0.33928799  0.66843182  0.45093427  1
  Cu+  Cu114  1  0.83231041  0.16368423  0.44837666  1
  Cu+  Cu115  1  0.83512421  0.66922581  0.44594408  1
  Cu+  Cu116  1  0.16507869  0.32889682  0.77501412  1
  Cu+  Cu117  1  0.16592418  0.83279726  0.78170062  1
  Cu+  Cu118  1  0.66341279  0.32863130  0.78354801  1
  Cu+  Cu119  1  0.66576803  0.83065786  0.78078473  1
  Te2-  Te120  1  -0.00039635  -0.00036502  0.38382040  1
  Te2-  Te121  1  -0.00327225  0.49880649  0.39146186  1
  Te2-  Te122  1  0.50189580  0.00185386  0.38528063  1
  Te2-  Te123  1  0.49661799  0.50247971  0.38940611  1
  Te2-  Te124  1  0.33836498  0.16747955  0.72157371  1
  Te2-  Te125  1  0.33307730  0.67037806  0.72611200  1
  Te2-  Te126  1  0.82867749  0.16657183  0.72312534  1
  Te2-  Te127  1  0.83157784  0.66510307  0.71997005  1
  Te2-  Te128  1  0.16807783  0.33266284  0.04871177  1
  Te2-  Te129  1  0.17060538  0.83797567  0.05846283  1
  Te2-  Te130  1  0.66512325  0.33639212  0.05717583  1
  Te2-  Te131  1  0.66350002  0.83183555  0.05697000  1
  Te2-  Te132  1  0.49614097  0.24717750  0.88168623  1
  Te2-  Te133  1  0.49579057  0.75095649  0.88318666  1
  Te2-  Te134  1  0.99656162  0.25152511  0.87834393  1
  Te2-  Te135  1  0.99783733  0.75107592  0.88454087  1
  Te2-  Te136  1  0.25891872  0.00912168  0.88271049  1
  Te2-  Te137  1  0.25899967  0.51296806  0.88311134  1
  Te2-  Te138  1  0.75439405  0.01114345  0.88615249  1
  Te2-  Te139  1  0.75370277  0.50549554  0.88302791  1
  Te2-  Te140  1  0.25809511  0.25055032  0.87803709  1
  Te2-  Te141  1  0.25688167  0.74960879  0.88794576  1
  Te2-  Te142  1  0.75389679  0.24692995  0.88632131  1
  Te2-  Te143  1  0.75369463  0.74985473  0.88355445  1
  Te2-  Te144  1  0.32858042  0.41284450  0.21636854  1
  Te2-  Te145  1  0.32764194  0.91701727  0.21707589  1
  Te2-  Te146  1  0.82901779  0.42059544  0.21532287  1
  Te2-  Te147  1  0.81909349  0.90856513  0.21483779  1
  Te2-  Te148  1  0.08121274  0.16965253  0.21233120  1
  Te2-  Te149  1  0.08976601  0.68081384  0.22114233  1
  Te2-  Te150  1  0.58762982  0.17759604  0.21550908  1
  Te2-  Te151  1  0.58477184  0.67394785  0.21716872  1
  Te2-  Te152  1  0.08430157  0.41643005  0.21854171  1
  Te2-  Te153  1  0.08659960  0.91628250  0.21398294  1
  Te2-  Te154  1  0.58762899  0.41535438  0.21766821  1
  Te2-  Te155  1  0.58396933  0.91203516  0.21597841  1
  Te2-  Te156  1  0.16037071  0.07814894  0.55203787  1
  Te2-  Te157  1  0.15090649  0.57434270  0.55521892  1
  Te2-  Te158  1  0.66027942  0.07936027  0.54859902  1
  Te2-  Te159  1  0.65514402  0.58001125  0.55007310  1
  Te2-  Te160  1  0.41621344  0.34048111  0.54846816  1
  Te2-  Te161  1  0.41427121  0.83439816  0.54947986  1
  Te2-  Te162  1  0.91533731  0.33862109  0.55001999  1
  Te2-  Te163  1  0.91895158  0.83668688  0.54878207  1
  Te2-  Te164  1  0.42069100  0.08338193  0.54688195  1
  Te2-  Te165  1  0.41359037  0.57903741  0.55269114  1
  Te2-  Te166  1  0.91935860  0.08057761  0.55191620  1
  Te2-  Te167  1  0.91228167  0.57324045  0.54962431  1
  Te2-  Te168  1  0.00035473  -0.00007562  0.88426875  1
  Te2-  Te169  1  0.00150696  0.49922221  0.88427256  1
  Te2-  Te170  1  0.50070524  -0.00156554  0.88257538  1
  Te2-  Te171  1  0.50040621  0.49869216  0.88256346  1
  Te2-  Te172  1  0.33282854  0.16492809  0.21525916  1
  Te2-  Te173  1  0.33447005  0.66608346  0.21770987  1
  Te2-  Te174  1  0.83473871  0.16623973  0.21631196  1
  Te2-  Te175  1  0.83466894  0.66769951  0.21376217  1
  Te2-  Te176  1  0.16588424  0.33078380  0.54917492  1
  Te2-  Te177  1  0.16614737  0.83220846  0.55110634  1
  Te2-  Te178  1  0.66665326  0.33241546  0.54841359  1
  Te2-  Te179  1  0.66725378  0.83242599  0.55163823  1
  Te2-  Te180  1  0.32629793  0.40998158  0.70699912  1
  Te2-  Te181  1  0.32694451  0.91304971  0.71090229  1
  Te2-  Te182  1  0.82664540  0.41174543  0.71372376  1
  Te2-  Te183  1  0.82632333  0.91022245  0.71148663  1
  Te2-  Te184  1  0.08558071  0.17023967  0.70703081  1
  Te2-  Te185  1  0.08212463  0.67205297  0.71296069  1
  Te2-  Te186  1  0.58627007  0.17038294  0.71169851  1
  Te2-  Te187  1  0.58591017  0.67132480  0.71091620  1
  Te2-  Te188  1  0.08370247  0.40947286  0.70820635  1
  Te2-  Te189  1  0.08352889  0.90991603  0.71131446  1
  Te2-  Te190  1  0.58622197  0.41253845  0.71175177  1
  Te2-  Te191  1  0.58516589  0.91151196  0.71061047  1
  Te2-  Te192  1  0.16385613  0.08266907  0.04133909  1
  Te2-  Te193  1  0.16091443  0.57647637  0.04532342  1
  Te2-  Te194  1  0.66052098  0.08023971  0.04207728  1
  Te2-  Te195  1  0.65998976  0.57836423  0.04324734  1
  Te2-  Te196  1  0.42009030  0.33789756  0.04422247  1
  Te2-  Te197  1  0.42213060  0.83928986  0.04318165  1
  Te2-  Te198  1  0.92361925  0.33969765  0.04360609  1
  Te2-  Te199  1  0.92271949  0.84161176  0.03842544  1
  Te2-  Te200  1  0.42096178  0.08059499  0.04302089  1
  Te2-  Te201  1  0.42043503  0.57992473  0.04543540  1
  Te2-  Te202  1  0.92420216  0.08393780  0.04036457  1
  Te2-  Te203  1  0.92100853  0.57745493  0.04180834  1
  Te2-  Te204  1  0.49461597  0.24633692  0.37548453  1
  Te2-  Te205  1  0.49607174  0.74836571  0.38041844  1
  Te2-  Te206  1  0.99331433  0.24490312  0.37660435  1
  Te2-  Te207  1  0.99446247  0.74847689  0.37735601  1
  Te2-  Te208  1  0.25136757  0.00309720  0.37867597  1
  Te2-  Te209  1  0.25564945  0.50683678  0.37798007  1
  Te2-  Te210  1  0.75350191  0.00470603  0.37940313  1
  Te2-  Te211  1  0.75542120  0.50863903  0.37535575  1
  Te2-  Te212  1  0.25023947  0.24428176  0.37735237  1
  Te2-  Te213  1  0.25794382  0.74887394  0.37876928  1
  Te2-  Te214  1  0.75448363  0.24874864  0.37714775  1
  Te2-  Te215  1  0.75327687  0.74763741  0.37837863  1
