# generated using pymatgen
data_Ti(CuTe)4
_symmetry_space_group_name_H-M   'P 1'
_cell_length_a   16.88310064
_cell_length_b   16.88611650
_cell_length_c   20.70544536
_cell_angle_alpha   90.01789136
_cell_angle_beta   90.01554725
_cell_angle_gamma   119.99267330
_symmetry_Int_Tables_number   1
_chemical_formula_structural   Ti(CuTe)4
_chemical_formula_sum   'Ti24 Cu96 Te96'
_cell_volume   5112.45128766
_cell_formula_units_Z   24
loop_
 _symmetry_equiv_pos_site_id
 _symmetry_equiv_pos_as_xyz
  1  'x, y, z'
loop_
 _atom_type_symbol
 _atom_type_oxidation_number
  Ti4+  4.0
  Cu+  1.0
  Te2-  -2.0
loop_
 _atom_site_type_symbol
 _atom_site_label
 _atom_site_symmetry_multiplicity
 _atom_site_fract_x
 _atom_site_fract_y
 _atom_site_fract_z
 _atom_site_occupancy
  Ti4+  Ti0  1  0.00277642  -0.00097337  0.25883879  1
  Ti4+  Ti1  1  0.00142868  0.49624426  0.25688744  1
  Ti4+  Ti2  1  0.49872862  -0.00181457  0.25532116  1
  Ti4+  Ti3  1  0.50363063  0.49795140  0.25745907  1
  Ti4+  Ti4  1  0.33235094  0.16842540  0.59495277  1
  Ti4+  Ti5  1  0.33091342  0.66552646  0.58898178  1
  Ti4+  Ti6  1  0.83529997  0.16707662  0.59074733  1
  Ti4+  Ti7  1  0.83094556  0.66560411  0.59100055  1
  Ti4+  Ti8  1  0.16754280  0.33482823  0.92808240  1
  Ti4+  Ti9  1  0.16254371  0.83385954  0.92326640  1
  Ti4+  Ti10  1  0.66498046  0.33451495  0.92477660  1
  Ti4+  Ti11  1  0.66715631  0.83799893  0.92122167  1
  Ti4+  Ti12  1  -0.00017670  0.00044939  0.75546982  1
  Ti4+  Ti13  1  -0.00172001  0.50146804  0.75717823  1
  Ti4+  Ti14  1  0.50144732  0.00124931  0.75362099  1
  Ti4+  Ti15  1  0.49830855  0.49989486  0.75599780  1
  Ti4+  Ti16  1  0.33298527  0.16569048  0.08864135  1
  Ti4+  Ti17  1  0.33366349  0.66763478  0.08652888  1
  Ti4+  Ti18  1  0.83498271  0.16957073  0.08856158  1
  Ti4+  Ti19  1  0.83236740  0.66642132  0.08904020  1
  Ti4+  Ti20  1  0.16709087  0.33225923  0.42204822  1
  Ti4+  Ti21  1  0.16816989  0.83178955  0.42270214  1
  Ti4+  Ti22  1  0.66680177  0.33370506  0.42481205  1
  Ti4+  Ti23  1  0.66817709  0.83295133  0.42014394  1
  Cu+  Cu24  1  0.74585228  0.47907081  0.14138814  1
  Cu+  Cu25  1  0.56969868  0.42755412  0.47795235  1
  Cu+  Cu26  1  0.24884227  0.48484751  0.14396049  1
  Cu+  Cu27  1  0.51371907  0.25212428  0.14579267  1
  Cu+  Cu28  1  0.07222427  0.42507401  0.47552221  1
  Cu+  Cu29  1  0.90153264  0.59725887  0.80681629  1
  Cu+  Cu30  1  0.01846318  0.25365309  0.14459633  1
  Cu+  Cu31  1  0.07353547  0.14510673  0.47591431  1
  Cu+  Cu32  1  0.40430947  0.31819989  0.81446716  1
  Cu+  Cu33  1  0.68988758  0.09764959  0.80588892  1
  Cu+  Cu34  1  0.23827649  0.97598139  0.14060026  1
  Cu+  Cu35  1  0.40632283  0.08859099  0.81101320  1
  Cu+  Cu36  1  0.16315343  0.07613217  0.17103686  1
  Cu+  Cu37  1  0.16607573  0.57757905  0.16850977  1
  Cu+  Cu38  1  0.66374989  0.08239647  0.16958988  1
  Cu+  Cu39  1  0.66679513  0.57559747  0.16967894  1
  Cu+  Cu40  1  0.42584108  0.33818245  0.16932577  1
  Cu+  Cu41  1  0.41764971  0.83732476  0.16752357  1
  Cu+  Cu42  1  0.92442224  0.33675081  0.16914752  1
  Cu+  Cu43  1  0.91897085  0.83529129  0.17177257  1
  Cu+  Cu44  1  0.41644649  0.07705985  0.16904937  1
  Cu+  Cu45  1  0.41998231  0.58137209  0.17038866  1
  Cu+  Cu46  1  0.92181735  0.08404605  0.17293845  1
  Cu+  Cu47  1  0.91629503  0.57804310  0.17117631  1
  Cu+  Cu48  1  0.49744623  0.25448207  0.50884090  1
  Cu+  Cu49  1  0.49788692  0.74692084  0.50245368  1
  Cu+  Cu50  1  0.99705316  0.24762976  0.50266184  1
  Cu+  Cu51  1  0.99815923  0.74559763  0.50549563  1
  Cu+  Cu52  1  0.25108719  0.00074112  0.50749802  1
  Cu+  Cu53  1  0.24720842  0.50419103  0.50217319  1
  Cu+  Cu54  1  0.75141892  0.00218001  0.50292862  1
  Cu+  Cu55  1  0.74682736  0.50279385  0.50549992  1
  Cu+  Cu56  1  0.24951398  0.24589310  0.50588553  1
  Cu+  Cu57  1  0.25014512  0.74557847  0.50290360  1
  Cu+  Cu58  1  0.75196595  0.24866545  0.50638179  1
  Cu+  Cu59  1  0.75177353  0.74840107  0.50300725  1
  Cu+  Cu60  1  0.32861470  0.41474590  0.84077298  1
  Cu+  Cu61  1  0.32810122  0.91742650  0.83673277  1
  Cu+  Cu62  1  0.83019409  0.42264804  0.83788668  1
  Cu+  Cu63  1  0.82971628  0.91710724  0.83524117  1
  Cu+  Cu64  1  0.08177732  0.16995966  0.84006929  1
  Cu+  Cu65  1  0.07632654  0.66952699  0.83737837  1
  Cu+  Cu66  1  0.58413163  0.16960953  0.83577351  1
  Cu+  Cu67  1  0.58324106  0.67227730  0.83662547  1
  Cu+  Cu68  1  0.08498939  0.41748308  0.84253928  1
  Cu+  Cu69  1  0.08404306  0.91601954  0.83662928  1
  Cu+  Cu70  1  0.58044956  0.41285363  0.83755152  1
  Cu+  Cu71  1  0.59157886  0.92209934  0.83392304  1
  Cu+  Cu72  1  0.16745153  0.08530266  0.67861808  1
  Cu+  Cu73  1  0.16729261  0.58382507  0.67499085  1
  Cu+  Cu74  1  0.67205598  0.08497796  0.67784388  1
  Cu+  Cu75  1  0.66588266  0.58354248  0.67515628  1
  Cu+  Cu76  1  0.41378769  0.33173388  0.68313519  1
  Cu+  Cu77  1  0.41481542  0.82959036  0.67109294  1
  Cu+  Cu78  1  0.91809859  0.33278539  0.67624965  1
  Cu+  Cu79  1  0.91653897  0.83125922  0.67404455  1
  Cu+  Cu80  1  0.41603947  0.08704360  0.68072349  1
  Cu+  Cu81  1  0.41176040  0.58413921  0.67247698  1
  Cu+  Cu82  1  0.91782220  0.08493953  0.67454408  1
  Cu+  Cu83  1  0.91210756  0.58477560  0.67825074  1
  Cu+  Cu84  1  0.00428316  0.25473249  0.01516529  1
  Cu+  Cu85  1  -0.00144263  0.75205773  0.00845974  1
  Cu+  Cu86  1  0.50001930  0.25088045  0.01476256  1
  Cu+  Cu87  1  0.50378482  0.75589893  0.00370483  1
  Cu+  Cu88  1  0.24997872  0.49858315  0.01372696  1
  Cu+  Cu89  1  0.24672566  0.99704711  0.01220764  1
  Cu+  Cu90  1  0.74679403  0.49887699  0.01282868  1
  Cu+  Cu91  1  0.75007856  1.00154173  0.00584614  1
  Cu+  Cu92  1  0.24868479  0.25120560  0.01109380  1
  Cu+  Cu93  1  0.24774959  0.75363726  0.00512367  1
  Cu+  Cu94  1  0.74962768  0.25254586  0.00822011  1
  Cu+  Cu95  1  0.74765972  0.75532896  0.00608837  1
  Cu+  Cu96  1  0.33813108  0.41624727  0.34229926  1
  Cu+  Cu97  1  0.33511339  0.91697000  0.34093535  1
  Cu+  Cu98  1  0.83535166  0.41435498  0.34253444  1
  Cu+  Cu99  1  0.83787364  0.91923863  0.34173056  1
  Cu+  Cu100  1  0.08481776  0.16215164  0.34704775  1
  Cu+  Cu101  1  0.08400018  0.66173740  0.34012442  1
  Cu+  Cu102  1  0.58035402  0.16213331  0.34223511  1
  Cu+  Cu103  1  0.58605142  0.66414203  0.33965994  1
  Cu+  Cu104  1  0.08436894  0.41587622  0.34608396  1
  Cu+  Cu105  1  0.08528093  0.91662581  0.34396374  1
  Cu+  Cu106  1  0.58437217  0.41667677  0.34832569  1
  Cu+  Cu107  1  0.58257794  0.91702528  0.33833591  1
  Cu+  Cu108  1  -0.00529989  -0.00340691  0.11553398  1
  Cu+  Cu109  1  0.00336642  0.50548099  0.11321812  1
  Cu+  Cu110  1  0.50384427  -0.00182802  0.11026773  1
  Cu+  Cu111  1  0.50376865  0.50582101  0.11357568  1
  Cu+  Cu112  1  0.33485353  0.16283114  0.45226365  1
  Cu+  Cu113  1  0.33783664  0.66890945  0.44492086  1
  Cu+  Cu114  1  0.82932308  0.16441693  0.44708692  1
  Cu+  Cu115  1  0.83767563  0.66890171  0.44809672  1
  Cu+  Cu116  1  0.16302845  0.33442415  0.78548085  1
  Cu+  Cu117  1  0.16795590  0.83157945  0.77949313  1
  Cu+  Cu118  1  0.66782687  0.33452298  0.78069453  1
  Cu+  Cu119  1  0.66652343  0.83106815  0.77682922  1
  Te2-  Te120  1  0.00047169  -0.00406640  0.38932369  1
  Te2-  Te121  1  -0.00014802  0.49852074  0.38698678  1
  Te2-  Te122  1  0.49950725  -0.00270204  0.38431653  1
  Te2-  Te123  1  0.50160701  0.50153228  0.38776120  1
  Te2-  Te124  1  0.33041919  0.16612012  0.72717549  1
  Te2-  Te125  1  0.33172210  0.66733381  0.71833757  1
  Te2-  Te126  1  0.83837610  0.16901730  0.72135970  1
  Te2-  Te127  1  0.82924045  0.66843316  0.72176589  1
  Te2-  Te128  1  0.16963910  0.33376161  0.06071578  1
  Te2-  Te129  1  0.16256696  0.83006472  0.05389902  1
  Te2-  Te130  1  0.66671827  0.33208422  0.05651087  1
  Te2-  Te131  1  0.66651295  0.83779295  0.05052110  1
  Te2-  Te132  1  0.48905433  0.24423131  0.88626164  1
  Te2-  Te133  1  0.49579550  0.75388478  0.87825777  1
  Te2-  Te134  1  0.99599354  0.25016913  0.88798402  1
  Te2-  Te135  1  0.98812208  0.74998216  0.88294147  1
  Te2-  Te136  1  0.24961869  0.00827620  0.88511467  1
  Te2-  Te137  1  0.25319712  0.50579216  0.88671532  1
  Te2-  Te138  1  0.75951502  0.01378168  0.88068840  1
  Te2-  Te139  1  0.74697316  0.50722974  0.88531502  1
  Te2-  Te140  1  0.24926437  0.24365993  0.88560105  1
  Te2-  Te141  1  0.24714173  0.74890610  0.87889761  1
  Te2-  Te142  1  0.75413690  0.25277961  0.88177028  1
  Te2-  Te143  1  0.75125859  0.74996241  0.88035220  1
  Te2-  Te144  1  0.33086025  0.40947883  0.21622441  1
  Te2-  Te145  1  0.32394982  0.90895661  0.21526946  1
  Te2-  Te146  1  0.82822163  0.40716982  0.21642313  1
  Te2-  Te147  1  0.83223639  0.91651169  0.21574396  1
  Te2-  Te148  1  0.09304470  0.17243634  0.21952217  1
  Te2-  Te149  1  0.08540612  0.66538038  0.21358953  1
  Te2-  Te150  1  0.58790153  0.17262117  0.21645098  1
  Te2-  Te151  1  0.58838554  0.66665759  0.21336746  1
  Te2-  Te152  1  0.09178981  0.40963990  0.21838248  1
  Te2-  Te153  1  0.08597527  0.90841154  0.21787941  1
  Te2-  Te154  1  0.59209494  0.40893828  0.22006914  1
  Te2-  Te155  1  0.58534443  0.91383849  0.21227610  1
  Te2-  Te156  1  0.15935699  0.07773016  0.55241194  1
  Te2-  Te157  1  0.15494854  0.57974593  0.54947020  1
  Te2-  Te158  1  0.66388006  0.08117294  0.55083101  1
  Te2-  Te159  1  0.65659892  0.58204085  0.54974945  1
  Te2-  Te160  1  0.41545551  0.34186075  0.55504415  1
  Te2-  Te161  1  0.41843984  0.83646477  0.54552519  1
  Te2-  Te162  1  0.91978681  0.34044862  0.55019469  1
  Te2-  Te163  1  0.91938276  0.83616464  0.54812634  1
  Te2-  Te164  1  0.41912455  0.08554147  0.55296384  1
  Te2-  Te165  1  0.41498966  0.57830429  0.54661463  1
  Te2-  Te166  1  0.91908565  0.07798100  0.54871681  1
  Te2-  Te167  1  0.91487175  0.57811033  0.55116108  1
  Te2-  Te168  1  -0.00208292  -0.00018563  0.88176279  1
  Te2-  Te169  1  -0.00129647  0.50144574  0.88402378  1
  Te2-  Te170  1  0.49882704  -0.00075419  0.88113256  1
  Te2-  Te171  1  0.50031023  0.50334997  0.88286158  1
  Te2-  Te172  1  0.33483004  0.16669877  0.21579181  1
  Te2-  Te173  1  0.33582239  0.66791900  0.21358674  1
  Te2-  Te174  1  0.83325800  0.16668292  0.21551096  1
  Te2-  Te175  1  0.83525017  0.66640306  0.21606074  1
  Te2-  Te176  1  0.16731258  0.33481198  0.54922410  1
  Te2-  Te177  1  0.16693913  0.83089693  0.54925753  1
  Te2-  Te178  1  0.66772444  0.33364110  0.55158860  1
  Te2-  Te179  1  0.66655477  0.83294807  0.54652783  1
  Te2-  Te180  1  0.32480849  0.41582245  0.71327762  1
  Te2-  Te181  1  0.32835979  0.91325220  0.70894613  1
  Te2-  Te182  1  0.82674860  0.41257102  0.71075657  1
  Te2-  Te183  1  0.82877426  0.91437555  0.70919450  1
  Te2-  Te184  1  0.08618312  0.17409042  0.71369558  1
  Te2-  Te185  1  0.08499170  0.67217092  0.71002814  1
  Te2-  Te186  1  0.58930281  0.17553687  0.70848306  1
  Te2-  Te187  1  0.58192647  0.67029207  0.70981499  1
  Te2-  Te188  1  0.08608627  0.41616982  0.71544743  1
  Te2-  Te189  1  0.08626824  0.91404650  0.71116663  1
  Te2-  Te190  1  0.58690582  0.41453231  0.71123441  1
  Te2-  Te191  1  0.58477736  0.91204015  0.70755467  1
  Te2-  Te192  1  0.15832194  0.08090204  0.04501681  1
  Te2-  Te193  1  0.16102493  0.58340458  0.04148872  1
  Te2-  Te194  1  0.66294567  0.08320079  0.04305506  1
  Te2-  Te195  1  0.66061960  0.58497507  0.04278752  1
  Te2-  Te196  1  0.41865203  0.34137859  0.04380156  1
  Te2-  Te197  1  0.41760946  0.83903085  0.04119001  1
  Te2-  Te198  1  0.91948663  0.34318566  0.04320197  1
  Te2-  Te199  1  0.91638886  0.83864880  0.04529644  1
  Te2-  Te200  1  0.41943818  0.07809602  0.04182088  1
  Te2-  Te201  1  0.42368320  0.58546129  0.04228961  1
  Te2-  Te202  1  0.91955276  0.08130734  0.04485186  1
  Te2-  Te203  1  0.91975424  0.58157776  0.04319663  1
  Te2-  Te204  1  0.49390400  0.24481070  0.38092178  1
  Te2-  Te205  1  0.49739027  0.74642611  0.37502765  1
  Te2-  Te206  1  0.99299432  0.24363427  0.37564083  1
  Te2-  Te207  1  0.99713312  0.74507584  0.37811792  1
  Te2-  Te208  1  0.25441953  0.00457910  0.38064886  1
  Te2-  Te209  1  0.25687618  0.50551140  0.37573451  1
  Te2-  Te210  1  0.75267431  0.00480166  0.37630279  1
  Te2-  Te211  1  0.75698635  0.50584285  0.37853610  1
  Te2-  Te212  1  0.25711831  0.24726089  0.37952245  1
  Te2-  Te213  1  0.25349045  0.74623378  0.37664224  1
  Te2-  Te214  1  0.75030760  0.24548067  0.37975949  1
  Te2-  Te215  1  0.75567588  0.74809961  0.37670911  1
