# generated using pymatgen
data_Ti(CuTe)4
_symmetry_space_group_name_H-M   'P 1'
_cell_length_a   16.88699799
_cell_length_b   16.88482006
_cell_length_c   20.70457647
_cell_angle_alpha   89.98577091
_cell_angle_beta   89.98569127
_cell_angle_gamma   120.00311939
_symmetry_Int_Tables_number   1
_chemical_formula_structural   Ti(CuTe)4
_chemical_formula_sum   'Ti24 Cu96 Te96'
_cell_volume   5112.48639433
_cell_formula_units_Z   24
loop_
 _symmetry_equiv_pos_site_id
 _symmetry_equiv_pos_as_xyz
  1  'x, y, z'
loop_
 _atom_type_symbol
 _atom_type_oxidation_number
  Ti4+  4.0
  Cu+  1.0
  Te2-  -2.0
loop_
 _atom_site_type_symbol
 _atom_site_label
 _atom_site_symmetry_multiplicity
 _atom_site_fract_x
 _atom_site_fract_y
 _atom_site_fract_z
 _atom_site_occupancy
  Ti4+  Ti0  1  -0.00167840  -0.00002609  0.25701580  1
  Ti4+  Ti1  1  0.00022194  0.49950597  0.25774576  1
  Ti4+  Ti2  1  0.49815247  -0.00028668  0.25824325  1
  Ti4+  Ti3  1  0.50067580  0.50244649  0.26333217  1
  Ti4+  Ti4  1  0.33313485  0.16808891  0.58996285  1
  Ti4+  Ti5  1  0.33097363  0.66643658  0.59192258  1
  Ti4+  Ti6  1  0.83067471  0.16325525  0.58929686  1
  Ti4+  Ti7  1  0.83369159  0.66605865  0.58980385  1
  Ti4+  Ti8  1  0.17143556  0.33642951  0.92239953  1
  Ti4+  Ti9  1  0.16617523  0.83405486  0.92180060  1
  Ti4+  Ti10  1  0.66937979  0.33219647  0.92439979  1
  Ti4+  Ti11  1  0.66827476  0.83260930  0.92546953  1
  Ti4+  Ti12  1  0.00022788  -0.00171806  0.75479810  1
  Ti4+  Ti13  1  -0.00081680  0.49942789  0.75362786  1
  Ti4+  Ti14  1  0.50125295  0.00026913  0.75445452  1
  Ti4+  Ti15  1  0.49851520  0.49961405  0.75561419  1
  Ti4+  Ti16  1  0.33455522  0.16689030  0.08958340  1
  Ti4+  Ti17  1  0.33357793  0.66687695  0.09114946  1
  Ti4+  Ti18  1  0.83500609  0.16640386  0.08800836  1
  Ti4+  Ti19  1  0.83361292  0.66776008  0.09066791  1
  Ti4+  Ti20  1  0.16653639  0.33290510  0.42143923  1
  Ti4+  Ti21  1  0.16413666  0.83074530  0.42210837  1
  Ti4+  Ti22  1  0.66529814  0.33264585  0.41958898  1
  Ti4+  Ti23  1  0.66756949  0.83664646  0.42164225  1
  Cu+  Cu24  1  0.90462197  0.80829636  0.80599884  1
  Cu+  Cu25  1  0.34370709  0.42325461  0.48271954  1
  Cu+  Cu26  1  0.69162826  0.09495035  0.80765946  1
  Cu+  Cu27  1  0.57022295  0.92735789  0.47290091  1
  Cu+  Cu28  1  0.18322578  0.59445283  0.81038315  1
  Cu+  Cu29  1  0.58049864  0.66295313  0.48529786  1
  Cu+  Cu30  1  0.85491271  0.92810945  0.47298293  1
  Cu+  Cu31  1  0.41255023  0.59541176  0.81360080  1
  Cu+  Cu32  1  0.73627741  0.76051225  0.14510995  1
  Cu+  Cu33  1  0.06888548  0.63969512  0.47296942  1
  Cu+  Cu34  1  0.57634330  0.42228767  0.47864722  1
  Cu+  Cu35  1  0.19023516  0.09546713  0.80580919  1
  Cu+  Cu36  1  0.16449028  0.08188837  0.17114404  1
  Cu+  Cu37  1  0.16335679  0.58375094  0.17297694  1
  Cu+  Cu38  1  0.66432035  0.08074889  0.17184508  1
  Cu+  Cu39  1  0.66429443  0.58718274  0.17551050  1
  Cu+  Cu40  1  0.41773213  0.33498035  0.17543726  1
  Cu+  Cu41  1  0.41782610  0.83655060  0.17359230  1
  Cu+  Cu42  1  0.91942112  0.33573941  0.17075817  1
  Cu+  Cu43  1  0.91196264  0.83655098  0.17174028  1
  Cu+  Cu44  1  0.41661021  0.08050805  0.17156128  1
  Cu+  Cu45  1  0.41763366  0.58197190  0.17621936  1
  Cu+  Cu46  1  0.91826398  0.08157487  0.16973991  1
  Cu+  Cu47  1  0.92037011  0.58300596  0.17277558  1
  Cu+  Cu48  1  0.49441137  0.24937438  0.50102782  1
  Cu+  Cu49  1  0.49439726  0.75135480  0.50381985  1
  Cu+  Cu50  1  0.99541278  0.24572899  0.50275267  1
  Cu+  Cu51  1  0.99641295  0.74395539  0.50327164  1
  Cu+  Cu52  1  0.24909150  0.00231673  0.50465976  1
  Cu+  Cu53  1  0.25160693  0.50425262  0.50411439  1
  Cu+  Cu54  1  0.75003533  0.00399846  0.50166314  1
  Cu+  Cu55  1  0.75002762  0.50290968  0.50095856  1
  Cu+  Cu56  1  0.25246878  0.24865635  0.50301444  1
  Cu+  Cu57  1  0.24361255  0.74281742  0.50435367  1
  Cu+  Cu58  1  0.74641105  0.24334213  0.50179800  1
  Cu+  Cu59  1  0.75708635  0.75234898  0.50233919  1
  Cu+  Cu60  1  0.32973727  0.41913027  0.83529034  1
  Cu+  Cu61  1  0.33026597  0.91640006  0.83474648  1
  Cu+  Cu62  1  0.82874196  0.41347837  0.83680129  1
  Cu+  Cu63  1  0.83100712  0.90801759  0.83756725  1
  Cu+  Cu64  1  0.09116248  0.16954277  0.83653247  1
  Cu+  Cu65  1  0.08665789  0.67142733  0.83529674  1
  Cu+  Cu66  1  0.59050977  0.16906837  0.83664309  1
  Cu+  Cu67  1  0.58551932  0.67051962  0.83888602  1
  Cu+  Cu68  1  0.08919919  0.41997119  0.83506523  1
  Cu+  Cu69  1  0.08401373  0.91496358  0.83457209  1
  Cu+  Cu70  1  0.58577228  0.41473863  0.83930870  1
  Cu+  Cu71  1  0.58897638  0.91927231  0.83712004  1
  Cu+  Cu72  1  0.17058763  0.08578147  0.67683704  1
  Cu+  Cu73  1  0.16723152  0.58281523  0.68003801  1
  Cu+  Cu74  1  0.66837348  0.08184131  0.67822963  1
  Cu+  Cu75  1  0.66679265  0.58325979  0.67593229  1
  Cu+  Cu76  1  0.41532273  0.33235732  0.67657444  1
  Cu+  Cu77  1  0.41482050  0.83209617  0.67488979  1
  Cu+  Cu78  1  0.91127083  0.32840346  0.67301910  1
  Cu+  Cu79  1  0.91434635  0.82898375  0.67722219  1
  Cu+  Cu80  1  0.41649438  0.08587755  0.67255801  1
  Cu+  Cu81  1  0.41451997  0.58410222  0.68270938  1
  Cu+  Cu82  1  0.91278860  0.08010617  0.67376293  1
  Cu+  Cu83  1  0.91403163  0.58167827  0.67441417  1
  Cu+  Cu84  1  0.00665989  0.25301170  0.00595190  1
  Cu+  Cu85  1  0.00242622  0.75164546  0.00697939  1
  Cu+  Cu86  1  0.50520348  0.25111784  0.00817232  1
  Cu+  Cu87  1  0.50178391  0.74983522  0.01115188  1
  Cu+  Cu88  1  0.25146089  0.50080699  0.01056234  1
  Cu+  Cu89  1  0.24954399  0.99933982  0.00687493  1
  Cu+  Cu90  1  0.74932867  0.49603023  0.00983575  1
  Cu+  Cu91  1  0.75182102  0.99860758  0.00823603  1
  Cu+  Cu92  1  0.25361612  0.25357054  0.00736764  1
  Cu+  Cu93  1  0.24917400  0.75141805  0.00853065  1
  Cu+  Cu94  1  0.75041379  0.24945717  0.00846745  1
  Cu+  Cu95  1  0.74815131  0.74974189  0.01454439  1
  Cu+  Cu96  1  0.33650089  0.41774726  0.35040155  1
  Cu+  Cu97  1  0.33400865  0.91666275  0.34190863  1
  Cu+  Cu98  1  0.83569613  0.41629772  0.33958181  1
  Cu+  Cu99  1  0.83637070  0.92085135  0.34467141  1
  Cu+  Cu100  1  0.08126557  0.16410022  0.34045420  1
  Cu+  Cu101  1  0.07975434  0.66071235  0.34566085  1
  Cu+  Cu102  1  0.58095491  0.16403748  0.33976071  1
  Cu+  Cu103  1  0.58281967  0.66665401  0.35130291  1
  Cu+  Cu104  1  0.08236473  0.41733454  0.34029284  1
  Cu+  Cu105  1  0.07964733  0.91618827  0.33947284  1
  Cu+  Cu106  1  0.58176051  0.41927699  0.34776462  1
  Cu+  Cu107  1  0.58101344  0.92130751  0.34500445  1
  Cu+  Cu108  1  0.00356099  0.00143561  0.11385773  1
  Cu+  Cu109  1  -0.00033947  0.49909730  0.11498771  1
  Cu+  Cu110  1  0.50082761  0.00049590  0.11581172  1
  Cu+  Cu111  1  0.49888489  0.49696854  0.12099411  1
  Cu+  Cu112  1  0.33037178  0.16101424  0.44546231  1
  Cu+  Cu113  1  0.33037401  0.66689882  0.44701279  1
  Cu+  Cu114  1  0.83570975  0.17321268  0.44430113  1
  Cu+  Cu115  1  0.83405508  0.66553752  0.44456961  1
  Cu+  Cu116  1  0.16015858  0.32912701  0.77892442  1
  Cu+  Cu117  1  0.16840951  0.83438150  0.77721197  1
  Cu+  Cu118  1  0.66319168  0.33266822  0.78139138  1
  Cu+  Cu119  1  0.66676839  0.83386759  0.78208336  1
  Te2-  Te120  1  0.00252936  0.00125534  0.38809241  1
  Te2-  Te121  1  -0.00262488  0.49432543  0.38922208  1
  Te2-  Te122  1  0.49658268  0.00248276  0.38979141  1
  Te2-  Te123  1  0.50079853  0.50218445  0.39731119  1
  Te2-  Te124  1  0.33664553  0.16828457  0.72015461  1
  Te2-  Te125  1  0.33338213  0.66973046  0.72360576  1
  Te2-  Te126  1  0.83507821  0.16548753  0.71998829  1
  Te2-  Te127  1  0.83107874  0.66241255  0.71997580  1
  Te2-  Te128  1  0.17041265  0.33498046  0.05106491  1
  Te2-  Te129  1  0.16690038  0.83461581  0.05025697  1
  Te2-  Te130  1  0.66873886  0.33158112  0.05344836  1
  Te2-  Te131  1  0.66647776  0.83498863  0.05554850  1
  Te2-  Te132  1  0.49845062  0.24577982  0.88182106  1
  Te2-  Te133  1  0.49567659  0.75146979  0.88471647  1
  Te2-  Te134  1  1.00232726  0.25092550  0.87916489  1
  Te2-  Te135  1  0.99277873  0.74444122  0.88106741  1
  Te2-  Te136  1  0.25454584  0.00734424  0.88073653  1
  Te2-  Te137  1  0.25771613  0.51461118  0.88441130  1
  Te2-  Te138  1  0.75855838  0.00455316  0.88201666  1
  Te2-  Te139  1  0.75365230  0.50463202  0.88373736  1
  Te2-  Te140  1  0.26084128  0.25249796  0.88144546  1
  Te2-  Te141  1  0.25656448  0.75051505  0.88233575  1
  Te2-  Te142  1  0.75947485  0.24730846  0.88287472  1
  Te2-  Te143  1  0.75102910  0.74132617  0.88670583  1
  Te2-  Te144  1  0.33018775  0.41490939  0.22232648  1
  Te2-  Te145  1  0.32648372  0.91318382  0.21646641  1
  Te2-  Te146  1  0.82917336  0.41400926  0.21415741  1
  Te2-  Te147  1  0.82349359  0.91640778  0.21808279  1
  Te2-  Te148  1  0.08535873  0.17117853  0.21479274  1
  Te2-  Te149  1  0.08607906  0.67264379  0.21942934  1
  Te2-  Te150  1  0.58504401  0.17031653  0.21435546  1
  Te2-  Te151  1  0.58437415  0.67590798  0.22277690  1
  Te2-  Te152  1  0.08720484  0.41511553  0.21498869  1
  Te2-  Te153  1  0.08135891  0.91277877  0.21373229  1
  Te2-  Te154  1  0.58609947  0.41861615  0.22029307  1
  Te2-  Te155  1  0.58511862  0.91406948  0.21864983  1
  Te2-  Te156  1  0.16188294  0.08266758  0.54984959  1
  Te2-  Te157  1  0.15797801  0.57549163  0.55237876  1
  Te2-  Te158  1  0.65622440  0.07796232  0.55092968  1
  Te2-  Te159  1  0.65836823  0.58044150  0.55010326  1
  Te2-  Te160  1  0.42196737  0.34516495  0.55107301  1
  Te2-  Te161  1  0.41314531  0.83796630  0.54890037  1
  Te2-  Te162  1  0.91456860  0.33333325  0.54689732  1
  Te2-  Te163  1  0.92368931  0.83896497  0.54998631  1
  Te2-  Te164  1  0.41848591  0.08304780  0.54659686  1
  Te2-  Te165  1  0.42100851  0.58093183  0.55421236  1
  Te2-  Te166  1  0.92001090  0.07862449  0.54828812  1
  Te2-  Te167  1  0.91513433  0.57475040  0.54858556  1
  Te2-  Te168  1  0.00104620  0.00069355  0.88225766  1
  Te2-  Te169  1  0.00014125  0.50085103  0.88063933  1
  Te2-  Te170  1  0.49935153  -0.00057890  0.88138395  1
  Te2-  Te171  1  0.50029923  0.49955743  0.88244368  1
  Te2-  Te172  1  0.33249362  0.16513336  0.21597747  1
  Te2-  Te173  1  0.33218284  0.66737462  0.21751118  1
  Te2-  Te174  1  0.83411918  0.16651905  0.21408454  1
  Te2-  Te175  1  0.83501483  0.66732700  0.21750753  1
  Te2-  Te176  1  0.16502896  0.33247545  0.54861745  1
  Te2-  Te177  1  0.16515549  0.83353148  0.54903687  1
  Te2-  Te178  1  0.66526302  0.33209452  0.54676615  1
  Te2-  Te179  1  0.66692708  0.83352534  0.55029181  1
  Te2-  Te180  1  0.32447191  0.41121599  0.70969004  1
  Te2-  Te181  1  0.32904502  0.91622108  0.70882907  1
  Te2-  Te182  1  0.82604648  0.41207521  0.71085976  1
  Te2-  Te183  1  0.82608204  0.91171657  0.71075986  1
  Te2-  Te184  1  0.08343700  0.17052271  0.70891659  1
  Te2-  Te185  1  0.08422101  0.67278238  0.70846218  1
  Te2-  Te186  1  0.58606954  0.17253929  0.70928520  1
  Te2-  Te187  1  0.58769170  0.67354582  0.71165762  1
  Te2-  Te188  1  0.08209276  0.40977723  0.70806700  1
  Te2-  Te189  1  0.08712194  0.91293413  0.70722781  1
  Te2-  Te190  1  0.58515265  0.41361631  0.71214235  1
  Te2-  Te191  1  0.58437263  0.90994209  0.71003713  1
  Te2-  Te192  1  0.16379066  0.08316217  0.04392957  1
  Te2-  Te193  1  0.16214725  0.58190036  0.04625640  1
  Te2-  Te194  1  0.66251423  0.07946569  0.04492953  1
  Te2-  Te195  1  0.66051352  0.57761126  0.04786370  1
  Te2-  Te196  1  0.42265810  0.33885518  0.04749431  1
  Te2-  Te197  1  0.41916642  0.83826295  0.04668959  1
  Te2-  Te198  1  0.92145494  0.33806442  0.04386038  1
  Te2-  Te199  1  0.92111166  0.83972703  0.04440091  1
  Te2-  Te200  1  0.41946408  0.08063295  0.04476660  1
  Te2-  Te201  1  0.42052235  0.58059384  0.04948005  1
  Te2-  Te202  1  0.92266424  0.08229040  0.04330868  1
  Te2-  Te203  1  0.91982906  0.58226208  0.04620760  1
  Te2-  Te204  1  0.49201960  0.24554097  0.37453233  1
  Te2-  Te205  1  0.49197759  0.74878956  0.37708456  1
  Te2-  Te206  1  0.99510133  0.24743304  0.37642691  1
  Te2-  Te207  1  0.99272285  0.74685589  0.37620476  1
  Te2-  Te208  1  0.24915230  0.00208501  0.37748248  1
  Te2-  Te209  1  0.25180366  0.50672171  0.37746151  1
  Te2-  Te210  1  0.75353353  0.01029641  0.37522230  1
  Te2-  Te211  1  0.75512605  0.50607829  0.37456163  1
  Te2-  Te212  1  0.25104554  0.24413619  0.37656638  1
  Te2-  Te213  1  0.25234702  0.74674496  0.37744824  1
  Te2-  Te214  1  0.75074955  0.24615411  0.37543039  1
  Te2-  Te215  1  0.75552855  0.74890734  0.37580116  1
