# generated using pymatgen
data_Ti(CuTe)4
_symmetry_space_group_name_H-M   'P 1'
_cell_length_a   16.85940699
_cell_length_b   16.86184562
_cell_length_c   20.66636335
_cell_angle_alpha   90.00799695
_cell_angle_beta   90.01481555
_cell_angle_gamma   120.00546568
_symmetry_Int_Tables_number   1
_chemical_formula_structural   Ti(CuTe)4
_chemical_formula_sum   'Ti24 Cu96 Te96'
_cell_volume   5087.66068470
_cell_formula_units_Z   24
loop_
 _symmetry_equiv_pos_site_id
 _symmetry_equiv_pos_as_xyz
  1  'x, y, z'
loop_
 _atom_type_symbol
 _atom_type_oxidation_number
  Ti4+  4.0
  Cu+  1.0
  Te2-  -2.0
loop_
 _atom_site_type_symbol
 _atom_site_label
 _atom_site_symmetry_multiplicity
 _atom_site_fract_x
 _atom_site_fract_y
 _atom_site_fract_z
 _atom_site_occupancy
  Ti4+  Ti0  1  0.00163856  -0.00257494  0.25824145  1
  Ti4+  Ti1  1  -0.00325707  0.49935317  0.26056270  1
  Ti4+  Ti2  1  0.50011077  0.00157010  0.25763338  1
  Ti4+  Ti3  1  0.50047859  0.50109647  0.25925422  1
  Ti4+  Ti4  1  0.33181180  0.16760661  0.58767435  1
  Ti4+  Ti5  1  0.33129155  0.66495940  0.58882707  1
  Ti4+  Ti6  1  0.83114901  0.16572905  0.58786336  1
  Ti4+  Ti7  1  0.83276941  0.66713511  0.59699715  1
  Ti4+  Ti8  1  0.16580543  0.33506758  0.92223887  1
  Ti4+  Ti9  1  0.16904570  0.83323967  0.92482510  1
  Ti4+  Ti10  1  0.66920960  0.33236438  0.92522346  1
  Ti4+  Ti11  1  0.66716810  0.83278096  0.92488931  1
  Ti4+  Ti12  1  -0.00151290  -0.00029313  0.75368016  1
  Ti4+  Ti13  1  0.00119378  0.49802392  0.75278021  1
  Ti4+  Ti14  1  0.49976319  0.00074396  0.75764751  1
  Ti4+  Ti15  1  0.50084364  0.50171811  0.75343274  1
  Ti4+  Ti16  1  0.33256705  0.16485897  0.08932435  1
  Ti4+  Ti17  1  0.33462889  0.66599354  0.09062580  1
  Ti4+  Ti18  1  0.83372081  0.16951338  0.09158175  1
  Ti4+  Ti19  1  0.83458855  0.66676665  0.08933443  1
  Ti4+  Ti20  1  0.16702316  0.33403000  0.42015371  1
  Ti4+  Ti21  1  0.16644432  0.83287813  0.42377786  1
  Ti4+  Ti22  1  0.66661720  0.33334219  0.42332576  1
  Ti4+  Ti23  1  0.66700008  0.83458766  0.42202002  1
  Cu+  Cu24  1  0.07107947  0.14626595  0.47120987  1
  Cu+  Cu25  1  0.18887236  0.59454608  0.80573241  1
  Cu+  Cu26  1  0.91575597  0.58398606  0.81775246  1
  Cu+  Cu27  1  0.57109010  0.14904730  0.47459104  1
  Cu+  Cu28  1  0.23790381  0.97386783  0.14117921  1
  Cu+  Cu29  1  0.07092357  0.42685673  0.47380557  1
  Cu+  Cu30  1  0.35411012  0.42772492  0.47221042  1
  Cu+  Cu31  1  0.67994283  0.58943261  0.81376601  1
  Cu+  Cu32  1  0.73570629  0.26433046  0.14343423  1
  Cu+  Cu33  1  0.56781349  0.92190336  0.47266715  1
  Cu+  Cu34  1  0.90543561  0.30989709  0.80472136  1
  Cu+  Cu35  1  0.91329326  0.82237378  0.81514351  1
  Cu+  Cu36  1  0.16401255  0.07562163  0.17154468  1
  Cu+  Cu37  1  0.16516989  0.58198206  0.17505602  1
  Cu+  Cu38  1  0.66507316  0.08802355  0.17329247  1
  Cu+  Cu39  1  0.66481751  0.58246970  0.17283849  1
  Cu+  Cu40  1  0.41799445  0.33743801  0.17286757  1
  Cu+  Cu41  1  0.42057610  0.83560087  0.17219096  1
  Cu+  Cu42  1  0.91172619  0.33729567  0.17403340  1
  Cu+  Cu43  1  0.91929092  0.83639667  0.17092118  1
  Cu+  Cu44  1  0.41486950  0.07841117  0.17026970  1
  Cu+  Cu45  1  0.41888803  0.58150860  0.17356792  1
  Cu+  Cu46  1  0.91930815  0.08254912  0.17368301  1
  Cu+  Cu47  1  0.91843489  0.58261852  0.17267900  1
  Cu+  Cu48  1  0.49639695  0.24705233  0.50236810  1
  Cu+  Cu49  1  0.49665796  0.75054610  0.50199904  1
  Cu+  Cu50  1  0.99620744  0.24913771  0.50028886  1
  Cu+  Cu51  1  0.99814047  0.74950203  0.51112678  1
  Cu+  Cu52  1  0.25066640  0.00305659  0.50231052  1
  Cu+  Cu53  1  0.25031426  0.50331062  0.50039527  1
  Cu+  Cu54  1  0.74561102  0.00192922  0.49992519  1
  Cu+  Cu55  1  0.75069390  0.50372798  0.51036476  1
  Cu+  Cu56  1  0.25144282  0.24842326  0.49911004  1
  Cu+  Cu57  1  0.24857891  0.74669097  0.50366497  1
  Cu+  Cu58  1  0.74726387  0.24461045  0.50173186  1
  Cu+  Cu59  1  0.75172396  0.74885990  0.50907586  1
  Cu+  Cu60  1  0.32966201  0.41611607  0.83462439  1
  Cu+  Cu61  1  0.33189598  0.91738856  0.83994750  1
  Cu+  Cu62  1  0.82651196  0.40695566  0.83400728  1
  Cu+  Cu63  1  0.82884685  0.91411249  0.83527831  1
  Cu+  Cu64  1  0.08515179  0.17106961  0.83454354  1
  Cu+  Cu65  1  0.09306689  0.67390643  0.83325806  1
  Cu+  Cu66  1  0.58790883  0.16925707  0.83995777  1
  Cu+  Cu67  1  0.58642262  0.67142097  0.83527576  1
  Cu+  Cu68  1  0.08613251  0.41345670  0.83107218  1
  Cu+  Cu69  1  0.08733567  0.91852461  0.83769731  1
  Cu+  Cu70  1  0.58360883  0.41554491  0.83667390  1
  Cu+  Cu71  1  0.58407960  0.91498514  0.83976671  1
  Cu+  Cu72  1  0.16786465  0.08619348  0.67139302  1
  Cu+  Cu73  1  0.16952106  0.58237503  0.67701360  1
  Cu+  Cu74  1  0.66547032  0.08378114  0.67564356  1
  Cu+  Cu75  1  0.66932935  0.58562082  0.68268642  1
  Cu+  Cu76  1  0.41466346  0.33194433  0.67150832  1
  Cu+  Cu77  1  0.41409764  0.83259586  0.67485789  1
  Cu+  Cu78  1  0.91483195  0.32887849  0.67553011  1
  Cu+  Cu79  1  0.91548912  0.83137593  0.68325112  1
  Cu+  Cu80  1  0.41631557  0.08614113  0.67472514  1
  Cu+  Cu81  1  0.41516745  0.58377677  0.67213871  1
  Cu+  Cu82  1  0.91538809  0.08435541  0.67102208  1
  Cu+  Cu83  1  0.91582383  0.58299017  0.68418212  1
  Cu+  Cu84  1  0.00220293  0.25282720  0.00747567  1
  Cu+  Cu85  1  0.00135785  0.74958003  0.01006980  1
  Cu+  Cu86  1  0.50167517  0.25180036  0.00894226  1
  Cu+  Cu87  1  0.50357855  0.74905021  0.00839825  1
  Cu+  Cu88  1  0.24898054  0.49851275  0.00704597  1
  Cu+  Cu89  1  0.24802749  0.99572693  0.01307350  1
  Cu+  Cu90  1  0.75196464  0.49944919  0.01068442  1
  Cu+  Cu91  1  0.75055278  0.99764098  0.00868013  1
  Cu+  Cu92  1  0.24932796  0.25219804  0.00592843  1
  Cu+  Cu93  1  0.25163946  0.74971222  0.00985168  1
  Cu+  Cu94  1  0.75061910  0.25282838  0.01480930  1
  Cu+  Cu95  1  0.75034332  0.75061446  0.01069580  1
  Cu+  Cu96  1  0.33962025  0.42172208  0.34443741  1
  Cu+  Cu97  1  0.33262923  0.91531252  0.34124499  1
  Cu+  Cu98  1  0.83374870  0.41930591  0.34500896  1
  Cu+  Cu99  1  0.83629531  0.91508468  0.34112703  1
  Cu+  Cu100  1  0.08193906  0.16018100  0.34283991  1
  Cu+  Cu101  1  0.08098195  0.66426348  0.34357508  1
  Cu+  Cu102  1  0.58362905  0.16606774  0.34557949  1
  Cu+  Cu103  1  0.58506638  0.66632850  0.34171682  1
  Cu+  Cu104  1  0.07912066  0.41891098  0.34510817  1
  Cu+  Cu105  1  0.08243985  0.91485335  0.34288946  1
  Cu+  Cu106  1  0.58500333  0.42145690  0.34228549  1
  Cu+  Cu107  1  0.58401155  0.92138826  0.34432807  1
  Cu+  Cu108  1  -0.00103765  0.00165002  0.11516632  1
  Cu+  Cu109  1  0.00452392  0.50313525  0.11810456  1
  Cu+  Cu110  1  0.50172940  -0.00195183  0.11426415  1
  Cu+  Cu111  1  0.50220425  0.50143948  0.11676217  1
  Cu+  Cu112  1  0.33312109  0.16593212  0.44222105  1
  Cu+  Cu113  1  0.33455273  0.66777090  0.44413111  1
  Cu+  Cu114  1  0.83469084  0.16608510  0.44279184  1
  Cu+  Cu115  1  0.83542507  0.66827808  0.45616107  1
  Cu+  Cu116  1  0.16922948  0.33058345  0.77603051  1
  Cu+  Cu117  1  0.17152141  0.84135997  0.78044695  1
  Cu+  Cu118  1  0.65716494  0.32843108  0.78083919  1
  Cu+  Cu119  1  0.66392819  0.83669459  0.77898097  1
  Te2-  Te120  1  -0.00108036  -0.00481198  0.38908091  1
  Te2-  Te121  1  -0.00296217  0.50171545  0.39156864  1
  Te2-  Te122  1  0.49592055  -0.00076347  0.38989197  1
  Te2-  Te123  1  0.50485519  0.50402917  0.39033338  1
  Te2-  Te124  1  0.33211211  0.16774986  0.71664230  1
  Te2-  Te125  1  0.33615709  0.66806602  0.71926163  1
  Te2-  Te126  1  0.83055850  0.16254156  0.71814661  1
  Te2-  Te127  1  0.83433980  0.66635502  0.73106354  1
  Te2-  Te128  1  0.16700016  0.33386958  0.05142949  1
  Te2-  Te129  1  0.16600661  0.82854365  0.05502148  1
  Te2-  Te130  1  0.66522952  0.33513346  0.05547562  1
  Te2-  Te131  1  0.66790334  0.83327295  0.05391986  1
  Te2-  Te132  1  0.49866550  0.24948455  0.88280794  1
  Te2-  Te133  1  0.49583269  0.74590817  0.88230558  1
  Te2-  Te134  1  0.99225938  0.24555600  0.88081201  1
  Te2-  Te135  1  0.99454293  0.74479432  0.88351928  1
  Te2-  Te136  1  0.25211175  0.00494230  0.88591993  1
  Te2-  Te137  1  0.25465087  0.50834892  0.88043166  1
  Te2-  Te138  1  0.75333650  0.00397847  0.88242101  1
  Te2-  Te139  1  0.75608189  0.50664751  0.88399457  1
  Te2-  Te140  1  0.25197237  0.24936132  0.88008860  1
  Te2-  Te141  1  0.25813488  0.74863564  0.88358851  1
  Te2-  Te142  1  0.75512809  0.24364218  0.88675064  1
  Te2-  Te143  1  0.75578620  0.74509344  0.88459364  1
  Te2-  Te144  1  0.32784869  0.41427140  0.21812067  1
  Te2-  Te145  1  0.32702856  0.90955515  0.21585495  1
  Te2-  Te146  1  0.82236268  0.41695829  0.21925542  1
  Te2-  Te147  1  0.82991482  0.91375444  0.21559602  1
  Te2-  Te148  1  0.08849271  0.16867611  0.21606897  1
  Te2-  Te149  1  0.08506304  0.67064842  0.21785473  1
  Te2-  Te150  1  0.58185481  0.17496016  0.21802701  1
  Te2-  Te151  1  0.58734736  0.67270938  0.21614562  1
  Te2-  Te152  1  0.08071701  0.41245500  0.21810943  1
  Te2-  Te153  1  0.08498653  0.90645826  0.21709388  1
  Te2-  Te154  1  0.58600397  0.41492628  0.21662092  1
  Te2-  Te155  1  0.58819228  0.91916696  0.21728741  1
  Te2-  Te156  1  0.15837698  0.07929181  0.54576507  1
  Te2-  Te157  1  0.15753686  0.57909867  0.54987095  1
  Te2-  Te158  1  0.65413345  0.07686621  0.54964604  1
  Te2-  Te159  1  0.66185401  0.58208527  0.55552816  1
  Te2-  Te160  1  0.42167499  0.34047285  0.54569633  1
  Te2-  Te161  1  0.41536010  0.83844048  0.54910530  1
  Te2-  Te162  1  0.91558594  0.33849421  0.54810655  1
  Te2-  Te163  1  0.91843849  0.83784854  0.55573714  1
  Te2-  Te164  1  0.41680255  0.07816640  0.54895961  1
  Te2-  Te165  1  0.42115504  0.58264623  0.54607372  1
  Te2-  Te166  1  0.91487482  0.07774607  0.54500028  1
  Te2-  Te167  1  0.91786684  0.58122770  0.55644011  1
  Te2-  Te168  1  -0.00011799  0.00195521  0.88116948  1
  Te2-  Te169  1  0.00187453  0.50016805  0.88102980  1
  Te2-  Te170  1  0.50107887  0.00044922  0.88452113  1
  Te2-  Te171  1  0.49893153  0.50049073  0.88093330  1
  Te2-  Te172  1  0.33394572  0.16703157  0.21633030  1
  Te2-  Te173  1  0.33486741  0.66688107  0.21746862  1
  Te2-  Te174  1  0.83455490  0.16712839  0.21851829  1
  Te2-  Te175  1  0.83387093  0.66761783  0.21616173  1
  Te2-  Te176  1  0.16639410  0.33301078  0.54813458  1
  Te2-  Te177  1  0.16872189  0.83527442  0.55054729  1
  Te2-  Te178  1  0.66574588  0.33225820  0.55062198  1
  Te2-  Te179  1  0.66580049  0.83417128  0.54942552  1
  Te2-  Te180  1  0.32867063  0.41482390  0.70800966  1
  Te2-  Te181  1  0.32862855  0.91635609  0.71220641  1
  Te2-  Te182  1  0.82412237  0.40946440  0.70803346  1
  Te2-  Te183  1  0.82480928  0.91511698  0.70829813  1
  Te2-  Te184  1  0.08425719  0.17135841  0.70779789  1
  Te2-  Te185  1  0.08964845  0.67477391  0.70730981  1
  Te2-  Te186  1  0.58528339  0.17227433  0.71229211  1
  Te2-  Te187  1  0.58497888  0.67547515  0.70831059  1
  Te2-  Te188  1  0.08710514  0.40981289  0.70448175  1
  Te2-  Te189  1  0.08977252  0.91720481  0.70980940  1
  Te2-  Te190  1  0.58406051  0.41130093  0.70887661  1
  Te2-  Te191  1  0.58378731  0.91408271  0.71152948  1
  Te2-  Te192  1  0.16047807  0.08193963  0.04383746  1
  Te2-  Te193  1  0.16253653  0.58043945  0.04710244  1
  Te2-  Te194  1  0.66206118  0.07932960  0.04536613  1
  Te2-  Te195  1  0.66194902  0.58004158  0.04539578  1
  Te2-  Te196  1  0.41807068  0.33769583  0.04577919  1
  Te2-  Te197  1  0.42176695  0.83750567  0.04521081  1
  Te2-  Te198  1  0.92299776  0.34220588  0.04656865  1
  Te2-  Te199  1  0.92115966  0.83953697  0.04448966  1
  Te2-  Te200  1  0.42182753  0.08140887  0.04345149  1
  Te2-  Te201  1  0.41903439  0.57919285  0.04591071  1
  Te2-  Te202  1  0.91963967  0.08366818  0.04640302  1
  Te2-  Te203  1  0.92143406  0.58001419  0.04593377  1
  Te2-  Te204  1  0.49474964  0.25036573  0.37532438  1
  Te2-  Te205  1  0.49502447  0.74778923  0.37460326  1
  Te2-  Te206  1  0.99372389  0.24534554  0.37265116  1
  Te2-  Te207  1  0.99332690  0.74587150  0.38286778  1
  Te2-  Te208  1  0.25265206  0.00460686  0.37633704  1
  Te2-  Te209  1  0.25261506  0.50792385  0.37330180  1
  Te2-  Te210  1  0.75651247  0.00645133  0.37371368  1
  Te2-  Te211  1  0.75293530  0.50740862  0.38314211  1
  Te2-  Te212  1  0.25458971  0.24801881  0.37234068  1
  Te2-  Te213  1  0.25153909  0.74601647  0.37743369  1
  Te2-  Te214  1  0.75538193  0.24866146  0.37569168  1
  Te2-  Te215  1  0.75360541  0.74728536  0.38178884  1
