# generated using pymatgen
data_Ti(CuTe)4
_symmetry_space_group_name_H-M   'P 1'
_cell_length_a   16.86871416
_cell_length_b   16.86862409
_cell_length_c   20.67823099
_cell_angle_alpha   89.98307292
_cell_angle_beta   90.02621068
_cell_angle_gamma   120.00972428
_symmetry_Int_Tables_number   1
_chemical_formula_structural   Ti(CuTe)4
_chemical_formula_sum   'Ti24 Cu96 Te96'
_cell_volume   5095.22119487
_cell_formula_units_Z   24
loop_
 _symmetry_equiv_pos_site_id
 _symmetry_equiv_pos_as_xyz
  1  'x, y, z'
loop_
 _atom_type_symbol
 _atom_type_oxidation_number
  Ti4+  4.0
  Cu+  1.0
  Te2-  -2.0
loop_
 _atom_site_type_symbol
 _atom_site_label
 _atom_site_symmetry_multiplicity
 _atom_site_fract_x
 _atom_site_fract_y
 _atom_site_fract_z
 _atom_site_occupancy
  Ti4+  Ti0  1  0.00016213  0.00267937  0.25544423  1
  Ti4+  Ti1  1  -0.00182392  0.50175689  0.26108213  1
  Ti4+  Ti2  1  0.49757725  0.00103167  0.25609158  1
  Ti4+  Ti3  1  0.49971650  0.50162455  0.25848813  1
  Ti4+  Ti4  1  0.33727353  0.16947548  0.58932172  1
  Ti4+  Ti5  1  0.33613514  0.66677023  0.59122648  1
  Ti4+  Ti6  1  0.83517174  0.17135876  0.59065215  1
  Ti4+  Ti7  1  0.83628095  0.66897780  0.59327033  1
  Ti4+  Ti8  1  0.16301690  0.32880605  0.92752363  1
  Ti4+  Ti9  1  0.16454958  0.82833287  0.92308049  1
  Ti4+  Ti10  1  0.66769945  0.33132076  0.92644271  1
  Ti4+  Ti11  1  0.66293575  0.82874244  0.92202312  1
  Ti4+  Ti12  1  0.00109933  0.00094165  0.75430104  1
  Ti4+  Ti13  1  0.00021868  0.49848944  0.75653675  1
  Ti4+  Ti14  1  0.49987612  -0.00240860  0.75611233  1
  Ti4+  Ti15  1  0.50237990  0.50134713  0.75570162  1
  Ti4+  Ti16  1  0.33220169  0.16565420  0.08655900  1
  Ti4+  Ti17  1  0.33118938  0.66512848  0.08998832  1
  Ti4+  Ti18  1  0.83216454  0.16536973  0.08912842  1
  Ti4+  Ti19  1  0.83331634  0.66501005  0.09010843  1
  Ti4+  Ti20  1  0.16878294  0.33639443  0.42154637  1
  Ti4+  Ti21  1  0.16567805  0.83385479  0.42335636  1
  Ti4+  Ti22  1  0.66659775  0.33221571  0.42192541  1
  Ti4+  Ti23  1  0.66709822  0.83520214  0.42162266  1
  Cu+  Cu24  1  0.40040906  0.80301430  0.80650313  1
  Cu+  Cu25  1  0.90367849  0.30741686  0.80963763  1
  Cu+  Cu26  1  0.01225188  0.26287580  0.14666558  1
  Cu+  Cu27  1  0.84819131  0.42860775  0.47955708  1
  Cu+  Cu28  1  0.08296790  0.43221174  0.47709235  1
  Cu+  Cu29  1  0.90439245  0.81495441  0.80824703  1
  Cu+  Cu30  1  0.36009039  0.43141633  0.47361421  1
  Cu+  Cu31  1  0.73963383  0.26386955  0.14350376  1
  Cu+  Cu32  1  0.23516551  0.76171479  0.13999659  1
  Cu+  Cu33  1  0.24601421  0.26273236  0.14376574  1
  Cu+  Cu34  1  0.90599432  0.58301205  0.81304179  1
  Cu+  Cu35  1  0.57314958  0.14381165  0.47298984  1
  Cu+  Cu36  1  0.16328256  0.08513407  0.16711616  1
  Cu+  Cu37  1  0.16498621  0.58817623  0.17296497  1
  Cu+  Cu38  1  0.66223479  0.08680057  0.16968868  1
  Cu+  Cu39  1  0.66418017  0.58413916  0.17306659  1
  Cu+  Cu40  1  0.41716016  0.33725160  0.17124504  1
  Cu+  Cu41  1  0.41150100  0.83478675  0.16984967  1
  Cu+  Cu42  1  0.91428146  0.33723343  0.17456901  1
  Cu+  Cu43  1  0.91703982  0.83663060  0.17060243  1
  Cu+  Cu44  1  0.41870581  0.08087234  0.16783589  1
  Cu+  Cu45  1  0.41914200  0.58225664  0.17171841  1
  Cu+  Cu46  1  0.92196201  0.08385388  0.16746769  1
  Cu+  Cu47  1  0.91690140  0.58192469  0.17353862  1
  Cu+  Cu48  1  0.49661065  0.24389565  0.50130440  1
  Cu+  Cu49  1  0.49914922  0.75049992  0.50406808  1
  Cu+  Cu50  1  0.99894227  0.25545702  0.50258952  1
  Cu+  Cu51  1  0.99812501  0.75044652  0.50649913  1
  Cu+  Cu52  1  0.25212809  0.00433624  0.50392096  1
  Cu+  Cu53  1  0.25690203  0.50555131  0.50355589  1
  Cu+  Cu54  1  0.75322946  0.00516175  0.50297319  1
  Cu+  Cu55  1  0.75557666  0.50633551  0.50583451  1
  Cu+  Cu56  1  0.25971420  0.25633666  0.50241482  1
  Cu+  Cu57  1  0.25350541  0.75199926  0.50586208  1
  Cu+  Cu58  1  0.75263674  0.25002404  0.50196458  1
  Cu+  Cu59  1  0.75398999  0.75279887  0.50585388  1
  Cu+  Cu60  1  0.33232955  0.41326803  0.84053607  1
  Cu+  Cu61  1  0.33076796  0.90711485  0.83769183  1
  Cu+  Cu62  1  0.82875517  0.40899736  0.83861324  1
  Cu+  Cu63  1  0.82930765  0.91252259  0.83548474  1
  Cu+  Cu64  1  0.08521844  0.17015438  0.83911412  1
  Cu+  Cu65  1  0.08304000  0.66928499  0.83516643  1
  Cu+  Cu66  1  0.58588685  0.16827759  0.83997567  1
  Cu+  Cu67  1  0.58477309  0.67021817  0.83477018  1
  Cu+  Cu68  1  0.07812498  0.40641398  0.83914138  1
  Cu+  Cu69  1  0.08015014  0.91097299  0.83500163  1
  Cu+  Cu70  1  0.58396492  0.41469464  0.83859497  1
  Cu+  Cu71  1  0.57685091  0.90644897  0.83618181  1
  Cu+  Cu72  1  0.17288324  0.09060697  0.67223512  1
  Cu+  Cu73  1  0.16938870  0.58157565  0.67628672  1
  Cu+  Cu74  1  0.66907308  0.08700830  0.67519242  1
  Cu+  Cu75  1  0.67088234  0.58567962  0.67492415  1
  Cu+  Cu76  1  0.41887187  0.33299981  0.67324627  1
  Cu+  Cu77  1  0.41521366  0.82787339  0.67814159  1
  Cu+  Cu78  1  0.91661235  0.33284437  0.68145424  1
  Cu+  Cu79  1  0.91784925  0.83258558  0.67925592  1
  Cu+  Cu80  1  0.41814374  0.08581000  0.67445308  1
  Cu+  Cu81  1  0.41813512  0.58230371  0.67539893  1
  Cu+  Cu82  1  0.92040684  0.09037594  0.67347038  1
  Cu+  Cu83  1  0.91933025  0.58612445  0.68241426  1
  Cu+  Cu84  1  -0.00015959  0.24708773  0.01590356  1
  Cu+  Cu85  1  -0.00129213  0.74574181  0.00975883  1
  Cu+  Cu86  1  0.50173228  0.24945950  0.00861593  1
  Cu+  Cu87  1  0.49925438  0.74635864  0.00754384  1
  Cu+  Cu88  1  0.24759984  0.49540943  0.00888369  1
  Cu+  Cu89  1  0.24975713  0.99482885  0.00480478  1
  Cu+  Cu90  1  0.75091816  0.49668862  0.01080901  1
  Cu+  Cu91  1  0.74478988  0.99206369  0.00393455  1
  Cu+  Cu92  1  0.24670872  0.24924492  0.01392429  1
  Cu+  Cu93  1  0.24647846  0.74724603  0.01183147  1
  Cu+  Cu94  1  0.74875737  0.25071882  0.01489565  1
  Cu+  Cu95  1  0.74784664  0.74874133  0.00679529  1
  Cu+  Cu96  1  0.33734861  0.41930488  0.34602587  1
  Cu+  Cu97  1  0.33237883  0.91640126  0.34067777  1
  Cu+  Cu98  1  0.83418552  0.41659844  0.35013180  1
  Cu+  Cu99  1  0.83568485  0.91938107  0.33810842  1
  Cu+  Cu100  1  0.08199308  0.16514306  0.34140621  1
  Cu+  Cu101  1  0.08204460  0.66749253  0.34551775  1
  Cu+  Cu102  1  0.58089642  0.16372656  0.34470519  1
  Cu+  Cu103  1  0.58262410  0.66661418  0.34171068  1
  Cu+  Cu104  1  0.08106031  0.41842439  0.34867424  1
  Cu+  Cu105  1  0.07984995  0.91764494  0.33884477  1
  Cu+  Cu106  1  0.58214810  0.41870998  0.34157038  1
  Cu+  Cu107  1  0.58181566  0.91872141  0.33777903  1
  Cu+  Cu108  1  -0.00033211  -0.00570055  0.11062573  1
  Cu+  Cu109  1  0.00151337  0.50064914  0.11766020  1
  Cu+  Cu110  1  0.50058689  -0.00459519  0.11169130  1
  Cu+  Cu111  1  0.50355145  0.50085492  0.11507918  1
  Cu+  Cu112  1  0.32848577  0.16372730  0.44485522  1
  Cu+  Cu113  1  0.33630861  0.67334767  0.44776397  1
  Cu+  Cu114  1  0.83457679  0.16385707  0.44577201  1
  Cu+  Cu115  1  0.83261969  0.67127264  0.45014115  1
  Cu+  Cu116  1  0.17247164  0.33638758  0.78466267  1
  Cu+  Cu117  1  0.17195936  0.84237322  0.77920909  1
  Cu+  Cu118  1  0.66086655  0.33041639  0.78296654  1
  Cu+  Cu119  1  0.67026214  0.83883695  0.77644007  1
  Te2-  Te120  1  -0.00090885  0.00070463  0.38466303  1
  Te2-  Te121  1  0.00051001  0.50367930  0.39307590  1
  Te2-  Te122  1  0.49697733  -0.00330070  0.38642660  1
  Te2-  Te123  1  0.50413267  0.50356691  0.38904302  1
  Te2-  Te124  1  0.33647307  0.16878351  0.71836653  1
  Te2-  Te125  1  0.33325175  0.66125270  0.72152168  1
  Te2-  Te126  1  0.83273971  0.16539245  0.72127459  1
  Te2-  Te127  1  0.83328060  0.66649635  0.72503904  1
  Te2-  Te128  1  0.16566756  0.33369095  0.05969953  1
  Te2-  Te129  1  0.16381208  0.83193580  0.05323574  1
  Te2-  Te130  1  0.66472326  0.33316588  0.05707665  1
  Te2-  Te131  1  0.66400460  0.82927846  0.05114439  1
  Te2-  Te132  1  0.49717552  0.24737225  0.88293298  1
  Te2-  Te133  1  0.48804845  0.73801771  0.88188707  1
  Te2-  Te134  1  0.98886949  0.23913985  0.88764342  1
  Te2-  Te135  1  0.98836843  0.74205243  0.88342468  1
  Te2-  Te136  1  0.24978412  -0.00279512  0.87844498  1
  Te2-  Te137  1  0.24723742  0.49837578  0.88284859  1
  Te2-  Te138  1  0.74692373  -0.00110783  0.87805366  1
  Te2-  Te139  1  0.75163318  0.50390873  0.88459659  1
  Te2-  Te140  1  0.25110848  0.24588031  0.88643258  1
  Te2-  Te141  1  0.24796166  0.73762739  0.88426019  1
  Te2-  Te142  1  0.75230582  0.24168147  0.88700258  1
  Te2-  Te143  1  0.75004771  0.74200199  0.88123367  1
  Te2-  Te144  1  0.32575713  0.41658557  0.21870638  1
  Te2-  Te145  1  0.32322540  0.91559806  0.21503399  1
  Te2-  Te146  1  0.82471946  0.41596495  0.22188501  1
  Te2-  Te147  1  0.82887582  0.91711413  0.21258860  1
  Te2-  Te148  1  0.08912324  0.17976740  0.21550624  1
  Te2-  Te149  1  0.08319598  0.67471414  0.21950693  1
  Te2-  Te150  1  0.58339990  0.17587290  0.21723246  1
  Te2-  Te151  1  0.58561508  0.67323970  0.21616214  1
  Te2-  Te152  1  0.08731521  0.41936328  0.22016111  1
  Te2-  Te153  1  0.08598220  0.91760346  0.21277021  1
  Te2-  Te154  1  0.58455416  0.41545105  0.21577363  1
  Te2-  Te155  1  0.58221488  0.91656346  0.21159575  1
  Te2-  Te156  1  0.16648854  0.08777782  0.54617939  1
  Te2-  Te157  1  0.16310404  0.58341364  0.55039136  1
  Te2-  Te158  1  0.66190208  0.08112725  0.54902051  1
  Te2-  Te159  1  0.66600998  0.58378753  0.54923148  1
  Te2-  Te160  1  0.42882621  0.34326470  0.54755387  1
  Te2-  Te161  1  0.42048376  0.83790807  0.55095936  1
  Te2-  Te162  1  0.92299163  0.34704661  0.55236772  1
  Te2-  Te163  1  0.92090114  0.83989505  0.55203203  1
  Te2-  Te164  1  0.41948747  0.07701340  0.54865508  1
  Te2-  Te165  1  0.42557293  0.58290355  0.54944128  1
  Te2-  Te166  1  0.92148008  0.08782461  0.54747815  1
  Te2-  Te167  1  0.92499798  0.58391726  0.55408470  1
  Te2-  Te168  1  -0.00129058  -0.00167175  0.88152571  1
  Te2-  Te169  1  0.00025020  0.49877108  0.88412711  1
  Te2-  Te170  1  0.49949658  -0.00224459  0.88309243  1
  Te2-  Te171  1  0.50144163  0.50086343  0.88215216  1
  Te2-  Te172  1  0.33273140  0.16580410  0.21364828  1
  Te2-  Te173  1  0.33486667  0.66759524  0.21709302  1
  Te2-  Te174  1  0.83229468  0.16422449  0.21663689  1
  Te2-  Te175  1  0.83330003  0.66895369  0.21637966  1
  Te2-  Te176  1  0.16873925  0.33448324  0.54908970  1
  Te2-  Te177  1  0.16833603  0.83607352  0.54973389  1
  Te2-  Te178  1  0.66714222  0.33442143  0.54948344  1
  Te2-  Te179  1  0.66883295  0.83682942  0.54811401  1
  Te2-  Te180  1  0.32989247  0.41284136  0.71249915  1
  Te2-  Te181  1  0.32879036  0.91441164  0.70938147  1
  Te2-  Te182  1  0.82491971  0.41338712  0.71123244  1
  Te2-  Te183  1  0.82964792  0.91852719  0.70721607  1
  Te2-  Te184  1  0.08868280  0.17471054  0.71258326  1
  Te2-  Te185  1  0.09160598  0.67342514  0.71049988  1
  Te2-  Te186  1  0.58619858  0.17172625  0.71356281  1
  Te2-  Te187  1  0.58876470  0.67407660  0.70947867  1
  Te2-  Te188  1  0.08849836  0.41276134  0.71205807  1
  Te2-  Te189  1  0.09122183  0.91925344  0.70777864  1
  Te2-  Te190  1  0.58843364  0.41535528  0.71149630  1
  Te2-  Te191  1  0.58837914  0.91529832  0.70830018  1
  Te2-  Te192  1  0.15956795  0.07532623  0.04026501  1
  Te2-  Te193  1  0.15810152  0.57558082  0.04542476  1
  Te2-  Te194  1  0.66047637  0.07698869  0.04237645  1
  Te2-  Te195  1  0.66181810  0.57923065  0.04541920  1
  Te2-  Te196  1  0.42078726  0.33951303  0.04326711  1
  Te2-  Te197  1  0.41905556  0.83641507  0.04227757  1
  Te2-  Te198  1  0.92091964  0.34084995  0.04599467  1
  Te2-  Te199  1  0.91767027  0.83569592  0.04310460  1
  Te2-  Te200  1  0.41887214  0.07892710  0.04249069  1
  Te2-  Te201  1  0.41694338  0.57768975  0.04582646  1
  Te2-  Te202  1  0.91391972  0.07398946  0.04198124  1
  Te2-  Te203  1  0.91986852  0.57734158  0.04737197  1
  Te2-  Te204  1  0.49339602  0.24863922  0.37559847  1
  Te2-  Te205  1  0.49486106  0.74931289  0.37708498  1
  Te2-  Te206  1  0.99395245  0.24626645  0.37636616  1
  Te2-  Te207  1  0.99278880  0.74881007  0.37960416  1
  Te2-  Te208  1  0.25012017  0.00425950  0.37680811  1
  Te2-  Te209  1  0.25512589  0.51073347  0.37595731  1
  Te2-  Te210  1  0.75199495  0.00588683  0.37543303  1
  Te2-  Te211  1  0.75157465  0.50709942  0.37857634  1
  Te2-  Te212  1  0.25195468  0.24678363  0.37552089  1
  Te2-  Te213  1  0.25239853  0.74775001  0.37889878  1
  Te2-  Te214  1  0.75302976  0.24365262  0.37526045  1
  Te2-  Te215  1  0.75359859  0.74990949  0.37784571  1
