# generated using pymatgen
data_Ti(CuTe)4
_symmetry_space_group_name_H-M   'P 1'
_cell_length_a   16.90047974
_cell_length_b   16.89928401
_cell_length_c   20.72151725
_cell_angle_alpha   89.96511277
_cell_angle_beta   90.02363286
_cell_angle_gamma   120.01090884
_symmetry_Int_Tables_number   1
_chemical_formula_structural   Ti(CuTe)4
_chemical_formula_sum   'Ti24 Cu96 Te96'
_cell_volume   5124.73823225
_cell_formula_units_Z   24
loop_
 _symmetry_equiv_pos_site_id
 _symmetry_equiv_pos_as_xyz
  1  'x, y, z'
loop_
 _atom_type_symbol
 _atom_type_oxidation_number
  Ti4+  4.0
  Cu+  1.0
  Te2-  -2.0
loop_
 _atom_site_type_symbol
 _atom_site_label
 _atom_site_symmetry_multiplicity
 _atom_site_fract_x
 _atom_site_fract_y
 _atom_site_fract_z
 _atom_site_occupancy
  Ti4+  Ti0  1  0.00186283  0.00253176  0.25562489  1
  Ti4+  Ti1  1  -0.00359242  0.49645500  0.25452534  1
  Ti4+  Ti2  1  0.49730905  -0.00255502  0.25566796  1
  Ti4+  Ti3  1  0.50103518  0.50047958  0.25535634  1
  Ti4+  Ti4  1  0.33109833  0.16584118  0.59168471  1
  Ti4+  Ti5  1  0.33198693  0.66548040  0.59274298  1
  Ti4+  Ti6  1  0.83209867  0.16506909  0.59459719  1
  Ti4+  Ti7  1  0.83297249  0.66861072  0.59034705  1
  Ti4+  Ti8  1  0.17126762  0.33558016  0.92519507  1
  Ti4+  Ti9  1  0.16856576  0.83605602  0.92283473  1
  Ti4+  Ti10  1  0.67002211  0.33346954  0.92410228  1
  Ti4+  Ti11  1  0.66557703  0.83384954  0.92832089  1
  Ti4+  Ti12  1  0.00213775  0.00009160  0.75820128  1
  Ti4+  Ti13  1  -0.00151658  0.49956885  0.75462284  1
  Ti4+  Ti14  1  0.50156404  0.00040357  0.75600173  1
  Ti4+  Ti15  1  0.49868983  0.50071762  0.75695529  1
  Ti4+  Ti16  1  0.33363210  0.16584351  0.08746614  1
  Ti4+  Ti17  1  0.33419580  0.66711280  0.08683074  1
  Ti4+  Ti18  1  0.83578015  0.16863622  0.08525110  1
  Ti4+  Ti19  1  0.83335485  0.66584297  0.08602426  1
  Ti4+  Ti20  1  0.16640580  0.33302953  0.42350329  1
  Ti4+  Ti21  1  0.16421046  0.83297975  0.42187901  1
  Ti4+  Ti22  1  0.66574259  0.33141968  0.42269825  1
  Ti4+  Ti23  1  0.66586190  0.83239271  0.42356834  1
  Cu+  Cu24  1  0.68963918  0.09309336  0.81119812  1
  Cu+  Cu25  1  0.74662992  0.75504767  0.14766503  1
  Cu+  Cu26  1  0.73793885  0.48110495  0.13874944  1
  Cu+  Cu27  1  0.40641769  0.59762933  0.80876254  1
  Cu+  Cu28  1  0.01659288  0.26240025  0.14062919  1
  Cu+  Cu29  1  0.24473524  0.25994103  0.14266771  1
  Cu+  Cu30  1  0.06987238  0.92913339  0.47482838  1
  Cu+  Cu31  1  0.74777082  0.99591816  0.15011721  1
  Cu+  Cu32  1  0.74050003  0.25311494  0.14232605  1
  Cu+  Cu33  1  0.19328582  0.09772398  0.80856509  1
  Cu+  Cu34  1  0.23821946  0.97645451  0.13883545  1
  Cu+  Cu35  1  0.51230478  0.75613247  0.14603247  1
  Cu+  Cu36  1  0.16499413  0.08181315  0.16788885  1
  Cu+  Cu37  1  0.16308953  0.58076930  0.16831241  1
  Cu+  Cu38  1  0.65728710  0.07932289  0.16745337  1
  Cu+  Cu39  1  0.66201508  0.57977093  0.16759130  1
  Cu+  Cu40  1  0.41772343  0.33774956  0.16867319  1
  Cu+  Cu41  1  0.41914206  0.83677392  0.16835799  1
  Cu+  Cu42  1  0.91950424  0.34124772  0.16509321  1
  Cu+  Cu43  1  0.92059313  0.83936614  0.16762852  1
  Cu+  Cu44  1  0.41283948  0.07624963  0.16858070  1
  Cu+  Cu45  1  0.42072967  0.58247838  0.16774246  1
  Cu+  Cu46  1  0.92461670  0.08519373  0.16582271  1
  Cu+  Cu47  1  0.91250380  0.57556832  0.16635098  1
  Cu+  Cu48  1  0.49672318  0.24785690  0.50566615  1
  Cu+  Cu49  1  0.49583143  0.74610426  0.50698608  1
  Cu+  Cu50  1  0.99678403  0.24761593  0.50788749  1
  Cu+  Cu51  1  0.99597287  0.75379801  0.50326314  1
  Cu+  Cu52  1  0.24431749  0.00154414  0.50460437  1
  Cu+  Cu53  1  0.25219268  0.50215653  0.50642941  1
  Cu+  Cu54  1  0.74993355  0.00156948  0.50826965  1
  Cu+  Cu55  1  0.74998221  0.50163195  0.50512146  1
  Cu+  Cu56  1  0.25019238  0.24748575  0.50545653  1
  Cu+  Cu57  1  0.24984871  0.74699981  0.50530586  1
  Cu+  Cu58  1  0.74804152  0.24495737  0.50709781  1
  Cu+  Cu59  1  0.75154529  0.74847116  0.50449100  1
  Cu+  Cu60  1  0.33134545  0.41970604  0.83811000  1
  Cu+  Cu61  1  0.33037023  0.91696168  0.83680576  1
  Cu+  Cu62  1  0.83018589  0.41561011  0.83698465  1
  Cu+  Cu63  1  0.83131465  0.91457665  0.84211287  1
  Cu+  Cu64  1  0.09164544  0.16945476  0.84037865  1
  Cu+  Cu65  1  0.08450667  0.66949459  0.83676727  1
  Cu+  Cu66  1  0.59172678  0.16981853  0.83766121  1
  Cu+  Cu67  1  0.58005336  0.66934129  0.84095122  1
  Cu+  Cu68  1  0.08365449  0.41533019  0.83770989  1
  Cu+  Cu69  1  0.09255445  0.92224451  0.83802860  1
  Cu+  Cu70  1  0.58665786  0.41698642  0.83868343  1
  Cu+  Cu71  1  0.58891922  0.91789734  0.83981983  1
  Cu+  Cu72  1  0.16992407  0.08414125  0.67997301  1
  Cu+  Cu73  1  0.16734749  0.58235748  0.67506989  1
  Cu+  Cu74  1  0.67029437  0.08354126  0.68162177  1
  Cu+  Cu75  1  0.66868922  0.58572713  0.67443211  1
  Cu+  Cu76  1  0.41496368  0.33158782  0.67538830  1
  Cu+  Cu77  1  0.41574993  0.83027015  0.67560882  1
  Cu+  Cu78  1  0.91200297  0.32993630  0.67627103  1
  Cu+  Cu79  1  0.91550637  0.83140940  0.67601041  1
  Cu+  Cu80  1  0.41456479  0.08335521  0.67400921  1
  Cu+  Cu81  1  0.41383347  0.58513134  0.68059478  1
  Cu+  Cu82  1  0.91388997  0.08261763  0.67808112  1
  Cu+  Cu83  1  0.91392184  0.58508471  0.67295893  1
  Cu+  Cu84  1  0.00736468  0.25220172  0.01139769  1
  Cu+  Cu85  1  0.00382756  0.75332022  0.00423219  1
  Cu+  Cu86  1  0.50536057  0.25025055  0.00595758  1
  Cu+  Cu87  1  0.50287071  0.75239431  0.01473246  1
  Cu+  Cu88  1  0.25049734  0.49975942  0.00824296  1
  Cu+  Cu89  1  0.24913848  0.99672923  0.01114423  1
  Cu+  Cu90  1  0.75117381  0.49650921  0.01053114  1
  Cu+  Cu91  1  0.74903481  0.99802421  0.01675326  1
  Cu+  Cu92  1  0.25175875  0.25270454  0.01259726  1
  Cu+  Cu93  1  0.24835338  0.75182226  0.00585894  1
  Cu+  Cu94  1  0.75306103  0.25340115  0.01167431  1
  Cu+  Cu95  1  0.74798987  0.75133143  0.01494398  1
  Cu+  Cu96  1  0.33563339  0.41806307  0.34156336  1
  Cu+  Cu97  1  0.33252683  0.91474508  0.34088513  1
  Cu+  Cu98  1  0.83231978  0.41278549  0.34113445  1
  Cu+  Cu99  1  0.83314327  0.91770043  0.34328935  1
  Cu+  Cu100  1  0.08403660  0.16752837  0.34255551  1
  Cu+  Cu101  1  0.07928846  0.66169961  0.33880321  1
  Cu+  Cu102  1  0.58097976  0.16220702  0.34126622  1
  Cu+  Cu103  1  0.58289768  0.66533086  0.34253831  1
  Cu+  Cu104  1  0.08110377  0.41596365  0.34163359  1
  Cu+  Cu105  1  0.08147368  0.91864841  0.34504140  1
  Cu+  Cu106  1  0.58243807  0.41699107  0.34089865  1
  Cu+  Cu107  1  0.58100444  0.91589692  0.34368395  1
  Cu+  Cu108  1  0.00188711  -0.00140280  0.10974261  1
  Cu+  Cu109  1  0.00472797  0.50768413  0.10938685  1
  Cu+  Cu110  1  0.49655118  -0.00104792  0.11063392  1
  Cu+  Cu111  1  0.49891783  0.49804860  0.11061447  1
  Cu+  Cu112  1  0.33456836  0.16672090  0.44944971  1
  Cu+  Cu113  1  0.33122541  0.66588924  0.45022774  1
  Cu+  Cu114  1  0.83338933  0.16585286  0.45279382  1
  Cu+  Cu115  1  0.83172902  0.66270871  0.44763838  1
  Cu+  Cu116  1  0.16338988  0.33272236  0.78234859  1
  Cu+  Cu117  1  0.16641396  0.83054557  0.77955858  1
  Cu+  Cu118  1  0.66324039  0.33358899  0.78072914  1
  Cu+  Cu119  1  0.66967688  0.83230274  0.78508650  1
  Te2-  Te120  1  -0.00150240  0.00263255  0.38534773  1
  Te2-  Te121  1  -0.00262754  0.49766129  0.38291630  1
  Te2-  Te122  1  0.49696055  -0.00253017  0.38404924  1
  Te2-  Te123  1  0.50061126  0.49993582  0.38366445  1
  Te2-  Te124  1  0.33690036  0.16832671  0.72220642  1
  Te2-  Te125  1  0.33011212  0.66773585  0.72370577  1
  Te2-  Te126  1  0.83613755  0.16777555  0.72568968  1
  Te2-  Te127  1  0.83253321  0.66687532  0.71935663  1
  Te2-  Te128  1  0.17173491  0.33799741  0.05759761  1
  Te2-  Te129  1  0.16480601  0.83042339  0.05391139  1
  Te2-  Te130  1  0.66585961  0.33117147  0.05670543  1
  Te2-  Te131  1  0.66695608  0.83388623  0.06208428  1
  Te2-  Te132  1  0.50015701  0.24722679  0.88033439  1
  Te2-  Te133  1  0.49329368  0.75121777  0.88711949  1
  Te2-  Te134  1  1.00079142  0.24765892  0.88435838  1
  Te2-  Te135  1  0.99831760  0.75252095  0.87899227  1
  Te2-  Te136  1  0.26003926  0.01157115  0.88505610  1
  Te2-  Te137  1  0.25145692  0.50826641  0.88292918  1
  Te2-  Te138  1  0.75638726  0.00687999  0.88857564  1
  Te2-  Te139  1  0.75375762  0.50512137  0.88440098  1
  Te2-  Te140  1  0.26103684  0.25239340  0.88547067  1
  Te2-  Te141  1  0.25277440  0.74928861  0.88055085  1
  Te2-  Te142  1  0.75999649  0.24961587  0.88493099  1
  Te2-  Te143  1  0.74835577  0.74650003  0.88704987  1
  Te2-  Te144  1  0.32763376  0.41718996  0.21545380  1
  Te2-  Te145  1  0.32378743  0.90742271  0.21492690  1
  Te2-  Te146  1  0.81929358  0.40751196  0.21511690  1
  Te2-  Te147  1  0.82662451  0.91553891  0.21668425  1
  Te2-  Te148  1  0.08988506  0.17773716  0.21611214  1
  Te2-  Te149  1  0.08033949  0.66695960  0.21239788  1
  Te2-  Te150  1  0.58102109  0.17022646  0.21493730  1
  Te2-  Te151  1  0.58985691  0.67689945  0.21675933  1
  Te2-  Te152  1  0.08737738  0.41382457  0.21541575  1
  Te2-  Te153  1  0.08534397  0.91321949  0.21666678  1
  Te2-  Te154  1  0.58432581  0.41104231  0.21460282  1
  Te2-  Te155  1  0.58852515  0.91185350  0.21768979  1
  Te2-  Te156  1  0.15658381  0.08130303  0.55276943  1
  Te2-  Te157  1  0.16097106  0.57928996  0.54933360  1
  Te2-  Te158  1  0.66012705  0.07853060  0.55470691  1
  Te2-  Te159  1  0.66119889  0.58121536  0.54877625  1
  Te2-  Te160  1  0.41787492  0.33701291  0.54965184  1
  Te2-  Te161  1  0.41780950  0.83660939  0.54977198  1
  Te2-  Te162  1  0.91623977  0.33569118  0.55049137  1
  Te2-  Te163  1  0.91791330  0.84393190  0.55030013  1
  Te2-  Te164  1  0.41366219  0.07844006  0.54795075  1
  Te2-  Te165  1  0.41853811  0.57968471  0.55383546  1
  Te2-  Te166  1  0.91803789  0.07969969  0.55222758  1
  Te2-  Te167  1  0.91961670  0.58486985  0.54678767  1
  Te2-  Te168  1  0.00125221  -0.00030497  0.88486165  1
  Te2-  Te169  1  -0.00003628  0.50074438  0.88094185  1
  Te2-  Te170  1  0.50006543  0.00007934  0.88265881  1
  Te2-  Te171  1  0.50070292  0.49927293  0.88372203  1
  Te2-  Te172  1  0.33465501  0.16768834  0.21486055  1
  Te2-  Te173  1  0.33263411  0.66565591  0.21373296  1
  Te2-  Te174  1  0.83306874  0.16750840  0.21361308  1
  Te2-  Te175  1  0.83435660  0.66788203  0.21370593  1
  Te2-  Te176  1  0.16662821  0.33285291  0.54973995  1
  Te2-  Te177  1  0.16514077  0.83178383  0.54855232  1
  Te2-  Te178  1  0.66558540  0.33252642  0.54894583  1
  Te2-  Te179  1  0.66567514  0.83144897  0.54967568  1
  Te2-  Te180  1  0.32604374  0.41193986  0.71182190  1
  Te2-  Te181  1  0.32923550  0.91422059  0.71096503  1
  Te2-  Te182  1  0.82641687  0.41496183  0.71096839  1
  Te2-  Te183  1  0.82915267  0.91362743  0.71556664  1
  Te2-  Te184  1  0.08512662  0.17199131  0.71301022  1
  Te2-  Te185  1  0.08445181  0.67052929  0.70989388  1
  Te2-  Te186  1  0.58503458  0.17246634  0.71043964  1
  Te2-  Te187  1  0.58689866  0.67321355  0.71333799  1
  Te2-  Te188  1  0.08329076  0.41222421  0.71130475  1
  Te2-  Te189  1  0.08553570  0.91197367  0.71139438  1
  Te2-  Te190  1  0.58515361  0.41596460  0.71187848  1
  Te2-  Te191  1  0.58530125  0.91057112  0.71317282  1
  Te2-  Te192  1  0.16013230  0.08005244  0.04089103  1
  Te2-  Te193  1  0.16254803  0.58197471  0.04170393  1
  Te2-  Te194  1  0.65904025  0.08082081  0.04094224  1
  Te2-  Te195  1  0.65911933  0.57770295  0.04051353  1
  Te2-  Te196  1  0.42459622  0.33896102  0.04170526  1
  Te2-  Te197  1  0.41770037  0.84033356  0.04168650  1
  Te2-  Te198  1  0.92578211  0.34371337  0.03911285  1
  Te2-  Te199  1  0.92161789  0.83970002  0.04098010  1
  Te2-  Te200  1  0.42185573  0.08138414  0.04167416  1
  Te2-  Te201  1  0.42014784  0.57915485  0.04137550  1
  Te2-  Te202  1  0.92278739  0.07974315  0.03976441  1
  Te2-  Te203  1  0.92349617  0.58362247  0.03969797  1
  Te2-  Te204  1  0.49468179  0.24656412  0.37826373  1
  Te2-  Te205  1  0.49358878  0.74568002  0.38000975  1
  Te2-  Te206  1  0.99399496  0.24682010  0.38050750  1
  Te2-  Te207  1  0.99257426  0.74528903  0.37569079  1
  Te2-  Te208  1  0.25352715  0.00580125  0.37727396  1
  Te2-  Te209  1  0.25185976  0.50439439  0.37920180  1
  Te2-  Te210  1  0.75106786  0.00520766  0.38085313  1
  Te2-  Te211  1  0.75188621  0.50273031  0.37780516  1
  Te2-  Te212  1  0.25355457  0.24816844  0.37886934  1
  Te2-  Te213  1  0.24866127  0.74518319  0.37830519  1
  Te2-  Te214  1  0.75019954  0.24357999  0.37985249  1
  Te2-  Te215  1  0.75292046  0.74740575  0.37814270  1
