# generated using pymatgen
data_Ti(CuTe)4
_symmetry_space_group_name_H-M   'P 1'
_cell_length_a   16.88001658
_cell_length_b   16.88364162
_cell_length_c   20.69866266
_cell_angle_alpha   90.01411104
_cell_angle_beta   90.01679724
_cell_angle_gamma   119.99839137
_symmetry_Int_Tables_number   1
_chemical_formula_structural   Ti(CuTe)4
_chemical_formula_sum   'Ti24 Cu96 Te96'
_cell_volume   5108.79985128
_cell_formula_units_Z   24
loop_
 _symmetry_equiv_pos_site_id
 _symmetry_equiv_pos_as_xyz
  1  'x, y, z'
loop_
 _atom_type_symbol
 _atom_type_oxidation_number
  Ti4+  4.0
  Cu+  1.0
  Te2-  -2.0
loop_
 _atom_site_type_symbol
 _atom_site_label
 _atom_site_symmetry_multiplicity
 _atom_site_fract_x
 _atom_site_fract_y
 _atom_site_fract_z
 _atom_site_occupancy
  Ti4+  Ti0  1  -0.00054164  0.00181790  0.25797138  1
  Ti4+  Ti1  1  -0.00554708  0.49862925  0.25990424  1
  Ti4+  Ti2  1  0.49601900  -0.00175815  0.25615116  1
  Ti4+  Ti3  1  0.49631034  0.49979569  0.25590402  1
  Ti4+  Ti4  1  0.33195790  0.16558750  0.59061226  1
  Ti4+  Ti5  1  0.33336134  0.66769287  0.59386147  1
  Ti4+  Ti6  1  0.83575462  0.16865369  0.59269984  1
  Ti4+  Ti7  1  0.83463244  0.66626938  0.59126775  1
  Ti4+  Ti8  1  0.16390826  0.33089083  0.92402879  1
  Ti4+  Ti9  1  0.17134657  0.83227503  0.92654936  1
  Ti4+  Ti10  1  0.67067386  0.33693899  0.92558481  1
  Ti4+  Ti11  1  0.67044906  0.83297901  0.92118533  1
  Ti4+  Ti12  1  0.00055477  0.00091752  0.75578184  1
  Ti4+  Ti13  1  0.00146051  0.49992345  0.75549623  1
  Ti4+  Ti14  1  0.50032679  -0.00086793  0.75523601  1
  Ti4+  Ti15  1  0.50343614  0.50139409  0.75468269  1
  Ti4+  Ti16  1  0.33368204  0.16821012  0.08524622  1
  Ti4+  Ti17  1  0.33463608  0.66775600  0.08805666  1
  Ti4+  Ti18  1  0.83358167  0.16702393  0.09021246  1
  Ti4+  Ti19  1  0.83486328  0.66535612  0.08856768  1
  Ti4+  Ti20  1  0.16377833  0.33105406  0.42331033  1
  Ti4+  Ti21  1  0.16658037  0.83431651  0.42299506  1
  Ti4+  Ti22  1  0.66773408  0.33555509  0.42319313  1
  Ti4+  Ti23  1  0.66456685  0.83313022  0.42263158  1
  Cu+  Cu24  1  0.41177366  0.81501181  0.80976132  1
  Cu+  Cu25  1  0.23641318  0.26168119  0.13981456  1
  Cu+  Cu26  1  0.18391107  0.58593398  0.80935441  1
  Cu+  Cu27  1  0.23572149  0.75261659  0.14528306  1
  Cu+  Cu28  1  0.85819417  0.42960603  0.47794556  1
  Cu+  Cu29  1  0.23778891  0.98811775  0.14274447  1
  Cu+  Cu30  1  0.90533816  0.09018061  0.80808366  1
  Cu+  Cu31  1  0.73502482  0.48196365  0.14340305  1
  Cu+  Cu32  1  0.73474446  0.25462015  0.14393658  1
  Cu+  Cu33  1  0.06990043  0.14119068  0.47562856  1
  Cu+  Cu34  1  0.90523571  0.31813396  0.81027297  1
  Cu+  Cu35  1  0.69559448  0.59652082  0.80486827  1
  Cu+  Cu36  1  0.16183463  0.08604952  0.16920388  1
  Cu+  Cu37  1  0.16222437  0.58204975  0.17343436  1
  Cu+  Cu38  1  0.66203665  0.08222972  0.17090145  1
  Cu+  Cu39  1  0.66230006  0.58084814  0.17007384  1
  Cu+  Cu40  1  0.41198959  0.33935277  0.16597067  1
  Cu+  Cu41  1  0.41390490  0.83620864  0.16802253  1
  Cu+  Cu42  1  0.91063636  0.33450941  0.17278632  1
  Cu+  Cu43  1  0.91704741  0.83625690  0.17067228  1
  Cu+  Cu44  1  0.41462672  0.07700638  0.16520723  1
  Cu+  Cu45  1  0.41827089  0.58185281  0.16890940  1
  Cu+  Cu46  1  0.91876260  0.08218445  0.17237362  1
  Cu+  Cu47  1  0.91193368  0.57615283  0.17027703  1
  Cu+  Cu48  1  0.49622486  0.24887110  0.50559848  1
  Cu+  Cu49  1  0.49594014  0.75100052  0.50683105  1
  Cu+  Cu50  1  0.99653784  0.24480358  0.50562161  1
  Cu+  Cu51  1  0.99744066  0.74934681  0.50532065  1
  Cu+  Cu52  1  0.25362906  0.00500832  0.50420439  1
  Cu+  Cu53  1  0.24938465  0.50345735  0.50730045  1
  Cu+  Cu54  1  0.75225961  0.00233811  0.50483210  1
  Cu+  Cu55  1  0.75656575  0.50381130  0.50526862  1
  Cu+  Cu56  1  0.24578539  0.24279742  0.50415602  1
  Cu+  Cu57  1  0.25124798  0.74912367  0.50728970  1
  Cu+  Cu58  1  0.75733333  0.25598143  0.50569117  1
  Cu+  Cu59  1  0.74833657  0.74623004  0.50575830  1
  Cu+  Cu60  1  0.33139907  0.41221859  0.83756677  1
  Cu+  Cu61  1  0.33286258  0.91126511  0.83885622  1
  Cu+  Cu62  1  0.82836293  0.41343752  0.83759783  1
  Cu+  Cu63  1  0.83105087  0.91772343  0.83494827  1
  Cu+  Cu64  1  0.08101028  0.16842104  0.83754207  1
  Cu+  Cu65  1  0.09250194  0.66971560  0.83757377  1
  Cu+  Cu66  1  0.58744993  0.16913512  0.83809369  1
  Cu+  Cu67  1  0.59435343  0.66984675  0.83344779  1
  Cu+  Cu68  1  0.08313343  0.41130102  0.83580233  1
  Cu+  Cu69  1  0.08805496  0.91647019  0.84058820  1
  Cu+  Cu70  1  0.59305201  0.42440598  0.83765968  1
  Cu+  Cu71  1  0.58504393  0.91269744  0.83418486  1
  Cu+  Cu72  1  0.16981517  0.08472389  0.67483562  1
  Cu+  Cu73  1  0.17095933  0.58658868  0.68044702  1
  Cu+  Cu74  1  0.66913227  0.08646009  0.67326788  1
  Cu+  Cu75  1  0.67344162  0.58435837  0.67683300  1
  Cu+  Cu76  1  0.41506308  0.32932158  0.67243505  1
  Cu+  Cu77  1  0.41362041  0.83046592  0.68044113  1
  Cu+  Cu78  1  0.91713888  0.33281581  0.68074753  1
  Cu+  Cu79  1  0.91756725  0.83187274  0.67417508  1
  Cu+  Cu80  1  0.41481435  0.08531515  0.67487356  1
  Cu+  Cu81  1  0.41625947  0.58425776  0.67454704  1
  Cu+  Cu82  1  0.91784161  0.08696718  0.68069819  1
  Cu+  Cu83  1  0.91692734  0.58333592  0.67642261  1
  Cu+  Cu84  1  0.00011877  0.24945584  0.01064330  1
  Cu+  Cu85  1  0.00569590  0.75040317  0.00894678  1
  Cu+  Cu86  1  0.50386257  0.25497767  0.00546829  1
  Cu+  Cu87  1  0.50590179  0.75065335  0.00470251  1
  Cu+  Cu88  1  0.24969495  0.49826617  0.00849765  1
  Cu+  Cu89  1  0.25244760  0.99803142  0.01257434  1
  Cu+  Cu90  1  0.75289032  0.49918877  0.01353086  1
  Cu+  Cu91  1  0.75178977  0.99715588  0.00687816  1
  Cu+  Cu92  1  0.24719305  0.25073819  0.01051839  1
  Cu+  Cu93  1  0.25252406  0.75158428  0.01597547  1
  Cu+  Cu94  1  0.75092213  0.25254048  0.01493071  1
  Cu+  Cu95  1  0.75372367  0.75182316  0.00559303  1
  Cu+  Cu96  1  0.33217782  0.41813864  0.34099592  1
  Cu+  Cu97  1  0.33263758  0.91561975  0.34211833  1
  Cu+  Cu98  1  0.83334504  0.41890411  0.34974013  1
  Cu+  Cu99  1  0.83285033  0.91702855  0.34146458  1
  Cu+  Cu100  1  0.08093532  0.16422213  0.34658053  1
  Cu+  Cu101  1  0.08121518  0.66601468  0.34430000  1
  Cu+  Cu102  1  0.58059179  0.16377803  0.34122641  1
  Cu+  Cu103  1  0.57900722  0.66411117  0.33982190  1
  Cu+  Cu104  1  0.07889880  0.41636069  0.34346722  1
  Cu+  Cu105  1  0.08374074  0.91977596  0.34266433  1
  Cu+  Cu106  1  0.57984558  0.41886887  0.34005637  1
  Cu+  Cu107  1  0.58009579  0.91720558  0.33981052  1
  Cu+  Cu108  1  -0.00412526  -0.00371156  0.11322353  1
  Cu+  Cu109  1  0.00255404  0.49823944  0.11659029  1
  Cu+  Cu110  1  0.50320382  -0.00083976  0.11058917  1
  Cu+  Cu111  1  0.50215789  0.50403582  0.10991836  1
  Cu+  Cu112  1  0.33678944  0.16982465  0.44665275  1
  Cu+  Cu113  1  0.33254238  0.66549449  0.45106908  1
  Cu+  Cu114  1  0.82710269  0.16353708  0.44875933  1
  Cu+  Cu115  1  0.83285478  0.67096270  0.44851351  1
  Cu+  Cu116  1  0.17205496  0.33300205  0.78014041  1
  Cu+  Cu117  1  0.16624752  0.83639127  0.78378922  1
  Cu+  Cu118  1  0.65812344  0.32838942  0.78223270  1
  Cu+  Cu119  1  0.66595570  0.83277491  0.77498265  1
  Te2-  Te120  1  -0.00300920  -0.00264952  0.38818701  1
  Te2-  Te121  1  0.00059209  0.50165701  0.39000694  1
  Te2-  Te122  1  0.49794792  -0.00075862  0.38450184  1
  Te2-  Te123  1  0.49688434  0.49995756  0.38447294  1
  Te2-  Te124  1  0.33322351  0.16720290  0.72004884  1
  Te2-  Te125  1  0.33600092  0.66529412  0.72603993  1
  Te2-  Te126  1  0.83106384  0.16678007  0.72432176  1
  Te2-  Te127  1  0.83911925  0.66898532  0.72201812  1
  Te2-  Te128  1  0.16466594  0.33431300  0.05434905  1
  Te2-  Te129  1  0.16777387  0.83294820  0.05854276  1
  Te2-  Te130  1  0.66515311  0.33347344  0.05727999  1
  Te2-  Te131  1  0.66985893  0.83235980  0.04967120  1
  Te2-  Te132  1  0.50191654  0.25378526  0.87934247  1
  Te2-  Te133  1  0.49804941  0.74190549  0.87877259  1
  Te2-  Te134  1  0.98767764  0.24372519  0.88448053  1
  Te2-  Te135  1  1.00214590  0.74708958  0.88301297  1
  Te2-  Te136  1  0.25607811  0.00202637  0.88474326  1
  Te2-  Te137  1  0.25440494  0.50300120  0.88249777  1
  Te2-  Te138  1  0.75121304  0.00678601  0.88123063  1
  Te2-  Te139  1  0.76086178  0.51042583  0.88594378  1
  Te2-  Te140  1  0.24881706  0.24497395  0.88274064  1
  Te2-  Te141  1  0.25905024  0.74309594  0.88765931  1
  Te2-  Te142  1  0.75287379  0.24532732  0.88680855  1
  Te2-  Te143  1  0.76203375  0.75107845  0.88009912  1
  Te2-  Te144  1  0.32165395  0.41590955  0.21492637  1
  Te2-  Te145  1  0.31961983  0.91057209  0.21577424  1
  Te2-  Te146  1  0.81820000  0.41019142  0.22107447  1
  Te2-  Te147  1  0.82834021  0.91458232  0.21548852  1
  Te2-  Te148  1  0.08455159  0.17591721  0.21869558  1
  Te2-  Te149  1  0.07893146  0.67067406  0.21806749  1
  Te2-  Te150  1  0.57977801  0.17193473  0.21508729  1
  Te2-  Te151  1  0.58460395  0.67098732  0.21380279  1
  Te2-  Te152  1  0.07958646  0.41355886  0.21708643  1
  Te2-  Te153  1  0.08436136  0.91396104  0.21631073  1
  Te2-  Te154  1  0.57868757  0.40875588  0.21407489  1
  Te2-  Te155  1  0.58157124  0.91343234  0.21352734  1
  Te2-  Te156  1  0.15674184  0.07419148  0.54952717  1
  Te2-  Te157  1  0.16173920  0.58234114  0.55317073  1
  Te2-  Te158  1  0.66654593  0.08588830  0.54739001  1
  Te2-  Te159  1  0.66377973  0.57865646  0.54982325  1
  Te2-  Te160  1  0.41510628  0.33633268  0.54677529  1
  Te2-  Te161  1  0.41776213  0.83917910  0.55304942  1
  Te2-  Te162  1  0.92625571  0.34165340  0.55287634  1
  Te2-  Te163  1  0.91730597  0.83672672  0.54847376  1
  Te2-  Te164  1  0.41991103  0.08146818  0.54911422  1
  Te2-  Te165  1  0.41815105  0.58217095  0.54903024  1
  Te2-  Te166  1  0.91796539  0.07730236  0.55296534  1
  Te2-  Te167  1  0.92583193  0.58279904  0.55083820  1
  Te2-  Te168  1  0.00059237  -0.00114944  0.88282533  1
  Te2-  Te169  1  0.00043775  0.49926707  0.88326705  1
  Te2-  Te170  1  0.50367215  -0.00008178  0.88240179  1
  Te2-  Te171  1  0.50105489  0.50124222  0.88162877  1
  Te2-  Te172  1  0.33437616  0.16807460  0.21265778  1
  Te2-  Te173  1  0.33343415  0.66696425  0.21498482  1
  Te2-  Te174  1  0.83081922  0.16441346  0.21706384  1
  Te2-  Te175  1  0.83185327  0.66695978  0.21553725  1
  Te2-  Te176  1  0.16713235  0.33344344  0.55000371  1
  Te2-  Te177  1  0.16735208  0.83545065  0.54889866  1
  Te2-  Te178  1  0.66579513  0.33389375  0.54988327  1
  Te2-  Te179  1  0.66599104  0.83319631  0.54898947  1
  Te2-  Te180  1  0.33091802  0.41448430  0.71082373  1
  Te2-  Te181  1  0.32663443  0.91552202  0.71210211  1
  Te2-  Te182  1  0.82638603  0.41407527  0.71156671  1
  Te2-  Te183  1  0.82808415  0.91284461  0.70845691  1
  Te2-  Te184  1  0.08996653  0.17429709  0.71078878  1
  Te2-  Te185  1  0.08702018  0.67421964  0.71157309  1
  Te2-  Te186  1  0.58527000  0.17136424  0.71111851  1
  Te2-  Te187  1  0.58791604  0.67276228  0.70663438  1
  Te2-  Te188  1  0.08988970  0.41376573  0.70913032  1
  Te2-  Te189  1  0.08689539  0.91518108  0.71279966  1
  Te2-  Te190  1  0.58573451  0.41197582  0.70943655  1
  Te2-  Te191  1  0.58841921  0.91569617  0.70701857  1
  Te2-  Te192  1  0.15918774  0.07819359  0.04108400  1
  Te2-  Te193  1  0.16049443  0.57852823  0.04488877  1
  Te2-  Te194  1  0.66259721  0.07876024  0.04289278  1
  Te2-  Te195  1  0.66279087  0.58233535  0.04203025  1
  Te2-  Te196  1  0.42038888  0.34157167  0.03957323  1
  Te2-  Te197  1  0.42576780  0.84031752  0.04141604  1
  Te2-  Te198  1  0.92233489  0.34100087  0.04579476  1
  Te2-  Te199  1  0.92237007  0.83751596  0.04412766  1
  Te2-  Te200  1  0.42517220  0.08486802  0.03994162  1
  Te2-  Te201  1  0.41997926  0.58135229  0.04276598  1
  Te2-  Te202  1  0.91982163  0.08033551  0.04616665  1
  Te2-  Te203  1  0.92489419  0.58084286  0.04447686  1
  Te2-  Te204  1  0.49631588  0.24933175  0.37842843  1
  Te2-  Te205  1  0.49293245  0.74765176  0.37907816  1
  Te2-  Te206  1  0.99024948  0.24629955  0.37883010  1
  Te2-  Te207  1  0.99388936  0.74917049  0.37894572  1
  Te2-  Te208  1  0.25348872  0.00657141  0.37813201  1
  Te2-  Te209  1  0.24886361  0.50376251  0.38008964  1
  Te2-  Te210  1  0.75034312  0.00463711  0.37763709  1
  Te2-  Te211  1  0.74952044  0.50832744  0.37805775  1
  Te2-  Te212  1  0.25327189  0.24841823  0.37688302  1
  Te2-  Te213  1  0.25141045  0.74621146  0.37998671  1
  Te2-  Te214  1  0.75039191  0.24544694  0.37779618  1
  Te2-  Te215  1  0.74935708  0.74675886  0.37785965  1
