# generated using pymatgen
data_Ti(CuTe)4
_symmetry_space_group_name_H-M   'P 1'
_cell_length_a   16.89832278
_cell_length_b   16.89397185
_cell_length_c   20.71848635
_cell_angle_alpha   89.96429547
_cell_angle_beta   89.96944930
_cell_angle_gamma   120.00193288
_symmetry_Int_Tables_number   1
_chemical_formula_structural   Ti(CuTe)4
_chemical_formula_sum   'Ti24 Cu96 Te96'
_cell_volume   5122.18515196
_cell_formula_units_Z   24
loop_
 _symmetry_equiv_pos_site_id
 _symmetry_equiv_pos_as_xyz
  1  'x, y, z'
loop_
 _atom_type_symbol
 _atom_type_oxidation_number
  Ti4+  4.0
  Cu+  1.0
  Te2-  -2.0
loop_
 _atom_site_type_symbol
 _atom_site_label
 _atom_site_symmetry_multiplicity
 _atom_site_fract_x
 _atom_site_fract_y
 _atom_site_fract_z
 _atom_site_occupancy
  Ti4+  Ti0  1  0.00023390  0.00362280  0.25486182  1
  Ti4+  Ti1  1  -0.00472274  0.49979494  0.25762483  1
  Ti4+  Ti2  1  0.49830577  -0.00358896  0.25514929  1
  Ti4+  Ti3  1  0.49848590  0.49943603  0.25733984  1
  Ti4+  Ti4  1  0.33399703  0.16416777  0.58938881  1
  Ti4+  Ti5  1  0.33458112  0.66753114  0.59245811  1
  Ti4+  Ti6  1  0.83443922  0.16755761  0.59140791  1
  Ti4+  Ti7  1  0.83377009  0.66535855  0.59437235  1
  Ti4+  Ti8  1  0.16881695  0.33551635  0.92470831  1
  Ti4+  Ti9  1  0.16854862  0.83305710  0.92398795  1
  Ti4+  Ti10  1  0.66869372  0.33672704  0.92615140  1
  Ti4+  Ti11  1  0.66773663  0.83387786  0.92614597  1
  Ti4+  Ti12  1  -0.00032327  -0.00024233  0.75534937  1
  Ti4+  Ti13  1  0.00201404  0.50076483  0.75625606  1
  Ti4+  Ti14  1  0.50048431  -0.00026343  0.75718533  1
  Ti4+  Ti15  1  0.50048201  0.49876193  0.75577393  1
  Ti4+  Ti16  1  0.33265967  0.16717287  0.08663364  1
  Ti4+  Ti17  1  0.33296281  0.66765782  0.08851580  1
  Ti4+  Ti18  1  0.83343571  0.16660113  0.08435026  1
  Ti4+  Ti19  1  0.83260080  0.66502041  0.08894387  1
  Ti4+  Ti20  1  0.16379770  0.33197565  0.42175221  1
  Ti4+  Ti21  1  0.16709965  0.83376812  0.42243734  1
  Ti4+  Ti22  1  0.66658366  0.33271052  0.42297640  1
  Ti4+  Ti23  1  0.66455790  0.83174459  0.42314558  1
  Cu+  Cu24  1  0.35841305  0.92762802  0.47403165  1
  Cu+  Cu25  1  0.19117742  0.59504531  0.80769034  1
  Cu+  Cu26  1  0.74690405  0.98746470  0.14243671  1
  Cu+  Cu27  1  0.23585387  0.76007263  0.14003608  1
  Cu+  Cu28  1  0.68499023  0.59748504  0.80902639  1
  Cu+  Cu29  1  0.91417386  0.59332690  0.81339980  1
  Cu+  Cu30  1  0.51681687  0.75507461  0.14139250  1
  Cu+  Cu31  1  0.73830249  0.25210992  0.14217357  1
  Cu+  Cu32  1  0.01228461  0.26125706  0.14145583  1
  Cu+  Cu33  1  0.85503332  0.42758774  0.47913359  1
  Cu+  Cu34  1  0.24355241  0.26324488  0.13970154  1
  Cu+  Cu35  1  0.73557223  0.48106278  0.14426493  1
  Cu+  Cu36  1  0.16413618  0.08759810  0.16726521  1
  Cu+  Cu37  1  0.16200076  0.58680341  0.17016187  1
  Cu+  Cu38  1  0.65916110  0.07633355  0.16545415  1
  Cu+  Cu39  1  0.66125640  0.57853409  0.17076022  1
  Cu+  Cu40  1  0.41496201  0.33675793  0.16977362  1
  Cu+  Cu41  1  0.41565362  0.83417773  0.16790252  1
  Cu+  Cu42  1  0.91458619  0.33855149  0.16746432  1
  Cu+  Cu43  1  0.91792762  0.83593679  0.16992646  1
  Cu+  Cu44  1  0.41520715  0.07838556  0.16780267  1
  Cu+  Cu45  1  0.42093529  0.58376710  0.17018349  1
  Cu+  Cu46  1  0.92272424  0.08182911  0.16421519  1
  Cu+  Cu47  1  0.91137342  0.57612950  0.17016797  1
  Cu+  Cu48  1  0.49507917  0.24519076  0.50376564  1
  Cu+  Cu49  1  0.49586973  0.74685977  0.50537060  1
  Cu+  Cu50  1  0.99510497  0.24720277  0.50387140  1
  Cu+  Cu51  1  0.99648814  0.74744335  0.50639890  1
  Cu+  Cu52  1  0.25717415  0.00247239  0.50274773  1
  Cu+  Cu53  1  0.24869847  0.50086099  0.50653773  1
  Cu+  Cu54  1  0.74986957  0.00129699  0.50588287  1
  Cu+  Cu55  1  0.75503925  0.50224988  0.50743817  1
  Cu+  Cu56  1  0.25060985  0.24733761  0.50412331  1
  Cu+  Cu57  1  0.25538076  0.75266298  0.50542546  1
  Cu+  Cu58  1  0.75582585  0.25204522  0.50483303  1
  Cu+  Cu59  1  0.74847105  0.74659991  0.50722764  1
  Cu+  Cu60  1  0.33001568  0.41297344  0.83715060  1
  Cu+  Cu61  1  0.33193214  0.91353001  0.83855449  1
  Cu+  Cu62  1  0.82928761  0.41868190  0.83858070  1
  Cu+  Cu63  1  0.83123650  0.91793084  0.83809661  1
  Cu+  Cu64  1  0.08552580  0.16979335  0.83845368  1
  Cu+  Cu65  1  0.09017426  0.67150069  0.83748820  1
  Cu+  Cu66  1  0.58629248  0.16920475  0.84065503  1
  Cu+  Cu67  1  0.58622475  0.67014436  0.83940140  1
  Cu+  Cu68  1  0.09077836  0.41999624  0.83815082  1
  Cu+  Cu69  1  0.08481912  0.91645090  0.83686017  1
  Cu+  Cu70  1  0.59105198  0.42237662  0.83733697  1
  Cu+  Cu71  1  0.58521640  0.91570030  0.84063254  1
  Cu+  Cu72  1  0.16946200  0.08361334  0.67174552  1
  Cu+  Cu73  1  0.17223116  0.58533852  0.67895881  1
  Cu+  Cu74  1  0.67112285  0.08568989  0.67489533  1
  Cu+  Cu75  1  0.66974468  0.58266502  0.68038047  1
  Cu+  Cu76  1  0.41402906  0.32743084  0.67347330  1
  Cu+  Cu77  1  0.41696705  0.83209158  0.67684121  1
  Cu+  Cu78  1  0.91628058  0.33008948  0.67595371  1
  Cu+  Cu79  1  0.91408782  0.83056089  0.67702340  1
  Cu+  Cu80  1  0.41588308  0.08275913  0.67516389  1
  Cu+  Cu81  1  0.41464304  0.58175892  0.67583718  1
  Cu+  Cu82  1  0.91575883  0.08441203  0.67445861  1
  Cu+  Cu83  1  0.91513751  0.58205930  0.68256072  1
  Cu+  Cu84  1  0.00448433  0.25196221  0.01024692  1
  Cu+  Cu85  1  0.00332207  0.74944562  0.00845218  1
  Cu+  Cu86  1  0.50248555  0.25197918  0.00724350  1
  Cu+  Cu87  1  0.50441140  0.75249778  0.01235614  1
  Cu+  Cu88  1  0.24983675  0.49971718  0.00793912  1
  Cu+  Cu89  1  0.24987967  0.99779299  0.00590007  1
  Cu+  Cu90  1  0.74972362  0.49830393  0.01531994  1
  Cu+  Cu91  1  0.74807102  0.99696705  0.01231402  1
  Cu+  Cu92  1  0.24779760  0.25169174  0.01167987  1
  Cu+  Cu93  1  0.24732143  0.75045232  0.01204734  1
  Cu+  Cu94  1  0.74984484  0.25405191  0.01244165  1
  Cu+  Cu95  1  0.74962551  0.75068315  0.00930205  1
  Cu+  Cu96  1  0.33345418  0.41792419  0.34163674  1
  Cu+  Cu97  1  0.33396713  0.91461334  0.34490521  1
  Cu+  Cu98  1  0.83265146  0.41686130  0.34849173  1
  Cu+  Cu99  1  0.83456063  0.91757774  0.34114237  1
  Cu+  Cu100  1  0.08054029  0.16694645  0.34016955  1
  Cu+  Cu101  1  0.07932462  0.66644459  0.34257970  1
  Cu+  Cu102  1  0.58129583  0.16370123  0.34083394  1
  Cu+  Cu103  1  0.58121854  0.66373083  0.34264734  1
  Cu+  Cu104  1  0.07842079  0.41663816  0.34217853  1
  Cu+  Cu105  1  0.08092631  0.91948491  0.33962148  1
  Cu+  Cu106  1  0.58008903  0.41691024  0.34315556  1
  Cu+  Cu107  1  0.58091174  0.91331459  0.34153472  1
  Cu+  Cu108  1  0.00291633  -0.00559540  0.11071796  1
  Cu+  Cu109  1  0.00185447  0.50178762  0.11306650  1
  Cu+  Cu110  1  0.49630999  -0.00000203  0.10926253  1
  Cu+  Cu111  1  0.49856684  0.49926459  0.11320690  1
  Cu+  Cu112  1  0.33051030  0.16668815  0.44589018  1
  Cu+  Cu113  1  0.33012320  0.66235404  0.45012157  1
  Cu+  Cu114  1  0.82914320  0.16159147  0.44848902  1
  Cu+  Cu115  1  0.83294834  0.66959140  0.45180061  1
  Cu+  Cu116  1  0.16579101  0.32985572  0.78082063  1
  Cu+  Cu117  1  0.16935901  0.83952257  0.78066769  1
  Cu+  Cu118  1  0.66173650  0.32864577  0.78307746  1
  Cu+  Cu119  1  0.66561639  0.83410718  0.78306513  1
  Te2-  Te120  1  -0.00042560  0.00231181  0.38328127  1
  Te2-  Te121  1  -0.00009343  0.50206404  0.38758193  1
  Te2-  Te122  1  0.50165808  -0.00107579  0.38490304  1
  Te2-  Te123  1  0.49758299  0.49908396  0.38576689  1
  Te2-  Te124  1  0.33236270  0.16382570  0.71839343  1
  Te2-  Te125  1  0.33819660  0.66839249  0.72310841  1
  Te2-  Te126  1  0.83454401  0.16639222  0.72059178  1
  Te2-  Te127  1  0.83520750  0.66802601  0.72645726  1
  Te2-  Te128  1  0.16827954  0.33785859  0.05709124  1
  Te2-  Te129  1  0.16619516  0.83571983  0.05482329  1
  Te2-  Te130  1  0.66340398  0.33212775  0.05848080  1
  Te2-  Te131  1  0.66913183  0.83240252  0.05856691  1
  Te2-  Te132  1  0.50010047  0.25348431  0.88134203  1
  Te2-  Te133  1  0.49699566  0.74774050  0.88525923  1
  Te2-  Te134  1  0.99864720  0.25160050  0.88279271  1
  Te2-  Te135  1  0.99587458  0.74891885  0.88284014  1
  Te2-  Te136  1  0.25287047  0.00316732  0.88042057  1
  Te2-  Te137  1  0.25975647  0.50957109  0.88273201  1
  Te2-  Te138  1  0.75252608  0.00508533  0.88540812  1
  Te2-  Te139  1  0.75730107  0.51389222  0.88767798  1
  Te2-  Te140  1  0.25241089  0.24776783  0.88494984  1
  Te2-  Te141  1  0.25711520  0.74728690  0.88543077  1
  Te2-  Te142  1  0.75468613  0.25224437  0.88518604  1
  Te2-  Te143  1  0.75709638  0.75045315  0.88367863  1
  Te2-  Te144  1  0.32561313  0.41737010  0.21554820  1
  Te2-  Te145  1  0.32525444  0.91230175  0.21671042  1
  Te2-  Te146  1  0.81893695  0.40864356  0.21982186  1
  Te2-  Te147  1  0.82697925  0.91300058  0.21478726  1
  Te2-  Te148  1  0.08808646  0.18072812  0.21444208  1
  Te2-  Te149  1  0.07910559  0.67267066  0.21636366  1
  Te2-  Te150  1  0.58249569  0.16904537  0.21449985  1
  Te2-  Te151  1  0.58984434  0.67317104  0.21682171  1
  Te2-  Te152  1  0.08463006  0.41764555  0.21547939  1
  Te2-  Te153  1  0.08637383  0.91929858  0.21323763  1
  Te2-  Te154  1  0.58101098  0.40845903  0.21712529  1
  Te2-  Te155  1  0.58646665  0.90926033  0.21530896  1
  Te2-  Te156  1  0.16357532  0.07804756  0.54586230  1
  Te2-  Te157  1  0.16391248  0.58421127  0.55159066  1
  Te2-  Te158  1  0.66354455  0.08363067  0.54888158  1
  Te2-  Te159  1  0.66357539  0.57877936  0.55306581  1
  Te2-  Te160  1  0.41890523  0.33614623  0.54785486  1
  Te2-  Te161  1  0.42420655  0.84157014  0.55092865  1
  Te2-  Te162  1  0.92507635  0.34297215  0.55057112  1
  Te2-  Te163  1  0.91698631  0.83554485  0.55099568  1
  Te2-  Te164  1  0.42518888  0.07956380  0.54959853  1
  Te2-  Te165  1  0.41730236  0.57947231  0.55006068  1
  Te2-  Te166  1  0.91838245  0.08036049  0.54872461  1
  Te2-  Te167  1  0.92367438  0.58123471  0.55453783  1
  Te2-  Te168  1  0.00079844  0.00091708  0.88160038  1
  Te2-  Te169  1  0.00068145  0.50036043  0.88360892  1
  Te2-  Te170  1  0.50062810  0.00032990  0.88344610  1
  Te2-  Te171  1  0.49910591  0.49950808  0.88273237  1
  Te2-  Te172  1  0.33296632  0.16571942  0.21346876  1
  Te2-  Te173  1  0.33146982  0.66484994  0.21592537  1
  Te2-  Te174  1  0.83205912  0.16481854  0.21264275  1
  Te2-  Te175  1  0.83202134  0.66689697  0.21571606  1
  Te2-  Te176  1  0.16493039  0.33089239  0.54785311  1
  Te2-  Te177  1  0.16651142  0.83364085  0.54915447  1
  Te2-  Te178  1  0.66495699  0.33090629  0.54952781  1
  Te2-  Te179  1  0.66513603  0.83233642  0.54941527  1
  Te2-  Te180  1  0.32848611  0.41160387  0.71134446  1
  Te2-  Te181  1  0.32900825  0.91349111  0.71233111  1
  Te2-  Te182  1  0.82722889  0.41017429  0.71274754  1
  Te2-  Te183  1  0.82737903  0.91423743  0.71199976  1
  Te2-  Te184  1  0.08646547  0.17045224  0.71091208  1
  Te2-  Te185  1  0.08875025  0.67454793  0.71034953  1
  Te2-  Te186  1  0.58606499  0.17041384  0.71307334  1
  Te2-  Te187  1  0.58554868  0.67192630  0.71166887  1
  Te2-  Te188  1  0.08672993  0.41275118  0.71134175  1
  Te2-  Te189  1  0.08526112  0.91403127  0.71030291  1
  Te2-  Te190  1  0.58420577  0.40990228  0.71065667  1
  Te2-  Te191  1  0.58727900  0.91543465  0.71337510  1
  Te2-  Te192  1  0.16055965  0.07864098  0.04048518  1
  Te2-  Te193  1  0.15972328  0.57866882  0.04324765  1
  Te2-  Te194  1  0.65824679  0.08041293  0.03903602  1
  Te2-  Te195  1  0.65925925  0.58102698  0.04391153  1
  Te2-  Te196  1  0.42084766  0.34047042  0.04252994  1
  Te2-  Te197  1  0.42013848  0.84077948  0.04117626  1
  Te2-  Te198  1  0.92238263  0.34233973  0.04057881  1
  Te2-  Te199  1  0.91978545  0.83656990  0.04333345  1
  Te2-  Te200  1  0.41915949  0.08154894  0.04160766  1
  Te2-  Te201  1  0.41920395  0.58009111  0.04344652  1
  Te2-  Te202  1  0.92143612  0.07920052  0.03845422  1
  Te2-  Te203  1  0.92194266  0.58070953  0.04393865  1
  Te2-  Te204  1  0.49441027  0.24628654  0.37789446  1
  Te2-  Te205  1  0.49228496  0.74450434  0.37910350  1
  Te2-  Te206  1  0.99136466  0.24684305  0.37765426  1
  Te2-  Te207  1  0.99407287  0.75024329  0.37982034  1
  Te2-  Te208  1  0.25139953  0.00519844  0.37550509  1
  Te2-  Te209  1  0.24918963  0.50392397  0.37889077  1
  Te2-  Te210  1  0.75057980  0.00311537  0.37831632  1
  Te2-  Te211  1  0.75000090  0.50651230  0.38015089  1
  Te2-  Te212  1  0.25057814  0.24755730  0.37699822  1
  Te2-  Te213  1  0.24947094  0.74307420  0.37800626  1
  Te2-  Te214  1  0.75060892  0.24388323  0.37736882  1
  Te2-  Te215  1  0.75160305  0.74734660  0.37977569  1
