# generated using pymatgen
data_Ti(CuTe)4
_symmetry_space_group_name_H-M   'P 1'
_cell_length_a   16.90703606
_cell_length_b   16.90368797
_cell_length_c   20.72998074
_cell_angle_alpha   89.97983022
_cell_angle_beta   89.98248428
_cell_angle_gamma   120.00347654
_symmetry_Int_Tables_number   1
_chemical_formula_structural   Ti(CuTe)4
_chemical_formula_sum   'Ti24 Cu96 Te96'
_cell_volume   5130.54105382
_cell_formula_units_Z   24
loop_
 _symmetry_equiv_pos_site_id
 _symmetry_equiv_pos_as_xyz
  1  'x, y, z'
loop_
 _atom_type_symbol
 _atom_type_oxidation_number
  Ti4+  4.0
  Cu+  1.0
  Te2-  -2.0
loop_
 _atom_site_type_symbol
 _atom_site_label
 _atom_site_symmetry_multiplicity
 _atom_site_fract_x
 _atom_site_fract_y
 _atom_site_fract_z
 _atom_site_occupancy
  Ti4+  Ti0  1  0.00063055  0.00115650  0.25564290  1
  Ti4+  Ti1  1  0.00143836  0.49829939  0.26209706  1
  Ti4+  Ti2  1  0.50108263  0.00170574  0.25581794  1
  Ti4+  Ti3  1  0.50108512  0.49919638  0.25946726  1
  Ti4+  Ti4  1  0.33486689  0.17200477  0.59150750  1
  Ti4+  Ti5  1  0.33414487  0.66998354  0.58761215  1
  Ti4+  Ti6  1  0.83005453  0.16680553  0.59136768  1
  Ti4+  Ti7  1  0.83395210  0.66681344  0.59084268  1
  Ti4+  Ti8  1  0.16400254  0.33031993  0.92459275  1
  Ti4+  Ti9  1  0.16496429  0.83301808  0.92207083  1
  Ti4+  Ti10  1  0.66801470  0.33031384  0.92926626  1
  Ti4+  Ti11  1  0.66543880  0.82834459  0.92234941  1
  Ti4+  Ti12  1  -0.00001037  -0.00073497  0.75306842  1
  Ti4+  Ti13  1  -0.00155227  0.49784070  0.75763677  1
  Ti4+  Ti14  1  0.49881993  0.00076544  0.75581097  1
  Ti4+  Ti15  1  0.49960403  0.50161920  0.75663514  1
  Ti4+  Ti16  1  0.33335508  0.16544928  0.08781634  1
  Ti4+  Ti17  1  0.33259541  0.66546558  0.08974680  1
  Ti4+  Ti18  1  0.83402009  0.16411090  0.08859496  1
  Ti4+  Ti19  1  0.83296149  0.66511159  0.09010880  1
  Ti4+  Ti20  1  0.16842038  0.33376060  0.42168967  1
  Ti4+  Ti21  1  0.16698057  0.83428993  0.42054228  1
  Ti4+  Ti22  1  0.66705726  0.33428925  0.42177713  1
  Ti4+  Ti23  1  0.66621975  0.83531813  0.42097838  1
  Cu+  Cu24  1  0.35208635  0.42962455  0.47510420  1
  Cu+  Cu25  1  0.51630036  0.26121038  0.14494214  1
  Cu+  Cu26  1  0.90277310  0.30738050  0.81145987  1
  Cu+  Cu27  1  0.74973534  0.25842223  0.14877662  1
  Cu+  Cu28  1  0.84267481  0.42182250  0.48275188  1
  Cu+  Cu29  1  0.02198640  0.26119797  0.14211083  1
  Cu+  Cu30  1  0.90616789  0.81189960  0.80727625  1
  Cu+  Cu31  1  0.07743948  0.65636367  0.48003726  1
  Cu+  Cu32  1  0.57874680  0.42845600  0.47722308  1
  Cu+  Cu33  1  0.18543842  0.09239890  0.80766471  1
  Cu+  Cu34  1  0.57186946  0.93182696  0.47088281  1
  Cu+  Cu35  1  0.07845263  0.42138035  0.48126263  1
  Cu+  Cu36  1  0.16280121  0.08084962  0.16860783  1
  Cu+  Cu37  1  0.16469814  0.58198771  0.17410472  1
  Cu+  Cu38  1  0.66165554  0.08174094  0.16849625  1
  Cu+  Cu39  1  0.66422428  0.58061844  0.17246689  1
  Cu+  Cu40  1  0.42134968  0.33781873  0.17286235  1
  Cu+  Cu41  1  0.41900665  0.83600075  0.17065711  1
  Cu+  Cu42  1  0.92291388  0.33754674  0.17294344  1
  Cu+  Cu43  1  0.91709717  0.83557731  0.17109462  1
  Cu+  Cu44  1  0.42171697  0.08481540  0.16824378  1
  Cu+  Cu45  1  0.41645326  0.58078571  0.17304507  1
  Cu+  Cu46  1  0.92447570  0.08513308  0.16837639  1
  Cu+  Cu47  1  0.91805473  0.58184515  0.17457144  1
  Cu+  Cu48  1  0.49535131  0.25343085  0.50259300  1
  Cu+  Cu49  1  0.49807985  0.75553739  0.50044735  1
  Cu+  Cu50  1  0.99448916  0.24937753  0.50444776  1
  Cu+  Cu51  1  0.99673920  0.74860936  0.50345156  1
  Cu+  Cu52  1  0.25207381  0.00607129  0.50395415  1
  Cu+  Cu53  1  0.25420652  0.50608804  0.50126938  1
  Cu+  Cu54  1  0.74485097  0.00277230  0.50357325  1
  Cu+  Cu55  1  0.75316643  0.50754561  0.50246656  1
  Cu+  Cu56  1  0.25734428  0.25304968  0.50275110  1
  Cu+  Cu57  1  0.25140826  0.74862298  0.50019619  1
  Cu+  Cu58  1  0.75486650  0.24870729  0.50300101  1
  Cu+  Cu59  1  0.75182388  0.75081792  0.50322874  1
  Cu+  Cu60  1  0.32994553  0.41659570  0.83825184  1
  Cu+  Cu61  1  0.32977023  0.91403700  0.83601978  1
  Cu+  Cu62  1  0.82992582  0.40831289  0.84159490  1
  Cu+  Cu63  1  0.82852582  0.90789093  0.83459939  1
  Cu+  Cu64  1  0.08750587  0.17030449  0.83548795  1
  Cu+  Cu65  1  0.08433416  0.66872031  0.83706653  1
  Cu+  Cu66  1  0.58491598  0.16863360  0.84141405  1
  Cu+  Cu67  1  0.58406859  0.66916974  0.83642924  1
  Cu+  Cu68  1  0.07789932  0.40829052  0.83910351  1
  Cu+  Cu69  1  0.08395846  0.91357673  0.83378959  1
  Cu+  Cu70  1  0.58346532  0.41577279  0.84261354  1
  Cu+  Cu71  1  0.58221163  0.91324367  0.83769700  1
  Cu+  Cu72  1  0.17043574  0.08882855  0.67800072  1
  Cu+  Cu73  1  0.16853022  0.58485748  0.67505617  1
  Cu+  Cu74  1  0.66553659  0.08570233  0.67584539  1
  Cu+  Cu75  1  0.66764231  0.58418827  0.67597190  1
  Cu+  Cu76  1  0.41642118  0.33606031  0.67791097  1
  Cu+  Cu77  1  0.41567860  0.83421520  0.67190007  1
  Cu+  Cu78  1  0.91414394  0.33065212  0.68275379  1
  Cu+  Cu79  1  0.91461029  0.82972285  0.67729926  1
  Cu+  Cu80  1  0.41560851  0.08733771  0.67529645  1
  Cu+  Cu81  1  0.41551909  0.58655334  0.67289397  1
  Cu+  Cu82  1  0.91394493  0.08520023  0.67310011  1
  Cu+  Cu83  1  0.91614079  0.58362065  0.67749426  1
  Cu+  Cu84  1  0.00234051  0.24774208  0.01284859  1
  Cu+  Cu85  1  0.00091025  0.74965728  0.00726118  1
  Cu+  Cu86  1  0.50378534  0.25028204  0.01555982  1
  Cu+  Cu87  1  0.50060382  0.74746596  0.00629407  1
  Cu+  Cu88  1  0.24579558  0.49646361  0.00873675  1
  Cu+  Cu89  1  0.24595656  0.99634665  0.00567995  1
  Cu+  Cu90  1  0.75028882  0.49589214  0.01121599  1
  Cu+  Cu91  1  0.74775383  0.99135045  0.00499810  1
  Cu+  Cu92  1  0.24742387  0.24827444  0.00825469  1
  Cu+  Cu93  1  0.24762382  0.74995552  0.00703866  1
  Cu+  Cu94  1  0.74802723  0.24698249  0.01692605  1
  Cu+  Cu95  1  0.74810972  0.74682446  0.00696219  1
  Cu+  Cu96  1  0.33821132  0.41540841  0.34623832  1
  Cu+  Cu97  1  0.33517311  0.92063583  0.33807438  1
  Cu+  Cu98  1  0.83634974  0.41574015  0.34982226  1
  Cu+  Cu99  1  0.83654235  0.91882923  0.33824946  1
  Cu+  Cu100  1  0.08218655  0.16361646  0.34079671  1
  Cu+  Cu101  1  0.08180778  0.66376604  0.34886345  1
  Cu+  Cu102  1  0.58361848  0.16583019  0.34219649  1
  Cu+  Cu103  1  0.58463101  0.66605260  0.34064413  1
  Cu+  Cu104  1  0.08166572  0.41549181  0.34871572  1
  Cu+  Cu105  1  0.08328732  0.92006192  0.33893386  1
  Cu+  Cu106  1  0.58090407  0.41638250  0.34774989  1
  Cu+  Cu107  1  0.58234639  0.92051502  0.34305540  1
  Cu+  Cu108  1  -0.00065437  -0.00477560  0.11161853  1
  Cu+  Cu109  1  0.00320242  0.50561406  0.11891247  1
  Cu+  Cu110  1  0.49693872  -0.00485806  0.11119354  1
  Cu+  Cu111  1  0.49991981  0.50309459  0.11653042  1
  Cu+  Cu112  1  0.33233879  0.16389364  0.44640580  1
  Cu+  Cu113  1  0.33626980  0.67022916  0.44279214  1
  Cu+  Cu114  1  0.83422853  0.16327682  0.44682671  1
  Cu+  Cu115  1  0.83510349  0.67461986  0.44622130  1
  Cu+  Cu116  1  0.16833130  0.33603985  0.78147073  1
  Cu+  Cu117  1  0.16813135  0.83119447  0.77864869  1
  Cu+  Cu118  1  0.66328079  0.33446759  0.78780971  1
  Cu+  Cu119  1  0.66437935  0.83517051  0.77942467  1
  Te2-  Te120  1  -0.00045548  -0.00039336  0.38458560  1
  Te2-  Te121  1  0.00083541  0.49909524  0.39517678  1
  Te2-  Te122  1  0.49770889  0.00196896  0.38621447  1
  Te2-  Te123  1  0.50337952  0.50431370  0.39134653  1
  Te2-  Te124  1  0.33590423  0.17130794  0.72180165  1
  Te2-  Te125  1  0.33381038  0.66967887  0.71579908  1
  Te2-  Te126  1  0.82960884  0.16333148  0.72156626  1
  Te2-  Te127  1  0.83195544  0.66403564  0.72077244  1
  Te2-  Te128  1  0.16854827  0.33277484  0.05499594  1
  Te2-  Te129  1  0.16551629  0.83252744  0.05064059  1
  Te2-  Te130  1  0.66927002  0.33360263  0.06100790  1
  Te2-  Te131  1  0.66488479  0.82809061  0.05096251  1
  Te2-  Te132  1  0.49760653  0.24814895  0.88816388  1
  Te2-  Te133  1  0.49392472  0.74537311  0.88080906  1
  Te2-  Te134  1  0.99046003  0.23881693  0.88495979  1
  Te2-  Te135  1  0.99171068  0.74387536  0.88098783  1
  Te2-  Te136  1  0.25362480  0.00616120  0.87990089  1
  Te2-  Te137  1  0.24631508  0.50050494  0.88277960  1
  Te2-  Te138  1  0.75218042  -0.00101591  0.87911481  1
  Te2-  Te139  1  0.75302245  0.49971253  0.88521525  1
  Te2-  Te140  1  0.25545633  0.24861183  0.88241596  1
  Te2-  Te141  1  0.25093813  0.74729772  0.88131437  1
  Te2-  Te142  1  0.75132302  0.23998917  0.88883824  1
  Te2-  Te143  1  0.75086982  0.73928963  0.88112132  1
  Te2-  Te144  1  0.33033685  0.41297950  0.21894581  1
  Te2-  Te145  1  0.33121276  0.91769748  0.21255311  1
  Te2-  Te146  1  0.82928495  0.41400402  0.22143736  1
  Te2-  Te147  1  0.82997098  0.91768702  0.21266263  1
  Te2-  Te148  1  0.09216970  0.17622163  0.21513564  1
  Te2-  Te149  1  0.08427526  0.66780740  0.22140628  1
  Te2-  Te150  1  0.59011322  0.17840581  0.21651443  1
  Te2-  Te151  1  0.58506184  0.66914559  0.21530345  1
  Te2-  Te152  1  0.08991429  0.41418434  0.22060502  1
  Te2-  Te153  1  0.08544805  0.91460038  0.21351582  1
  Te2-  Te154  1  0.59067168  0.41509865  0.22038161  1
  Te2-  Te155  1  0.58679664  0.91651613  0.21606370  1
  Te2-  Te156  1  0.16466374  0.08664644  0.55035954  1
  Te2-  Te157  1  0.15778376  0.57923393  0.54933456  1
  Te2-  Te158  1  0.65715824  0.08407131  0.54996700  1
  Te2-  Te159  1  0.66132584  0.58366410  0.55000363  1
  Te2-  Te160  1  0.42406031  0.34908840  0.55174068  1
  Te2-  Te161  1  0.41711310  0.84305203  0.54632351  1
  Te2-  Te162  1  0.92131982  0.34388771  0.55466670  1
  Te2-  Te163  1  0.91888240  0.83671502  0.54986488  1
  Te2-  Te164  1  0.42019796  0.08715743  0.54912732  1
  Te2-  Te165  1  0.42341539  0.58699633  0.54695241  1
  Te2-  Te166  1  0.91414571  0.08167086  0.54727737  1
  Te2-  Te167  1  0.92164993  0.57844917  0.55157415  1
  Te2-  Te168  1  -0.00081298  -0.00128225  0.88016632  1
  Te2-  Te169  1  0.00056011  0.50017457  0.88417751  1
  Te2-  Te170  1  0.49797226  -0.00258925  0.88208239  1
  Te2-  Te171  1  0.49851783  0.50078459  0.88305312  1
  Te2-  Te172  1  0.33264257  0.16525250  0.21446822  1
  Te2-  Te173  1  0.33437453  0.66776175  0.21602584  1
  Te2-  Te174  1  0.83280199  0.16420322  0.21568794  1
  Te2-  Te175  1  0.83349014  0.66736822  0.21635954  1
  Te2-  Te176  1  0.16695761  0.33433048  0.54912053  1
  Te2-  Te177  1  0.16797589  0.83547221  0.54760921  1
  Te2-  Te178  1  0.66701376  0.33444778  0.54905976  1
  Te2-  Te179  1  0.66602227  0.83373718  0.54795230  1
  Te2-  Te180  1  0.32791291  0.41765711  0.71164132  1
  Te2-  Te181  1  0.32814724  0.91619411  0.70931962  1
  Te2-  Te182  1  0.82507273  0.41402486  0.71423104  1
  Te2-  Te183  1  0.82716586  0.91492599  0.70767417  1
  Te2-  Te184  1  0.08300448  0.17354397  0.70927714  1
  Te2-  Te185  1  0.08533391  0.67021577  0.71149029  1
  Te2-  Te186  1  0.58494682  0.17412753  0.71453451  1
  Te2-  Te187  1  0.58533856  0.67259730  0.71025248  1
  Te2-  Te188  1  0.08758897  0.41522392  0.71154124  1
  Te2-  Te189  1  0.08783978  0.91451111  0.70656537  1
  Te2-  Te190  1  0.58605656  0.41517803  0.71484357  1
  Te2-  Te191  1  0.58421163  0.91508209  0.71039382  1
  Te2-  Te192  1  0.16076248  0.07926489  0.04306110  1
  Te2-  Te193  1  0.16047425  0.58061800  0.04680392  1
  Te2-  Te194  1  0.66081169  0.07355127  0.04273855  1
  Te2-  Te195  1  0.66102161  0.57742337  0.04593278  1
  Te2-  Te196  1  0.41813802  0.33885196  0.04523560  1
  Te2-  Te197  1  0.41814932  0.83545803  0.04330100  1
  Te2-  Te198  1  0.92148501  0.33924834  0.04585982  1
  Te2-  Te199  1  0.91761364  0.83557013  0.04390372  1
  Te2-  Te200  1  0.41627461  0.07623289  0.04187640  1
  Te2-  Te201  1  0.41651159  0.57811751  0.04551691  1
  Te2-  Te202  1  0.91676178  0.07494167  0.04205175  1
  Te2-  Te203  1  0.92051593  0.58030341  0.04719543  1
  Te2-  Te204  1  0.49322230  0.24478065  0.37670448  1
  Te2-  Te205  1  0.49479988  0.74717600  0.37348024  1
  Te2-  Te206  1  0.99423080  0.24425505  0.37768077  1
  Te2-  Te207  1  0.99422164  0.75001690  0.37618000  1
  Te2-  Te208  1  0.25216447  0.00601743  0.37671818  1
  Te2-  Te209  1  0.25543595  0.50694018  0.37420158  1
  Te2-  Te210  1  0.75473439  0.00692262  0.37567064  1
  Te2-  Te211  1  0.75506662  0.50839289  0.37584499  1
  Te2-  Te212  1  0.25160307  0.24376691  0.37682930  1
  Te2-  Te213  1  0.25589138  0.75062060  0.37395537  1
  Te2-  Te214  1  0.75213670  0.24406443  0.37759998  1
  Te2-  Te215  1  0.75354917  0.75013958  0.37665941  1
