# generated using pymatgen
data_Ti(CuTe)4
_symmetry_space_group_name_H-M   'P 1'
_cell_length_a   16.89746844
_cell_length_b   16.89746857
_cell_length_c   20.71855742
_cell_angle_alpha   90.01832379
_cell_angle_beta   89.96768504
_cell_angle_gamma   119.98932061
_symmetry_Int_Tables_number   1
_chemical_formula_structural   Ti(CuTe)4
_chemical_formula_sum   'Ti24 Cu96 Te96'
_cell_volume   5123.65751697
_cell_formula_units_Z   24
loop_
 _symmetry_equiv_pos_site_id
 _symmetry_equiv_pos_as_xyz
  1  'x, y, z'
loop_
 _atom_type_symbol
 _atom_type_oxidation_number
  Ti4+  4.0
  Cu+  1.0
  Te2-  -2.0
loop_
 _atom_site_type_symbol
 _atom_site_label
 _atom_site_symmetry_multiplicity
 _atom_site_fract_x
 _atom_site_fract_y
 _atom_site_fract_z
 _atom_site_occupancy
  Ti4+  Ti0  1  -0.00511911  -0.00165271  0.25665210  1
  Ti4+  Ti1  1  0.00048515  0.49960931  0.25417858  1
  Ti4+  Ti2  1  0.49808109  0.00067357  0.25930575  1
  Ti4+  Ti3  1  0.49984953  0.49770363  0.25496986  1
  Ti4+  Ti4  1  0.33559353  0.16521999  0.59202453  1
  Ti4+  Ti5  1  0.33412578  0.66531954  0.59055921  1
  Ti4+  Ti6  1  0.83454992  0.16536260  0.59255551  1
  Ti4+  Ti7  1  0.83366729  0.66800368  0.59111297  1
  Ti4+  Ti8  1  0.16855045  0.33273637  0.92772068  1
  Ti4+  Ti9  1  0.16668057  0.83575824  0.92115159  1
  Ti4+  Ti10  1  0.66859527  0.33683716  0.92558352  1
  Ti4+  Ti11  1  0.66623231  0.83574603  0.92714851  1
  Ti4+  Ti12  1  0.00294094  0.00094391  0.75725485  1
  Ti4+  Ti13  1  -0.00143704  0.50055740  0.75596518  1
  Ti4+  Ti14  1  0.50087788  -0.00081650  0.75627452  1
  Ti4+  Ti15  1  0.50009746  0.49957285  0.75720242  1
  Ti4+  Ti16  1  0.33486377  0.16732283  0.08830766  1
  Ti4+  Ti17  1  0.33234780  0.66679787  0.08618862  1
  Ti4+  Ti18  1  0.83280234  0.16697134  0.08579265  1
  Ti4+  Ti19  1  0.83276725  0.66786108  0.08675611  1
  Ti4+  Ti20  1  0.16588078  0.33287255  0.42277571  1
  Ti4+  Ti21  1  0.16569376  0.83266618  0.42076071  1
  Ti4+  Ti22  1  0.66516897  0.33231233  0.42297050  1
  Ti4+  Ti23  1  0.66728285  0.83365926  0.42195706  1
  Cu+  Cu24  1  0.00749041  0.25281983  0.14631828  1
  Cu+  Cu25  1  0.85689084  0.92804943  0.47675076  1
  Cu+  Cu26  1  0.24400829  0.25174395  0.14822156  1
  Cu+  Cu27  1  0.24343582  0.48732174  0.14366560  1
  Cu+  Cu28  1  0.51933759  0.25425032  0.14044560  1
  Cu+  Cu29  1  0.73545398  0.75433480  0.14008187  1
  Cu+  Cu30  1  0.57871069  0.14844385  0.47867505  1
  Cu+  Cu31  1  0.19390892  0.09925510  0.80797641  1
  Cu+  Cu32  1  0.34782456  0.91948869  0.47856496  1
  Cu+  Cu33  1  0.74586188  0.48497641  0.14183513  1
  Cu+  Cu34  1  0.90329744  0.59734473  0.80673565  1
  Cu+  Cu35  1  0.73666499  0.98592078  0.14424092  1
  Cu+  Cu36  1  0.16029098  0.07941914  0.16992424  1
  Cu+  Cu37  1  0.16239863  0.58004139  0.16660241  1
  Cu+  Cu38  1  0.65916654  0.08147319  0.16952209  1
  Cu+  Cu39  1  0.66241897  0.57952102  0.16732045  1
  Cu+  Cu40  1  0.42198981  0.33597840  0.16695455  1
  Cu+  Cu41  1  0.41260192  0.83642490  0.17041187  1
  Cu+  Cu42  1  0.92118359  0.34052202  0.16496581  1
  Cu+  Cu43  1  0.91036695  0.83563944  0.16877320  1
  Cu+  Cu44  1  0.42032028  0.08360936  0.17230876  1
  Cu+  Cu45  1  0.41662647  0.57973263  0.16648614  1
  Cu+  Cu46  1  0.91397680  0.07657599  0.16705866  1
  Cu+  Cu47  1  0.91769528  0.57997388  0.16824776  1
  Cu+  Cu48  1  0.49712431  0.24426987  0.50433444  1
  Cu+  Cu49  1  0.49623419  0.74540064  0.50351723  1
  Cu+  Cu50  1  0.99734683  0.24840845  0.50593133  1
  Cu+  Cu51  1  0.99464586  0.74627816  0.50358083  1
  Cu+  Cu52  1  0.25382003  0.00200730  0.50343911  1
  Cu+  Cu53  1  0.25361812  0.50233468  0.50492199  1
  Cu+  Cu54  1  0.75706482  0.00316358  0.50373293  1
  Cu+  Cu55  1  0.75144021  0.50327700  0.50583171  1
  Cu+  Cu56  1  0.25122911  0.24817585  0.50660166  1
  Cu+  Cu57  1  0.25374881  0.74768835  0.50345351  1
  Cu+  Cu58  1  0.74967709  0.24612835  0.50620263  1
  Cu+  Cu59  1  0.75545567  0.75242752  0.50412420  1
  Cu+  Cu60  1  0.33086042  0.41469531  0.83999676  1
  Cu+  Cu61  1  0.33099869  0.91521117  0.83592462  1
  Cu+  Cu62  1  0.83128264  0.42316348  0.83820824  1
  Cu+  Cu63  1  0.83015468  0.91764289  0.84209433  1
  Cu+  Cu64  1  0.09083129  0.16981563  0.84056007  1
  Cu+  Cu65  1  0.07817548  0.66961498  0.83565409  1
  Cu+  Cu66  1  0.58380699  0.16892642  0.83989263  1
  Cu+  Cu67  1  0.58509311  0.66964616  0.84083287  1
  Cu+  Cu68  1  0.08447319  0.41512028  0.84109966  1
  Cu+  Cu69  1  0.09237709  0.92244430  0.83579589  1
  Cu+  Cu70  1  0.58541812  0.41563859  0.83941149  1
  Cu+  Cu71  1  0.58730455  0.91848419  0.84025537  1
  Cu+  Cu72  1  0.17276147  0.08560148  0.67934131  1
  Cu+  Cu73  1  0.16982056  0.58314828  0.67325721  1
  Cu+  Cu74  1  0.67101249  0.08373402  0.67677309  1
  Cu+  Cu75  1  0.66766279  0.58422003  0.67447510  1
  Cu+  Cu76  1  0.41665394  0.33158076  0.67584660  1
  Cu+  Cu77  1  0.41737245  0.82936582  0.67519136  1
  Cu+  Cu78  1  0.91466907  0.32976552  0.67632019  1
  Cu+  Cu79  1  0.91593002  0.83326756  0.67595685  1
  Cu+  Cu80  1  0.41775544  0.08256757  0.67686654  1
  Cu+  Cu81  1  0.41492158  0.58315204  0.67595902  1
  Cu+  Cu82  1  0.91732511  0.08424370  0.67790055  1
  Cu+  Cu83  1  0.91303214  0.58494635  0.67839227  1
  Cu+  Cu84  1  0.00350805  0.25099966  0.01333616  1
  Cu+  Cu85  1  0.00419798  0.75507413  0.00458211  1
  Cu+  Cu86  1  0.50557799  0.25174114  0.01283193  1
  Cu+  Cu87  1  0.50093686  0.75446054  0.00805697  1
  Cu+  Cu88  1  0.24823362  0.49681617  0.01327287  1
  Cu+  Cu89  1  0.25064214  0.99843761  0.00658172  1
  Cu+  Cu90  1  0.75016948  0.49967248  0.01279948  1
  Cu+  Cu91  1  0.74679063  0.99826212  0.01430183  1
  Cu+  Cu92  1  0.24962982  0.25020775  0.01564922  1
  Cu+  Cu93  1  0.24759331  0.75264853  0.00337394  1
  Cu+  Cu94  1  0.75015764  0.25258967  0.00561505  1
  Cu+  Cu95  1  0.74850211  0.75594096  0.01270744  1
  Cu+  Cu96  1  0.33364387  0.41510478  0.34167467  1
  Cu+  Cu97  1  0.33395830  0.91948136  0.34684424  1
  Cu+  Cu98  1  0.83618213  0.41869643  0.33994248  1
  Cu+  Cu99  1  0.83254677  0.91714171  0.34673717  1
  Cu+  Cu100  1  0.07974506  0.16523060  0.34336583  1
  Cu+  Cu101  1  0.08102964  0.66363863  0.33777356  1
  Cu+  Cu102  1  0.58043827  0.16414202  0.34850608  1
  Cu+  Cu103  1  0.58141542  0.66310513  0.34079019  1
  Cu+  Cu104  1  0.08285856  0.41724978  0.34146606  1
  Cu+  Cu105  1  0.07742780  0.91479966  0.34045040  1
  Cu+  Cu106  1  0.58309367  0.41702932  0.34189897  1
  Cu+  Cu107  1  0.58086304  0.91642489  0.34277649  1
  Cu+  Cu108  1  0.00147554  -0.00227512  0.11139399  1
  Cu+  Cu109  1  0.00118464  0.50443885  0.10796119  1
  Cu+  Cu110  1  0.49577499  -0.00337159  0.11397832  1
  Cu+  Cu111  1  0.49942173  0.50152825  0.10929191  1
  Cu+  Cu112  1  0.33022293  0.16733225  0.44902359  1
  Cu+  Cu113  1  0.33218494  0.66362908  0.44634600  1
  Cu+  Cu114  1  0.83424413  0.16971098  0.44922765  1
  Cu+  Cu115  1  0.83066868  0.66329508  0.44758508  1
  Cu+  Cu116  1  0.16572970  0.33546666  0.78451051  1
  Cu+  Cu117  1  0.16875572  0.83053717  0.77745571  1
  Cu+  Cu118  1  0.66579022  0.33042929  0.78318008  1
  Cu+  Cu119  1  0.66582788  0.83178612  0.78537170  1
  Te2-  Te120  1  -0.00037682  0.00032975  0.38653475  1
  Te2-  Te121  1  0.00058153  0.50022795  0.38270106  1
  Te2-  Te122  1  0.49950815  -0.00202198  0.39103778  1
  Te2-  Te123  1  0.49904671  0.49827067  0.38313518  1
  Te2-  Te124  1  0.33918323  0.16825277  0.72222766  1
  Te2-  Te125  1  0.33275235  0.66540796  0.71955702  1
  Te2-  Te126  1  0.83485926  0.16629450  0.72147497  1
  Te2-  Te127  1  0.83087581  0.66921504  0.72150354  1
  Te2-  Te128  1  0.16704965  0.33237956  0.06100321  1
  Te2-  Te129  1  0.16703616  0.83451503  0.05039474  1
  Te2-  Te130  1  0.67107949  0.33395092  0.05795018  1
  Te2-  Te131  1  0.66166982  0.83361787  0.06006738  1
  Te2-  Te132  1  0.49723137  0.24921360  0.88598364  1
  Te2-  Te133  1  0.49626098  0.75010845  0.88278013  1
  Te2-  Te134  1  0.99881658  0.24668216  0.88540827  1
  Te2-  Te135  1  0.99288363  0.75397663  0.87952746  1
  Te2-  Te136  1  0.26007865  0.01078381  0.88159411  1
  Te2-  Te137  1  0.25215792  0.50304674  0.88592243  1
  Te2-  Te138  1  0.75323482  0.00766699  0.88748173  1
  Te2-  Te139  1  0.75174825  0.51101628  0.88565969  1
  Te2-  Te140  1  0.25867681  0.24893730  0.88766903  1
  Te2-  Te141  1  0.24788481  0.74668427  0.87785892  1
  Te2-  Te142  1  0.75390741  0.25308445  0.88028250  1
  Te2-  Te143  1  0.75232894  0.75032910  0.88631638  1
  Te2-  Te144  1  0.32471425  0.41011127  0.21530127  1
  Te2-  Te145  1  0.32761154  0.91709435  0.21885473  1
  Te2-  Te146  1  0.82661509  0.40975956  0.21425358  1
  Te2-  Te147  1  0.81863213  0.91070757  0.21875244  1
  Te2-  Te148  1  0.08392507  0.17374322  0.21705487  1
  Te2-  Te149  1  0.08529601  0.67000380  0.21178957  1
  Te2-  Te150  1  0.58876145  0.17456526  0.22060688  1
  Te2-  Te151  1  0.58237347  0.66982872  0.21457985  1
  Te2-  Te152  1  0.08851672  0.41058727  0.21546030  1
  Te2-  Te153  1  0.07857365  0.91226942  0.21405786  1
  Te2-  Te154  1  0.58899640  0.41106052  0.21564481  1
  Te2-  Te155  1  0.58067170  0.91114752  0.21643685  1
  Te2-  Te156  1  0.16512856  0.08009994  0.55158038  1
  Te2-  Te157  1  0.16316150  0.58054531  0.54739459  1
  Te2-  Te158  1  0.66153490  0.07493669  0.55065657  1
  Te2-  Te159  1  0.66317520  0.58371401  0.54848906  1
  Te2-  Te160  1  0.42019058  0.33524658  0.54963570  1
  Te2-  Te161  1  0.42439385  0.83980649  0.54942290  1
  Te2-  Te162  1  0.91719624  0.33603845  0.55009876  1
  Te2-  Te163  1  0.92461571  0.84232734  0.55017348  1
  Te2-  Te164  1  0.42279206  0.07581089  0.55091837  1
  Te2-  Te165  1  0.42064515  0.57962940  0.55003810  1
  Te2-  Te166  1  0.92488953  0.08158623  0.55166636  1
  Te2-  Te167  1  0.91834929  0.58078149  0.55134447  1
  Te2-  Te168  1  0.00109415  -0.00002769  0.88386417  1
  Te2-  Te169  1  0.00062192  0.50167878  0.88274424  1
  Te2-  Te170  1  0.49905746  -0.00014183  0.88243709  1
  Te2-  Te171  1  0.50042744  0.50038685  0.88334646  1
  Te2-  Te172  1  0.33088366  0.16556551  0.21617009  1
  Te2-  Te173  1  0.33196484  0.66556345  0.21326497  1
  Te2-  Te174  1  0.83216648  0.16808708  0.21339445  1
  Te2-  Te175  1  0.83286733  0.66541975  0.21420544  1
  Te2-  Te176  1  0.16724596  0.33338294  0.54885677  1
  Te2-  Te177  1  0.16584631  0.83113238  0.54752345  1
  Te2-  Te178  1  0.66688982  0.33377702  0.54977269  1
  Te2-  Te179  1  0.66627430  0.83284184  0.54851580  1
  Te2-  Te180  1  0.32818544  0.41315319  0.71360449  1
  Te2-  Te181  1  0.32970994  0.91229457  0.70998961  1
  Te2-  Te182  1  0.82632129  0.41249346  0.71108321  1
  Te2-  Te183  1  0.82954535  0.91523677  0.71560448  1
  Te2-  Te184  1  0.08826248  0.17364200  0.71312155  1
  Te2-  Te185  1  0.08650780  0.67094165  0.70825385  1
  Te2-  Te186  1  0.58772693  0.17110574  0.71274605  1
  Te2-  Te187  1  0.58514290  0.67105053  0.71365000  1
  Te2-  Te188  1  0.08483630  0.41436891  0.71378247  1
  Te2-  Te189  1  0.08662326  0.91274076  0.70978696  1
  Te2-  Te190  1  0.58689127  0.41454406  0.71293697  1
  Te2-  Te191  1  0.58733469  0.91350946  0.71363134  1
  Te2-  Te192  1  0.16129690  0.07801805  0.04321609  1
  Te2-  Te193  1  0.16057410  0.58277547  0.03980616  1
  Te2-  Te194  1  0.65838181  0.08327132  0.04299138  1
  Te2-  Te195  1  0.65915919  0.58208196  0.04043642  1
  Te2-  Te196  1  0.42256989  0.34170772  0.04087677  1
  Te2-  Te197  1  0.41612298  0.83928384  0.04372507  1
  Te2-  Te198  1  0.91997947  0.34098093  0.03945178  1
  Te2-  Te199  1  0.92095696  0.84090947  0.04218379  1
  Te2-  Te200  1  0.41993378  0.07934248  0.04475400  1
  Te2-  Te201  1  0.42178853  0.58314227  0.04018260  1
  Te2-  Te202  1  0.92008789  0.07859810  0.04105753  1
  Te2-  Te203  1  0.92291278  0.58542023  0.04093124  1
  Te2-  Te204  1  0.49168581  0.24768940  0.37797014  1
  Te2-  Te205  1  0.49457511  0.74603402  0.37758456  1
  Te2-  Te206  1  0.99342174  0.24809281  0.37930825  1
  Te2-  Te207  1  0.99336260  0.74516938  0.37729189  1
  Te2-  Te208  1  0.24786782  0.00606326  0.37664250  1
  Te2-  Te209  1  0.25269725  0.50407436  0.37782371  1
  Te2-  Te210  1  0.75081068  0.00757311  0.37731485  1
  Te2-  Te211  1  0.75255512  0.50393082  0.37863545  1
  Te2-  Te212  1  0.25028344  0.24560281  0.37893263  1
  Te2-  Te213  1  0.25102695  0.74565149  0.37566710  1
  Te2-  Te214  1  0.75388502  0.24872765  0.37815019  1
  Te2-  Te215  1  0.75101287  0.74454959  0.37691433  1
