# generated using pymatgen
data_Ti(CuTe)4
_symmetry_space_group_name_H-M   'P 1'
_cell_length_a   16.88807184
_cell_length_b   16.88660576
_cell_length_c   20.70831241
_cell_angle_alpha   89.97361896
_cell_angle_beta   90.00846806
_cell_angle_gamma   119.99572750
_symmetry_Int_Tables_number   1
_chemical_formula_structural   Ti(CuTe)4
_chemical_formula_sum   'Ti24 Cu96 Te96'
_cell_volume   5114.65588825
_cell_formula_units_Z   24
loop_
 _symmetry_equiv_pos_site_id
 _symmetry_equiv_pos_as_xyz
  1  'x, y, z'
loop_
 _atom_type_symbol
 _atom_type_oxidation_number
  Ti4+  4.0
  Cu+  1.0
  Te2-  -2.0
loop_
 _atom_site_type_symbol
 _atom_site_label
 _atom_site_symmetry_multiplicity
 _atom_site_fract_x
 _atom_site_fract_y
 _atom_site_fract_z
 _atom_site_occupancy
  Ti4+  Ti0  1  0.00123551  0.00318508  0.25766810  1
  Ti4+  Ti1  1  -0.00060509  0.50099705  0.25712411  1
  Ti4+  Ti2  1  0.50120131  0.00289969  0.25779917  1
  Ti4+  Ti3  1  0.49868770  0.49922079  0.25984545  1
  Ti4+  Ti4  1  0.33025022  0.16707295  0.59226997  1
  Ti4+  Ti5  1  0.33576142  0.66671508  0.58828206  1
  Ti4+  Ti6  1  0.82963881  0.16657378  0.59466774  1
  Ti4+  Ti7  1  0.83348057  0.66896460  0.58950473  1
  Ti4+  Ti8  1  0.16797665  0.33546340  0.92536813  1
  Ti4+  Ti9  1  0.16709230  0.83146267  0.91946199  1
  Ti4+  Ti10  1  0.66492217  0.32835976  0.92618411  1
  Ti4+  Ti11  1  0.66904897  0.83074365  0.92382382  1
  Ti4+  Ti12  1  -0.00286406  -0.00318744  0.75492119  1
  Ti4+  Ti13  1  0.00241995  0.50042660  0.75376249  1
  Ti4+  Ti14  1  0.49872739  0.00103853  0.75465130  1
  Ti4+  Ti15  1  0.49942734  0.49933716  0.75710199  1
  Ti4+  Ti16  1  0.33131039  0.16554569  0.08866148  1
  Ti4+  Ti17  1  0.33492868  0.66698922  0.08953428  1
  Ti4+  Ti18  1  0.83305273  0.16588739  0.08830921  1
  Ti4+  Ti19  1  0.83478784  0.66505585  0.08905554  1
  Ti4+  Ti20  1  0.16743776  0.33414877  0.42306435  1
  Ti4+  Ti21  1  0.16559494  0.83479925  0.42160564  1
  Ti4+  Ti22  1  0.66702882  0.33305204  0.42435307  1
  Ti4+  Ti23  1  0.66558393  0.83439056  0.42042944  1
  Cu+  Cu24  1  0.07132628  0.93167327  0.47259192  1
  Cu+  Cu25  1  0.91502083  0.31952292  0.81088786  1
  Cu+  Cu26  1  0.40592156  0.09612166  0.80704637  1
  Cu+  Cu27  1  0.67900540  0.08523431  0.81385684  1
  Cu+  Cu28  1  0.57970817  0.65391985  0.47678920  1
  Cu+  Cu29  1  0.74557360  0.26153984  0.14494112  1
  Cu+  Cu30  1  0.23836178  0.26247840  0.14180724  1
  Cu+  Cu31  1  0.90361108  0.80628340  0.80613698  1
  Cu+  Cu32  1  0.57281568  0.92980836  0.47323726  1
  Cu+  Cu33  1  0.19369101  0.59465178  0.80367090  1
  Cu+  Cu34  1  0.35199538  0.42234565  0.47640613  1
  Cu+  Cu35  1  0.51187704  0.25992631  0.14564959  1
  Cu+  Cu36  1  0.16239354  0.08674503  0.17058794  1
  Cu+  Cu37  1  0.16488041  0.58343975  0.17194401  1
  Cu+  Cu38  1  0.66398657  0.08551352  0.16990144  1
  Cu+  Cu39  1  0.66643169  0.58340953  0.17268901  1
  Cu+  Cu40  1  0.41457839  0.33723835  0.17146335  1
  Cu+  Cu41  1  0.41982124  0.83658990  0.17241861  1
  Cu+  Cu42  1  0.91741255  0.33869167  0.17065303  1
  Cu+  Cu43  1  0.92136437  0.83597054  0.17230748  1
  Cu+  Cu44  1  0.42203630  0.08479806  0.16956108  1
  Cu+  Cu45  1  0.41782586  0.58214517  0.17343823  1
  Cu+  Cu46  1  0.91963405  0.08273954  0.17048541  1
  Cu+  Cu47  1  0.91829900  0.58086232  0.17000644  1
  Cu+  Cu48  1  0.49766279  0.24826094  0.50680831  1
  Cu+  Cu49  1  0.49667123  0.74906285  0.49980391  1
  Cu+  Cu50  1  0.99693731  0.25065576  0.50800152  1
  Cu+  Cu51  1  0.99840163  0.75709104  0.50323615  1
  Cu+  Cu52  1  0.24505526  0.00182687  0.50565819  1
  Cu+  Cu53  1  0.25608616  0.50261155  0.50248568  1
  Cu+  Cu54  1  0.74454146  0.00402944  0.50515233  1
  Cu+  Cu55  1  0.75056404  0.50190479  0.50476090  1
  Cu+  Cu56  1  0.25432865  0.25019888  0.50478203  1
  Cu+  Cu57  1  0.24992751  0.74657165  0.50247602  1
  Cu+  Cu58  1  0.75087083  0.24830364  0.50794982  1
  Cu+  Cu59  1  0.75274316  0.74672418  0.50183039  1
  Cu+  Cu60  1  0.33069036  0.41482881  0.83950687  1
  Cu+  Cu61  1  0.32969466  0.91939752  0.83351563  1
  Cu+  Cu62  1  0.83170687  0.40999779  0.83689372  1
  Cu+  Cu63  1  0.82954809  0.90745470  0.83593436  1
  Cu+  Cu64  1  0.08527487  0.16770009  0.83898822  1
  Cu+  Cu65  1  0.09265898  0.66989725  0.83216740  1
  Cu+  Cu66  1  0.58327950  0.16885637  0.83723866  1
  Cu+  Cu67  1  0.58550596  0.66785501  0.83864045  1
  Cu+  Cu68  1  0.08996662  0.41822599  0.83635074  1
  Cu+  Cu69  1  0.07902347  0.90803698  0.83375110  1
  Cu+  Cu70  1  0.58233111  0.41236065  0.83981401  1
  Cu+  Cu71  1  0.58683765  0.91365340  0.83801554  1
  Cu+  Cu72  1  0.16563295  0.08424687  0.67533934  1
  Cu+  Cu73  1  0.17205325  0.58408149  0.67544761  1
  Cu+  Cu74  1  0.66690581  0.08638466  0.68245387  1
  Cu+  Cu75  1  0.66725388  0.58345218  0.67591133  1
  Cu+  Cu76  1  0.41445447  0.33172544  0.67749204  1
  Cu+  Cu77  1  0.41650649  0.83200163  0.67216293  1
  Cu+  Cu78  1  0.91465496  0.33045828  0.68154037  1
  Cu+  Cu79  1  0.91306563  0.82984090  0.67738981  1
  Cu+  Cu80  1  0.41136038  0.08545330  0.67850385  1
  Cu+  Cu81  1  0.41711463  0.58274346  0.67519202  1
  Cu+  Cu82  1  0.91183310  0.08402501  0.67621977  1
  Cu+  Cu83  1  0.91691159  0.58624283  0.67123646  1
  Cu+  Cu84  1  0.00257135  0.25102092  0.00943698  1
  Cu+  Cu85  1  0.00174527  0.74759575  0.00470692  1
  Cu+  Cu86  1  0.49928384  0.24626508  0.01511231  1
  Cu+  Cu87  1  0.50573613  0.75081497  0.00838268  1
  Cu+  Cu88  1  0.25147979  0.50020380  0.00953514  1
  Cu+  Cu89  1  0.24534075  0.99511108  0.00484896  1
  Cu+  Cu90  1  0.74869222  0.49464874  0.00965376  1
  Cu+  Cu91  1  0.75073146  0.99477891  0.00781956  1
  Cu+  Cu92  1  0.24659969  0.25075902  0.01338571  1
  Cu+  Cu93  1  0.25197277  0.75147867  0.00480039  1
  Cu+  Cu94  1  0.74683391  0.24650594  0.01452395  1
  Cu+  Cu95  1  0.75170089  0.74899591  0.00881084  1
  Cu+  Cu96  1  0.33495429  0.41713349  0.34755221  1
  Cu+  Cu97  1  0.33582594  0.91861467  0.34047872  1
  Cu+  Cu98  1  0.83555105  0.41635480  0.34295988  1
  Cu+  Cu99  1  0.83554565  0.91926138  0.34008032  1
  Cu+  Cu100  1  0.08278136  0.16768245  0.34300928  1
  Cu+  Cu101  1  0.08069279  0.66457127  0.33972500  1
  Cu+  Cu102  1  0.58561008  0.16726948  0.34392781  1
  Cu+  Cu103  1  0.58142875  0.66437797  0.34680467  1
  Cu+  Cu104  1  0.07973312  0.41850361  0.34036335  1
  Cu+  Cu105  1  0.08199919  0.92196844  0.34437148  1
  Cu+  Cu106  1  0.58156208  0.41587370  0.34369246  1
  Cu+  Cu107  1  0.58278406  0.92162476  0.34457102  1
  Cu+  Cu108  1  -0.00323055  -0.00435797  0.11431853  1
  Cu+  Cu109  1  0.00466591  0.50279108  0.11360780  1
  Cu+  Cu110  1  0.49757682  -0.00414081  0.11402227  1
  Cu+  Cu111  1  0.50434177  0.50489147  0.11713420  1
  Cu+  Cu112  1  0.33629419  0.16416708  0.45002269  1
  Cu+  Cu113  1  0.32995617  0.66676849  0.44352680  1
  Cu+  Cu114  1  0.83702361  0.16821874  0.45164867  1
  Cu+  Cu115  1  0.83695102  0.66291910  0.44689970  1
  Cu+  Cu116  1  0.16737977  0.32885498  0.78236412  1
  Cu+  Cu117  1  0.16632042  0.83239657  0.77430291  1
  Cu+  Cu118  1  0.67011577  0.33957279  0.78274038  1
  Cu+  Cu119  1  0.66280241  0.83056448  0.78029475  1
  Te2-  Te120  1  -0.00230973  0.00374009  0.38846770  1
  Te2-  Te121  1  -0.00004183  0.50173870  0.38643224  1
  Te2-  Te122  1  0.49840562  0.00310105  0.38836404  1
  Te2-  Te123  1  0.50138102  0.49873871  0.39182269  1
  Te2-  Te124  1  0.32843199  0.16802663  0.72294207  1
  Te2-  Te125  1  0.33873589  0.66882592  0.71860641  1
  Te2-  Te126  1  0.83211546  0.16542464  0.72727081  1
  Te2-  Te127  1  0.83188754  0.66307278  0.71981465  1
  Te2-  Te128  1  0.16593283  0.33677477  0.05593029  1
  Te2-  Te129  1  0.16639728  0.83072891  0.04799540  1
  Te2-  Te130  1  0.66585065  0.33196326  0.05782969  1
  Te2-  Te131  1  0.66962437  0.83118375  0.05280484  1
  Te2-  Te132  1  0.49194571  0.24512173  0.88695567  1
  Te2-  Te133  1  0.49721000  0.74732265  0.88245489  1
  Te2-  Te134  1  0.99542961  0.24640281  0.88340536  1
  Te2-  Te135  1  0.99377025  0.73884199  0.87878273  1
  Te2-  Te136  1  0.24743773  0.00557360  0.87929095  1
  Te2-  Te137  1  0.25736596  0.50896920  0.88354464  1
  Te2-  Te138  1  0.75859018  0.00432443  0.88221143  1
  Te2-  Te139  1  0.75158482  0.49748793  0.88301607  1
  Te2-  Te140  1  0.25185385  0.24779210  0.88607790  1
  Te2-  Te141  1  0.26061426  0.75120858  0.87889110  1
  Te2-  Te142  1  0.75340045  0.24129272  0.88613544  1
  Te2-  Te143  1  0.75273181  0.73985427  0.88318992  1
  Te2-  Te144  1  0.32526162  0.41496110  0.22000608  1
  Te2-  Te145  1  0.33103160  0.91754863  0.21445091  1
  Te2-  Te146  1  0.82421635  0.41515899  0.21737987  1
  Te2-  Te147  1  0.83051452  0.91506737  0.21438633  1
  Te2-  Te148  1  0.08550348  0.17802149  0.21743826  1
  Te2-  Te149  1  0.08536858  0.67253893  0.21427485  1
  Te2-  Te150  1  0.58981514  0.17977282  0.21792380  1
  Te2-  Te151  1  0.58526102  0.66959331  0.21919728  1
  Te2-  Te152  1  0.08421506  0.41428622  0.21459556  1
  Te2-  Te153  1  0.08915086  0.91983673  0.21738092  1
  Te2-  Te154  1  0.58626319  0.41479853  0.21741725  1
  Te2-  Te155  1  0.58810896  0.91900302  0.21742913  1
  Te2-  Te156  1  0.15697170  0.08382013  0.54979088  1
  Te2-  Te157  1  0.16530838  0.57927010  0.54838416  1
  Te2-  Te158  1  0.65545240  0.08184691  0.55452206  1
  Te2-  Te159  1  0.65952274  0.57811967  0.55005505  1
  Te2-  Te160  1  0.42299094  0.34093889  0.55187767  1
  Te2-  Te161  1  0.41829654  0.83939281  0.54661678  1
  Te2-  Te162  1  0.91752901  0.33810973  0.55458001  1
  Te2-  Te163  1  0.91674922  0.84338591  0.55044851  1
  Te2-  Te164  1  0.41366416  0.08014975  0.55120499  1
  Te2-  Te165  1  0.42463556  0.57933709  0.54928504  1
  Te2-  Te166  1  0.91318454  0.08059977  0.54989201  1
  Te2-  Te167  1  0.92055827  0.58648586  0.54534258  1
  Te2-  Te168  1  -0.00044361  -0.00287959  0.88163809  1
  Te2-  Te169  1  0.00199355  0.50120998  0.88132198  1
  Te2-  Te170  1  0.49897512  -0.00287249  0.88208686  1
  Te2-  Te171  1  0.50012581  0.49884634  0.88331914  1
  Te2-  Te172  1  0.33268539  0.16564685  0.21609883  1
  Te2-  Te173  1  0.33376509  0.66801962  0.21582540  1
  Te2-  Te174  1  0.83427309  0.16747297  0.21509395  1
  Te2-  Te175  1  0.83563057  0.66696712  0.21535088  1
  Te2-  Te176  1  0.16699288  0.33366552  0.54996221  1
  Te2-  Te177  1  0.16685663  0.83188018  0.54838906  1
  Te2-  Te178  1  0.66660165  0.33406949  0.55069023  1
  Te2-  Te179  1  0.66650412  0.83222753  0.54787265  1
  Te2-  Te180  1  0.32729920  0.41396061  0.71299690  1
  Te2-  Te181  1  0.32682240  0.91218628  0.70699279  1
  Te2-  Te182  1  0.82817952  0.41702421  0.70996266  1
  Te2-  Te183  1  0.82422070  0.91331623  0.70964564  1
  Te2-  Te184  1  0.08215834  0.17010461  0.71237321  1
  Te2-  Te185  1  0.08689301  0.67207224  0.70565698  1
  Te2-  Te186  1  0.58403609  0.17630202  0.71061542  1
  Te2-  Te187  1  0.58597526  0.67103482  0.71211952  1
  Te2-  Te188  1  0.08833268  0.41215081  0.70894299  1
  Te2-  Te189  1  0.08574537  0.91367394  0.70740592  1
  Te2-  Te190  1  0.58490900  0.41339780  0.71294412  1
  Te2-  Te191  1  0.58483464  0.91308744  0.71031064  1
  Te2-  Te192  1  0.15859591  0.07744993  0.04366337  1
  Te2-  Te193  1  0.16397404  0.58276042  0.04458129  1
  Te2-  Te194  1  0.65958965  0.07396681  0.04349731  1
  Te2-  Te195  1  0.66255259  0.57885874  0.04579929  1
  Te2-  Te196  1  0.41986755  0.34018792  0.04405390  1
  Te2-  Te197  1  0.42121563  0.83718546  0.04462591  1
  Te2-  Te198  1  0.92040120  0.33951073  0.04334791  1
  Te2-  Te199  1  0.92159696  0.83616576  0.04481508  1
  Te2-  Te200  1  0.41394875  0.07418035  0.04330867  1
  Te2-  Te201  1  0.42122037  0.58111868  0.04668928  1
  Te2-  Te202  1  0.92049608  0.08061502  0.04447472  1
  Te2-  Te203  1  0.91941340  0.57833309  0.04363792  1
  Te2-  Te204  1  0.49495408  0.24669908  0.37998186  1
  Te2-  Te205  1  0.49183512  0.74815082  0.37317079  1
  Te2-  Te206  1  0.99513917  0.24981275  0.38056697  1
  Te2-  Te207  1  0.99422739  0.74867427  0.37564537  1
  Te2-  Te208  1  0.25428613  0.00722302  0.37769128  1
  Te2-  Te209  1  0.25014458  0.50583364  0.37591315  1
  Te2-  Te210  1  0.75481921  0.00844985  0.37779135  1
  Te2-  Te211  1  0.75210567  0.50387975  0.37817150  1
  Te2-  Te212  1  0.25220605  0.24500374  0.37849510  1
  Te2-  Te213  1  0.25064235  0.74849401  0.37610847  1
  Te2-  Te214  1  0.75431246  0.24765946  0.38167579  1
  Te2-  Te215  1  0.75472925  0.74928624  0.37589298  1
