# generated using pymatgen
data_Ti(CuTe)4
_symmetry_space_group_name_H-M   'P 1'
_cell_length_a   16.89421589
_cell_length_b   16.89551066
_cell_length_c   20.71467988
_cell_angle_alpha   90.02298721
_cell_angle_beta   89.96725930
_cell_angle_gamma   119.99192478
_symmetry_Int_Tables_number   1
_chemical_formula_structural   Ti(CuTe)4
_chemical_formula_sum   'Ti24 Cu96 Te96'
_cell_volume   5120.98470879
_cell_formula_units_Z   24
loop_
 _symmetry_equiv_pos_site_id
 _symmetry_equiv_pos_as_xyz
  1  'x, y, z'
loop_
 _atom_type_symbol
 _atom_type_oxidation_number
  Ti4+  4.0
  Cu+  1.0
  Te2-  -2.0
loop_
 _atom_site_type_symbol
 _atom_site_label
 _atom_site_symmetry_multiplicity
 _atom_site_fract_x
 _atom_site_fract_y
 _atom_site_fract_z
 _atom_site_occupancy
  Ti4+  Ti0  1  -0.00244296  -0.00365986  0.25791322  1
  Ti4+  Ti1  1  -0.00110407  0.49857512  0.25630513  1
  Ti4+  Ti2  1  0.49872343  -0.00045953  0.25760084  1
  Ti4+  Ti3  1  0.50073574  0.49795406  0.25777310  1
  Ti4+  Ti4  1  0.33092674  0.16490898  0.59511840  1
  Ti4+  Ti5  1  0.33504000  0.67024814  0.58882958  1
  Ti4+  Ti6  1  0.83236362  0.16791061  0.58917125  1
  Ti4+  Ti7  1  0.83357841  0.66997277  0.59386576  1
  Ti4+  Ti8  1  0.16879651  0.33712873  0.91973290  1
  Ti4+  Ti9  1  0.16890908  0.83346692  0.92457103  1
  Ti4+  Ti10  1  0.66543678  0.33259030  0.92352287  1
  Ti4+  Ti11  1  0.67041779  0.83265804  0.92628197  1
  Ti4+  Ti12  1  -0.00189763  -0.00057746  0.75501045  1
  Ti4+  Ti13  1  0.00255397  0.50230343  0.75277219  1
  Ti4+  Ti14  1  0.50007384  0.00086564  0.75652905  1
  Ti4+  Ti15  1  0.50055216  0.50068522  0.75297773  1
  Ti4+  Ti16  1  0.33382635  0.16572679  0.09051017  1
  Ti4+  Ti17  1  0.33359846  0.66635577  0.08824435  1
  Ti4+  Ti18  1  0.83412117  0.16674791  0.08625205  1
  Ti4+  Ti19  1  0.83389041  0.66674178  0.08834538  1
  Ti4+  Ti20  1  0.16537434  0.33207036  0.42100698  1
  Ti4+  Ti21  1  0.16608408  0.83377444  0.42384149  1
  Ti4+  Ti22  1  0.66573074  0.33239382  0.42397139  1
  Ti4+  Ti23  1  0.66566265  0.83242778  0.42242192  1
  Cu+  Cu24  1  0.19362135  0.59779589  0.80242350  1
  Cu+  Cu25  1  0.68280462  0.58886848  0.80952480  1
  Cu+  Cu26  1  0.41361629  0.32629552  0.81439085  1
  Cu+  Cu27  1  0.40988533  0.09033847  0.81346977  1
  Cu+  Cu28  1  0.07221789  0.92878401  0.47685401  1
  Cu+  Cu29  1  0.91126099  0.81734993  0.81228472  1
  Cu+  Cu30  1  0.17475029  0.08739899  0.81493198  1
  Cu+  Cu31  1  0.73915476  0.98362080  0.14299633  1
  Cu+  Cu32  1  0.35430808  0.92951011  0.47598406  1
  Cu+  Cu33  1  0.23805900  0.97632681  0.14406624  1
  Cu+  Cu34  1  0.52314433  0.26073150  0.14205252  1
  Cu+  Cu35  1  0.74062586  0.75187811  0.14915656  1
  Cu+  Cu36  1  0.16314443  0.07529818  0.17214149  1
  Cu+  Cu37  1  0.16264748  0.58144311  0.17072211  1
  Cu+  Cu38  1  0.66297810  0.08061158  0.16920516  1
  Cu+  Cu39  1  0.66056320  0.57901113  0.17080520  1
  Cu+  Cu40  1  0.42276798  0.33465320  0.17209553  1
  Cu+  Cu41  1  0.41550080  0.83492100  0.17037881  1
  Cu+  Cu42  1  0.91776024  0.33739867  0.16873095  1
  Cu+  Cu43  1  0.91720862  0.83690318  0.16992018  1
  Cu+  Cu44  1  0.41647910  0.08114355  0.17116185  1
  Cu+  Cu45  1  0.41653231  0.58036688  0.17110873  1
  Cu+  Cu46  1  0.91424549  0.07868056  0.16868724  1
  Cu+  Cu47  1  0.91813597  0.57998350  0.17118143  1
  Cu+  Cu48  1  0.49705733  0.24752158  0.50822195  1
  Cu+  Cu49  1  0.49706632  0.75076604  0.50307528  1
  Cu+  Cu50  1  0.99548608  0.24792403  0.50268109  1
  Cu+  Cu51  1  0.99604745  0.75568611  0.50642511  1
  Cu+  Cu52  1  0.25017059  0.00273254  0.50650317  1
  Cu+  Cu53  1  0.24906109  0.50248707  0.50320958  1
  Cu+  Cu54  1  0.74930399  0.00341204  0.50430177  1
  Cu+  Cu55  1  0.74931146  0.50190294  0.50789388  1
  Cu+  Cu56  1  0.24918337  0.24847470  0.50661983  1
  Cu+  Cu57  1  0.25696977  0.75417424  0.50375296  1
  Cu+  Cu58  1  0.75057418  0.24804459  0.50438721  1
  Cu+  Cu59  1  0.75109060  0.74979989  0.50716542  1
  Cu+  Cu60  1  0.32642904  0.41380252  0.83209418  1
  Cu+  Cu61  1  0.33028496  0.91748547  0.83797399  1
  Cu+  Cu62  1  0.83215375  0.41531523  0.83543693  1
  Cu+  Cu63  1  0.82859611  0.90978505  0.83754523  1
  Cu+  Cu64  1  0.08626853  0.17267759  0.83418297  1
  Cu+  Cu65  1  0.09060747  0.66892221  0.83527931  1
  Cu+  Cu66  1  0.58204926  0.17025149  0.83714426  1
  Cu+  Cu67  1  0.59157801  0.67091435  0.83612094  1
  Cu+  Cu68  1  0.09159529  0.42307619  0.83272729  1
  Cu+  Cu69  1  0.08638075  0.91393135  0.83754587  1
  Cu+  Cu70  1  0.58722495  0.41321099  0.83501234  1
  Cu+  Cu71  1  0.58775624  0.91765480  0.84027506  1
  Cu+  Cu72  1  0.16657549  0.08344825  0.68193815  1
  Cu+  Cu73  1  0.17277999  0.58868385  0.67465315  1
  Cu+  Cu74  1  0.67022904  0.08627928  0.67357194  1
  Cu+  Cu75  1  0.66980334  0.58635287  0.68055226  1
  Cu+  Cu76  1  0.41428857  0.33027058  0.68204672  1
  Cu+  Cu77  1  0.41859391  0.83504414  0.67469488  1
  Cu+  Cu78  1  0.91544133  0.33229157  0.67084927  1
  Cu+  Cu79  1  0.91200399  0.83176672  0.68206214  1
  Cu+  Cu80  1  0.41354769  0.08343312  0.68265922  1
  Cu+  Cu81  1  0.41584199  0.58602878  0.67161219  1
  Cu+  Cu82  1  0.91107398  0.08522857  0.67235876  1
  Cu+  Cu83  1  0.91584983  0.58648622  0.67492532  1
  Cu+  Cu84  1  0.00435895  0.25460039  0.00274664  1
  Cu+  Cu85  1  0.00318378  0.75042681  0.00887519  1
  Cu+  Cu86  1  0.50279163  0.25220068  0.01368742  1
  Cu+  Cu87  1  0.50453857  0.75086749  0.00887364  1
  Cu+  Cu88  1  0.25001189  0.50001547  0.00526047  1
  Cu+  Cu89  1  0.24814538  0.99678542  0.01538321  1
  Cu+  Cu90  1  0.74862941  0.49789993  0.00856078  1
  Cu+  Cu91  1  0.75170946  0.99700865  0.01308603  1
  Cu+  Cu92  1  0.24893588  0.25235934  0.00817495  1
  Cu+  Cu93  1  0.25141649  0.75081955  0.00849015  1
  Cu+  Cu94  1  0.74876133  0.25033585  0.00598442  1
  Cu+  Cu95  1  0.75174231  0.75154219  0.01647664  1
  Cu+  Cu96  1  0.33587473  0.41588609  0.34093584  1
  Cu+  Cu97  1  0.33434458  0.91775416  0.34663498  1
  Cu+  Cu98  1  0.83542871  0.41770597  0.34090750  1
  Cu+  Cu99  1  0.83249239  0.91421311  0.34372798  1
  Cu+  Cu100  1  0.08185406  0.16220055  0.34080230  1
  Cu+  Cu101  1  0.07953838  0.66063085  0.34092137  1
  Cu+  Cu102  1  0.58037122  0.16458641  0.34248169  1
  Cu+  Cu103  1  0.58203104  0.66216242  0.34334788  1
  Cu+  Cu104  1  0.08099598  0.41624045  0.33863606  1
  Cu+  Cu105  1  0.08017766  0.91573643  0.34723533  1
  Cu+  Cu106  1  0.58161687  0.41596359  0.34332173  1
  Cu+  Cu107  1  0.58124206  0.91625726  0.34238266  1
  Cu+  Cu108  1  0.00305006  0.00542470  0.11431088  1
  Cu+  Cu109  1  0.00005755  0.49966289  0.11274445  1
  Cu+  Cu110  1  0.50066447  -0.00128840  0.11410376  1
  Cu+  Cu111  1  0.49476952  0.49730632  0.11507813  1
  Cu+  Cu112  1  0.33442060  0.17097438  0.45207191  1
  Cu+  Cu113  1  0.33210009  0.66288789  0.44578649  1
  Cu+  Cu114  1  0.83249028  0.16614594  0.44596100  1
  Cu+  Cu115  1  0.83126883  0.66304916  0.45195208  1
  Cu+  Cu116  1  0.16159024  0.33305260  0.77425196  1
  Cu+  Cu117  1  0.16675570  0.83168948  0.78047924  1
  Cu+  Cu118  1  0.67206292  0.33217893  0.77893061  1
  Cu+  Cu119  1  0.66187169  0.83418746  0.78199711  1
  Te2-  Te120  1  -0.00299083  -0.00052446  0.38812863  1
  Te2-  Te121  1  -0.00075637  0.49722538  0.38575041  1
  Te2-  Te122  1  0.50137162  0.00082876  0.38770722  1
  Te2-  Te123  1  0.49905683  0.49779014  0.38671917  1
  Te2-  Te124  1  0.33116310  0.16589100  0.72894590  1
  Te2-  Te125  1  0.33878278  0.67106417  0.71950421  1
  Te2-  Te126  1  0.83359584  0.17023242  0.71896328  1
  Te2-  Te127  1  0.83486551  0.66633767  0.72658272  1
  Te2-  Te128  1  0.16713302  0.33580674  0.04849083  1
  Te2-  Te129  1  0.16661076  0.82951444  0.05481262  1
  Te2-  Te130  1  0.66994211  0.33404331  0.05376983  1
  Te2-  Te131  1  0.66617793  0.83191982  0.05823321  1
  Te2-  Te132  1  0.48855636  0.24556611  0.88635364  1
  Te2-  Te133  1  0.50090021  0.74758222  0.88233327  1
  Te2-  Te134  1  0.99905916  0.25310284  0.87652561  1
  Te2-  Te135  1  0.99741815  0.74424244  0.88256067  1
  Te2-  Te136  1  0.25458283  0.01015106  0.88761581  1
  Te2-  Te137  1  0.25983603  0.51090225  0.87967739  1
  Te2-  Te138  1  0.75586871  0.00320503  0.88555501  1
  Te2-  Te139  1  0.75472679  0.50514499  0.88253618  1
  Te2-  Te140  1  0.25564036  0.24579927  0.88276508  1
  Te2-  Te141  1  0.25848342  0.75071016  0.88249039  1
  Te2-  Te142  1  0.74975871  0.24723725  0.87998648  1
  Te2-  Te143  1  0.75782884  0.74294739  0.88806381  1
  Te2-  Te144  1  0.33033588  0.41152232  0.21460544  1
  Te2-  Te145  1  0.32538896  0.91122850  0.21868516  1
  Te2-  Te146  1  0.82623483  0.41260261  0.21523986  1
  Te2-  Te147  1  0.82132234  0.90995959  0.21751801  1
  Te2-  Te148  1  0.08284069  0.16506895  0.21407229  1
  Te2-  Te149  1  0.08523939  0.67162054  0.21559069  1
  Te2-  Te150  1  0.58739810  0.17193582  0.21614586  1
  Te2-  Te151  1  0.58345212  0.67186485  0.21759269  1
  Te2-  Te152  1  0.08504446  0.41293107  0.21319395  1
  Te2-  Te153  1  0.08232017  0.90699111  0.21965862  1
  Te2-  Te154  1  0.59158291  0.41392564  0.21761725  1
  Te2-  Te155  1  0.58274930  0.91091787  0.21627992  1
  Te2-  Te156  1  0.15862971  0.08081917  0.55353391  1
  Te2-  Te157  1  0.16405580  0.58596183  0.54789795  1
  Te2-  Te158  1  0.65934713  0.08085368  0.54850620  1
  Te2-  Te159  1  0.66240460  0.58287402  0.55363197  1
  Te2-  Te160  1  0.41633529  0.33450519  0.55390208  1
  Te2-  Te161  1  0.42525537  0.84515068  0.54947385  1
  Te2-  Te162  1  0.91918000  0.33971546  0.54578032  1
  Te2-  Te163  1  0.91717629  0.84406485  0.55463365  1
  Te2-  Te164  1  0.41906573  0.08030432  0.55459010  1
  Te2-  Te165  1  0.41829393  0.58255734  0.54616574  1
  Te2-  Te166  1  0.91733685  0.08041056  0.54725584  1
  Te2-  Te167  1  0.91958881  0.58650005  0.54897157  1
  Te2-  Te168  1  0.00082871  0.00173409  0.88257211  1
  Te2-  Te169  1  0.00069223  0.49991799  0.87963802  1
  Te2-  Te170  1  0.50108611  0.00021590  0.88356201  1
  Te2-  Te171  1  0.49863672  0.49868502  0.88061974  1
  Te2-  Te172  1  0.33156835  0.16560682  0.21774775  1
  Te2-  Te173  1  0.33205922  0.66530939  0.21438341  1
  Te2-  Te174  1  0.83325246  0.16751024  0.21324166  1
  Te2-  Te175  1  0.83263117  0.66526350  0.21511179  1
  Te2-  Te176  1  0.16442022  0.33394041  0.54724568  1
  Te2-  Te177  1  0.16598805  0.83242756  0.55102456  1
  Te2-  Te178  1  0.66680598  0.33286360  0.55034372  1
  Te2-  Te179  1  0.66527122  0.83456611  0.54869349  1
  Te2-  Te180  1  0.32663279  0.41638388  0.70655001  1
  Te2-  Te181  1  0.32663935  0.91169639  0.71143783  1
  Te2-  Te182  1  0.83029733  0.41623906  0.70903037  1
  Te2-  Te183  1  0.82427010  0.91652392  0.71155863  1
  Te2-  Te184  1  0.08134753  0.17171728  0.70778780  1
  Te2-  Te185  1  0.08662585  0.67478291  0.70830737  1
  Te2-  Te186  1  0.58689003  0.17276761  0.71021118  1
  Te2-  Te187  1  0.58514052  0.67476126  0.70964120  1
  Te2-  Te188  1  0.08616263  0.41553010  0.70537682  1
  Te2-  Te189  1  0.08541904  0.91129793  0.71018247  1
  Te2-  Te190  1  0.58788395  0.41249417  0.70826153  1
  Te2-  Te191  1  0.58774859  0.91734225  0.71281580  1
  Te2-  Te192  1  0.16143498  0.08277145  0.04468122  1
  Te2-  Te193  1  0.16212902  0.58090150  0.04394609  1
  Te2-  Te194  1  0.66099164  0.08033341  0.04195277  1
  Te2-  Te195  1  0.65960374  0.57813069  0.04425750  1
  Te2-  Te196  1  0.41771648  0.33882950  0.04502545  1
  Te2-  Te197  1  0.42134187  0.83855379  0.04408885  1
  Te2-  Te198  1  0.91905007  0.33833560  0.04197933  1
  Te2-  Te199  1  0.92463604  0.84130109  0.04395437  1
  Te2-  Te200  1  0.42116555  0.07958908  0.04398104  1
  Te2-  Te201  1  0.41928185  0.58039487  0.04411902  1
  Te2-  Te202  1  0.92483088  0.08497342  0.04141972  1
  Te2-  Te203  1  0.91915109  0.57990208  0.04441707  1
  Te2-  Te204  1  0.49350513  0.24648964  0.38125209  1
  Te2-  Te205  1  0.49409215  0.74588629  0.37713487  1
  Te2-  Te206  1  0.99458039  0.24609668  0.37590454  1
  Te2-  Te207  1  0.99303856  0.74375063  0.37955711  1
  Te2-  Te208  1  0.25258759  0.00800132  0.37894049  1
  Te2-  Te209  1  0.25117925  0.50264839  0.37608656  1
  Te2-  Te210  1  0.75143351  0.00430783  0.37767212  1
  Te2-  Te211  1  0.75177104  0.50355103  0.38061574  1
  Te2-  Te212  1  0.25167974  0.24590161  0.37928235  1
  Te2-  Te213  1  0.24958808  0.74497634  0.37741060  1
  Te2-  Te214  1  0.75112141  0.24736039  0.37787189  1
  Te2-  Te215  1  0.75163335  0.74490266  0.38089136  1
