# generated using pymatgen
data_Ti(CuTe)4
_symmetry_space_group_name_H-M   'P 1'
_cell_length_a   16.88740145
_cell_length_b   16.88453261
_cell_length_c   20.70545118
_cell_angle_alpha   89.96817932
_cell_angle_beta   89.97322786
_cell_angle_gamma   120.00080256
_symmetry_Int_Tables_number   1
_chemical_formula_structural   Ti(CuTe)4
_chemical_formula_sum   'Ti24 Cu96 Te96'
_cell_volume   5112.85481917
_cell_formula_units_Z   24
loop_
 _symmetry_equiv_pos_site_id
 _symmetry_equiv_pos_as_xyz
  1  'x, y, z'
loop_
 _atom_type_symbol
 _atom_type_oxidation_number
  Ti4+  4.0
  Cu+  1.0
  Te2-  -2.0
loop_
 _atom_site_type_symbol
 _atom_site_label
 _atom_site_symmetry_multiplicity
 _atom_site_fract_x
 _atom_site_fract_y
 _atom_site_fract_z
 _atom_site_occupancy
  Ti4+  Ti0  1  -0.00091340  -0.00260793  0.25477637  1
  Ti4+  Ti1  1  -0.00202301  0.49955205  0.25931485  1
  Ti4+  Ti2  1  0.49937174  0.00256301  0.25790307  1
  Ti4+  Ti3  1  0.50072096  0.50233521  0.25556928  1
  Ti4+  Ti4  1  0.33446421  0.16571393  0.59170060  1
  Ti4+  Ti5  1  0.33629161  0.66916366  0.59008847  1
  Ti4+  Ti6  1  0.83538472  0.16779818  0.59087108  1
  Ti4+  Ti7  1  0.83468972  0.66441499  0.59560833  1
  Ti4+  Ti8  1  0.16831477  0.33756396  0.92079978  1
  Ti4+  Ti9  1  0.16401777  0.83168129  0.92546086  1
  Ti4+  Ti10  1  0.66435356  0.33018574  0.92626822  1
  Ti4+  Ti11  1  0.66845014  0.83578433  0.92281139  1
  Ti4+  Ti12  1  -0.00151226  -0.00285536  0.75455292  1
  Ti4+  Ti13  1  0.00250277  0.49991445  0.75535478  1
  Ti4+  Ti14  1  0.50094223  0.00161796  0.75740660  1
  Ti4+  Ti15  1  0.49943389  0.49896331  0.75420192  1
  Ti4+  Ti16  1  0.33224297  0.16497480  0.08684379  1
  Ti4+  Ti17  1  0.33277959  0.66701551  0.08806005  1
  Ti4+  Ti18  1  0.83304165  0.16721539  0.08847599  1
  Ti4+  Ti19  1  0.83111386  0.66645423  0.08763606  1
  Ti4+  Ti20  1  0.16559393  0.33190933  0.42053828  1
  Ti4+  Ti21  1  0.16743763  0.83423238  0.42460678  1
  Ti4+  Ti22  1  0.66765858  0.33408835  0.42443886  1
  Ti4+  Ti23  1  0.66558426  0.83276178  0.42259540  1
  Cu+  Cu24  1  0.74334155  0.26264297  0.14300600  1
  Cu+  Cu25  1  0.00777052  0.75123245  0.14948166  1
  Cu+  Cu26  1  0.85769656  0.42894364  0.47795868  1
  Cu+  Cu27  1  0.40387651  0.09398887  0.80927753  1
  Cu+  Cu28  1  0.19217767  0.59822326  0.80369743  1
  Cu+  Cu29  1  0.35846300  0.92933594  0.47629944  1
  Cu+  Cu30  1  0.90765783  0.58451320  0.81517530  1
  Cu+  Cu31  1  0.90498702  0.81432147  0.81215476  1
  Cu+  Cu32  1  0.51235982  0.25969054  0.14578680  1
  Cu+  Cu33  1  0.24426667  0.98274491  0.14274431  1
  Cu+  Cu34  1  0.73741373  0.76139013  0.13944066  1
  Cu+  Cu35  1  0.69146672  0.09724374  0.80519466  1
  Cu+  Cu36  1  0.16220232  0.07554556  0.16699069  1
  Cu+  Cu37  1  0.16420229  0.58282110  0.17164895  1
  Cu+  Cu38  1  0.66525123  0.08803148  0.17031440  1
  Cu+  Cu39  1  0.66085130  0.58554821  0.16793479  1
  Cu+  Cu40  1  0.42030635  0.33889999  0.16934558  1
  Cu+  Cu41  1  0.41595112  0.83538895  0.17075584  1
  Cu+  Cu42  1  0.91367402  0.33539763  0.17237701  1
  Cu+  Cu43  1  0.91611527  0.83680462  0.16723656  1
  Cu+  Cu44  1  0.41900756  0.08120778  0.16911269  1
  Cu+  Cu45  1  0.41916148  0.58431623  0.16906098  1
  Cu+  Cu46  1  0.91883492  0.08134447  0.16847479  1
  Cu+  Cu47  1  0.91830432  0.57846642  0.17149699  1
  Cu+  Cu48  1  0.49625374  0.24668170  0.50578538  1
  Cu+  Cu49  1  0.49717994  0.74881465  0.50312055  1
  Cu+  Cu50  1  0.99716538  0.24670227  0.50232902  1
  Cu+  Cu51  1  0.99611221  0.74686316  0.50899119  1
  Cu+  Cu52  1  0.25773675  0.00281823  0.50599796  1
  Cu+  Cu53  1  0.24985943  0.50141047  0.50399503  1
  Cu+  Cu54  1  0.74878083  0.00184145  0.50523386  1
  Cu+  Cu55  1  0.75716413  0.50193571  0.50766623  1
  Cu+  Cu56  1  0.25081160  0.24797696  0.50394167  1
  Cu+  Cu57  1  0.25723888  0.75402935  0.50548042  1
  Cu+  Cu58  1  0.75631102  0.25287899  0.50591280  1
  Cu+  Cu59  1  0.75208456  0.75004158  0.50834755  1
  Cu+  Cu60  1  0.32951057  0.41770101  0.83436097  1
  Cu+  Cu61  1  0.32965929  0.91979748  0.83851411  1
  Cu+  Cu62  1  0.82738978  0.41092074  0.83889517  1
  Cu+  Cu63  1  0.82808490  0.91113758  0.83615430  1
  Cu+  Cu64  1  0.08320081  0.17014326  0.83615481  1
  Cu+  Cu65  1  0.08495537  0.66831245  0.83702290  1
  Cu+  Cu66  1  0.58362159  0.16733414  0.83936138  1
  Cu+  Cu67  1  0.58365109  0.66878397  0.83605426  1
  Cu+  Cu68  1  0.09280615  0.42227504  0.83448284  1
  Cu+  Cu69  1  0.07995000  0.91010179  0.83786751  1
  Cu+  Cu70  1  0.58010557  0.41174783  0.83788076  1
  Cu+  Cu71  1  0.59130829  0.92318604  0.83742494  1
  Cu+  Cu72  1  0.16925398  0.08175905  0.67384123  1
  Cu+  Cu73  1  0.17411378  0.58670414  0.67613508  1
  Cu+  Cu74  1  0.67333241  0.08829758  0.67771905  1
  Cu+  Cu75  1  0.66929970  0.58155266  0.67643044  1
  Cu+  Cu76  1  0.41524860  0.32969280  0.67476805  1
  Cu+  Cu77  1  0.41713952  0.83333324  0.67531641  1
  Cu+  Cu78  1  0.91811170  0.33163393  0.67473846  1
  Cu+  Cu79  1  0.91430740  0.82671418  0.68285401  1
  Cu+  Cu80  1  0.41542621  0.08459570  0.68057151  1
  Cu+  Cu81  1  0.41642637  0.58368385  0.67270366  1
  Cu+  Cu82  1  0.91439823  0.08164689  0.67342050  1
  Cu+  Cu83  1  0.91615898  0.58214305  0.68368384  1
  Cu+  Cu84  1  0.00500601  0.25484216  0.00405524  1
  Cu+  Cu85  1  -0.00076285  0.74783040  0.01660703  1
  Cu+  Cu86  1  0.49975099  0.24682094  0.01429164  1
  Cu+  Cu87  1  0.50288973  0.75256466  0.00562017  1
  Cu+  Cu88  1  0.24932628  0.50062502  0.00643250  1
  Cu+  Cu89  1  0.24505171  0.99583421  0.01323289  1
  Cu+  Cu90  1  0.74682967  0.49675377  0.00995907  1
  Cu+  Cu91  1  0.75168624  1.00001636  0.00695977  1
  Cu+  Cu92  1  0.24736920  0.25351263  0.00370409  1
  Cu+  Cu93  1  0.24774414  0.74953534  0.00885082  1
  Cu+  Cu94  1  0.74721706  0.25029110  0.01409357  1
  Cu+  Cu95  1  0.74681414  0.75114458  0.01143875  1
  Cu+  Cu96  1  0.33567734  0.41779453  0.33860826  1
  Cu+  Cu97  1  0.33548566  0.91962713  0.34697551  1
  Cu+  Cu98  1  0.83604889  0.41821432  0.34856225  1
  Cu+  Cu99  1  0.83385850  0.91548734  0.34066303  1
  Cu+  Cu100  1  0.08212433  0.16244081  0.33858463  1
  Cu+  Cu101  1  0.08009687  0.66511914  0.34486592  1
  Cu+  Cu102  1  0.58131301  0.16750235  0.34385162  1
  Cu+  Cu103  1  0.58317112  0.66592008  0.34178500  1
  Cu+  Cu104  1  0.07947621  0.41506431  0.34107687  1
  Cu+  Cu105  1  0.08019088  0.91474008  0.34230558  1
  Cu+  Cu106  1  0.58180623  0.41934881  0.34167839  1
  Cu+  Cu107  1  0.58085113  0.91775128  0.34094371  1
  Cu+  Cu108  1  0.00020119  0.00416454  0.10951128  1
  Cu+  Cu109  1  0.00254388  0.49656357  0.11616766  1
  Cu+  Cu110  1  0.50257776  -0.00459760  0.11507554  1
  Cu+  Cu111  1  0.49458469  0.49875596  0.11088886  1
  Cu+  Cu112  1  0.33124993  0.16755127  0.44850518  1
  Cu+  Cu113  1  0.33125795  0.66274430  0.44714799  1
  Cu+  Cu114  1  0.83190110  0.16273907  0.44771300  1
  Cu+  Cu115  1  0.82969254  0.66660484  0.45315381  1
  Cu+  Cu116  1  0.16595971  0.32869234  0.77681521  1
  Cu+  Cu117  1  0.16841122  0.83404549  0.78143323  1
  Cu+  Cu118  1  0.66548660  0.33374132  0.78271249  1
  Cu+  Cu119  1  0.66066456  0.83012192  0.77968570  1
  Te2-  Te120  1  -0.00134005  -0.00144746  0.38336513  1
  Te2-  Te121  1  0.00282494  0.50084552  0.38965345  1
  Te2-  Te122  1  0.50279831  0.00292096  0.38804062  1
  Te2-  Te123  1  0.49892532  0.50107488  0.38445347  1
  Te2-  Te124  1  0.33128243  0.16695006  0.72280984  1
  Te2-  Te125  1  0.33992375  0.66979419  0.72087636  1
  Te2-  Te126  1  0.83924562  0.16884375  0.72194383  1
  Te2-  Te127  1  0.83030385  0.66157459  0.72827934  1
  Te2-  Te128  1  0.16779020  0.33644402  0.05018388  1
  Te2-  Te129  1  0.16574085  0.82995223  0.05708694  1
  Te2-  Te130  1  0.66543791  0.33441557  0.05829169  1
  Te2-  Te131  1  0.66553663  0.83662320  0.05324811  1
  Te2-  Te132  1  0.49166969  0.24535438  0.88615785  1
  Te2-  Te133  1  0.49897313  0.75312219  0.87935334  1
  Te2-  Te134  1  0.99700862  0.25334555  0.87834272  1
  Te2-  Te135  1  0.98814323  0.74157524  0.88740052  1
  Te2-  Te136  1  0.24648154  0.00469098  0.88570668  1
  Te2-  Te137  1  0.25965617  0.51377928  0.88119461  1
  Te2-  Te138  1  0.76021271  0.00991243  0.88154767  1
  Te2-  Te139  1  0.74790129  0.50258528  0.88412169  1
  Te2-  Te140  1  0.25209802  0.24964376  0.87840986  1
  Te2-  Te141  1  0.25408766  0.75054063  0.88250155  1
  Te2-  Te142  1  0.75302892  0.24572050  0.88666745  1
  Te2-  Te143  1  0.74971815  0.74264820  0.88462187  1
  Te2-  Te144  1  0.32998051  0.41551287  0.21244720  1
  Te2-  Te145  1  0.32621133  0.91259960  0.21882241  1
  Te2-  Te146  1  0.82362017  0.41467924  0.22082947  1
  Te2-  Te147  1  0.82558290  0.91414308  0.21450277  1
  Te2-  Te148  1  0.08711210  0.16774755  0.21231709  1
  Te2-  Te149  1  0.08786026  0.67340822  0.21874805  1
  Te2-  Te150  1  0.58725797  0.17906529  0.21776929  1
  Te2-  Te151  1  0.58560967  0.67721299  0.21585791  1
  Te2-  Te152  1  0.08179642  0.41407458  0.21494359  1
  Te2-  Te153  1  0.08721918  0.90810553  0.21642172  1
  Te2-  Te154  1  0.59131769  0.41873468  0.21566478  1
  Te2-  Te155  1  0.58491640  0.91925914  0.21447094  1
  Te2-  Te156  1  0.16442730  0.07897228  0.54788434  1
  Te2-  Te157  1  0.16518942  0.58497090  0.54937982  1
  Te2-  Te158  1  0.66397527  0.08478008  0.55096933  1
  Te2-  Te159  1  0.66569367  0.57977585  0.55025652  1
  Te2-  Te160  1  0.41875648  0.33674758  0.54904825  1
  Te2-  Te161  1  0.42653452  0.84406457  0.55005917  1
  Te2-  Te162  1  0.92610561  0.34189773  0.54947668  1
  Te2-  Te163  1  0.91906057  0.83600464  0.55558734  1
  Te2-  Te164  1  0.42559732  0.08156164  0.55361678  1
  Te2-  Te165  1  0.41876255  0.58113315  0.54701980  1
  Te2-  Te166  1  0.91764257  0.07948250  0.54774683  1
  Te2-  Te167  1  0.92519481  0.58065915  0.55589494  1
  Te2-  Te168  1  -0.00114650  0.00042829  0.88142072  1
  Te2-  Te169  1  -0.00165666  0.49732675  0.88287780  1
  Te2-  Te170  1  0.49783557  -0.00212751  0.88483817  1
  Te2-  Te171  1  0.49791996  0.49970961  0.88034352  1
  Te2-  Te172  1  0.33261118  0.16710318  0.21437099  1
  Te2-  Te173  1  0.33341137  0.66695570  0.21439493  1
  Te2-  Te174  1  0.83456557  0.16509906  0.21541016  1
  Te2-  Te175  1  0.83174928  0.66508383  0.21496699  1
  Te2-  Te176  1  0.16609209  0.33208438  0.54691743  1
  Te2-  Te177  1  0.16725049  0.83325374  0.55126694  1
  Te2-  Te178  1  0.66593103  0.33189374  0.55113053  1
  Te2-  Te179  1  0.66557247  0.83330624  0.54908523  1
  Te2-  Te180  1  0.32829535  0.41375800  0.70844887  1
  Te2-  Te181  1  0.32777500  0.91260633  0.71173597  1
  Te2-  Te182  1  0.82746613  0.40933789  0.71221260  1
  Te2-  Te183  1  0.82527724  0.91197874  0.70979711  1
  Te2-  Te184  1  0.08482854  0.16828387  0.70911490  1
  Te2-  Te185  1  0.08981284  0.67416712  0.70999520  1
  Te2-  Te186  1  0.58831864  0.17483298  0.71179089  1
  Te2-  Te187  1  0.58666682  0.67060791  0.70943145  1
  Te2-  Te188  1  0.08864746  0.41394104  0.70816960  1
  Te2-  Te189  1  0.08783421  0.91255386  0.71121689  1
  Te2-  Te190  1  0.58489496  0.41137913  0.71163132  1
  Te2-  Te191  1  0.58710339  0.91581470  0.71039944  1
  Te2-  Te192  1  0.15978003  0.08361911  0.04048238  1
  Te2-  Te193  1  0.16039166  0.58037397  0.04486164  1
  Te2-  Te194  1  0.66007817  0.07788041  0.04336720  1
  Te2-  Te195  1  0.65740818  0.57814588  0.04193141  1
  Te2-  Te196  1  0.41684913  0.33793356  0.04175217  1
  Te2-  Te197  1  0.41856858  0.83831856  0.04349743  1
  Te2-  Te198  1  0.92039314  0.33953224  0.04411517  1
  Te2-  Te199  1  0.91926697  0.84119506  0.04074904  1
  Te2-  Te200  1  0.41769074  0.07447990  0.04244856  1
  Te2-  Te201  1  0.41941645  0.58289770  0.04239020  1
  Te2-  Te202  1  0.92131243  0.08485760  0.04187827  1
  Te2-  Te203  1  0.91605719  0.57523166  0.04513815  1
  Te2-  Te204  1  0.49495118  0.25001673  0.37987832  1
  Te2-  Te205  1  0.49417846  0.74765117  0.37708788  1
  Te2-  Te206  1  0.99388304  0.24456039  0.37606153  1
  Te2-  Te207  1  0.99345145  0.74688156  0.38285588  1
  Te2-  Te208  1  0.25044561  0.00650851  0.37863948  1
  Te2-  Te209  1  0.25075845  0.50328522  0.37652221  1
  Te2-  Te210  1  0.75121985  0.00364955  0.37768609  1
  Te2-  Te211  1  0.75181555  0.50683039  0.38017668  1
  Te2-  Te212  1  0.25226151  0.24748999  0.37641363  1
  Te2-  Te213  1  0.25168755  0.74644783  0.37833167  1
  Te2-  Te214  1  0.75159039  0.24530266  0.37881981  1
  Te2-  Te215  1  0.75222024  0.74704360  0.38066973  1
