# generated using pymatgen
data_Ti(CuTe)4
_symmetry_space_group_name_H-M   'P 1'
_cell_length_a   16.87112793
_cell_length_b   16.87438560
_cell_length_c   20.68462727
_cell_angle_alpha   90.06738885
_cell_angle_beta   89.98534748
_cell_angle_gamma   119.98891684
_symmetry_Int_Tables_number   1
_chemical_formula_structural   Ti(CuTe)4
_chemical_formula_sum   'Ti24 Cu96 Te96'
_cell_volume   5100.33354000
_cell_formula_units_Z   24
loop_
 _symmetry_equiv_pos_site_id
 _symmetry_equiv_pos_as_xyz
  1  'x, y, z'
loop_
 _atom_type_symbol
 _atom_type_oxidation_number
  Ti4+  4.0
  Cu+  1.0
  Te2-  -2.0
loop_
 _atom_site_type_symbol
 _atom_site_label
 _atom_site_symmetry_multiplicity
 _atom_site_fract_x
 _atom_site_fract_y
 _atom_site_fract_z
 _atom_site_occupancy
  Ti4+  Ti0  1  0.00031176  0.00017919  0.25653431  1
  Ti4+  Ti1  1  -0.00042429  0.49683166  0.25619460  1
  Ti4+  Ti2  1  0.50127915  0.00114542  0.25641787  1
  Ti4+  Ti3  1  0.50151181  0.50069300  0.25785977  1
  Ti4+  Ti4  1  0.33320271  0.16711494  0.59125452  1
  Ti4+  Ti5  1  0.33133653  0.66338294  0.59161400  1
  Ti4+  Ti6  1  0.83315309  0.16601798  0.59475207  1
  Ti4+  Ti7  1  0.83188538  0.66372050  0.59116446  1
  Ti4+  Ti8  1  0.16441228  0.33068638  0.92643333  1
  Ti4+  Ti9  1  0.16851870  0.83238623  0.92096151  1
  Ti4+  Ti10  1  0.66512369  0.33686879  0.92359347  1
  Ti4+  Ti11  1  0.66667027  0.83389963  0.92750305  1
  Ti4+  Ti12  1  -0.00159775  0.00229673  0.75592446  1
  Ti4+  Ti13  1  0.00049091  0.50162892  0.75612597  1
  Ti4+  Ti14  1  0.49758101  -0.00293544  0.75469437  1
  Ti4+  Ti15  1  0.50208726  0.49998811  0.75843641  1
  Ti4+  Ti16  1  0.33320240  0.16784269  0.08732719  1
  Ti4+  Ti17  1  0.33420177  0.66752438  0.08738169  1
  Ti4+  Ti18  1  0.83403596  0.16832429  0.08516550  1
  Ti4+  Ti19  1  0.83279782  0.66632127  0.08824020  1
  Ti4+  Ti20  1  0.16765227  0.33444998  0.42404583  1
  Ti4+  Ti21  1  0.16638141  0.83237529  0.42102970  1
  Ti4+  Ti22  1  0.66715038  0.33494447  0.42305557  1
  Ti4+  Ti23  1  0.66702363  0.83325746  0.42495810  1
  Cu+  Cu24  1  0.24551300  0.48371702  0.14275419  1
  Cu+  Cu25  1  0.40376290  0.30980103  0.80609695  1
  Cu+  Cu26  1  0.73944173  0.47571433  0.14012068  1
  Cu+  Cu27  1  0.56955439  0.64094464  0.47665099  1
  Cu+  Cu28  1  0.01498574  0.25441503  0.14336370  1
  Cu+  Cu29  1  0.40635928  0.80592066  0.80603558  1
  Cu+  Cu30  1  0.74469933  0.75420835  0.14795884  1
  Cu+  Cu31  1  0.51107281  0.75642103  0.14855573  1
  Cu+  Cu32  1  0.07074339  0.63976201  0.47148972  1
  Cu+  Cu33  1  0.69221885  0.59897001  0.80917555  1
  Cu+  Cu34  1  0.90110825  0.09584186  0.81117120  1
  Cu+  Cu35  1  0.74735551  0.99381305  0.14737587  1
  Cu+  Cu36  1  0.16445553  0.08127390  0.16870418  1
  Cu+  Cu37  1  0.16387685  0.57823176  0.16858892  1
  Cu+  Cu38  1  0.66174029  0.08187857  0.16689704  1
  Cu+  Cu39  1  0.66457242  0.57925707  0.16939242  1
  Cu+  Cu40  1  0.41896246  0.33728428  0.16936391  1
  Cu+  Cu41  1  0.42243670  0.84110020  0.16789725  1
  Cu+  Cu42  1  0.92347581  0.33939430  0.16585650  1
  Cu+  Cu43  1  0.91803072  0.83759771  0.16862081  1
  Cu+  Cu44  1  0.41871320  0.08367739  0.16994507  1
  Cu+  Cu45  1  0.41937509  0.58172665  0.16951313  1
  Cu+  Cu46  1  0.92194812  0.08056143  0.16632558  1
  Cu+  Cu47  1  0.91416859  0.57705300  0.17010755  1
  Cu+  Cu48  1  0.49698733  0.25047337  0.50586696  1
  Cu+  Cu49  1  0.49793423  0.74446239  0.50686645  1
  Cu+  Cu50  1  0.99772767  0.24614749  0.50860302  1
  Cu+  Cu51  1  0.99861838  0.74363089  0.50296914  1
  Cu+  Cu52  1  0.25178544  0.00490771  0.50397631  1
  Cu+  Cu53  1  0.25174480  0.50396738  0.50472465  1
  Cu+  Cu54  1  0.75466512  0.00484625  0.50886885  1
  Cu+  Cu55  1  0.75039634  0.50441353  0.50392602  1
  Cu+  Cu56  1  0.25318510  0.25026553  0.50639518  1
  Cu+  Cu57  1  0.24638770  0.74482584  0.50417142  1
  Cu+  Cu58  1  0.75053654  0.24893237  0.50770177  1
  Cu+  Cu59  1  0.74519796  0.74267026  0.50601805  1
  Cu+  Cu60  1  0.33146926  0.41104968  0.84089510  1
  Cu+  Cu61  1  0.33054300  0.90830642  0.83400648  1
  Cu+  Cu62  1  0.83153009  0.42007966  0.83809236  1
  Cu+  Cu63  1  0.83131758  0.92048675  0.83921108  1
  Cu+  Cu64  1  0.07746610  0.16948826  0.83765179  1
  Cu+  Cu65  1  0.08684620  0.67227980  0.83569647  1
  Cu+  Cu66  1  0.58150166  0.16966167  0.83654712  1
  Cu+  Cu67  1  0.58995782  0.67073485  0.84031168  1
  Cu+  Cu68  1  0.08434013  0.41642070  0.84020461  1
  Cu+  Cu69  1  0.08586139  0.91649369  0.83620118  1
  Cu+  Cu70  1  0.58586227  0.41812485  0.83759103  1
  Cu+  Cu71  1  0.57903119  0.91096879  0.83849994  1
  Cu+  Cu72  1  0.16841155  0.08719535  0.67399157  1
  Cu+  Cu73  1  0.16690053  0.58396455  0.67622106  1
  Cu+  Cu74  1  0.66791187  0.08288086  0.67634876  1
  Cu+  Cu75  1  0.66982753  0.58580892  0.68105543  1
  Cu+  Cu76  1  0.41511369  0.32868271  0.67895131  1
  Cu+  Cu77  1  0.41357484  0.82622240  0.67692708  1
  Cu+  Cu78  1  0.91585993  0.33099905  0.67681768  1
  Cu+  Cu79  1  0.91332476  0.83086452  0.67256349  1
  Cu+  Cu80  1  0.41451994  0.08402938  0.67302464  1
  Cu+  Cu81  1  0.41769948  0.58356861  0.67726564  1
  Cu+  Cu82  1  0.91301223  0.08615686  0.68244855  1
  Cu+  Cu83  1  0.91650335  0.58456198  0.67474901  1
  Cu+  Cu84  1  0.00143889  0.25252110  0.01429021  1
  Cu+  Cu85  1  0.00553943  0.75245733  0.00441481  1
  Cu+  Cu86  1  0.50008369  0.25410492  0.00708710  1
  Cu+  Cu87  1  0.50186792  0.75162725  0.01522057  1
  Cu+  Cu88  1  0.24716848  0.49579710  0.01321437  1
  Cu+  Cu89  1  0.24973004  0.99636255  0.00268909  1
  Cu+  Cu90  1  0.74752275  0.49882794  0.01211285  1
  Cu+  Cu91  1  0.74781557  1.00010348  0.01483462  1
  Cu+  Cu92  1  0.24795547  0.24919832  0.00756171  1
  Cu+  Cu93  1  0.25061338  0.75277097  0.00564585  1
  Cu+  Cu94  1  0.74819515  0.25482200  0.00583782  1
  Cu+  Cu95  1  0.75088596  0.75369150  0.01540064  1
  Cu+  Cu96  1  0.33499719  0.41975951  0.34376250  1
  Cu+  Cu97  1  0.33644332  0.91889602  0.33897652  1
  Cu+  Cu98  1  0.83302327  0.41659385  0.34132376  1
  Cu+  Cu99  1  0.83582703  0.92009045  0.34368037  1
  Cu+  Cu100  1  0.08349494  0.16572530  0.34212264  1
  Cu+  Cu101  1  0.08147641  0.66128817  0.34235482  1
  Cu+  Cu102  1  0.58192323  0.16501226  0.34068722  1
  Cu+  Cu103  1  0.58274651  0.66582131  0.34837440  1
  Cu+  Cu104  1  0.08388003  0.41540190  0.34367786  1
  Cu+  Cu105  1  0.08284481  0.91851189  0.33932022  1
  Cu+  Cu106  1  0.58551680  0.41926138  0.34244064  1
  Cu+  Cu107  1  0.58528541  0.92083218  0.34405068  1
  Cu+  Cu108  1  0.00492782  -0.00155202  0.10997631  1
  Cu+  Cu109  1  0.00212222  0.50579653  0.11081059  1
  Cu+  Cu110  1  0.49709142  0.00413889  0.11072903  1
  Cu+  Cu111  1  0.50007250  0.49856830  0.11205463  1
  Cu+  Cu112  1  0.33381611  0.16717647  0.44823070  1
  Cu+  Cu113  1  0.33553225  0.67175341  0.44831568  1
  Cu+  Cu114  1  0.83455518  0.17085977  0.45287401  1
  Cu+  Cu115  1  0.83706899  0.67224964  0.44729527  1
  Cu+  Cu116  1  0.16859265  0.33675399  0.78381559  1
  Cu+  Cu117  1  0.16585208  0.83805353  0.77670429  1
  Cu+  Cu118  1  0.66889913  0.33055078  0.78057736  1
  Cu+  Cu119  1  0.66780377  0.83517205  0.78343781  1
  Te2-  Te120  1  0.00124712  0.00062384  0.38499926  1
  Te2-  Te121  1  -0.00208707  0.49532135  0.38632310  1
  Te2-  Te122  1  0.49974801  0.00076037  0.38540793  1
  Te2-  Te123  1  0.50001423  0.49841703  0.38789077  1
  Te2-  Te124  1  0.33081677  0.16255392  0.72233159  1
  Te2-  Te125  1  0.33106787  0.66100166  0.72221741  1
  Te2-  Te126  1  0.82971505  0.16866184  0.72599304  1
  Te2-  Te127  1  0.83686788  0.66889354  0.72176306  1
  Te2-  Te128  1  0.16723937  0.33068311  0.05811515  1
  Te2-  Te129  1  0.16849227  0.83419826  0.05041547  1
  Te2-  Te130  1  0.66332637  0.33244962  0.05419681  1
  Te2-  Te131  1  0.66698181  0.83485107  0.06048093  1
  Te2-  Te132  1  0.49180829  0.24714996  0.88164772  1
  Te2-  Te133  1  0.49435285  0.74263862  0.88671530  1
  Te2-  Te134  1  0.99065012  0.24979699  0.88658078  1
  Te2-  Te135  1  0.99635067  0.74873083  0.87925284  1
  Te2-  Te136  1  0.25519834  0.00264388  0.87696139  1
  Te2-  Te137  1  0.25227259  0.50104787  0.88524497  1
  Te2-  Te138  1  0.74667537  0.00554915  0.88611400  1
  Te2-  Te139  1  0.75567236  0.51078077  0.88465381  1
  Te2-  Te140  1  0.24632164  0.24043453  0.88217323  1
  Te2-  Te141  1  0.25296815  0.74100217  0.88056596  1
  Te2-  Te142  1  0.74980317  0.25116568  0.88011661  1
  Te2-  Te143  1  0.75865159  0.75330417  0.88692224  1
  Te2-  Te144  1  0.32869766  0.41308813  0.21732420  1
  Te2-  Te145  1  0.33038737  0.91529910  0.21303816  1
  Te2-  Te146  1  0.82600193  0.40743991  0.21523735  1
  Te2-  Te147  1  0.82364774  0.91272722  0.21713760  1
  Te2-  Te148  1  0.08986852  0.17367609  0.21550074  1
  Te2-  Te149  1  0.08405403  0.66690157  0.21422900  1
  Te2-  Te150  1  0.58671104  0.17216041  0.21448897  1
  Te2-  Te151  1  0.58889142  0.67572904  0.21957929  1
  Te2-  Te152  1  0.08971125  0.41016762  0.21722759  1
  Te2-  Te153  1  0.08477617  0.91417008  0.21329069  1
  Te2-  Te154  1  0.58548720  0.41194566  0.21614544  1
  Te2-  Te155  1  0.59107372  0.91354150  0.21764505  1
  Te2-  Te156  1  0.16166737  0.08211015  0.54852144  1
  Te2-  Te157  1  0.15761339  0.57597668  0.55028278  1
  Te2-  Te158  1  0.66209657  0.08044532  0.55086922  1
  Te2-  Te159  1  0.65687174  0.57502455  0.55329165  1
  Te2-  Te160  1  0.41978031  0.33961305  0.55214374  1
  Te2-  Te161  1  0.41625726  0.83312328  0.54893463  1
  Te2-  Te162  1  0.91914645  0.33652502  0.55087776  1
  Te2-  Te163  1  0.91658015  0.83259665  0.54618719  1
  Te2-  Te164  1  0.41930853  0.08193083  0.54763870  1
  Te2-  Te165  1  0.41734680  0.57486312  0.55156723  1
  Te2-  Te166  1  0.92012476  0.08021873  0.55538542  1
  Te2-  Te167  1  0.91699827  0.57525559  0.54894174  1
  Te2-  Te168  1  0.00131126  0.00016301  0.88291510  1
  Te2-  Te169  1  0.00082392  0.50345740  0.88231088  1
  Te2-  Te170  1  0.49848928  0.00094358  0.88167026  1
  Te2-  Te171  1  0.50046210  0.50132834  0.88618896  1
  Te2-  Te172  1  0.33353812  0.16727318  0.21355138  1
  Te2-  Te173  1  0.33457824  0.66975534  0.21535250  1
  Te2-  Te174  1  0.83446407  0.16746175  0.21309579  1
  Te2-  Te175  1  0.83546245  0.66789262  0.21632749  1
  Te2-  Te176  1  0.16780700  0.33424223  0.54989171  1
  Te2-  Te177  1  0.16726512  0.83538281  0.54798641  1
  Te2-  Te178  1  0.66639042  0.33449848  0.54914830  1
  Te2-  Te179  1  0.66752911  0.83402656  0.55164929  1
  Te2-  Te180  1  0.32886286  0.41385602  0.71364271  1
  Te2-  Te181  1  0.32643996  0.91296518  0.70681931  1
  Te2-  Te182  1  0.82839066  0.41472137  0.71154373  1
  Te2-  Te183  1  0.82539828  0.91219548  0.71163716  1
  Te2-  Te184  1  0.08709549  0.17544350  0.71126995  1
  Te2-  Te185  1  0.08643190  0.67374379  0.71003289  1
  Te2-  Te186  1  0.58379017  0.16976302  0.71053679  1
  Te2-  Te187  1  0.58655886  0.67390553  0.71363740  1
  Te2-  Te188  1  0.08585671  0.41387853  0.71349597  1
  Te2-  Te189  1  0.08355375  0.91656968  0.70912593  1
  Te2-  Te190  1  0.58748046  0.41268701  0.71077139  1
  Te2-  Te191  1  0.58599452  0.91197096  0.71103924  1
  Te2-  Te192  1  0.16201944  0.07854676  0.04172747  1
  Te2-  Te193  1  0.16147380  0.58279730  0.04200299  1
  Te2-  Te194  1  0.65932587  0.08461162  0.04087425  1
  Te2-  Te195  1  0.65794279  0.58127416  0.04211677  1
  Te2-  Te196  1  0.41786060  0.34093172  0.04308322  1
  Te2-  Te197  1  0.41953533  0.84173455  0.04182936  1
  Te2-  Te198  1  0.91815693  0.34278448  0.04077185  1
  Te2-  Te199  1  0.92350067  0.83954602  0.04209402  1
  Te2-  Te200  1  0.41906539  0.08296958  0.04205153  1
  Te2-  Te201  1  0.42022208  0.57868967  0.04198349  1
  Te2-  Te202  1  0.92088862  0.07889706  0.03964223  1
  Te2-  Te203  1  0.92071783  0.58278164  0.04228564  1
  Te2-  Te204  1  0.49536555  0.24859244  0.37845571  1
  Te2-  Te205  1  0.49474909  0.75012970  0.37900674  1
  Te2-  Te206  1  0.99472785  0.24587936  0.38106505  1
  Te2-  Te207  1  0.99469100  0.74756517  0.37475691  1
  Te2-  Te208  1  0.25248751  0.00462724  0.37707154  1
  Te2-  Te209  1  0.25367163  0.50788143  0.37926339  1
  Te2-  Te210  1  0.75400794  0.00668703  0.38249730  1
  Te2-  Te211  1  0.75489851  0.50803787  0.37817803  1
  Te2-  Te212  1  0.25382241  0.24880655  0.37915649  1
  Te2-  Te213  1  0.25418795  0.74818040  0.37576884  1
  Te2-  Te214  1  0.75147949  0.24693495  0.37995306  1
  Te2-  Te215  1  0.75528397  0.74948159  0.37827525  1
