# generated using pymatgen
data_Fe45Co19
_symmetry_space_group_name_H-M   'P 1'
_cell_length_a   11.41487723
_cell_length_b   11.41469732
_cell_length_c   11.41420156
_cell_angle_alpha   89.99652330
_cell_angle_beta   89.99585083
_cell_angle_gamma   89.99706746
_symmetry_Int_Tables_number   1
_chemical_formula_structural   Fe45Co19
_chemical_formula_sum   'Fe90 Co38'
_cell_volume   1487.24041894
_cell_formula_units_Z   2
loop_
 _symmetry_equiv_pos_site_id
 _symmetry_equiv_pos_as_xyz
  1  'x, y, z'
loop_
 _atom_site_type_symbol
 _atom_site_label
 _atom_site_symmetry_multiplicity
 _atom_site_fract_x
 _atom_site_fract_y
 _atom_site_fract_z
 _atom_site_occupancy
  Fe  Fe0  1  0.49964366  0.25280406  0.24724154  1
  Fe  Fe1  1  0.12655305  0.87572091  0.12525906  1
  Fe  Fe2  1  0.12925286  0.87975155  0.62292856  1
  Fe  Fe3  1  0.12673673  0.62440398  0.12481931  1
  Fe  Fe4  1  0.12591806  0.12794465  0.87503584  1
  Fe  Fe5  1  0.12656137  0.37668749  0.62203102  1
  Fe  Fe6  1  0.00025062  0.24851286  0.50201208  1
  Fe  Fe7  1  0.62474172  0.12478191  0.87569932  1
  Fe  Fe8  1  0.49897413  0.50040387  0.49823647  1
  Fe  Fe9  1  0.24786358  0.24968957  0.00712705  1
  Fe  Fe10  1  0.74751607  0.24899988  0.25108312  1
  Fe  Fe11  1  0.87510395  0.12907803  0.12290245  1
  Fe  Fe12  1  0.36962981  0.12236680  0.62884030  1
  Fe  Fe13  1  0.37330284  0.37335532  0.37400112  1
  Fe  Fe14  1  0.62581749  0.87652238  0.12407688  1
  Fe  Fe15  1  0.75101948  0.49966485  0.25597899  1
  Fe  Fe16  1  -0.00601698  0.50158625  0.49797308  1
  Fe  Fe17  1  0.50005768  0.49996098  0.74996382  1
  Fe  Fe18  1  0.75237035  0.49695028  -0.00276272  1
  Fe  Fe19  1  0.49963158  0.75076592  0.50186090  1
  Fe  Fe20  1  -0.00111714  0.00092325  -0.00020223  1
  Fe  Fe21  1  0.37304587  0.62636301  0.62538589  1
  Fe  Fe22  1  0.62590379  0.37393779  0.38016800  1
  Fe  Fe23  1  0.12488124  0.12452922  0.37310258  1
  Fe  Fe24  1  0.25131451  0.00119638  0.25069182  1
  Fe  Fe25  1  -0.00228088  0.49868314  0.25057243  1
  Fe  Fe26  1  0.37338324  0.12796079  0.87474127  1
  Fe  Fe27  1  0.50068926  0.74943193  0.24970060  1
  Fe  Fe28  1  0.37374448  0.87309375  0.12589958  1
  Fe  Fe29  1  0.49787939  -0.00219529  -0.00268525  1
  Fe  Fe30  1  0.24917738  0.24808865  0.49998800  1
  Fe  Fe31  1  0.87562925  0.12727101  0.37340972  1
  Fe  Fe32  1  0.37528609  0.63011098  0.87370738  1
  Fe  Fe33  1  0.62747077  0.62089892  0.62213578  1
  Fe  Fe34  1  0.37522675  0.37299734  0.87685684  1
  Fe  Fe35  1  0.12478280  0.37537226  0.87685815  1
  Fe  Fe36  1  0.50108395  0.25082260  0.00333673  1
  Fe  Fe37  1  0.87571757  0.13073795  0.87685517  1
  Fe  Fe38  1  0.62452694  0.62316373  0.12639579  1
  Fe  Fe39  1  -0.00322972  -0.00156108  0.24803194  1
  Fe  Fe40  1  0.25171066  0.50284902  -0.00121494  1
  Fe  Fe41  1  0.87457054  0.12516606  0.62694222  1
  Fe  Fe42  1  0.62545170  0.12459238  0.62528742  1
  Fe  Fe43  1  0.12590635  0.37653795  0.37571160  1
  Fe  Fe44  1  0.24806448  0.74977914  0.49749580  1
  Fe  Fe45  1  0.75010466  -0.00067817  0.75246090  1
  Fe  Fe46  1  0.00041816  0.00200827  0.50037497  1
  Fe  Fe47  1  0.49751603  0.00077932  0.50153562  1
  Fe  Fe48  1  0.37570618  0.12758576  0.37187898  1
  Fe  Fe49  1  0.87416758  0.62482220  0.12663777  1
  Fe  Fe50  1  0.00236292  0.25207244  0.74795355  1
  Fe  Fe51  1  0.74683257  0.25336802  0.75067883  1
  Fe  Fe52  1  0.50081678  0.25097861  0.74890101  1
  Fe  Fe53  1  0.87515210  0.87385113  0.37511344  1
  Fe  Fe54  1  0.75236429  -0.00087835  0.00030184  1
  Fe  Fe55  1  -0.00010995  0.74853443  0.00084592  1
  Fe  Fe56  1  0.62292986  0.62547087  0.87621385  1
  Fe  Fe57  1  0.74947874  0.75103253  0.24986650  1
  Fe  Fe58  1  0.37808856  0.86837024  0.86860874  1
  Fe  Fe59  1  0.75055287  0.00333606  0.49730587  1
  Fe  Fe60  1  0.62560410  0.37833976  0.12445170  1
  Fe  Fe61  1  0.49830334  0.50068922  0.00063527  1
  Fe  Fe62  1  0.25168208  0.49957523  0.25120283  1
  Fe  Fe63  1  0.00456791  0.25290745  0.24515871  1
  Fe  Fe64  1  0.37525555  0.62497817  0.37392896  1
  Fe  Fe65  1  0.24896507  0.50034637  0.75098961  1
  Fe  Fe66  1  0.87529580  0.87488897  0.62536089  1
  Fe  Fe67  1  -0.00271247  0.49653620  0.00123609  1
  Fe  Fe68  1  0.75107045  0.74760685  0.50005851  1
  Fe  Fe69  1  0.49946564  0.24832143  0.50261165  1
  Fe  Fe70  1  0.49971535  -0.00077158  0.25115808  1
  Fe  Fe71  1  0.75001326  0.75025747  -0.00090580  1
  Fe  Fe72  1  0.00328915  0.74889365  0.74769729  1
  Fe  Fe73  1  0.37520221  0.62575857  0.12675491  1
  Fe  Fe74  1  0.87865225  0.62337477  0.87115372  1
  Fe  Fe75  1  0.74961941  0.49690521  0.75192691  1
  Fe  Fe76  1  0.00367158  0.75048818  0.25126779  1
  Fe  Fe77  1  0.87123536  0.37566120  0.62293870  1
  Fe  Fe78  1  0.12481341  0.62121456  0.62300212  1
  Fe  Fe79  1  0.37317566  0.87439809  0.37656639  1
  Fe  Fe80  1  0.62383940  0.87744334  0.62652197  1
  Fe  Fe81  1  0.25225436  -0.00210107  -0.00212988  1
  Fe  Fe82  1  0.74799394  0.75018931  0.75079140  1
  Fe  Fe83  1  0.37457662  0.37585889  0.62556233  1
  Fe  Fe84  1  0.87605766  0.87346438  0.87467221  1
  Fe  Fe85  1  0.62416135  0.12210534  0.12557208  1
  Fe  Fe86  1  0.00174267  0.74908824  0.49902289  1
  Fe  Fe87  1  0.12530704  0.87205070  0.87594753  1
  Fe  Fe88  1  0.62571448  0.87628511  0.37512965  1
  Fe  Fe89  1  0.00162994  0.00110815  0.75085923  1
  Co  Co90  1  0.62008730  0.37553691  0.87575339  1
  Co  Co91  1  0.75267187  0.00075857  0.24966850  1
  Co  Co92  1  0.12493746  0.87896962  0.37424475  1
  Co  Co93  1  0.87138419  0.37302727  0.12628900  1
  Co  Co94  1  0.62336441  0.87480413  0.87485460  1
  Co  Co95  1  0.87596969  0.37030616  0.37500017  1
  Co  Co96  1  0.87792721  0.37131062  0.87556920  1
  Co  Co97  1  0.24856079  0.25379163  0.74858686  1
  Co  Co98  1  0.37586778  0.12346353  0.12541343  1
  Co  Co99  1  0.37398172  0.37683053  0.12441026  1
  Co  Co100  1  0.25053002  0.74988269  0.00001004  1
  Co  Co101  1  0.75492627  0.50307024  0.49472242  1
  Co  Co102  1  0.62557071  0.37772384  0.62069536  1
  Co  Co103  1  0.74635155  0.25256186  -0.00033992  1
  Co  Co104  1  0.24820521  0.25020144  0.24682804  1
  Co  Co105  1  0.12566260  0.11890923  0.12520344  1
  Co  Co106  1  0.24461521  0.74700945  0.74825406  1
  Co  Co107  1  0.24846059  0.74898635  0.25221651  1
  Co  Co108  1  0.87474258  0.62531504  0.62872534  1
  Co  Co109  1  0.00139410  0.49632606  0.74823489  1
  Co  Co110  1  0.12495105  0.62012222  0.37515380  1
  Co  Co111  1  0.50451568  0.74744407  0.74539200  1
  Co  Co112  1  0.24947869  -0.00130082  0.75503457  1
  Co  Co113  1  0.12211275  0.62285141  0.87668462  1
  Co  Co114  1  0.12775952  0.12307917  0.62659617  1
  Co  Co115  1  0.62337709  0.62650990  0.37537612  1
  Co  Co116  1  0.25291147  0.49976117  0.49938319  1
  Co  Co117  1  0.87597292  0.87254706  0.12438041  1
  Co  Co118  1  0.37171103  0.87482111  0.62721386  1
  Co  Co119  1  0.62195066  0.12490733  0.37407788  1
  Co  Co120  1  0.00401322  0.25272178  0.00470928  1
  Co  Co121  1  0.50003448  0.49806528  0.25252314  1
  Co  Co122  1  0.50092962  0.75001688  0.00286270  1
  Co  Co123  1  0.12790907  0.38088271  0.12516221  1
  Co  Co124  1  0.25137721  0.00342575  0.49693656  1
  Co  Co125  1  0.49870417  0.00193118  0.75032864  1
  Co  Co126  1  0.75025854  0.24641125  0.49978344  1
  Co  Co127  1  0.87653034  0.62979939  0.37275901  1
