# generated using pymatgen
data_Fe45Co19
_symmetry_space_group_name_H-M   'P 1'
_cell_length_a   11.41590961
_cell_length_b   11.41494296
_cell_length_c   11.41370262
_cell_angle_alpha   89.99287179
_cell_angle_beta   89.99494336
_cell_angle_gamma   89.99650782
_symmetry_Int_Tables_number   1
_chemical_formula_structural   Fe45Co19
_chemical_formula_sum   'Fe90 Co38'
_cell_volume   1487.34190474
_cell_formula_units_Z   2
loop_
 _symmetry_equiv_pos_site_id
 _symmetry_equiv_pos_as_xyz
  1  'x, y, z'
loop_
 _atom_site_type_symbol
 _atom_site_label
 _atom_site_symmetry_multiplicity
 _atom_site_fract_x
 _atom_site_fract_y
 _atom_site_fract_z
 _atom_site_occupancy
  Fe  Fe0  1  0.00218370  -0.00170577  -0.00731950  1
  Fe  Fe1  1  0.62343241  0.37545290  0.87283697  1
  Fe  Fe2  1  0.49558887  0.74736286  0.25803938  1
  Fe  Fe3  1  0.49843735  0.50342576  0.25343823  1
  Fe  Fe4  1  0.12720913  0.37487489  0.13001193  1
  Fe  Fe5  1  0.50163409  0.50060308  0.49696768  1
  Fe  Fe6  1  0.37710220  0.87700450  0.62221803  1
  Fe  Fe7  1  0.37240040  0.62652270  0.87656990  1
  Fe  Fe8  1  0.00073389  0.25056064  0.49929228  1
  Fe  Fe9  1  0.87693562  0.37537769  0.37628010  1
  Fe  Fe10  1  0.62425168  0.62981894  0.62041052  1
  Fe  Fe11  1  0.74983476  0.49794732  0.50130847  1
  Fe  Fe12  1  0.00365572  0.74883014  -0.00287082  1
  Fe  Fe13  1  0.74962015  0.50029674  0.24806820  1
  Fe  Fe14  1  0.00245575  -0.00103285  0.50009086  1
  Fe  Fe15  1  0.00008510  0.50299891  0.24914844  1
  Fe  Fe16  1  0.62502811  0.62538509  0.87411414  1
  Fe  Fe17  1  0.37683534  0.87382840  0.12611781  1
  Fe  Fe18  1  0.37440325  0.37605369  0.12887053  1
  Fe  Fe19  1  0.37485134  0.37565411  0.87561840  1
  Fe  Fe20  1  0.87567095  0.62382128  0.62235489  1
  Fe  Fe21  1  0.49912844  0.24683131  0.24995881  1
  Fe  Fe22  1  0.87462019  0.87704460  0.37602053  1
  Fe  Fe23  1  0.37571951  0.12184583  0.37622848  1
  Fe  Fe24  1  -0.00129746  0.24793981  0.75228258  1
  Fe  Fe25  1  0.24576220  0.49524256  0.49483936  1
  Fe  Fe26  1  0.74940418  0.25023730  0.50103674  1
  Fe  Fe27  1  0.24981710  0.25102813  0.49661218  1
  Fe  Fe28  1  0.00461111  0.50361024  0.00136573  1
  Fe  Fe29  1  0.74773602  0.75093728  0.00111442  1
  Fe  Fe30  1  0.25040585  0.75469603  0.49782162  1
  Fe  Fe31  1  0.87635021  0.12378208  0.62497419  1
  Fe  Fe32  1  0.25163997  0.50114215  0.74832100  1
  Fe  Fe33  1  0.24692797  -0.00349370  -0.00148279  1
  Fe  Fe34  1  0.87479468  0.37599509  0.12419191  1
  Fe  Fe35  1  0.25327011  0.00261972  0.75124769  1
  Fe  Fe36  1  0.87348749  0.62440352  0.37694212  1
  Fe  Fe37  1  0.37327680  0.12227848  0.12408475  1
  Fe  Fe38  1  0.00019085  0.50160279  0.74960583  1
  Fe  Fe39  1  0.12315332  0.37379938  0.62538494  1
  Fe  Fe40  1  0.49958260  0.50081493  0.00085355  1
  Fe  Fe41  1  0.50234403  -0.00119578  0.00067440  1
  Fe  Fe42  1  0.12510041  0.12383575  0.12463108  1
  Fe  Fe43  1  -0.00019940  -0.00101866  0.25045494  1
  Fe  Fe44  1  0.87817742  0.87639801  0.62752260  1
  Fe  Fe45  1  0.62274219  0.87281402  0.12940295  1
  Fe  Fe46  1  0.50045722  0.24946486  0.50000638  1
  Fe  Fe47  1  0.62313614  0.62568454  0.12651018  1
  Fe  Fe48  1  0.00151269  0.24932651  -0.00082286  1
  Fe  Fe49  1  0.74666920  -0.00274809  0.50182048  1
  Fe  Fe50  1  -0.00193018  0.24753491  0.24882731  1
  Fe  Fe51  1  0.37613372  0.37538090  0.62239656  1
  Fe  Fe52  1  0.75048582  0.24965493  0.74806395  1
  Fe  Fe53  1  0.74834954  0.00028719  0.24946676  1
  Fe  Fe54  1  0.87436121  0.37553011  0.87536075  1
  Fe  Fe55  1  0.12707658  0.37563981  0.87426747  1
  Fe  Fe56  1  0.12369293  0.87013415  0.12857508  1
  Fe  Fe57  1  0.62284474  0.37505881  0.62681063  1
  Fe  Fe58  1  0.62704734  0.87692900  0.87092584  1
  Fe  Fe59  1  0.62532939  0.37315033  0.37250978  1
  Fe  Fe60  1  0.87441530  0.12279094  0.12196774  1
  Fe  Fe61  1  0.49862887  0.50256804  0.74868710  1
  Fe  Fe62  1  0.50028655  0.25092664  0.00048495  1
  Fe  Fe63  1  0.50534479  -0.00338238  0.49747557  1
  Fe  Fe64  1  0.24892559  -0.00202142  0.25072051  1
  Fe  Fe65  1  0.62430363  0.12275290  0.87310423  1
  Fe  Fe66  1  0.74814057  0.25120794  0.00168839  1
  Fe  Fe67  1  0.12392624  0.12463260  0.37414172  1
  Fe  Fe68  1  0.37233061  0.87318138  0.87719601  1
  Fe  Fe69  1  0.25539155  0.24764983  0.74905984  1
  Fe  Fe70  1  0.62164927  0.12182679  0.62851917  1
  Fe  Fe71  1  0.12241052  0.87516782  0.63084682  1
  Fe  Fe72  1  0.75191973  0.75038601  0.74808841  1
  Fe  Fe73  1  0.62675097  0.12577346  0.12630615  1
  Fe  Fe74  1  0.74709707  0.50009233  0.00220053  1
  Fe  Fe75  1  0.75023268  0.50082821  0.74784606  1
  Fe  Fe76  1  0.50073664  0.74993670  -0.00133204  1
  Fe  Fe77  1  0.12533454  0.12504260  0.62700247  1
  Fe  Fe78  1  0.24648555  -0.00124352  0.49923902  1
  Fe  Fe79  1  0.24971062  0.25030883  0.00162556  1
  Fe  Fe80  1  0.37467917  0.62478310  0.61893768  1
  Fe  Fe81  1  0.12640475  0.62972601  0.37101088  1
  Fe  Fe82  1  -0.00029171  0.75055380  0.49920894  1
  Fe  Fe83  1  0.12630613  0.62696988  0.62545035  1
  Fe  Fe84  1  0.87393072  0.62488998  0.87784967  1
  Fe  Fe85  1  0.49696414  0.75000075  0.74871148  1
  Fe  Fe86  1  0.87289834  0.12359301  0.37609554  1
  Fe  Fe87  1  0.75339605  0.74926718  0.24993667  1
  Fe  Fe88  1  0.24834380  0.50504780  0.00430748  1
  Fe  Fe89  1  0.87598478  0.87520022  0.12164131  1
  Co  Co90  1  0.50229704  0.00249604  0.24950650  1
  Co  Co91  1  0.62661815  0.87177793  0.37237934  1
  Co  Co92  1  0.62635847  0.12612339  0.37488229  1
  Co  Co93  1  0.62959853  0.62709696  0.37748743  1
  Co  Co94  1  0.87486470  0.62609914  0.12167151  1
  Co  Co95  1  -0.00307705  0.74704389  0.75097281  1
  Co  Co96  1  0.75291758  0.75430042  0.50102896  1
  Co  Co97  1  -0.00094756  0.00329577  0.75566594  1
  Co  Co98  1  -0.00629515  0.75048569  0.25167089  1
  Co  Co99  1  0.87763359  0.37545236  0.62425236  1
  Co  Co100  1  0.75277844  -0.00014282  0.74775558  1
  Co  Co101  1  0.49479298  -0.00152947  0.75211892  1
  Co  Co102  1  0.12296320  0.87278436  0.37245753  1
  Co  Co103  1  0.24698113  0.74884911  0.00287242  1
  Co  Co104  1  0.62261125  0.37603922  0.12790230  1
  Co  Co105  1  0.25075158  0.24661435  0.25215471  1
  Co  Co106  1  0.37698801  0.12265658  0.61934848  1
  Co  Co107  1  0.49812335  0.75219072  0.49590104  1
  Co  Co108  1  0.37000509  0.62365475  0.38026681  1
  Co  Co109  1  0.49615322  0.24891488  0.75020114  1
  Co  Co110  1  0.37621361  0.62767220  0.12446505  1
  Co  Co111  1  0.75265412  0.25001464  0.24953812  1
  Co  Co112  1  0.12870757  0.12681637  0.87474115  1
  Co  Co113  1  0.12620042  0.63031716  0.13202619  1
  Co  Co114  1  0.25658166  0.75304744  0.25212755  1
  Co  Co115  1  0.87057172  0.12521988  0.87820599  1
  Co  Co116  1  0.62290545  0.87275936  0.62736298  1
  Co  Co117  1  0.12861341  0.62664082  0.87099478  1
  Co  Co118  1  0.25170957  0.50102034  0.25114233  1
  Co  Co119  1  0.00386153  0.50201378  0.49897802  1
  Co  Co120  1  0.12764458  0.87034642  0.86841980  1
  Co  Co121  1  0.37763884  0.37367343  0.37331830  1
  Co  Co122  1  0.74671133  -0.00203471  0.00252162  1
  Co  Co123  1  0.12146483  0.37337519  0.37010927  1
  Co  Co124  1  0.37537194  0.12442653  0.88025270  1
  Co  Co125  1  0.25525147  0.74955804  0.74590362  1
  Co  Co126  1  0.37605911  0.88143689  0.37519342  1
  Co  Co127  1  0.87282287  0.87373566  0.87580957  1
