# generated using pymatgen
data_Fe45Co19
_symmetry_space_group_name_H-M   'P 1'
_cell_length_a   11.41671607
_cell_length_b   11.41683231
_cell_length_c   11.41495948
_cell_angle_alpha   90.00022200
_cell_angle_beta   90.00620943
_cell_angle_gamma   90.00013484
_symmetry_Int_Tables_number   1
_chemical_formula_structural   Fe45Co19
_chemical_formula_sum   'Fe90 Co38'
_cell_volume   1487.85700573
_cell_formula_units_Z   2
loop_
 _symmetry_equiv_pos_site_id
 _symmetry_equiv_pos_as_xyz
  1  'x, y, z'
loop_
 _atom_site_type_symbol
 _atom_site_label
 _atom_site_symmetry_multiplicity
 _atom_site_fract_x
 _atom_site_fract_y
 _atom_site_fract_z
 _atom_site_occupancy
  Fe  Fe0  1  0.74968719  0.24820517  0.25161854  1
  Fe  Fe1  1  0.50125258  0.25094328  0.00035820  1
  Fe  Fe2  1  0.37365105  0.87418887  0.62447609  1
  Fe  Fe3  1  0.75104986  0.50150368  0.25410120  1
  Fe  Fe4  1  0.12489990  0.37646991  0.12207480  1
  Fe  Fe5  1  0.87328333  0.87441860  0.12406513  1
  Fe  Fe6  1  0.00446489  0.25790842  0.75472243  1
  Fe  Fe7  1  0.37173369  0.37371965  0.87439247  1
  Fe  Fe8  1  0.87684981  0.62156939  0.62634156  1
  Fe  Fe9  1  0.49821769  0.25213457  0.49819155  1
  Fe  Fe10  1  0.49928317  -0.00135459  0.49744400  1
  Fe  Fe11  1  0.87602435  0.62527166  0.12555206  1
  Fe  Fe12  1  0.50070243  0.75019668  0.74979401  1
  Fe  Fe13  1  0.87635336  0.12779352  0.12255445  1
  Fe  Fe14  1  0.24858942  0.74809953  0.75058823  1
  Fe  Fe15  1  0.75103372  0.00287889  -0.00199872  1
  Fe  Fe16  1  0.37577140  0.12394615  0.37319396  1
  Fe  Fe17  1  0.24670539  0.75216084  0.24845972  1
  Fe  Fe18  1  0.49726022  0.50030644  0.00176616  1
  Fe  Fe19  1  0.49789366  0.75060616  0.00104152  1
  Fe  Fe20  1  0.50097058  0.75187098  0.49690396  1
  Fe  Fe21  1  0.12197152  0.12381821  0.37512625  1
  Fe  Fe22  1  0.62222548  0.12234483  0.12679257  1
  Fe  Fe23  1  0.24642213  0.24814439  -0.00270381  1
  Fe  Fe24  1  0.62793032  0.37664336  0.62169155  1
  Fe  Fe25  1  0.74900790  0.00092332  0.25186244  1
  Fe  Fe26  1  0.00057692  0.25479984  0.50123953  1
  Fe  Fe27  1  0.49980229  -0.00110079  0.74945579  1
  Fe  Fe28  1  0.87258628  0.87152530  0.87385804  1
  Fe  Fe29  1  -0.00130537  0.50015381  -0.00546265  1
  Fe  Fe30  1  0.12802823  0.37777245  0.37887644  1
  Fe  Fe31  1  0.62685911  0.87504554  0.62327627  1
  Fe  Fe32  1  0.49750141  -0.00166032  -0.00067385  1
  Fe  Fe33  1  0.37645241  0.62615265  0.62420244  1
  Fe  Fe34  1  0.87472709  0.37274820  0.12141325  1
  Fe  Fe35  1  0.24814118  0.74744127  0.49971514  1
  Fe  Fe36  1  0.87424964  0.87241892  0.62627385  1
  Fe  Fe37  1  0.62295271  0.12583372  0.87365447  1
  Fe  Fe38  1  0.75016009  0.74515726  0.49891680  1
  Fe  Fe39  1  0.62140692  0.62555565  0.12774778  1
  Fe  Fe40  1  0.12697133  0.62376909  0.12112388  1
  Fe  Fe41  1  0.25073863  0.00087297  0.75082688  1
  Fe  Fe42  1  0.24760264  0.24966163  0.25155644  1
  Fe  Fe43  1  0.12410162  0.12751991  0.62723764  1
  Fe  Fe44  1  0.00219617  0.74703967  0.75327209  1
  Fe  Fe45  1  0.75078547  0.00154120  0.75014776  1
  Fe  Fe46  1  0.75231655  0.25002156  0.49722696  1
  Fe  Fe47  1  0.12238363  0.61718589  0.62759024  1
  Fe  Fe48  1  0.75256427  0.00346242  0.49938417  1
  Fe  Fe49  1  0.62549440  0.37605169  0.87555824  1
  Fe  Fe50  1  0.62554494  0.87407251  0.87533052  1
  Fe  Fe51  1  0.87787261  0.12943689  0.62812008  1
  Fe  Fe52  1  0.00169090  0.74910979  -0.00150046  1
  Fe  Fe53  1  -0.00069233  0.49867386  0.25019477  1
  Fe  Fe54  1  0.37674515  0.62802349  0.37096988  1
  Fe  Fe55  1  0.00058125  0.74834965  0.50132131  1
  Fe  Fe56  1  0.49677169  0.49726066  0.49737681  1
  Fe  Fe57  1  0.37507366  0.87439602  0.12678302  1
  Fe  Fe58  1  -0.00061768  -0.00221849  0.24934953  1
  Fe  Fe59  1  -0.00263355  0.00041813  -0.00268571  1
  Fe  Fe60  1  0.74935176  0.25111525  0.75123531  1
  Fe  Fe61  1  0.12277759  0.62349954  0.37524460  1
  Fe  Fe62  1  0.25057761  0.50060657  0.24934500  1
  Fe  Fe63  1  0.62445646  0.62105102  0.62340569  1
  Fe  Fe64  1  0.12527724  0.87484760  0.62526807  1
  Fe  Fe65  1  0.37597960  0.12728822  0.87317902  1
  Fe  Fe66  1  0.49917398  0.49724412  0.25135982  1
  Fe  Fe67  1  0.00136163  0.25166418  0.24941356  1
  Fe  Fe68  1  0.24837409  -0.00242954  0.25035572  1
  Fe  Fe69  1  0.75386171  0.49920779  0.75178799  1
  Fe  Fe70  1  0.50144877  0.25153126  0.25270423  1
  Fe  Fe71  1  0.12934050  0.87601198  0.87858685  1
  Fe  Fe72  1  0.62466913  0.62409142  0.87360149  1
  Fe  Fe73  1  0.74853775  0.74795267  0.00094640  1
  Fe  Fe74  1  0.00267311  0.75230457  0.24767842  1
  Fe  Fe75  1  0.75012755  0.50162722  0.00037770  1
  Fe  Fe76  1  0.37225653  0.62511013  0.87695203  1
  Fe  Fe77  1  0.24949223  0.00152833  0.49970306  1
  Fe  Fe78  1  0.62352005  0.12709249  0.62365818  1
  Fe  Fe79  1  0.62681301  0.37551396  0.12649229  1
  Fe  Fe80  1  0.37569352  0.12504053  0.12720125  1
  Fe  Fe81  1  0.37505520  0.12749520  0.62624960  1
  Fe  Fe82  1  0.49708418  0.49703014  0.74922541  1
  Fe  Fe83  1  -0.00146793  -0.00012174  0.50160767  1
  Fe  Fe84  1  0.37372145  0.37238376  0.12594422  1
  Fe  Fe85  1  -0.00117502  -0.00090095  0.75194090  1
  Fe  Fe86  1  0.74649491  0.74982774  0.25159756  1
  Fe  Fe87  1  0.12513107  0.12188265  0.12294986  1
  Fe  Fe88  1  0.36814690  0.37212308  0.62332345  1
  Fe  Fe89  1  0.87481260  0.87319018  0.37574458  1
  Co  Co90  1  -0.00350459  0.49684555  0.49949861  1
  Co  Co91  1  0.87180871  0.37054334  0.88024604  1
  Co  Co92  1  -0.00385762  0.49534100  0.75480655  1
  Co  Co93  1  0.62282629  0.12529545  0.37622507  1
  Co  Co94  1  0.62703950  0.37531237  0.37649095  1
  Co  Co95  1  0.87909565  0.12585102  0.37448576  1
  Co  Co96  1  0.37185716  0.87378155  0.37508572  1
  Co  Co97  1  0.50117811  0.25409724  0.74816793  1
  Co  Co98  1  0.25306273  0.50494088  0.49883150  1
  Co  Co99  1  0.37417616  0.87356555  0.87287769  1
  Co  Co100  1  0.25370029  0.50161287  0.74807843  1
  Co  Co101  1  0.25507051  0.00158400  -0.00019739  1
  Co  Co102  1  0.12915379  0.62121523  0.87595349  1
  Co  Co103  1  0.50403264  0.75638873  0.25138587  1
  Co  Co104  1  0.74824248  0.74771932  0.74715478  1
  Co  Co105  1  0.12433569  0.12110363  0.87440223  1
  Co  Co106  1  0.24835827  0.24599396  0.49793467  1
  Co  Co107  1  0.25188688  0.75065970  0.00222651  1
  Co  Co108  1  0.87343125  0.37537916  0.62532367  1
  Co  Co109  1  0.75426807  0.50251727  0.49619564  1
  Co  Co110  1  0.87911637  0.62745047  0.37325902  1
  Co  Co111  1  0.12864324  0.37870429  0.62402810  1
  Co  Co112  1  0.00587468  0.25085244  -0.00320172  1
  Co  Co113  1  0.62071625  0.62304340  0.37537185  1
  Co  Co114  1  0.24575910  0.24938874  0.75227944  1
  Co  Co115  1  0.87342128  0.62709029  0.87476231  1
  Co  Co116  1  0.62599093  0.87686130  0.12190825  1
  Co  Co117  1  0.74513612  0.24688776  0.00137638  1
  Co  Co118  1  0.87529922  0.37397419  0.37294644  1
  Co  Co119  1  0.50132027  -0.00437872  0.25214654  1
  Co  Co120  1  0.37122719  0.37435749  0.37452303  1
  Co  Co121  1  0.12528457  0.87811288  0.11967703  1
  Co  Co122  1  0.87628531  0.13029289  0.87381862  1
  Co  Co123  1  0.37685741  0.62753701  0.12949553  1
  Co  Co124  1  0.12391909  0.87513835  0.37792390  1
  Co  Co125  1  0.13135563  0.38263417  0.87494115  1
  Co  Co126  1  0.25444583  0.49993784  0.00403256  1
  Co  Co127  1  0.62875311  0.87635414  0.37837022  1
