# generated using pymatgen
data_Fe45Co19
_symmetry_space_group_name_H-M   'P 1'
_cell_length_a   11.41563402
_cell_length_b   11.41417852
_cell_length_c   11.41495976
_cell_angle_alpha   90.00430820
_cell_angle_beta   89.99819968
_cell_angle_gamma   89.99559479
_symmetry_Int_Tables_number   1
_chemical_formula_structural   Fe45Co19
_chemical_formula_sum   'Fe90 Co38'
_cell_volume   1487.37021363
_cell_formula_units_Z   2
loop_
 _symmetry_equiv_pos_site_id
 _symmetry_equiv_pos_as_xyz
  1  'x, y, z'
loop_
 _atom_site_type_symbol
 _atom_site_label
 _atom_site_symmetry_multiplicity
 _atom_site_fract_x
 _atom_site_fract_y
 _atom_site_fract_z
 _atom_site_occupancy
  Fe  Fe0  1  0.62574329  0.12590751  0.37294345  1
  Fe  Fe1  1  0.74909052  0.50121008  0.50046297  1
  Fe  Fe2  1  -0.00159313  0.49980165  0.75032532  1
  Fe  Fe3  1  0.00051372  0.25154101  0.00167156  1
  Fe  Fe4  1  0.87726896  0.37445918  0.62209024  1
  Fe  Fe5  1  0.62551323  0.37797355  0.87286000  1
  Fe  Fe6  1  -0.00264643  0.75376913  0.24873577  1
  Fe  Fe7  1  0.62329296  0.62792995  0.37060107  1
  Fe  Fe8  1  0.37608611  0.86745476  0.37562242  1
  Fe  Fe9  1  0.87363649  0.87487866  0.87857042  1
  Fe  Fe10  1  0.50042147  -0.00116359  0.49916006  1
  Fe  Fe11  1  0.62410552  0.62435785  0.62841271  1
  Fe  Fe12  1  0.12474428  0.37767244  0.12742560  1
  Fe  Fe13  1  0.87629733  0.62616553  0.62487700  1
  Fe  Fe14  1  0.37555549  0.12558076  0.62504061  1
  Fe  Fe15  1  0.12617323  0.12177522  0.12858275  1
  Fe  Fe16  1  0.87569709  0.87460660  0.62376374  1
  Fe  Fe17  1  0.50033006  0.50156365  0.49894218  1
  Fe  Fe18  1  0.75384903  -0.00427566  0.24764842  1
  Fe  Fe19  1  0.12576497  0.87469054  0.62685670  1
  Fe  Fe20  1  0.49855727  0.25014305  0.75119116  1
  Fe  Fe21  1  0.12328385  0.62454822  0.37055720  1
  Fe  Fe22  1  0.50030147  0.24929453  0.24877505  1
  Fe  Fe23  1  -0.00032657  0.25203767  0.25145222  1
  Fe  Fe24  1  0.74739235  0.74984680  0.50029119  1
  Fe  Fe25  1  0.87497214  0.62442352  0.87444444  1
  Fe  Fe26  1  0.12425690  0.62769031  0.62850130  1
  Fe  Fe27  1  -0.00105628  0.00147288  0.49958083  1
  Fe  Fe28  1  0.75118093  0.25080890  0.74870244  1
  Fe  Fe29  1  0.49756805  -0.00196218  0.24776386  1
  Fe  Fe30  1  0.62432044  0.87307235  0.37333345  1
  Fe  Fe31  1  0.37476533  0.87184747  0.62286441  1
  Fe  Fe32  1  0.00214786  0.75074681  0.49967261  1
  Fe  Fe33  1  0.24816030  0.24994382  0.00062476  1
  Fe  Fe34  1  0.12685012  0.87821066  0.12807572  1
  Fe  Fe35  1  0.24805799  0.50388832  0.49893616  1
  Fe  Fe36  1  0.50266553  0.24957652  0.00114970  1
  Fe  Fe37  1  0.50028234  0.50143547  -0.00005704  1
  Fe  Fe38  1  0.74919269  0.25044880  0.00140471  1
  Fe  Fe39  1  0.37046648  0.62562972  0.87781055  1
  Fe  Fe40  1  0.12470055  0.87725343  0.37195327  1
  Fe  Fe41  1  0.75257210  0.49865888  0.25077664  1
  Fe  Fe42  1  0.62624273  0.62233757  0.87297899  1
  Fe  Fe43  1  0.74959017  0.00048380  0.50107405  1
  Fe  Fe44  1  0.25143384  -0.00168309  0.49804677  1
  Fe  Fe45  1  0.62319322  0.12480338  0.62466511  1
  Fe  Fe46  1  0.75124651  -0.00065248  0.75111951  1
  Fe  Fe47  1  0.87564872  0.62483129  0.12606843  1
  Fe  Fe48  1  0.12619075  0.12306823  0.62592901  1
  Fe  Fe49  1  -0.00029026  0.49885067  0.00064804  1
  Fe  Fe50  1  0.25411851  -0.00045629  0.75415280  1
  Fe  Fe51  1  0.75116430  0.75047848  0.75074741  1
  Fe  Fe52  1  0.62329336  0.37637367  0.62588298  1
  Fe  Fe53  1  0.25064511  0.24956095  0.25019843  1
  Fe  Fe54  1  0.87329199  0.12533405  0.37551889  1
  Fe  Fe55  1  0.74763992  0.74801865  0.00128752  1
  Fe  Fe56  1  0.12731743  0.62340565  0.87275286  1
  Fe  Fe57  1  0.87738805  0.37434841  0.37909296  1
  Fe  Fe58  1  0.87520609  0.62755659  0.37459855  1
  Fe  Fe59  1  0.37476628  0.62786824  0.62257449  1
  Fe  Fe60  1  0.37395252  0.37664929  0.37495385  1
  Fe  Fe61  1  0.00041861  0.24998852  0.74865747  1
  Fe  Fe62  1  0.37284080  0.87314757  0.11905362  1
  Fe  Fe63  1  0.12546449  0.12210690  0.37179336  1
  Fe  Fe64  1  0.24883523  0.24972311  0.49863055  1
  Fe  Fe65  1  0.00097681  0.00021351  0.00092533  1
  Fe  Fe66  1  -0.00202858  -0.00137630  0.75098194  1
  Fe  Fe67  1  0.12439181  0.37506337  0.62276040  1
  Fe  Fe68  1  0.37394472  0.62874759  0.12259607  1
  Fe  Fe69  1  0.49686904  -0.00256443  0.75619011  1
  Fe  Fe70  1  0.62383302  0.37340167  0.37496672  1
  Fe  Fe71  1  0.87427647  0.12626134  0.12532657  1
  Fe  Fe72  1  0.12726141  0.87385412  0.87310373  1
  Fe  Fe73  1  0.12595174  0.12600476  0.87370348  1
  Fe  Fe74  1  0.49796729  0.75087518  0.75461745  1
  Fe  Fe75  1  0.62334536  0.87482026  0.62744604  1
  Fe  Fe76  1  0.37627752  0.12567995  0.37589554  1
  Fe  Fe77  1  0.00388663  0.74954633  -0.00019374  1
  Fe  Fe78  1  0.87569994  0.12601916  0.87562710  1
  Fe  Fe79  1  0.75216136  0.49845001  -0.00042688  1
  Fe  Fe80  1  0.25096444  0.50325533  0.24893165  1
  Fe  Fe81  1  0.12673060  0.37668944  0.87420566  1
  Fe  Fe82  1  0.49842199  0.50245078  0.24896599  1
  Fe  Fe83  1  0.62481872  0.12307398  0.87628866  1
  Fe  Fe84  1  0.62595641  0.37643935  0.12634200  1
  Fe  Fe85  1  0.37460268  0.37536178  0.12429918  1
  Fe  Fe86  1  0.37517063  0.12304559  0.12088469  1
  Fe  Fe87  1  0.62492369  0.87553376  0.12148560  1
  Fe  Fe88  1  0.37203979  0.37569437  0.87497520  1
  Fe  Fe89  1  0.37485319  0.37500107  0.62489134  1
  Co  Co90  1  0.00169511  0.50342270  0.49988276  1
  Co  Co91  1  0.25034646  0.50053649  0.74712018  1
  Co  Co92  1  0.49608552  0.50177428  0.75101848  1
  Co  Co93  1  0.12623893  0.37732497  0.37399877  1
  Co  Co94  1  0.25632638  -0.00143132  0.25089888  1
  Co  Co95  1  0.87584884  0.37306071  0.87450833  1
  Co  Co96  1  0.75070792  0.00232353  0.00133647  1
  Co  Co97  1  0.37290000  0.87102430  0.88299302  1
  Co  Co98  1  0.50062216  -0.00019523  -0.00233478  1
  Co  Co99  1  0.24719066  0.00157823  -0.00274629  1
  Co  Co100  1  0.24925977  0.74913813  0.24870835  1
  Co  Co101  1  -0.00615335  -0.00174618  0.24914569  1
  Co  Co102  1  0.62824995  0.62195552  0.12684025  1
  Co  Co103  1  0.24256937  0.74801356  0.00229302  1
  Co  Co104  1  0.50444364  0.74918167  0.50100641  1
  Co  Co105  1  0.62778647  0.87504469  0.87702749  1
  Co  Co106  1  0.24853107  0.50057626  0.00323867  1
  Co  Co107  1  0.00261478  0.24618594  0.49806075  1
  Co  Co108  1  0.50019655  0.25058423  0.49931538  1
  Co  Co109  1  0.62578667  0.12335343  0.12782240  1
  Co  Co110  1  0.75364799  0.49878115  0.74815807  1
  Co  Co111  1  0.37698395  0.62848224  0.37547633  1
  Co  Co112  1  0.75108309  0.25289831  0.25029316  1
  Co  Co113  1  0.87466065  0.87357735  0.37961310  1
  Co  Co114  1  0.24520986  0.74910180  0.49838360  1
  Co  Co115  1  0.75112770  0.75306260  0.24842896  1
  Co  Co116  1  0.12081879  0.62319950  0.12844932  1
  Co  Co117  1  -0.00316987  0.49742723  0.25019638  1
  Co  Co118  1  0.25260145  0.75047675  0.75032807  1
  Co  Co119  1  0.50043922  0.75023843  0.24401615  1
  Co  Co120  1  0.37477538  0.12850714  0.87820612  1
  Co  Co121  1  0.50433896  0.74673353  -0.00121974  1
  Co  Co122  1  0.24953465  0.25019769  0.74937390  1
  Co  Co123  1  0.87490235  0.37522734  0.12401027  1
  Co  Co124  1  0.87576295  0.87257015  0.11905987  1
  Co  Co125  1  0.87589854  0.12456663  0.62571161  1
  Co  Co126  1  -0.00172207  0.75076180  0.75197094  1
  Co  Co127  1  0.74880843  0.24988457  0.50179654  1
