# generated using pymatgen
data_Fe45Co19
_symmetry_space_group_name_H-M   'P 1'
_cell_length_a   11.41525247
_cell_length_b   11.41603353
_cell_length_c   11.41606351
_cell_angle_alpha   89.99559489
_cell_angle_beta   90.01283291
_cell_angle_gamma   89.99993330
_symmetry_Int_Tables_number   1
_chemical_formula_structural   Fe45Co19
_chemical_formula_sum   'Fe90 Co38'
_cell_volume   1487.70602046
_cell_formula_units_Z   2
loop_
 _symmetry_equiv_pos_site_id
 _symmetry_equiv_pos_as_xyz
  1  'x, y, z'
loop_
 _atom_site_type_symbol
 _atom_site_label
 _atom_site_symmetry_multiplicity
 _atom_site_fract_x
 _atom_site_fract_y
 _atom_site_fract_z
 _atom_site_occupancy
  Fe  Fe0  1  0.12433229  0.37514575  0.62634503  1
  Fe  Fe1  1  0.49898764  0.24930723  0.24719477  1
  Fe  Fe2  1  0.87595998  0.12598161  0.62524963  1
  Fe  Fe3  1  0.87696945  0.12544192  0.87143721  1
  Fe  Fe4  1  0.87679406  0.37344615  0.37469506  1
  Fe  Fe5  1  0.62345882  0.12638866  0.62502978  1
  Fe  Fe6  1  0.37061702  0.62553995  0.62410475  1
  Fe  Fe7  1  -0.00084165  0.50159022  0.24813040  1
  Fe  Fe8  1  -0.00139485  0.24814835  0.00123874  1
  Fe  Fe9  1  0.87307620  0.62407370  0.62776822  1
  Fe  Fe10  1  0.24719425  0.74889026  0.75160584  1
  Fe  Fe11  1  0.00046527  -0.00073591  0.74929584  1
  Fe  Fe12  1  0.87495114  0.87581742  0.87564385  1
  Fe  Fe13  1  0.87586021  0.37425524  0.12644041  1
  Fe  Fe14  1  0.50354398  0.75122374  0.24742630  1
  Fe  Fe15  1  0.37287193  0.62441594  0.37509219  1
  Fe  Fe16  1  0.62357898  0.37477827  0.37600595  1
  Fe  Fe17  1  0.00047353  0.74933172  0.74920165  1
  Fe  Fe18  1  0.37412578  0.87202751  0.62442369  1
  Fe  Fe19  1  0.62860460  0.87283235  0.62133813  1
  Fe  Fe20  1  -0.00166086  0.74764375  0.49946192  1
  Fe  Fe21  1  0.12511369  0.37399864  0.87494268  1
  Fe  Fe22  1  0.25361653  0.00087185  -0.00120104  1
  Fe  Fe23  1  0.62800397  0.88059540  0.11904488  1
  Fe  Fe24  1  -0.00363372  0.75032333  0.00240135  1
  Fe  Fe25  1  0.62050947  0.12099034  0.87420737  1
  Fe  Fe26  1  0.12425453  0.12555963  0.87428333  1
  Fe  Fe27  1  0.37501678  0.62735728  0.87632935  1
  Fe  Fe28  1  0.87640739  0.37497774  0.87437012  1
  Fe  Fe29  1  0.25045196  -0.00008104  0.75018068  1
  Fe  Fe30  1  0.87286792  0.87578489  0.62060108  1
  Fe  Fe31  1  0.50520204  0.00121132  0.24994592  1
  Fe  Fe32  1  0.37474659  0.37329943  0.87375768  1
  Fe  Fe33  1  0.25013269  0.25168514  0.25059231  1
  Fe  Fe34  1  0.12341705  0.87560595  0.12359864  1
  Fe  Fe35  1  0.50010332  0.74679777  0.50033366  1
  Fe  Fe36  1  0.49984049  0.49947702  0.24805102  1
  Fe  Fe37  1  0.24779259  0.25239681  0.49898508  1
  Fe  Fe38  1  0.37400784  0.37500858  0.62906868  1
  Fe  Fe39  1  0.62798598  0.62641781  0.37127250  1
  Fe  Fe40  1  0.24983299  0.75015421  0.25004081  1
  Fe  Fe41  1  0.12667711  0.12301529  0.12652889  1
  Fe  Fe42  1  0.87489919  0.62333858  0.87533893  1
  Fe  Fe43  1  0.74821456  -0.00265067  0.75055736  1
  Fe  Fe44  1  0.37460176  0.62616716  0.12395166  1
  Fe  Fe45  1  0.49684628  0.24415235  0.00259298  1
  Fe  Fe46  1  0.74766917  0.24971112  0.25125035  1
  Fe  Fe47  1  0.62763193  0.62573020  0.87360134  1
  Fe  Fe48  1  0.75091739  0.24881503  0.49956919  1
  Fe  Fe49  1  0.87508729  0.37450180  0.62603564  1
  Fe  Fe50  1  -0.00117847  0.00389871  0.49623043  1
  Fe  Fe51  1  0.12405600  0.87408523  0.87662517  1
  Fe  Fe52  1  0.12369946  0.12591008  0.62425679  1
  Fe  Fe53  1  0.75118703  0.24681724  -0.00081969  1
  Fe  Fe54  1  0.62384395  0.37520928  0.87720253  1
  Fe  Fe55  1  0.24962277  0.50049164  0.00005773  1
  Fe  Fe56  1  0.75112903  0.75072890  0.00030005  1
  Fe  Fe57  1  0.63026403  0.62372317  0.12739904  1
  Fe  Fe58  1  0.37946912  0.87456758  0.87730473  1
  Fe  Fe59  1  0.00308223  0.50179348  0.75175186  1
  Fe  Fe60  1  0.12394973  0.87367965  0.62288242  1
  Fe  Fe61  1  -0.00465643  0.75282967  0.24810447  1
  Fe  Fe62  1  0.25146338  -0.00124638  0.49992241  1
  Fe  Fe63  1  0.50027531  0.50085431  0.50088800  1
  Fe  Fe64  1  0.62399633  0.37347531  0.12300399  1
  Fe  Fe65  1  0.87085556  0.62648100  0.37007924  1
  Fe  Fe66  1  0.37342690  0.37807531  0.37308270  1
  Fe  Fe67  1  0.37611326  0.87472694  0.12442846  1
  Fe  Fe68  1  0.75251812  0.49817504  0.00164402  1
  Fe  Fe69  1  0.50090249  0.00015658  0.50086562  1
  Fe  Fe70  1  -0.00090858  0.00223051  0.00043999  1
  Fe  Fe71  1  0.37520797  0.12441181  0.37399847  1
  Fe  Fe72  1  0.74759120  0.25172865  0.75072195  1
  Fe  Fe73  1  0.37867528  0.87407206  0.37458535  1
  Fe  Fe74  1  0.12490250  0.37523357  0.12564830  1
  Fe  Fe75  1  0.62864740  0.62420833  0.62746148  1
  Fe  Fe76  1  0.50017717  0.50204455  0.00116195  1
  Fe  Fe77  1  0.49849837  0.25210100  0.50137615  1
  Fe  Fe78  1  0.12277404  0.87444184  0.37630978  1
  Fe  Fe79  1  0.24870121  -0.00282774  0.25182969  1
  Fe  Fe80  1  0.12404411  0.62602635  0.12194945  1
  Fe  Fe81  1  0.00231708  0.24598957  0.25311367  1
  Fe  Fe82  1  0.87149008  0.11965239  0.13003474  1
  Fe  Fe83  1  0.37617370  0.12669186  0.62858692  1
  Fe  Fe84  1  0.74996691  0.50058833  0.49840486  1
  Fe  Fe85  1  0.25324229  0.24672076  -0.00018098  1
  Fe  Fe86  1  0.50317347  0.75166043  0.75040675  1
  Fe  Fe87  1  0.00031112  0.49996609  0.49898576  1
  Fe  Fe88  1  0.50111993  0.49892280  0.74974835  1
  Fe  Fe89  1  0.12745953  0.62345627  0.37621578  1
  Co  Co90  1  0.87358727  0.12479326  0.37239829  1
  Co  Co91  1  0.25013507  0.75307643  0.49700116  1
  Co  Co92  1  0.37167710  0.12308024  0.13041476  1
  Co  Co93  1  -0.00124691  0.49809502  0.00115231  1
  Co  Co94  1  0.87396258  0.87596404  0.37879234  1
  Co  Co95  1  0.00168461  0.24963563  0.49764903  1
  Co  Co96  1  0.62944357  0.12334351  0.12501450  1
  Co  Co97  1  0.50101400  -0.00513452  0.74586415  1
  Co  Co98  1  0.00016568  0.25067581  0.75019003  1
  Co  Co99  1  0.74996116  0.49429314  0.25017340  1
  Co  Co100  1  0.12843443  0.12378641  0.37534312  1
  Co  Co101  1  0.75113945  0.75374550  0.75153670  1
  Co  Co102  1  0.49516128  0.00477985  0.00329568  1
  Co  Co103  1  0.24935977  0.49638401  0.50128649  1
  Co  Co104  1  0.50343449  0.74772027  0.00272845  1
  Co  Co105  1  0.74543872  -0.00381777  0.25811208  1
  Co  Co106  1  0.24866962  0.50273149  0.75183147  1
  Co  Co107  1  0.87271278  0.88248636  0.12381266  1
  Co  Co108  1  0.74953341  0.49685119  0.75127805  1
  Co  Co109  1  0.37537280  0.37598713  0.12327884  1
  Co  Co110  1  0.62220918  0.87715393  0.87933086  1
  Co  Co111  1  0.12452547  0.37825058  0.37154286  1
  Co  Co112  1  0.12334778  0.62686929  0.87941652  1
  Co  Co113  1  0.62382956  0.87119207  0.38083581  1
  Co  Co114  1  0.00059448  -0.00074575  0.25273443  1
  Co  Co115  1  0.62652312  0.37618050  0.62254518  1
  Co  Co116  1  0.87167642  0.62364025  0.12645770  1
  Co  Co117  1  0.75086301  0.75784560  0.24748014  1
  Co  Co118  1  0.37854909  0.12426537  0.86865737  1
  Co  Co119  1  0.75278615  0.00428195  -0.00537497  1
  Co  Co120  1  0.25110555  0.75210909  0.00080057  1
  Co  Co121  1  0.62197841  0.12906824  0.37611829  1
  Co  Co122  1  0.12698417  0.62644374  0.62184238  1
  Co  Co123  1  0.74780849  0.00444833  0.49703833  1
  Co  Co124  1  0.25037461  0.50190074  0.24633953  1
  Co  Co125  1  0.24788180  0.24722773  0.75019978  1
  Co  Co126  1  0.75124709  0.74555590  0.49953439  1
  Co  Co127  1  0.50430749  0.25332648  0.74997714  1
