# generated using pymatgen
data_Fe45Co19
_symmetry_space_group_name_H-M   'P 1'
_cell_length_a   11.41428721
_cell_length_b   11.41578745
_cell_length_c   11.41509880
_cell_angle_alpha   90.00147001
_cell_angle_beta   89.98725035
_cell_angle_gamma   89.99564424
_symmetry_Int_Tables_number   1
_chemical_formula_structural   Fe45Co19
_chemical_formula_sum   'Fe90 Co38'
_cell_volume   1487.42245275
_cell_formula_units_Z   2
loop_
 _symmetry_equiv_pos_site_id
 _symmetry_equiv_pos_as_xyz
  1  'x, y, z'
loop_
 _atom_site_type_symbol
 _atom_site_label
 _atom_site_symmetry_multiplicity
 _atom_site_fract_x
 _atom_site_fract_y
 _atom_site_fract_z
 _atom_site_occupancy
  Fe  Fe0  1  0.25196770  0.25177260  0.74895773  1
  Fe  Fe1  1  0.50019075  0.00009307  0.50051499  1
  Fe  Fe2  1  0.49999676  0.74910610  0.25027636  1
  Fe  Fe3  1  0.24714074  0.74946146  -0.00583184  1
  Fe  Fe4  1  0.37590821  0.12579085  0.12441055  1
  Fe  Fe5  1  0.87518007  0.37464194  0.12518050  1
  Fe  Fe6  1  0.00102363  0.24960907  0.75051232  1
  Fe  Fe7  1  0.12462669  0.62367493  0.62635767  1
  Fe  Fe8  1  0.12362038  0.87797579  0.12350688  1
  Fe  Fe9  1  0.12428587  0.12408352  0.37412159  1
  Fe  Fe10  1  0.74957157  -0.00031464  0.50166882  1
  Fe  Fe11  1  0.37600661  0.37439657  0.37578862  1
  Fe  Fe12  1  -0.00037294  0.49878719  0.00176424  1
  Fe  Fe13  1  0.49946722  0.50194141  0.25155548  1
  Fe  Fe14  1  0.00034652  0.74899914  0.24936933  1
  Fe  Fe15  1  0.00096728  0.49710748  0.50059320  1
  Fe  Fe16  1  0.74762566  0.25133545  0.75099178  1
  Fe  Fe17  1  0.62078150  0.87200953  0.87390028  1
  Fe  Fe18  1  0.87754955  0.62601671  0.87580389  1
  Fe  Fe19  1  0.50342705  0.24836133  0.25100735  1
  Fe  Fe20  1  0.00364084  0.75142079  0.50055867  1
  Fe  Fe21  1  0.24871439  0.74761566  0.75483435  1
  Fe  Fe22  1  0.25017882  -0.00058691  0.24976342  1
  Fe  Fe23  1  0.00101588  -0.00051726  0.50149050  1
  Fe  Fe24  1  0.00200681  0.75121139  -0.00129457  1
  Fe  Fe25  1  0.62407232  0.37394393  0.62589644  1
  Fe  Fe26  1  0.75123115  -0.00096841  -0.00109099  1
  Fe  Fe27  1  0.12559685  0.87616917  0.63031547  1
  Fe  Fe28  1  0.37207722  0.62704647  0.37724131  1
  Fe  Fe29  1  0.24917651  0.25043349  0.25112309  1
  Fe  Fe30  1  0.12505826  0.37837660  0.13031754  1
  Fe  Fe31  1  0.37226478  0.62536506  0.12314674  1
  Fe  Fe32  1  0.12604077  0.12497870  0.62695230  1
  Fe  Fe33  1  0.24915560  -0.00131724  0.50176969  1
  Fe  Fe34  1  0.50073646  0.25187830  -0.00229254  1
  Fe  Fe35  1  0.50130444  0.75007311  0.50026958  1
  Fe  Fe36  1  0.75160504  0.50205506  0.25125969  1
  Fe  Fe37  1  0.62441940  0.87486629  0.62671603  1
  Fe  Fe38  1  0.87400422  0.12757912  0.62531992  1
  Fe  Fe39  1  0.62472899  0.12639663  0.87583680  1
  Fe  Fe40  1  0.37280738  0.62531655  0.62367874  1
  Fe  Fe41  1  0.37375979  0.37530973  0.12588096  1
  Fe  Fe42  1  0.75157468  0.74873871  0.74938440  1
  Fe  Fe43  1  0.62434707  0.87577681  0.37405386  1
  Fe  Fe44  1  0.62451345  0.87598884  0.12462393  1
  Fe  Fe45  1  0.49681035  0.00211478  0.75195587  1
  Fe  Fe46  1  0.00205060  0.24985129  -0.00065470  1
  Fe  Fe47  1  0.37263417  0.87415357  0.37610310  1
  Fe  Fe48  1  0.75127493  -0.00046123  0.75004149  1
  Fe  Fe49  1  0.62634625  0.37547985  0.12411650  1
  Fe  Fe50  1  -0.00331408  0.49993839  0.74652297  1
  Fe  Fe51  1  0.75034599  0.49903307  0.49948550  1
  Fe  Fe52  1  0.37579198  0.12326050  0.37471097  1
  Fe  Fe53  1  0.62630569  0.62546008  0.12501944  1
  Fe  Fe54  1  0.49608247  -0.00101309  -0.00107880  1
  Fe  Fe55  1  0.12528629  0.62146295  0.12581107  1
  Fe  Fe56  1  0.50345857  0.24884468  0.49926366  1
  Fe  Fe57  1  0.49915908  0.50052874  0.74890106  1
  Fe  Fe58  1  0.87610860  0.12468970  0.37490576  1
  Fe  Fe59  1  0.62178861  0.62680533  0.87553729  1
  Fe  Fe60  1  0.37388893  0.37728707  0.87395906  1
  Fe  Fe61  1  0.87486255  0.12602317  0.87509535  1
  Fe  Fe62  1  0.24808800  0.25171012  0.00077810  1
  Fe  Fe63  1  0.12425232  0.12237381  0.12471513  1
  Fe  Fe64  1  0.75172881  0.50114276  0.74942885  1
  Fe  Fe65  1  0.00217822  0.25245979  0.50011042  1
  Fe  Fe66  1  0.75037019  0.75087273  0.00000590  1
  Fe  Fe67  1  0.74739085  0.24713167  0.24813475  1
  Fe  Fe68  1  0.24752718  0.49715416  0.49956434  1
  Fe  Fe69  1  0.87548559  0.37252144  0.37380675  1
  Fe  Fe70  1  0.87535737  0.62714981  0.37842805  1
  Fe  Fe71  1  0.62822889  0.62696797  0.62273632  1
  Fe  Fe72  1  0.75136690  0.74930587  0.24970164  1
  Fe  Fe73  1  0.87625639  0.87238868  0.62621966  1
  Fe  Fe74  1  0.12878792  0.11870852  0.87415088  1
  Fe  Fe75  1  0.24701798  0.74929156  0.25218418  1
  Fe  Fe76  1  0.87420769  0.37414773  0.87516240  1
  Fe  Fe77  1  0.87692291  0.12424247  0.12337557  1
  Fe  Fe78  1  0.37626166  0.12786333  0.62535095  1
  Fe  Fe79  1  0.87696211  0.87544800  0.37405513  1
  Fe  Fe80  1  0.87926048  0.87456108  0.87392669  1
  Fe  Fe81  1  0.74994343  0.00134640  0.24815429  1
  Fe  Fe82  1  0.24820256  0.25234811  0.49946369  1
  Fe  Fe83  1  0.37391302  0.87270487  0.12406467  1
  Fe  Fe84  1  0.50200403  0.50100142  0.49844574  1
  Fe  Fe85  1  0.74634593  0.24886315  0.49955470  1
  Fe  Fe86  1  0.75023658  0.50059067  -0.00141966  1
  Fe  Fe87  1  0.12621905  0.37907357  0.87243125  1
  Fe  Fe88  1  0.37445455  0.87241064  0.62673142  1
  Fe  Fe89  1  0.49937800  0.50034628  0.00100488  1
  Co  Co90  1  0.62218974  0.12294743  0.12162373  1
  Co  Co91  1  0.62591811  0.37636737  0.87492967  1
  Co  Co92  1  0.25320390  0.50033051  0.25247542  1
  Co  Co93  1  0.37778746  0.62533651  0.87696804  1
  Co  Co94  1  0.12535932  0.87601486  0.37446882  1
  Co  Co95  1  0.87567021  0.87531634  0.12506189  1
  Co  Co96  1  0.25595005  -0.00070903  0.74915031  1
  Co  Co97  1  0.87359957  0.37214501  0.62506081  1
  Co  Co98  1  0.37674504  0.87060765  0.87463031  1
  Co  Co99  1  0.37617326  0.37443047  0.62316332  1
  Co  Co100  1  -0.00219042  0.00089502  -0.00061159  1
  Co  Co101  1  0.12188723  0.61914111  0.87439246  1
  Co  Co102  1  0.49941162  0.25108092  0.75238515  1
  Co  Co103  1  -0.00287248  0.00235395  0.74789547  1
  Co  Co104  1  0.25075383  0.49998750  0.00009531  1
  Co  Co105  1  0.62636675  0.62685583  0.37517350  1
  Co  Co106  1  -0.00362654  0.50301850  0.25160282  1
  Co  Co107  1  0.49994722  0.74929500  0.00346128  1
  Co  Co108  1  0.12541380  0.62381442  0.37550069  1
  Co  Co109  1  0.75023399  0.24976924  0.00100193  1
  Co  Co110  1  0.87489329  0.62588663  0.12202394  1
  Co  Co111  1  0.62449349  0.12443045  0.62751142  1
  Co  Co112  1  0.87537176  0.62744276  0.62182757  1
  Co  Co113  1  0.12571767  0.37491553  0.62799209  1
  Co  Co114  1  0.62450081  0.12112493  0.37439083  1
  Co  Co115  1  0.49923309  0.74661431  0.74622658  1
  Co  Co116  1  0.00054111  -0.00032700  0.25056747  1
  Co  Co117  1  0.74897306  0.75347095  0.49968597  1
  Co  Co118  1  0.49754266  -0.00178481  0.24924311  1
  Co  Co119  1  0.25407243  -0.00192532  0.00075729  1
  Co  Co120  1  0.62541203  0.37534407  0.37324685  1
  Co  Co121  1  0.37133647  0.12778911  0.87637568  1
  Co  Co122  1  0.24685758  0.75133875  0.50200843  1
  Co  Co123  1  0.25302239  0.50211741  0.74945941  1
  Co  Co124  1  0.12382571  0.88159914  0.87318195  1
  Co  Co125  1  -0.00001746  0.24883746  0.24885704  1
  Co  Co126  1  0.12392619  0.37586814  0.37072028  1
  Co  Co127  1  0.00180454  0.74867333  0.75132741  1
