# generated using pymatgen
data_Fe45Co19
_symmetry_space_group_name_H-M   'P 1'
_cell_length_a   11.41665757
_cell_length_b   11.41462817
_cell_length_c   11.41641834
_cell_angle_alpha   90.00125338
_cell_angle_beta   89.99519118
_cell_angle_gamma   90.00010377
_symmetry_Int_Tables_number   1
_chemical_formula_structural   Fe45Co19
_chemical_formula_sum   'Fe90 Co38'
_cell_volume   1487.75225431
_cell_formula_units_Z   2
loop_
 _symmetry_equiv_pos_site_id
 _symmetry_equiv_pos_as_xyz
  1  'x, y, z'
loop_
 _atom_site_type_symbol
 _atom_site_label
 _atom_site_symmetry_multiplicity
 _atom_site_fract_x
 _atom_site_fract_y
 _atom_site_fract_z
 _atom_site_occupancy
  Fe  Fe0  1  0.12397110  0.37491399  0.87526843  1
  Fe  Fe1  1  0.62391887  0.37601714  0.37299091  1
  Fe  Fe2  1  0.49792724  0.49856097  0.75073152  1
  Fe  Fe3  1  0.12596296  0.87709081  0.62562713  1
  Fe  Fe4  1  0.87662783  0.87164581  0.87542745  1
  Fe  Fe5  1  0.87425244  0.87221342  0.62227404  1
  Fe  Fe6  1  0.24925700  0.25075540  -0.00063126  1
  Fe  Fe7  1  0.24831008  0.25123542  0.49788585  1
  Fe  Fe8  1  0.25010307  0.25062896  0.75123341  1
  Fe  Fe9  1  0.12427621  0.12237877  0.12579684  1
  Fe  Fe10  1  0.87694207  0.37454894  0.87477479  1
  Fe  Fe11  1  0.37564294  0.12683672  0.37320249  1
  Fe  Fe12  1  0.12349162  0.12333122  0.62740913  1
  Fe  Fe13  1  0.12556542  0.37741533  0.12753706  1
  Fe  Fe14  1  0.63054575  0.12281905  0.12713351  1
  Fe  Fe15  1  0.75012730  0.50088851  0.75154267  1
  Fe  Fe16  1  0.74780854  0.50506726  0.49960851  1
  Fe  Fe17  1  0.12329243  0.87513987  0.87620263  1
  Fe  Fe18  1  0.24857719  0.00055715  -0.00127740  1
  Fe  Fe19  1  0.49930376  0.49877074  -0.00020993  1
  Fe  Fe20  1  0.49506141  0.50416964  0.25158657  1
  Fe  Fe21  1  0.37683580  0.87333682  0.37194345  1
  Fe  Fe22  1  0.75027448  0.25014134  0.50071153  1
  Fe  Fe23  1  0.62405263  0.87362681  0.37106461  1
  Fe  Fe24  1  0.50238585  0.24858501  0.50145888  1
  Fe  Fe25  1  0.75141978  0.00024419  -0.00351605  1
  Fe  Fe26  1  0.24836569  0.25316294  0.25202872  1
  Fe  Fe27  1  0.12635957  0.37690358  0.62402430  1
  Fe  Fe28  1  0.24752559  0.75208942  0.49958532  1
  Fe  Fe29  1  0.00021454  0.50204374  0.00052009  1
  Fe  Fe30  1  0.87375986  0.37569608  0.62541832  1
  Fe  Fe31  1  0.37444261  0.37523415  0.62197210  1
  Fe  Fe32  1  -0.00450695  0.24714886  0.24884656  1
  Fe  Fe33  1  0.87676530  0.37491285  0.37709967  1
  Fe  Fe34  1  -0.00276846  0.50250539  0.24984001  1
  Fe  Fe35  1  0.50386304  0.74776288  0.49926534  1
  Fe  Fe36  1  0.37235574  0.37812970  0.12523892  1
  Fe  Fe37  1  0.49838214  0.75197502  0.75183995  1
  Fe  Fe38  1  0.62587802  0.62275244  0.12619045  1
  Fe  Fe39  1  0.74802768  0.25107738  0.00031200  1
  Fe  Fe40  1  0.37608420  0.87638467  0.62405770  1
  Fe  Fe41  1  0.50287447  -0.00050453  -0.00096458  1
  Fe  Fe42  1  0.12145630  0.87432364  0.37077611  1
  Fe  Fe43  1  0.12997862  0.62126043  0.12705632  1
  Fe  Fe44  1  0.75337459  0.49985293  0.25166431  1
  Fe  Fe45  1  0.25223382  0.49903722  0.75346828  1
  Fe  Fe46  1  0.24975088  -0.00006970  0.75297291  1
  Fe  Fe47  1  0.50288268  0.25039482  0.24628265  1
  Fe  Fe48  1  0.25096952  0.75027529  0.75001449  1
  Fe  Fe49  1  0.37339122  0.62501349  0.62261500  1
  Fe  Fe50  1  0.62596319  0.87577703  0.12676050  1
  Fe  Fe51  1  0.87449358  0.37521408  0.12320107  1
  Fe  Fe52  1  0.75106442  -0.00115781  0.49801157  1
  Fe  Fe53  1  0.87817860  0.86889598  0.37613855  1
  Fe  Fe54  1  0.12424180  0.62584369  0.87536185  1
  Fe  Fe55  1  0.62472107  0.62718433  0.87487134  1
  Fe  Fe56  1  -0.00025744  0.74745570  0.00379185  1
  Fe  Fe57  1  0.12272339  0.87886515  0.12741324  1
  Fe  Fe58  1  -0.00084828  0.50245354  0.74825767  1
  Fe  Fe59  1  0.62760479  0.12438263  0.62691676  1
  Fe  Fe60  1  0.87694883  0.87695675  0.12566786  1
  Fe  Fe61  1  0.00076224  0.50412959  0.50156601  1
  Fe  Fe62  1  0.74933037  0.49921620  -0.00286785  1
  Fe  Fe63  1  0.75204777  0.74844664  0.24947876  1
  Fe  Fe64  1  0.50178881  -0.00100106  0.75339202  1
  Fe  Fe65  1  0.25016701  -0.00043145  0.49633026  1
  Fe  Fe66  1  0.62042034  0.36952181  0.87434458  1
  Fe  Fe67  1  0.37578559  0.87640906  0.12737899  1
  Fe  Fe68  1  0.75037124  0.74739712  0.74876193  1
  Fe  Fe69  1  0.75055311  0.00083038  0.75224653  1
  Fe  Fe70  1  0.25011133  0.49711768  0.49262824  1
  Fe  Fe71  1  0.24981506  0.75116388  0.00247471  1
  Fe  Fe72  1  0.37837910  0.12756255  0.87665905  1
  Fe  Fe73  1  0.12305291  0.12530572  0.37408593  1
  Fe  Fe74  1  0.37402165  0.62606748  0.87844902  1
  Fe  Fe75  1  -0.00168728  0.24844088  0.50322011  1
  Fe  Fe76  1  0.50030994  0.50300946  0.49766984  1
  Fe  Fe77  1  0.62895934  0.12565772  0.37117550  1
  Fe  Fe78  1  0.62508498  0.87428322  0.62609263  1
  Fe  Fe79  1  0.87903741  0.12660745  0.87208802  1
  Fe  Fe80  1  0.50176536  0.00099600  0.49722070  1
  Fe  Fe81  1  -0.00198133  0.00075978  0.49997814  1
  Fe  Fe82  1  0.50011878  0.75155641  0.00120736  1
  Fe  Fe83  1  0.00098155  0.24832320  0.00085062  1
  Fe  Fe84  1  0.62529728  0.37551729  0.62589466  1
  Fe  Fe85  1  0.75106102  0.74823450  0.00113902  1
  Fe  Fe86  1  0.37420331  0.12298819  0.62416594  1
  Fe  Fe87  1  0.12473505  0.62656215  0.37279252  1
  Fe  Fe88  1  0.37360421  0.12325828  0.12701079  1
  Fe  Fe89  1  0.00098713  0.74766353  0.74558046  1
  Co  Co90  1  0.87251662  0.62690976  0.62215203  1
  Co  Co91  1  0.11800324  0.37395050  0.37386823  1
  Co  Co92  1  0.12256946  0.12457837  0.87399411  1
  Co  Co93  1  0.87625179  0.62857292  0.37796725  1
  Co  Co94  1  0.13100327  0.62205351  0.62467270  1
  Co  Co95  1  -0.00383790  0.00329021  0.25098571  1
  Co  Co96  1  0.75181169  0.25458235  0.24944834  1
  Co  Co97  1  0.37225819  0.63080096  0.37747597  1
  Co  Co98  1  0.50082393  0.25011104  0.00824182  1
  Co  Co99  1  0.87616429  0.62608698  0.87537607  1
  Co  Co100  1  0.74413970  0.74802448  0.49902946  1
  Co  Co101  1  0.37969061  0.37005826  0.37500375  1
  Co  Co102  1  0.62816090  0.87242166  0.87540708  1
  Co  Co103  1  0.25232959  0.49802149  0.25653954  1
  Co  Co104  1  0.50072063  0.00125226  0.25029294  1
  Co  Co105  1  0.62585379  0.37986280  0.12710811  1
  Co  Co106  1  -0.00146057  0.00102418  -0.00030227  1
  Co  Co107  1  0.37161873  0.62282443  0.12197292  1
  Co  Co108  1  0.87462743  0.12421224  0.62730338  1
  Co  Co109  1  0.87195581  0.12696882  0.37601372  1
  Co  Co110  1  0.49868857  0.74665024  0.24721025  1
  Co  Co111  1  0.24988513  -0.00062568  0.25259650  1
  Co  Co112  1  0.25031571  0.75101308  0.24739339  1
  Co  Co113  1  0.37773638  0.37060980  0.87761322  1
  Co  Co114  1  0.62213511  0.12890810  0.87547040  1
  Co  Co115  1  0.75481831  -0.00368307  0.25250391  1
  Co  Co116  1  0.37339541  0.87625187  0.87708954  1
  Co  Co117  1  0.87194618  0.62244152  0.12334917  1
  Co  Co118  1  0.62652516  0.62418499  0.36985606  1
  Co  Co119  1  0.00126013  0.25343671  0.74754496  1
  Co  Co120  1  -0.00077821  -0.00375165  0.74969289  1
  Co  Co121  1  -0.00039449  0.74655211  0.24516039  1
  Co  Co122  1  0.62298908  0.62514306  0.62878425  1
  Co  Co123  1  0.00515806  0.74767398  0.50399811  1
  Co  Co124  1  0.49864026  0.25003918  0.74484305  1
  Co  Co125  1  0.75070891  0.25094473  0.75071386  1
  Co  Co126  1  0.87121384  0.12501653  0.12360246  1
  Co  Co127  1  0.24904364  0.49784057  -0.00328172  1
