# generated using pymatgen
data_Fe45Co19
_symmetry_space_group_name_H-M   'P 1'
_cell_length_a   11.41491486
_cell_length_b   11.41471920
_cell_length_c   11.41414158
_cell_angle_alpha   90.00050895
_cell_angle_beta   90.00352504
_cell_angle_gamma   89.99975870
_symmetry_Int_Tables_number   1
_chemical_formula_structural   Fe45Co19
_chemical_formula_sum   'Fe90 Co38'
_cell_volume   1487.24036352
_cell_formula_units_Z   2
loop_
 _symmetry_equiv_pos_site_id
 _symmetry_equiv_pos_as_xyz
  1  'x, y, z'
loop_
 _atom_site_type_symbol
 _atom_site_label
 _atom_site_symmetry_multiplicity
 _atom_site_fract_x
 _atom_site_fract_y
 _atom_site_fract_z
 _atom_site_occupancy
  Fe  Fe0  1  0.50167035  0.49882283  0.50520210  1
  Fe  Fe1  1  0.12608380  0.62640695  0.12467474  1
  Fe  Fe2  1  0.74971547  0.74944803  0.25173023  1
  Fe  Fe3  1  0.75313381  0.50165679  0.25400964  1
  Fe  Fe4  1  0.00129534  0.25058667  0.74619983  1
  Fe  Fe5  1  0.37269564  0.87365888  0.37627476  1
  Fe  Fe6  1  0.37583384  0.12443202  0.12588722  1
  Fe  Fe7  1  0.00048607  0.75460894  0.74853603  1
  Fe  Fe8  1  0.87672268  0.37476335  0.87535163  1
  Fe  Fe9  1  0.62112158  0.12436336  0.37398513  1
  Fe  Fe10  1  0.62478017  0.12331936  0.12522274  1
  Fe  Fe11  1  0.49810486  0.25681217  0.74448764  1
  Fe  Fe12  1  0.62510771  0.62512394  0.12585552  1
  Fe  Fe13  1  0.62244665  0.12536048  0.87455954  1
  Fe  Fe14  1  0.50229151  -0.00268400  0.75035276  1
  Fe  Fe15  1  0.62664769  0.87552056  0.87698056  1
  Fe  Fe16  1  0.12235201  0.62317079  0.87400557  1
  Fe  Fe17  1  0.25060737  0.24863566  -0.00066258  1
  Fe  Fe18  1  -0.00597061  -0.00458074  0.74581869  1
  Fe  Fe19  1  0.63028580  0.87663397  0.62242907  1
  Fe  Fe20  1  0.37454392  0.37422855  0.37894302  1
  Fe  Fe21  1  -0.00087166  0.24904992  0.00177226  1
  Fe  Fe22  1  0.62505316  0.37879076  0.87059480  1
  Fe  Fe23  1  0.87330112  0.37304424  0.62248038  1
  Fe  Fe24  1  0.74985037  0.75009629  0.75102413  1
  Fe  Fe25  1  0.24796301  0.74977010  0.75137513  1
  Fe  Fe26  1  0.49675154  0.00234536  0.50009630  1
  Fe  Fe27  1  0.49936874  0.25217210  0.25001509  1
  Fe  Fe28  1  0.87588800  0.62896902  0.62377344  1
  Fe  Fe29  1  0.12378793  0.87795690  0.87851074  1
  Fe  Fe30  1  0.75134028  0.24923077  0.25156565  1
  Fe  Fe31  1  0.25331338  0.24238840  0.50113048  1
  Fe  Fe32  1  0.87366142  0.87326740  0.12057493  1
  Fe  Fe33  1  0.00391017  0.75506311  0.50442186  1
  Fe  Fe34  1  0.25152748  0.50264955  0.25437668  1
  Fe  Fe35  1  0.00040134  -0.00355678  0.24822614  1
  Fe  Fe36  1  0.49905515  0.25321449  0.00121485  1
  Fe  Fe37  1  0.36986538  0.87379690  0.12106213  1
  Fe  Fe38  1  0.87511818  0.37493272  0.12592332  1
  Fe  Fe39  1  0.24990030  0.24901760  0.25058726  1
  Fe  Fe40  1  0.00032882  0.49939097  0.49923897  1
  Fe  Fe41  1  0.12606035  0.37593751  0.12510490  1
  Fe  Fe42  1  0.50196501  0.75136947  0.00124787  1
  Fe  Fe43  1  0.12339755  0.12204796  0.12403381  1
  Fe  Fe44  1  0.50153923  0.75066859  0.74718226  1
  Fe  Fe45  1  0.75112163  0.50079536  -0.00158565  1
  Fe  Fe46  1  0.49746087  0.49929937  0.25129346  1
  Fe  Fe47  1  0.75045750  0.00131414  -0.00095553  1
  Fe  Fe48  1  0.75171718  0.50409374  0.49903476  1
  Fe  Fe49  1  0.49805642  0.49727678  -0.00010191  1
  Fe  Fe50  1  0.37356665  0.62629685  0.12553861  1
  Fe  Fe51  1  0.74954731  0.24661803  0.49902126  1
  Fe  Fe52  1  0.12471592  0.37457440  0.87518518  1
  Fe  Fe53  1  0.12229960  0.12056183  0.37787674  1
  Fe  Fe54  1  0.75004951  0.25000695  -0.00039394  1
  Fe  Fe55  1  0.75083932  0.24885515  0.74974733  1
  Fe  Fe56  1  0.25063695  0.00146692  0.75238460  1
  Fe  Fe57  1  0.62514131  0.37409519  0.37736516  1
  Fe  Fe58  1  0.62217707  0.62576735  0.37463310  1
  Fe  Fe59  1  0.37788174  0.62488473  0.87334605  1
  Fe  Fe60  1  0.37268793  0.62489613  0.62390475  1
  Fe  Fe61  1  0.37203246  0.87618206  0.62563492  1
  Fe  Fe62  1  0.37792960  0.12728324  0.87237763  1
  Fe  Fe63  1  0.62292495  0.62169624  0.87063053  1
  Fe  Fe64  1  0.25136404  0.49957998  0.75055749  1
  Fe  Fe65  1  -0.00077828  0.49880447  0.25234587  1
  Fe  Fe66  1  0.62414754  0.12472205  0.62570082  1
  Fe  Fe67  1  -0.00018490  0.25063001  0.25042794  1
  Fe  Fe68  1  0.24695886  0.74967819  0.49970072  1
  Fe  Fe69  1  -0.00148193  0.49864920  0.74785378  1
  Fe  Fe70  1  0.37495777  0.87485991  0.87642361  1
  Fe  Fe71  1  0.87719602  0.62677228  0.87630067  1
  Fe  Fe72  1  0.50203121  0.75031363  0.50258013  1
  Fe  Fe73  1  0.75211974  -0.00010559  0.25182187  1
  Fe  Fe74  1  0.49904296  0.75198663  0.24889202  1
  Fe  Fe75  1  0.62636539  0.37640427  0.12652372  1
  Fe  Fe76  1  0.25119267  0.49938821  -0.00077582  1
  Fe  Fe77  1  0.12218104  0.62839827  0.37485509  1
  Fe  Fe78  1  0.12877137  0.37613678  0.62299817  1
  Fe  Fe79  1  0.00313381  0.75441300  0.24767381  1
  Fe  Fe80  1  0.49926482  -0.00345442  0.24770227  1
  Fe  Fe81  1  0.12146018  0.12395137  0.87412908  1
  Fe  Fe82  1  0.62588557  0.87612987  0.37630181  1
  Fe  Fe83  1  0.12352319  0.11978399  0.62397120  1
  Fe  Fe84  1  0.87996868  0.12503519  0.37759663  1
  Fe  Fe85  1  0.12582079  0.37263876  0.37731587  1
  Fe  Fe86  1  0.24835656  -0.00245152  0.25071813  1
  Fe  Fe87  1  0.87422208  0.87314207  0.37983031  1
  Fe  Fe88  1  0.87641531  0.12355737  0.87347173  1
  Fe  Fe89  1  0.87623262  0.62622303  0.12382288  1
  Co  Co90  1  0.12867579  0.87592305  0.11974414  1
  Co  Co91  1  0.24700732  0.24824508  0.74782297  1
  Co  Co92  1  -0.00239056  -0.00520157  0.50375921  1
  Co  Co93  1  0.87513393  0.37259456  0.37671317  1
  Co  Co94  1  0.87371951  0.87471015  0.87729232  1
  Co  Co95  1  0.62856434  0.87593832  0.12499377  1
  Co  Co96  1  0.87549950  0.12538266  0.62476157  1
  Co  Co97  1  0.00024800  0.50013280  0.00114096  1
  Co  Co98  1  0.13060482  0.87872150  0.62609540  1
  Co  Co99  1  0.37321148  0.37280402  0.87279550  1
  Co  Co100  1  0.24700554  0.50421185  0.49582631  1
  Co  Co101  1  0.24843755  0.74710931  -0.00425094  1
  Co  Co102  1  0.37705868  0.12185052  0.63120345  1
  Co  Co103  1  0.49746691  0.24867473  0.50243427  1
  Co  Co104  1  0.74618544  0.74545807  0.49724689  1
  Co  Co105  1  0.12463748  0.62407697  0.62714198  1
  Co  Co106  1  0.00330646  0.75010160  -0.00088656  1
  Co  Co107  1  0.62693292  0.62398120  0.62898387  1
  Co  Co108  1  0.49954068  -0.00143075  0.00000047  1
  Co  Co109  1  0.37640673  0.12408052  0.36986843  1
  Co  Co110  1  0.74711632  0.74709975  -0.00138982  1
  Co  Co111  1  0.37306236  0.37532765  0.12709219  1
  Co  Co112  1  0.12597069  0.87707526  0.37768665  1
  Co  Co113  1  0.74990752  0.00107179  0.75041695  1
  Co  Co114  1  0.88037548  0.62984861  0.37631167  1
  Co  Co115  1  0.25406860  0.00272571  0.49925125  1
  Co  Co116  1  0.86691426  0.87281883  0.62198321  1
  Co  Co117  1  0.25167092  0.00501182  -0.00309065  1
  Co  Co118  1  0.87392322  0.12536595  0.12657314  1
  Co  Co119  1  0.37838301  0.62679998  0.37870554  1
  Co  Co120  1  0.36799331  0.37640291  0.62118076  1
  Co  Co121  1  0.49587877  0.49733877  0.74416669  1
  Co  Co122  1  0.75019670  0.00545242  0.49807525  1
  Co  Co123  1  0.00218950  0.25047410  0.50252304  1
  Co  Co124  1  0.63093436  0.37498230  0.62546512  1
  Co  Co125  1  0.24935595  0.74960708  0.25263980  1
  Co  Co126  1  0.75587717  0.50156312  0.74901749  1
  Co  Co127  1  -0.00291360  0.00061602  0.00165051  1
