# generated using pymatgen
data_Fe45Co19
_symmetry_space_group_name_H-M   'P 1'
_cell_length_a   11.41495388
_cell_length_b   11.41501933
_cell_length_c   11.41481084
_cell_angle_alpha   89.99170983
_cell_angle_beta   89.99108964
_cell_angle_gamma   90.00618898
_symmetry_Int_Tables_number   1
_chemical_formula_structural   Fe45Co19
_chemical_formula_sum   'Fe90 Co38'
_cell_volume   1487.37171772
_cell_formula_units_Z   2
loop_
 _symmetry_equiv_pos_site_id
 _symmetry_equiv_pos_as_xyz
  1  'x, y, z'
loop_
 _atom_site_type_symbol
 _atom_site_label
 _atom_site_symmetry_multiplicity
 _atom_site_fract_x
 _atom_site_fract_y
 _atom_site_fract_z
 _atom_site_occupancy
  Fe  Fe0  1  -0.00041288  0.00302175  0.00042685  1
  Fe  Fe1  1  0.25270224  0.25036639  0.75229378  1
  Fe  Fe2  1  0.37170448  0.87806826  0.12199987  1
  Fe  Fe3  1  0.00070737  0.50038719  0.49852262  1
  Fe  Fe4  1  0.62796641  0.87599645  0.12639275  1
  Fe  Fe5  1  0.37765971  0.37468976  0.12857826  1
  Fe  Fe6  1  0.37609383  0.12469488  0.62491171  1
  Fe  Fe7  1  0.24832321  0.25021886  0.49869378  1
  Fe  Fe8  1  0.50157966  0.75211953  0.00094845  1
  Fe  Fe9  1  0.62923898  0.87731132  0.62570379  1
  Fe  Fe10  1  0.12422742  0.12489054  0.12462721  1
  Fe  Fe11  1  0.37546283  0.12441631  0.37559107  1
  Fe  Fe12  1  -0.00163216  0.25029783  0.74862694  1
  Fe  Fe13  1  0.50016647  0.49980255  0.00025025  1
  Fe  Fe14  1  0.87472123  0.12443501  0.61889339  1
  Fe  Fe15  1  0.74965424  0.50281139  0.25098049  1
  Fe  Fe16  1  0.12528444  0.12506699  0.62643844  1
  Fe  Fe17  1  0.00184625  0.74843392  -0.00110860  1
  Fe  Fe18  1  0.12344343  0.37195584  0.87671783  1
  Fe  Fe19  1  -0.00127142  0.25371515  0.24702831  1
  Fe  Fe20  1  0.50197600  0.75266543  0.50224402  1
  Fe  Fe21  1  -0.00265637  -0.00229717  0.25012913  1
  Fe  Fe22  1  0.12495248  0.62256223  0.12560839  1
  Fe  Fe23  1  0.37618480  0.62657869  0.87670666  1
  Fe  Fe24  1  0.50131411  0.24839018  0.00162808  1
  Fe  Fe25  1  0.74995757  0.24887834  0.74824127  1
  Fe  Fe26  1  0.87479334  0.62449213  0.12534515  1
  Fe  Fe27  1  0.49881010  0.49850975  0.75175475  1
  Fe  Fe28  1  0.87559881  0.12764977  0.87816399  1
  Fe  Fe29  1  0.25160781  0.50018571  0.49846565  1
  Fe  Fe30  1  0.49940133  0.49952630  0.49505792  1
  Fe  Fe31  1  0.87366578  0.87629004  0.62101711  1
  Fe  Fe32  1  0.62499856  0.62522653  0.12589124  1
  Fe  Fe33  1  0.87673316  0.62408043  0.87446172  1
  Fe  Fe34  1  0.25066971  0.24798651  0.25047933  1
  Fe  Fe35  1  -0.00125735  0.49464990  0.00290626  1
  Fe  Fe36  1  0.62335300  0.37574790  0.12947543  1
  Fe  Fe37  1  0.75169206  0.25137093  0.00126417  1
  Fe  Fe38  1  0.87529193  0.87494040  0.87657022  1
  Fe  Fe39  1  0.87700304  0.12439379  0.37798445  1
  Fe  Fe40  1  0.49831681  0.75399324  0.74901370  1
  Fe  Fe41  1  0.25525065  0.50345687  0.25115082  1
  Fe  Fe42  1  0.62553003  0.12301565  0.37444197  1
  Fe  Fe43  1  -0.00385803  0.75021503  0.25023681  1
  Fe  Fe44  1  0.62443083  0.12199113  0.87381560  1
  Fe  Fe45  1  0.12231180  0.12508508  0.37425767  1
  Fe  Fe46  1  -0.00245491  0.00011077  0.74925015  1
  Fe  Fe47  1  0.24733749  0.00017989  0.49866757  1
  Fe  Fe48  1  0.24801622  0.74941337  0.50009868  1
  Fe  Fe49  1  0.50131833  -0.00280111  0.50081109  1
  Fe  Fe50  1  0.62633237  0.63028601  0.37388503  1
  Fe  Fe51  1  0.12395725  0.62485942  0.37283368  1
  Fe  Fe52  1  0.12627184  0.37601800  0.37242148  1
  Fe  Fe53  1  0.62454665  0.12398106  0.62588435  1
  Fe  Fe54  1  0.87402352  0.37501859  0.62301269  1
  Fe  Fe55  1  0.12545574  0.37410587  0.62540056  1
  Fe  Fe56  1  0.74830047  0.50364783  0.50073199  1
  Fe  Fe57  1  0.75021460  0.24938737  0.25211889  1
  Fe  Fe58  1  0.37654215  0.37345233  0.62407496  1
  Fe  Fe59  1  0.12490004  0.87741129  0.12426100  1
  Fe  Fe60  1  0.75441664  -0.00496834  0.25161286  1
  Fe  Fe61  1  0.62394889  0.62643329  0.87323887  1
  Fe  Fe62  1  0.25133051  0.49951531  0.75159486  1
  Fe  Fe63  1  0.74962099  0.50132061  0.74944168  1
  Fe  Fe64  1  0.75008772  0.49929387  -0.00140349  1
  Fe  Fe65  1  0.37918875  0.12149682  0.87507602  1
  Fe  Fe66  1  0.24999564  0.24849246  -0.00110680  1
  Fe  Fe67  1  0.24889142  0.75141250  0.75452998  1
  Fe  Fe68  1  0.50256189  0.25133576  0.49686584  1
  Fe  Fe69  1  0.12353894  0.87472539  0.37433083  1
  Fe  Fe70  1  0.37382508  0.12212690  0.12485842  1
  Fe  Fe71  1  0.25119280  -0.00202716  0.75327451  1
  Fe  Fe72  1  0.62422405  0.37491199  0.62457902  1
  Fe  Fe73  1  0.49715989  0.74881872  0.24712044  1
  Fe  Fe74  1  0.62925803  0.12283233  0.12584261  1
  Fe  Fe75  1  0.25102802  0.74974736  0.24879378  1
  Fe  Fe76  1  0.12343617  0.62567922  0.62812712  1
  Fe  Fe77  1  0.87343936  0.37588123  0.37584268  1
  Fe  Fe78  1  0.62514041  0.37300554  0.87434651  1
  Fe  Fe79  1  0.75227934  0.74731269  0.74696143  1
  Fe  Fe80  1  -0.00161440  0.74817862  0.50057356  1
  Fe  Fe81  1  0.25092761  0.49925261  -0.00121558  1
  Fe  Fe82  1  0.12485201  0.87471507  0.62715897  1
  Fe  Fe83  1  0.37593784  0.62646694  0.62446564  1
  Fe  Fe84  1  0.74968385  0.75013066  0.00086721  1
  Fe  Fe85  1  0.24668968  0.75117620  -0.00288522  1
  Fe  Fe86  1  0.49931439  -0.00049581  0.24883059  1
  Fe  Fe87  1  -0.00014747  0.49888147  0.75089962  1
  Fe  Fe88  1  0.37490573  0.87492358  0.37539485  1
  Fe  Fe89  1  0.62659669  0.87801705  0.87347876  1
  Co  Co90  1  0.24903372  -0.00012803  0.25224087  1
  Co  Co91  1  -0.00198546  0.75169405  0.74974673  1
  Co  Co92  1  0.24668489  0.00159222  -0.00386701  1
  Co  Co93  1  0.75088914  -0.00101490  -0.00010275  1
  Co  Co94  1  0.74799763  0.24982471  0.49931588  1
  Co  Co95  1  0.00400452  -0.00067170  0.50062105  1
  Co  Co96  1  0.75500917  0.75265575  0.24791487  1
  Co  Co97  1  0.62025071  0.62401977  0.62588560  1
  Co  Co98  1  0.37108401  0.87442788  0.62253509  1
  Co  Co99  1  0.37429783  0.62580572  0.12034327  1
  Co  Co100  1  0.50052257  0.25022200  0.75070865  1
  Co  Co101  1  0.87329027  0.12488417  0.12572717  1
  Co  Co102  1  0.50353271  -0.00027044  0.00306022  1
  Co  Co103  1  0.87425948  0.87393204  0.38069346  1
  Co  Co104  1  0.49769137  0.50514368  0.25239762  1
  Co  Co105  1  0.87370523  0.62551749  0.37429942  1
  Co  Co106  1  0.74710800  0.00033064  0.49691798  1
  Co  Co107  1  -0.00102493  0.49862396  0.24901729  1
  Co  Co108  1  0.87683945  0.87458893  0.12073929  1
  Co  Co109  1  0.87805334  0.62312774  0.62564681  1
  Co  Co110  1  0.49869094  -0.00336903  0.74723027  1
  Co  Co111  1  0.62471320  0.87145864  0.37255542  1
  Co  Co112  1  0.62590378  0.37614434  0.37163024  1
  Co  Co113  1  0.37519232  0.37183328  0.37190561  1
  Co  Co114  1  0.75374960  0.00248036  0.75016001  1
  Co  Co115  1  0.37639665  0.37370861  0.87677916  1
  Co  Co116  1  0.87436180  0.37374354  0.87333376  1
  Co  Co117  1  0.12062613  0.87761496  0.87498606  1
  Co  Co118  1  -0.00147622  0.25300406  0.00510741  1
  Co  Co119  1  0.37559883  0.63046525  0.37857830  1
  Co  Co120  1  0.12158716  0.12736200  0.87378923  1
  Co  Co121  1  0.74977694  0.74693700  0.50380630  1
  Co  Co122  1  0.86954439  0.37575613  0.12808163  1
  Co  Co123  1  0.00222623  0.25221192  0.49984174  1
  Co  Co124  1  0.12274556  0.62160308  0.87481189  1
  Co  Co125  1  0.37724133  0.87713361  0.87940064  1
  Co  Co126  1  0.13015539  0.37559291  0.12635393  1
  Co  Co127  1  0.50171235  0.24606541  0.25003053  1
