# generated using pymatgen
data_Fe45Co19
_symmetry_space_group_name_H-M   'P 1'
_cell_length_a   11.41507198
_cell_length_b   11.41467947
_cell_length_c   11.41559899
_cell_angle_alpha   90.00381301
_cell_angle_beta   89.99565639
_cell_angle_gamma   90.00179078
_symmetry_Int_Tables_number   1
_chemical_formula_structural   Fe45Co19
_chemical_formula_sum   'Fe90 Co38'
_cell_volume   1487.44555132
_cell_formula_units_Z   2
loop_
 _symmetry_equiv_pos_site_id
 _symmetry_equiv_pos_as_xyz
  1  'x, y, z'
loop_
 _atom_site_type_symbol
 _atom_site_label
 _atom_site_symmetry_multiplicity
 _atom_site_fract_x
 _atom_site_fract_y
 _atom_site_fract_z
 _atom_site_occupancy
  Fe  Fe0  1  0.62331610  0.87490636  0.37640408  1
  Fe  Fe1  1  0.25019332  0.25009568  0.00009680  1
  Fe  Fe2  1  -0.00014636  0.49744162  0.25144506  1
  Fe  Fe3  1  0.50189484  0.24914833  0.25024572  1
  Fe  Fe4  1  0.49879918  0.24818231  0.50176565  1
  Fe  Fe5  1  0.37673820  0.12876518  0.87296188  1
  Fe  Fe6  1  0.24854370  0.25052990  0.25123290  1
  Fe  Fe7  1  0.75033016  0.74942576  0.75071403  1
  Fe  Fe8  1  0.25173375  0.75162703  0.49697191  1
  Fe  Fe9  1  0.12571720  0.37315121  0.37750161  1
  Fe  Fe10  1  -0.00195510  0.24891024  0.74777625  1
  Fe  Fe11  1  0.87261019  0.62353675  0.37717613  1
  Fe  Fe12  1  0.62247955  0.87398741  0.62421760  1
  Fe  Fe13  1  0.49867282  0.00123468  0.74792417  1
  Fe  Fe14  1  0.62490332  0.87631866  0.12617471  1
  Fe  Fe15  1  0.24980806  -0.00169701  0.74921369  1
  Fe  Fe16  1  0.12344539  0.62502558  0.12634777  1
  Fe  Fe17  1  0.00089060  0.00878070  0.25524065  1
  Fe  Fe18  1  0.50110484  0.50080231  0.25164449  1
  Fe  Fe19  1  0.12098741  0.37058159  0.12547557  1
  Fe  Fe20  1  0.37652646  0.37401576  0.12525976  1
  Fe  Fe21  1  0.37253623  0.12461515  0.37650391  1
  Fe  Fe22  1  0.12673763  0.62373571  0.37330341  1
  Fe  Fe23  1  0.37517946  0.12611287  0.12598916  1
  Fe  Fe24  1  0.62690919  0.37468895  0.37492701  1
  Fe  Fe25  1  0.24821261  0.75177973  0.00027633  1
  Fe  Fe26  1  0.12330167  0.62279853  0.87332772  1
  Fe  Fe27  1  0.50158545  0.74915250  0.00014876  1
  Fe  Fe28  1  0.37501162  0.62344769  0.87660136  1
  Fe  Fe29  1  0.87620239  0.87685343  0.87511545  1
  Fe  Fe30  1  0.25735434  0.25534960  0.74530348  1
  Fe  Fe31  1  0.12789148  0.12790053  0.62235042  1
  Fe  Fe32  1  0.87344738  0.37196779  0.87466110  1
  Fe  Fe33  1  0.25048080  0.74973354  0.75091570  1
  Fe  Fe34  1  0.12227396  0.87548796  0.87535887  1
  Fe  Fe35  1  0.50284608  0.49823544  0.00106020  1
  Fe  Fe36  1  0.49736425  0.49763503  0.75200889  1
  Fe  Fe37  1  0.87759406  0.87797410  0.12512879  1
  Fe  Fe38  1  0.12629903  0.12798111  0.87247447  1
  Fe  Fe39  1  -0.00113802  0.74946518  0.25176437  1
  Fe  Fe40  1  0.75009614  0.75041408  0.50034441  1
  Fe  Fe41  1  0.62293279  0.37629467  0.62383416  1
  Fe  Fe42  1  0.87448919  0.37128767  0.37712165  1
  Fe  Fe43  1  0.62678691  0.62423193  0.62427565  1
  Fe  Fe44  1  0.87872311  0.87862017  0.37829943  1
  Fe  Fe45  1  0.50168150  0.00164648  0.25097977  1
  Fe  Fe46  1  0.62366937  0.12658615  0.87230776  1
  Fe  Fe47  1  0.49804793  -0.00054088  0.50206002  1
  Fe  Fe48  1  0.87524354  0.62381305  0.12401661  1
  Fe  Fe49  1  0.12162441  0.87725561  0.12571981  1
  Fe  Fe50  1  0.87894652  0.87444314  0.62194386  1
  Fe  Fe51  1  0.87552006  0.62378267  0.87496458  1
  Fe  Fe52  1  0.74982411  0.74947058  -0.00130462  1
  Fe  Fe53  1  0.49944304  0.00224887  -0.00032842  1
  Fe  Fe54  1  -0.00086075  0.49722640  -0.00156349  1
  Fe  Fe55  1  -0.00124976  0.50065866  0.50136230  1
  Fe  Fe56  1  0.87617292  0.37105260  0.12489890  1
  Fe  Fe57  1  0.62923515  0.12316016  0.37867251  1
  Fe  Fe58  1  0.74976056  0.24641532  0.25007678  1
  Fe  Fe59  1  0.50282588  0.50455496  0.49523499  1
  Fe  Fe60  1  0.62847544  0.62301838  0.12641707  1
  Fe  Fe61  1  0.74791109  0.24777181  0.00290083  1
  Fe  Fe62  1  0.24664823  0.00115847  0.25186225  1
  Fe  Fe63  1  0.49959412  0.74702171  0.25347935  1
  Fe  Fe64  1  0.37306909  0.62334692  0.12719244  1
  Fe  Fe65  1  0.12302494  0.87269516  0.62250108  1
  Fe  Fe66  1  0.25042381  0.00063261  -0.00049128  1
  Fe  Fe67  1  0.75180467  0.75335132  0.25097322  1
  Fe  Fe68  1  0.49959278  0.74900879  0.74919111  1
  Fe  Fe69  1  0.37452988  0.62358545  0.62243026  1
  Fe  Fe70  1  0.25004591  0.75295200  0.25146858  1
  Fe  Fe71  1  0.37609908  0.87608572  0.12693100  1
  Fe  Fe72  1  -0.00111085  0.00391620  0.74692378  1
  Fe  Fe73  1  0.75034601  0.00270111  0.00136848  1
  Fe  Fe74  1  0.12430045  0.62415849  0.62645627  1
  Fe  Fe75  1  0.37345348  0.37763517  0.37636839  1
  Fe  Fe76  1  -0.00020328  0.00630926  -0.00157104  1
  Fe  Fe77  1  0.12588095  0.37544022  0.87160890  1
  Fe  Fe78  1  0.62489962  0.87602346  0.87381642  1
  Fe  Fe79  1  0.75054544  0.50016940  0.75039313  1
  Fe  Fe80  1  0.62424248  0.37286636  0.87510331  1
  Fe  Fe81  1  0.74839063  0.24687913  0.74463246  1
  Fe  Fe82  1  -0.00136045  0.74884747  0.75013386  1
  Fe  Fe83  1  0.87389326  0.37514820  0.62364450  1
  Fe  Fe84  1  0.24849922  0.49859131  0.00083691  1
  Fe  Fe85  1  0.24927828  -0.00305686  0.49893429  1
  Fe  Fe86  1  0.75173463  0.00223438  0.74568220  1
  Fe  Fe87  1  0.75113783  0.49767168  0.25068791  1
  Fe  Fe88  1  0.37588411  0.87449546  0.87343751  1
  Fe  Fe89  1  0.12572838  0.37660158  0.62525514  1
  Co  Co90  1  0.12485149  0.12720512  0.12360369  1
  Co  Co91  1  0.49707149  0.25254393  0.74540474  1
  Co  Co92  1  0.00023214  0.74543858  0.49788742  1
  Co  Co93  1  0.00397182  0.00404924  0.49985591  1
  Co  Co94  1  -0.00299859  0.49875087  0.74905905  1
  Co  Co95  1  0.37308356  0.12249869  0.62461700  1
  Co  Co96  1  0.74667945  0.25198649  0.50332818  1
  Co  Co97  1  0.75006643  0.49811569  0.49989842  1
  Co  Co98  1  0.49853210  0.74696719  0.49790980  1
  Co  Co99  1  0.63069855  0.62589506  0.37362149  1
  Co  Co100  1  0.75069137  0.49932325  -0.00099762  1
  Co  Co101  1  0.87680967  0.12707761  0.12623992  1
  Co  Co102  1  0.25422844  0.49896580  0.74967881  1
  Co  Co103  1  0.24657981  0.50060991  0.50095801  1
  Co  Co104  1  0.37769762  0.87626811  0.37348652  1
  Co  Co105  1  0.37490221  0.87415762  0.62525260  1
  Co  Co106  1  0.00061389  0.24589278  0.25514797  1
  Co  Co107  1  0.87305606  0.62470130  0.62443029  1
  Co  Co108  1  0.12121103  0.87448498  0.37488913  1
  Co  Co109  1  0.50318641  0.24943141  0.00285417  1
  Co  Co110  1  -0.00035356  0.74929599  -0.00039782  1
  Co  Co111  1  0.62308677  0.12389080  0.62387818  1
  Co  Co112  1  0.74937039  -0.00354570  0.50299645  1
  Co  Co113  1  0.24783925  0.49542326  0.24822203  1
  Co  Co114  1  0.37814632  0.38103017  0.61820718  1
  Co  Co115  1  0.00022318  0.25130782  0.50130437  1
  Co  Co116  1  0.62648266  0.37624116  0.12707531  1
  Co  Co117  1  0.62504034  0.12280345  0.12687192  1
  Co  Co118  1  0.00014159  0.24877881  -0.00407766  1
  Co  Co119  1  0.37007534  0.62194730  0.37315906  1
  Co  Co120  1  0.12867204  0.13027215  0.38104963  1
  Co  Co121  1  0.87423124  0.12571545  0.61821253  1
  Co  Co122  1  0.87032833  0.12606214  0.38180044  1
  Co  Co123  1  0.37610482  0.37367953  0.87882100  1
  Co  Co124  1  0.25415551  0.25274094  0.50257511  1
  Co  Co125  1  0.87300673  0.12685724  0.87331805  1
  Co  Co126  1  0.62450861  0.62364441  0.87367091  1
  Co  Co127  1  0.75142045  -0.00007612  0.25169305  1
