# generated using pymatgen
data_Fe45Co19
_symmetry_space_group_name_H-M   'P 1'
_cell_length_a   11.40813647
_cell_length_b   11.40811596
_cell_length_c   11.40777800
_cell_angle_alpha   89.99509490
_cell_angle_beta   90.00461451
_cell_angle_gamma   90.00676502
_symmetry_Int_Tables_number   1
_chemical_formula_structural   Fe45Co19
_chemical_formula_sum   'Fe90 Co38'
_cell_volume   1484.66916982
_cell_formula_units_Z   2
loop_
 _symmetry_equiv_pos_site_id
 _symmetry_equiv_pos_as_xyz
  1  'x, y, z'
loop_
 _atom_site_type_symbol
 _atom_site_label
 _atom_site_symmetry_multiplicity
 _atom_site_fract_x
 _atom_site_fract_y
 _atom_site_fract_z
 _atom_site_occupancy
  Fe  Fe0  1  0.75012081  0.74950958  0.75016866  1
  Fe  Fe1  1  0.87481519  0.62345055  0.87300718  1
  Fe  Fe2  1  -0.00038429  0.75288508  0.50039896  1
  Fe  Fe3  1  0.74960665  0.00434263  0.00261435  1
  Fe  Fe4  1  0.74913663  0.24494055  0.50021357  1
  Fe  Fe5  1  0.62526601  0.12167766  0.37339839  1
  Fe  Fe6  1  0.62358642  0.87800928  0.87795230  1
  Fe  Fe7  1  0.74903507  0.74926259  0.50135193  1
  Fe  Fe8  1  0.49793540  0.25061455  -0.00174043  1
  Fe  Fe9  1  0.24983050  0.74544297  0.00328361  1
  Fe  Fe10  1  0.50087796  0.75571967  0.24956297  1
  Fe  Fe11  1  0.87713809  0.37242178  0.12525822  1
  Fe  Fe12  1  0.87144968  0.88235074  0.38168736  1
  Fe  Fe13  1  0.00153634  -0.00225306  0.74398891  1
  Fe  Fe14  1  0.25020244  0.75156420  0.24923748  1
  Fe  Fe15  1  -0.00098022  0.24744363  -0.00193080  1
  Fe  Fe16  1  0.50037799  0.49753274  0.24844970  1
  Fe  Fe17  1  0.37400764  0.87259116  0.62320491  1
  Fe  Fe18  1  0.87632225  0.37333702  0.62036810  1
  Fe  Fe19  1  0.37225459  0.12097779  0.37297946  1
  Fe  Fe20  1  0.37645283  0.62361126  0.62683263  1
  Fe  Fe21  1  0.00012979  0.75393881  0.25474711  1
  Fe  Fe22  1  0.87874433  0.62849978  0.12607587  1
  Fe  Fe23  1  0.87396912  0.87767452  0.87385450  1
  Fe  Fe24  1  0.49784612  0.49905922  0.75461777  1
  Fe  Fe25  1  0.75474947  0.24858139  0.25085044  1
  Fe  Fe26  1  0.87435237  0.37613197  0.87649807  1
  Fe  Fe27  1  0.12407108  0.62733608  0.62465073  1
  Fe  Fe28  1  0.00046722  0.00106436  -0.00190977  1
  Fe  Fe29  1  0.12328219  0.87317855  0.12344117  1
  Fe  Fe30  1  0.75261548  0.24577049  -0.00041630  1
  Fe  Fe31  1  0.12713750  0.87452976  0.87503691  1
  Fe  Fe32  1  0.62357695  0.87393971  0.62464769  1
  Fe  Fe33  1  0.62249820  0.12306175  0.87358686  1
  Fe  Fe34  1  0.49967028  0.74916989  0.75552148  1
  Fe  Fe35  1  0.74932661  0.75340587  0.25064376  1
  Fe  Fe36  1  0.12879824  0.62194751  0.87546250  1
  Fe  Fe37  1  0.13076686  0.88015695  0.38160385  1
  Fe  Fe38  1  0.37531189  0.87602855  0.87981791  1
  Fe  Fe39  1  0.75021919  0.50148220  0.00265310  1
  Fe  Fe40  1  0.62855841  0.37498944  0.37593497  1
  Fe  Fe41  1  0.75079881  0.24927579  0.74966494  1
  Fe  Fe42  1  0.12956781  0.37868799  0.87698613  1
  Fe  Fe43  1  0.37526612  0.12377117  0.87332375  1
  Fe  Fe44  1  0.25080087  -0.00097205  0.74582972  1
  Fe  Fe45  1  0.25068226  0.25566748  0.74616358  1
  Fe  Fe46  1  0.12352729  0.37416420  0.12493633  1
  Fe  Fe47  1  0.75143228  0.49949709  0.24947427  1
  Fe  Fe48  1  0.75123594  0.49869237  0.74591102  1
  Fe  Fe49  1  0.12604817  0.62522395  0.37421869  1
  Fe  Fe50  1  0.24990875  0.50089063  0.24499520  1
  Fe  Fe51  1  0.25084900  0.74940970  0.74954956  1
  Fe  Fe52  1  0.12513135  0.37424083  0.37569427  1
  Fe  Fe53  1  -0.00107288  0.50108696  0.49923730  1
  Fe  Fe54  1  0.12181096  0.12605568  0.12757557  1
  Fe  Fe55  1  0.24949103  0.49964078  0.50334127  1
  Fe  Fe56  1  0.62173875  0.37303203  0.62238069  1
  Fe  Fe57  1  0.87292370  0.62437785  0.37689204  1
  Fe  Fe58  1  0.49891087  0.74947148  0.49778141  1
  Fe  Fe59  1  -0.00122221  0.25164331  0.75176587  1
  Fe  Fe60  1  0.37296635  0.37603690  0.37548541  1
  Fe  Fe61  1  0.50112662  0.50009063  0.49775397  1
  Fe  Fe62  1  0.00074975  0.49913748  0.74790303  1
  Fe  Fe63  1  0.00229898  0.00074230  0.25359678  1
  Fe  Fe64  1  0.24965587  0.00213890  0.00243974  1
  Fe  Fe65  1  0.49915880  0.25394136  0.75331126  1
  Fe  Fe66  1  0.37623499  0.12524149  0.12664067  1
  Fe  Fe67  1  0.49959499  0.25064186  0.25294943  1
  Fe  Fe68  1  0.74846030  0.00244340  0.74491726  1
  Fe  Fe69  1  0.62147424  0.62640912  0.12314559  1
  Fe  Fe70  1  0.62561604  0.62589710  0.37350852  1
  Fe  Fe71  1  0.25107431  0.24992053  0.00099042  1
  Fe  Fe72  1  0.37203984  0.87859430  0.37642415  1
  Fe  Fe73  1  0.62374172  0.62476568  0.62641507  1
  Fe  Fe74  1  -0.00156443  0.49798340  0.25174350  1
  Fe  Fe75  1  0.00106249  0.50220462  0.00098849  1
  Fe  Fe76  1  0.62384281  0.37258183  0.12367211  1
  Fe  Fe77  1  0.50233268  -0.00392072  0.24473835  1
  Fe  Fe78  1  -0.00005567  0.24242100  0.49412109  1
  Fe  Fe79  1  0.87659851  0.87525674  0.12346559  1
  Fe  Fe80  1  0.75080079  0.74871613  -0.00200770  1
  Fe  Fe81  1  0.24847513  0.24955223  0.25004957  1
  Fe  Fe82  1  0.74704313  -0.00169479  0.24608896  1
  Fe  Fe83  1  0.37980490  0.12871751  0.62688140  1
  Fe  Fe84  1  0.25137187  0.24897203  0.50190269  1
  Fe  Fe85  1  -0.00092279  0.75182508  0.74989412  1
  Fe  Fe86  1  0.37507209  0.62412403  0.37184913  1
  Fe  Fe87  1  0.50075149  0.00124578  0.50194477  1
  Fe  Fe88  1  0.12582883  0.12502936  0.87073430  1
  Fe  Fe89  1  0.62618221  0.37716859  0.87767377  1
  Co  Co90  1  0.36988062  0.62212424  0.87393997  1
  Co  Co91  1  0.25102091  0.00517243  0.50769852  1
  Co  Co92  1  0.00436784  0.00256232  0.50334262  1
  Co  Co93  1  0.62666033  0.62133463  0.87555846  1
  Co  Co94  1  -0.00107571  0.24914212  0.25528977  1
  Co  Co95  1  0.62498309  0.87130061  0.11866965  1
  Co  Co96  1  0.24890523  -0.00247663  0.24425089  1
  Co  Co97  1  0.87362493  0.37541692  0.37833583  1
  Co  Co98  1  0.12416353  0.12873932  0.62842257  1
  Co  Co99  1  0.61894024  0.12865438  0.62807853  1
  Co  Co100  1  0.49800793  -0.00314095  0.74866266  1
  Co  Co101  1  0.37554842  0.87353147  0.12095249  1
  Co  Co102  1  0.12065461  0.62737614  0.12765420  1
  Co  Co103  1  0.49951909  0.24831895  0.49418815  1
  Co  Co104  1  0.62362078  0.12946507  0.12654446  1
  Co  Co105  1  0.50034003  0.00296501  0.00338029  1
  Co  Co106  1  0.87615027  0.12243375  0.87161231  1
  Co  Co107  1  0.87851303  0.12368707  0.12782543  1
  Co  Co108  1  0.24858746  0.49647520  0.74317003  1
  Co  Co109  1  0.12842391  0.87144085  0.62257882  1
  Co  Co110  1  0.49656457  0.49927240  -0.00043673  1
  Co  Co111  1  0.36943299  0.37803670  0.87591987  1
  Co  Co112  1  0.25256673  0.74594227  0.49817014  1
  Co  Co113  1  0.38043636  0.37545196  0.62273493  1
  Co  Co114  1  0.74844231  0.50116849  0.50180445  1
  Co  Co115  1  0.87325589  0.87612093  0.62278553  1
  Co  Co116  1  0.74454053  0.00476637  0.50631228  1
  Co  Co117  1  0.62581645  0.87645391  0.37844670  1
  Co  Co118  1  0.25286912  0.50254704  0.00765850  1
  Co  Co119  1  0.37978608  0.62751308  0.12767219  1
  Co  Co120  1  0.12013801  0.37259872  0.62135934  1
  Co  Co121  1  0.87235149  0.11796470  0.37499459  1
  Co  Co122  1  0.13023681  0.12214316  0.37436039  1
  Co  Co123  1  0.37649070  0.37218005  0.12602105  1
  Co  Co124  1  0.50036906  0.74646417  -0.00520531  1
  Co  Co125  1  0.87708419  0.12528380  0.62542224  1
  Co  Co126  1  0.87598646  0.62617337  0.62406289  1
  Co  Co127  1  -0.00052922  0.74997570  -0.00478781  1
