# generated using pymatgen
data_Fe45Co19
_symmetry_space_group_name_H-M   'P 1'
_cell_length_a   11.41523820
_cell_length_b   11.41599252
_cell_length_c   11.41560807
_cell_angle_alpha   90.00378026
_cell_angle_beta   90.00190539
_cell_angle_gamma   90.00284061
_symmetry_Int_Tables_number   1
_chemical_formula_structural   Fe45Co19
_chemical_formula_sum   'Fe90 Co38'
_cell_volume   1487.63950143
_cell_formula_units_Z   2
loop_
 _symmetry_equiv_pos_site_id
 _symmetry_equiv_pos_as_xyz
  1  'x, y, z'
loop_
 _atom_site_type_symbol
 _atom_site_label
 _atom_site_symmetry_multiplicity
 _atom_site_fract_x
 _atom_site_fract_y
 _atom_site_fract_z
 _atom_site_occupancy
  Fe  Fe0  1  0.25077020  0.25343528  -0.00078089  1
  Fe  Fe1  1  0.37694585  0.87378764  0.62666058  1
  Fe  Fe2  1  0.62889486  0.12696000  0.87597664  1
  Fe  Fe3  1  -0.00111181  0.50194730  0.75072548  1
  Fe  Fe4  1  0.62444165  0.37501548  0.87512593  1
  Fe  Fe5  1  0.87383083  0.87199682  0.12390592  1
  Fe  Fe6  1  0.75190210  0.25292401  0.75232408  1
  Fe  Fe7  1  0.62632043  0.62619388  0.62485398  1
  Fe  Fe8  1  0.62473363  0.87500951  0.62496389  1
  Fe  Fe9  1  0.87686008  0.37629073  0.12421882  1
  Fe  Fe10  1  0.49873140  0.00156154  -0.00087183  1
  Fe  Fe11  1  -0.00240400  0.24772820  -0.00292730  1
  Fe  Fe12  1  0.24930494  0.75126023  0.25027440  1
  Fe  Fe13  1  -0.00128929  0.24849855  0.25110554  1
  Fe  Fe14  1  0.37064469  0.12414935  0.37766241  1
  Fe  Fe15  1  0.87605869  0.87550237  0.37593255  1
  Fe  Fe16  1  0.12747449  0.12439482  0.37707348  1
  Fe  Fe17  1  0.00028956  0.74848934  0.49954507  1
  Fe  Fe18  1  0.37438189  0.37628432  0.87234691  1
  Fe  Fe19  1  0.62377844  0.87446340  0.87683766  1
  Fe  Fe20  1  0.00049099  0.24819625  0.75178687  1
  Fe  Fe21  1  0.00047453  0.50573692  0.00010542  1
  Fe  Fe22  1  0.49854112  0.50269467  0.74702679  1
  Fe  Fe23  1  0.75234271  0.00051245  -0.00133724  1
  Fe  Fe24  1  0.37121352  0.12566049  0.87282387  1
  Fe  Fe25  1  0.25095608  0.49639997  0.50510053  1
  Fe  Fe26  1  0.24827200  0.74921782  -0.00098979  1
  Fe  Fe27  1  0.87676248  0.87435966  0.87452846  1
  Fe  Fe28  1  0.62757506  0.12477529  0.37530134  1
  Fe  Fe29  1  0.87562450  0.87658126  0.62531535  1
  Fe  Fe30  1  0.24845636  0.75277917  0.50015196  1
  Fe  Fe31  1  0.75223769  0.25085090  0.49743022  1
  Fe  Fe32  1  0.37471759  0.87676333  0.37384519  1
  Fe  Fe33  1  0.50253792  0.74954322  0.24719279  1
  Fe  Fe34  1  0.13022917  0.12696823  0.62402298  1
  Fe  Fe35  1  0.87291067  0.62575882  0.62517985  1
  Fe  Fe36  1  0.62251146  0.37322779  0.62239566  1
  Fe  Fe37  1  0.62795199  0.12608637  0.12359442  1
  Fe  Fe38  1  0.75123780  0.49757155  0.49749713  1
  Fe  Fe39  1  0.50043959  0.74875484  0.49942961  1
  Fe  Fe40  1  0.50044376  0.50025518  0.24915153  1
  Fe  Fe41  1  0.12541277  0.12639856  0.12360327  1
  Fe  Fe42  1  0.24871509  -0.00138382  0.00007314  1
  Fe  Fe43  1  0.37286549  0.62501639  0.87275317  1
  Fe  Fe44  1  0.49970220  0.50233679  0.50158680  1
  Fe  Fe45  1  0.75092094  0.49796125  0.74995482  1
  Fe  Fe46  1  0.50181701  0.74930581  0.00176621  1
  Fe  Fe47  1  0.24896248  0.49703388  0.24913586  1
  Fe  Fe48  1  0.24797600  0.75218459  0.75094777  1
  Fe  Fe49  1  0.37528246  0.87600042  0.12493295  1
  Fe  Fe50  1  0.00017792  0.74380583  -0.00096667  1
  Fe  Fe51  1  0.87805662  0.37393910  0.62381668  1
  Fe  Fe52  1  0.37326465  0.62479429  0.37590303  1
  Fe  Fe53  1  0.00021186  0.00184209  0.24830081  1
  Fe  Fe54  1  0.12039425  0.37417473  0.37857362  1
  Fe  Fe55  1  -0.00060321  0.74613143  0.25039667  1
  Fe  Fe56  1  0.49907647  0.25064532  -0.00016082  1
  Fe  Fe57  1  0.49904667  0.00172474  0.24855875  1
  Fe  Fe58  1  0.75221713  0.50021974  -0.00126808  1
  Fe  Fe59  1  0.62474981  0.37557434  0.12514104  1
  Fe  Fe60  1  0.49737279  0.49945949  0.00119730  1
  Fe  Fe61  1  0.49930251  0.00295323  0.50193199  1
  Fe  Fe62  1  0.75176595  -0.00152694  0.24975439  1
  Fe  Fe63  1  0.50025962  0.24877062  0.25062037  1
  Fe  Fe64  1  0.49921607  0.24740579  0.74891233  1
  Fe  Fe65  1  0.75071498  0.75135684  0.49812381  1
  Fe  Fe66  1  0.12352852  0.37627023  0.12359790  1
  Fe  Fe67  1  0.00106449  0.74821102  0.75064246  1
  Fe  Fe68  1  0.62823179  0.12465144  0.62541930  1
  Fe  Fe69  1  0.00066163  0.00207300  0.50117884  1
  Fe  Fe70  1  0.12546494  0.37816666  0.87348954  1
  Fe  Fe71  1  -0.00096243  0.50285342  0.49994055  1
  Fe  Fe72  1  0.37296587  0.12676249  0.12505535  1
  Fe  Fe73  1  0.24779225  -0.00356743  0.75171354  1
  Fe  Fe74  1  0.12674884  0.62462883  0.62610487  1
  Fe  Fe75  1  0.62383668  0.87637810  0.37409516  1
  Fe  Fe76  1  0.62526877  0.62433472  0.87498668  1
  Fe  Fe77  1  -0.00081293  0.00303340  -0.00060618  1
  Fe  Fe78  1  0.37299222  0.62374175  0.12584403  1
  Fe  Fe79  1  0.74907359  0.75132129  0.75149275  1
  Fe  Fe80  1  0.00216519  0.00261955  0.75159510  1
  Fe  Fe81  1  0.50039495  0.00087222  0.75094376  1
  Fe  Fe82  1  0.62829147  0.62353372  0.37231064  1
  Fe  Fe83  1  0.37872939  0.37367217  0.37697734  1
  Fe  Fe84  1  0.12442153  0.87724537  0.37423446  1
  Fe  Fe85  1  0.24874921  0.25159930  0.25071448  1
  Fe  Fe86  1  0.75267249  0.25350377  0.25162033  1
  Fe  Fe87  1  0.12375588  0.87356624  0.12428186  1
  Fe  Fe88  1  0.87179973  0.12316584  0.62615064  1
  Fe  Fe89  1  0.12587332  0.62331633  0.37433685  1
  Co  Co90  1  0.12745710  0.62473677  0.12730765  1
  Co  Co91  1  0.38178159  0.37234630  0.62417789  1
  Co  Co92  1  0.49980697  0.24385949  0.50044035  1
  Co  Co93  1  0.37020775  0.12394185  0.62683756  1
  Co  Co94  1  0.87098591  0.62505207  0.12842778  1
  Co  Co95  1  0.11847820  0.37466866  0.62511787  1
  Co  Co96  1  0.25237945  0.49670973  0.74399725  1
  Co  Co97  1  0.25067183  0.25497558  0.50221077  1
  Co  Co98  1  0.25070068  0.49912795  0.00163651  1
  Co  Co99  1  0.37581745  0.37377188  0.12724170  1
  Co  Co100  1  0.87236616  0.12503848  0.87339238  1
  Co  Co101  1  0.87332204  0.62487912  0.37339461  1
  Co  Co102  1  0.00055804  0.50189927  0.24912400  1
  Co  Co103  1  0.87463777  0.12306872  0.37465875  1
  Co  Co104  1  0.12819282  0.12618500  0.87634630  1
  Co  Co105  1  0.74781337  0.75273700  0.24981635  1
  Co  Co106  1  0.12131803  0.87456124  0.87730676  1
  Co  Co107  1  0.75179698  0.49521496  0.25225208  1
  Co  Co108  1  0.74852822  0.74917947  -0.00073764  1
  Co  Co109  1  0.12894537  0.62229455  0.87170694  1
  Co  Co110  1  0.62552359  0.87844475  0.12335016  1
  Co  Co111  1  0.24876212  0.25537241  0.74764771  1
  Co  Co112  1  0.74866771  -0.00299122  0.75230045  1
  Co  Co113  1  0.24843794  -0.00004114  0.24728542  1
  Co  Co114  1  0.37337464  0.62962331  0.62489273  1
  Co  Co115  1  0.50227290  0.74896787  0.75108992  1
  Co  Co116  1  0.88067596  0.37543727  0.37670340  1
  Co  Co117  1  0.12200845  0.87456167  0.62577620  1
  Co  Co118  1  0.37566469  0.87392440  0.87512516  1
  Co  Co119  1  0.62770559  0.62131340  0.12537691  1
  Co  Co120  1  -0.00145244  0.24468342  0.50082876  1
  Co  Co121  1  0.24954470  -0.00455817  0.50162862  1
  Co  Co122  1  0.75207789  0.25278961  -0.00062187  1
  Co  Co123  1  0.62133654  0.37442955  0.37650064  1
  Co  Co124  1  0.87281595  0.62576244  0.87295538  1
  Co  Co125  1  0.87338644  0.12646082  0.12533114  1
  Co  Co126  1  0.87786650  0.37641306  0.87537177  1
  Co  Co127  1  0.74949351  -0.00150643  0.49958596  1
