# generated using pymatgen
data_Fe45Co19
_symmetry_space_group_name_H-M   'P 1'
_cell_length_a   11.41409666
_cell_length_b   11.41457683
_cell_length_c   11.41373364
_cell_angle_alpha   89.98945889
_cell_angle_beta   90.00951524
_cell_angle_gamma   90.00126930
_symmetry_Int_Tables_number   1
_chemical_formula_structural   Fe45Co19
_chemical_formula_sum   'Fe90 Co38'
_cell_volume   1487.06202063
_cell_formula_units_Z   2
loop_
 _symmetry_equiv_pos_site_id
 _symmetry_equiv_pos_as_xyz
  1  'x, y, z'
loop_
 _atom_site_type_symbol
 _atom_site_label
 _atom_site_symmetry_multiplicity
 _atom_site_fract_x
 _atom_site_fract_y
 _atom_site_fract_z
 _atom_site_occupancy
  Fe  Fe0  1  0.12740250  0.12357972  0.12650562  1
  Fe  Fe1  1  0.62278327  0.87678416  0.62253245  1
  Fe  Fe2  1  0.87278513  0.87639588  0.37464426  1
  Fe  Fe3  1  0.62539002  0.37488536  0.12439137  1
  Fe  Fe4  1  0.75089505  0.50018670  0.24916592  1
  Fe  Fe5  1  0.75074736  0.00169379  0.50103536  1
  Fe  Fe6  1  0.62708287  0.37488721  0.37612899  1
  Fe  Fe7  1  0.74978094  0.00045577  0.00126490  1
  Fe  Fe8  1  0.75131764  0.49898803  0.74882765  1
  Fe  Fe9  1  0.37649496  0.62622829  0.62396157  1
  Fe  Fe10  1  0.37334552  0.12464578  0.87292080  1
  Fe  Fe11  1  0.62382862  0.62485080  0.12361932  1
  Fe  Fe12  1  0.87614899  0.12603951  0.87339070  1
  Fe  Fe13  1  0.62368109  0.62513464  0.62417294  1
  Fe  Fe14  1  -0.00030712  0.75168452  0.75138305  1
  Fe  Fe15  1  -0.00008370  0.50057648  0.50207501  1
  Fe  Fe16  1  0.87725540  0.62785283  0.62544267  1
  Fe  Fe17  1  0.36917072  0.37625106  0.87170045  1
  Fe  Fe18  1  0.37043652  0.37493776  0.37767094  1
  Fe  Fe19  1  0.12766422  0.87718909  0.87507342  1
  Fe  Fe20  1  0.87643793  0.62776753  0.12418739  1
  Fe  Fe21  1  0.50126250  0.25086191  -0.00560926  1
  Fe  Fe22  1  0.12580069  0.87546574  0.12642254  1
  Fe  Fe23  1  0.75284425  0.50128391  -0.00114155  1
  Fe  Fe24  1  0.62272843  0.12453073  0.12405730  1
  Fe  Fe25  1  0.87404775  0.37194086  0.37749170  1
  Fe  Fe26  1  0.00198595  0.25020985  0.50244263  1
  Fe  Fe27  1  0.75079225  0.24835815  0.25141691  1
  Fe  Fe28  1  0.62599115  0.62393879  0.87489163  1
  Fe  Fe29  1  0.37469498  0.87385439  0.37687316  1
  Fe  Fe30  1  0.37284899  0.62452105  0.87515779  1
  Fe  Fe31  1  0.37572224  0.37379325  0.12458240  1
  Fe  Fe32  1  0.49856881  -0.00027025  0.25208404  1
  Fe  Fe33  1  0.49917694  0.50129008  0.25207931  1
  Fe  Fe34  1  0.50214130  0.74679795  0.25711455  1
  Fe  Fe35  1  0.87556909  0.12540898  0.12611196  1
  Fe  Fe36  1  -0.00211743  -0.00182471  0.49855873  1
  Fe  Fe37  1  0.24666337  0.25066245  -0.00024802  1
  Fe  Fe38  1  0.24984145  0.00018781  0.74670997  1
  Fe  Fe39  1  0.37578696  0.12684932  0.12548407  1
  Fe  Fe40  1  0.00157267  0.49917481  0.74804186  1
  Fe  Fe41  1  0.25272849  -0.00113675  0.00121007  1
  Fe  Fe42  1  0.12445294  0.37548255  0.12319490  1
  Fe  Fe43  1  0.00187354  0.24992337  0.25007618  1
  Fe  Fe44  1  0.74722547  0.24968170  0.74993813  1
  Fe  Fe45  1  0.24601952  0.24885353  0.74316265  1
  Fe  Fe46  1  0.74755094  0.74999915  0.25109832  1
  Fe  Fe47  1  0.62623610  0.87831502  0.87524289  1
  Fe  Fe48  1  0.62139861  0.37236114  0.62499945  1
  Fe  Fe49  1  -0.00032708  0.75049541  -0.00266859  1
  Fe  Fe50  1  0.87524059  0.37232820  0.12397887  1
  Fe  Fe51  1  0.62465060  0.87630172  0.12552613  1
  Fe  Fe52  1  0.49997973  0.75109308  0.75034681  1
  Fe  Fe53  1  0.37626406  0.87259655  0.12702130  1
  Fe  Fe54  1  0.12250779  0.87443069  0.62279577  1
  Fe  Fe55  1  0.37720699  0.87424036  0.62304988  1
  Fe  Fe56  1  0.24779835  0.74720417  0.25158058  1
  Fe  Fe57  1  0.12723772  0.62219610  0.87432540  1
  Fe  Fe58  1  0.25263969  0.00232540  0.50168822  1
  Fe  Fe59  1  0.61949655  0.12675010  0.62554562  1
  Fe  Fe60  1  0.00313288  0.74993679  0.25472952  1
  Fe  Fe61  1  0.49981422  0.75202952  -0.00263412  1
  Fe  Fe62  1  0.87260619  0.87709767  0.87407860  1
  Fe  Fe63  1  -0.00043711  0.49928682  0.25006616  1
  Fe  Fe64  1  0.24694084  0.74811193  0.49962173  1
  Fe  Fe65  1  0.49812287  0.49896609  0.75037326  1
  Fe  Fe66  1  0.87831300  0.37161514  0.87250119  1
  Fe  Fe67  1  0.24976482  0.74981558  0.74870886  1
  Fe  Fe68  1  0.87465064  0.87444879  0.12551890  1
  Fe  Fe69  1  0.00143050  0.00160048  -0.00078254  1
  Fe  Fe70  1  0.49944504  0.50018554  0.49887753  1
  Fe  Fe71  1  0.75136632  0.49768383  0.50316178  1
  Fe  Fe72  1  0.49807500  0.49870390  -0.00143890  1
  Fe  Fe73  1  0.00026915  0.49958153  -0.00136079  1
  Fe  Fe74  1  0.74946002  0.75069365  0.50062605  1
  Fe  Fe75  1  0.37192033  0.12761737  0.37475378  1
  Fe  Fe76  1  0.25045618  0.74847035  0.00112415  1
  Fe  Fe77  1  0.24863313  0.50081741  0.50642570  1
  Fe  Fe78  1  0.12721781  0.12502330  0.37560620  1
  Fe  Fe79  1  0.62546010  0.12414741  0.37578045  1
  Fe  Fe80  1  0.00021081  -0.00028696  0.75003382  1
  Fe  Fe81  1  0.25038366  0.50255236  0.24527753  1
  Fe  Fe82  1  0.74896863  0.24978044  -0.00223716  1
  Fe  Fe83  1  0.49946738  0.25186469  0.25281469  1
  Fe  Fe84  1  0.87420222  0.62419670  0.37606099  1
  Fe  Fe85  1  0.12776799  0.37514965  0.37731592  1
  Fe  Fe86  1  0.49870718  -0.00095880  0.75175349  1
  Fe  Fe87  1  0.74994639  0.75126462  0.75023925  1
  Fe  Fe88  1  0.00026459  0.00034334  0.25164357  1
  Fe  Fe89  1  0.87603157  0.12654816  0.62561858  1
  Co  Co90  1  0.50122789  0.74818960  0.49766405  1
  Co  Co91  1  0.38075638  0.12712397  0.62782720  1
  Co  Co92  1  0.00067028  0.75028365  0.49564739  1
  Co  Co93  1  0.12654432  0.12440222  0.87390079  1
  Co  Co94  1  0.24950126  0.50050766  0.74461313  1
  Co  Co95  1  0.49792888  0.25064535  0.49584890  1
  Co  Co96  1  0.12208779  0.12015283  0.62255856  1
  Co  Co97  1  0.37840132  0.37263597  0.62539285  1
  Co  Co98  1  0.37869133  0.62754344  0.12503533  1
  Co  Co99  1  0.62717341  0.37861982  0.87488363  1
  Co  Co100  1  0.62581725  0.87799824  0.37745029  1
  Co  Co101  1  0.12745155  0.87859488  0.37631711  1
  Co  Co102  1  0.74838505  0.24843066  0.50196421  1
  Co  Co103  1  0.25003377  0.50060669  0.00333321  1
  Co  Co104  1  0.12175835  0.62878686  0.62569803  1
  Co  Co105  1  0.24990889  0.24760954  0.50571563  1
  Co  Co106  1  0.49664634  -0.00061872  -0.00074432  1
  Co  Co107  1  0.25257176  -0.00056406  0.25024720  1
  Co  Co108  1  0.00446935  0.24778153  0.74749935  1
  Co  Co109  1  0.87561456  0.62453443  0.87272403  1
  Co  Co110  1  0.50121222  0.25201537  0.75580940  1
  Co  Co111  1  0.12583300  0.62044719  0.37539188  1
  Co  Co112  1  0.12398093  0.37550459  0.62522008  1
  Co  Co113  1  0.49738664  0.00200375  0.49810846  1
  Co  Co114  1  0.12154623  0.62606612  0.12459553  1
  Co  Co115  1  0.74952797  0.00122530  0.74671690  1
  Co  Co116  1  0.62816841  0.62191750  0.37723839  1
  Co  Co117  1  0.87666425  0.12689283  0.37607548  1
  Co  Co118  1  0.24874228  0.25205346  0.24863104  1
  Co  Co119  1  0.87661546  0.87396356  0.62480329  1
  Co  Co120  1  0.62456015  0.12133157  0.87507807  1
  Co  Co121  1  0.37140756  0.62291031  0.37711617  1
  Co  Co122  1  0.00307034  0.24809672  0.00116433  1
  Co  Co123  1  0.87571527  0.37201839  0.62642436  1
  Co  Co124  1  0.37292976  0.87529591  0.87331450  1
  Co  Co125  1  0.75021553  0.75034586  -0.00181591  1
  Co  Co126  1  0.12573328  0.37538586  0.87321928  1
  Co  Co127  1  0.75009769  0.00148235  0.25034485  1
