# generated using pymatgen
data_Fe45Co19
_symmetry_space_group_name_H-M   'P 1'
_cell_length_a   11.41632574
_cell_length_b   11.41475551
_cell_length_c   11.41533407
_cell_angle_alpha   89.99569759
_cell_angle_beta   89.99985709
_cell_angle_gamma   90.00632496
_symmetry_Int_Tables_number   1
_chemical_formula_structural   Fe45Co19
_chemical_formula_sum   'Fe90 Co38'
_cell_volume   1487.58430490
_cell_formula_units_Z   2
loop_
 _symmetry_equiv_pos_site_id
 _symmetry_equiv_pos_as_xyz
  1  'x, y, z'
loop_
 _atom_site_type_symbol
 _atom_site_label
 _atom_site_symmetry_multiplicity
 _atom_site_fract_x
 _atom_site_fract_y
 _atom_site_fract_z
 _atom_site_occupancy
  Fe  Fe0  1  0.87911677  0.62264893  0.12588619  1
  Fe  Fe1  1  0.49841146  0.50074832  0.25163922  1
  Fe  Fe2  1  -0.00101154  0.74813057  0.75016368  1
  Fe  Fe3  1  0.87206928  0.12380090  0.62484635  1
  Fe  Fe4  1  0.62616928  0.12167622  0.87039300  1
  Fe  Fe5  1  0.74783598  0.50083397  0.50034629  1
  Fe  Fe6  1  0.75004303  0.25186099  0.25079218  1
  Fe  Fe7  1  0.25247758  -0.00203898  0.75016765  1
  Fe  Fe8  1  0.37451091  0.87465870  0.37639265  1
  Fe  Fe9  1  0.24877797  0.74871441  0.25050776  1
  Fe  Fe10  1  0.37589665  0.12617598  0.87360178  1
  Fe  Fe11  1  0.87622819  0.37416267  0.62660421  1
  Fe  Fe12  1  0.12638019  0.61911711  0.37294307  1
  Fe  Fe13  1  0.75294986  0.75006202  0.25122342  1
  Fe  Fe14  1  0.37533746  0.87228048  0.62370794  1
  Fe  Fe15  1  -0.00179169  0.00112341  0.74895180  1
  Fe  Fe16  1  0.12300411  0.87585895  0.37552904  1
  Fe  Fe17  1  0.74691050  0.25228587  -0.00374719  1
  Fe  Fe18  1  0.37597897  0.12770881  0.12568848  1
  Fe  Fe19  1  0.87927572  0.87324691  0.12337108  1
  Fe  Fe20  1  0.25138161  0.49624417  0.50671786  1
  Fe  Fe21  1  0.00277611  0.25160305  0.50140841  1
  Fe  Fe22  1  0.12452747  0.12683364  0.12471058  1
  Fe  Fe23  1  0.37786540  0.37411068  0.87293301  1
  Fe  Fe24  1  0.62576974  0.87457493  0.37633027  1
  Fe  Fe25  1  0.87166995  0.62577644  0.62602070  1
  Fe  Fe26  1  -0.00121812  -0.00072200  0.25077623  1
  Fe  Fe27  1  0.49585898  0.50225319  0.74795907  1
  Fe  Fe28  1  0.37413604  0.12883786  0.62660782  1
  Fe  Fe29  1  0.87625702  0.87715902  0.61956874  1
  Fe  Fe30  1  0.37338870  0.62526977  0.12440503  1
  Fe  Fe31  1  0.12618327  0.62178246  0.87075094  1
  Fe  Fe32  1  0.00113336  0.74709164  0.49858423  1
  Fe  Fe33  1  0.50171744  0.24690817  0.49848179  1
  Fe  Fe34  1  0.12127677  0.87425979  0.12304760  1
  Fe  Fe35  1  0.74794074  0.74954616  0.49960071  1
  Fe  Fe36  1  0.87649177  0.37549968  0.87322892  1
  Fe  Fe37  1  0.50339153  0.25051436  -0.00202584  1
  Fe  Fe38  1  0.24825585  0.74918210  0.49916323  1
  Fe  Fe39  1  0.12416264  0.87429777  0.62542569  1
  Fe  Fe40  1  0.50062313  0.00075165  -0.00030589  1
  Fe  Fe41  1  0.49953540  0.00126645  0.25168339  1
  Fe  Fe42  1  0.49919447  0.50434000  0.50142514  1
  Fe  Fe43  1  0.12587432  0.12644696  0.37499861  1
  Fe  Fe44  1  0.75177775  -0.00069813  0.25179623  1
  Fe  Fe45  1  0.74722402  0.24946424  0.50160715  1
  Fe  Fe46  1  0.62524556  0.62387049  0.12758151  1
  Fe  Fe47  1  0.37622798  0.87328747  0.12351273  1
  Fe  Fe48  1  0.37456817  0.37377309  0.12316415  1
  Fe  Fe49  1  0.37725302  0.87182947  0.87779582  1
  Fe  Fe50  1  0.50091723  0.00325156  0.49887435  1
  Fe  Fe51  1  0.12870733  0.62443183  0.62910064  1
  Fe  Fe52  1  0.12246881  0.87644342  0.87625946  1
  Fe  Fe53  1  0.87528797  0.12446129  0.37738221  1
  Fe  Fe54  1  0.37483277  0.37513259  0.37804249  1
  Fe  Fe55  1  0.50088425  0.74949500  0.74963556  1
  Fe  Fe56  1  0.62457030  0.12683520  0.12736616  1
  Fe  Fe57  1  0.87739360  0.87354600  0.87811775  1
  Fe  Fe58  1  0.24846739  0.25119339  -0.00329566  1
  Fe  Fe59  1  0.49950952  0.50245517  -0.00059247  1
  Fe  Fe60  1  0.62694848  0.12176930  0.63020871  1
  Fe  Fe61  1  0.74840798  0.75471043  0.74893150  1
  Fe  Fe62  1  0.75074618  0.49765357  0.74928516  1
  Fe  Fe63  1  0.87451441  0.37627549  0.37676815  1
  Fe  Fe64  1  0.75151568  0.50017123  -0.00032041  1
  Fe  Fe65  1  0.12726672  0.12790161  0.62648804  1
  Fe  Fe66  1  0.62504738  0.37617253  0.37435079  1
  Fe  Fe67  1  0.12285703  0.61981125  0.12656456  1
  Fe  Fe68  1  0.87344812  0.12583250  0.87405926  1
  Fe  Fe69  1  0.74910285  0.74895700  0.00073941  1
  Fe  Fe70  1  0.12477952  0.12415317  0.87366201  1
  Fe  Fe71  1  0.25039385  0.25315467  0.25149962  1
  Fe  Fe72  1  0.25055715  0.00037331  0.00089158  1
  Fe  Fe73  1  0.50228599  0.74532049  0.50015075  1
  Fe  Fe74  1  0.24999412  0.00160933  0.50037302  1
  Fe  Fe75  1  0.00154556  0.25332306  -0.00009084  1
  Fe  Fe76  1  0.62576633  0.37579589  0.12585902  1
  Fe  Fe77  1  0.00034649  0.25603518  0.24965983  1
  Fe  Fe78  1  0.25059254  0.49916977  -0.00298816  1
  Fe  Fe79  1  0.74995144  -0.00090464  -0.00005585  1
  Fe  Fe80  1  0.87519558  0.12808102  0.12335213  1
  Fe  Fe81  1  0.62230982  0.37598367  0.62639818  1
  Fe  Fe82  1  0.49847168  0.74733712  0.25183599  1
  Fe  Fe83  1  0.25041096  -0.00035684  0.24892072  1
  Fe  Fe84  1  0.24761773  0.74853065  -0.00074228  1
  Fe  Fe85  1  0.12226778  0.37731027  0.86804353  1
  Fe  Fe86  1  0.62622190  0.62436224  0.87335000  1
  Fe  Fe87  1  0.00123624  0.49966062  0.50362254  1
  Fe  Fe88  1  0.62383166  0.87425499  0.12424353  1
  Fe  Fe89  1  0.87541306  0.62246167  0.37374753  1
  Co  Co90  1  0.74850500  0.25370682  0.74977268  1
  Co  Co91  1  0.49642983  -0.00225351  0.74983507  1
  Co  Co92  1  0.37389149  0.62690559  0.87411597  1
  Co  Co93  1  -0.00098475  0.00314162  0.00068309  1
  Co  Co94  1  0.00079420  0.74891313  0.25284323  1
  Co  Co95  1  -0.00333857  0.50396673  0.74741238  1
  Co  Co96  1  0.37170961  0.62965003  0.62559744  1
  Co  Co97  1  0.25130365  0.25254339  0.75121422  1
  Co  Co98  1  0.75295042  -0.00557043  0.75075002  1
  Co  Co99  1  0.37132365  0.62419987  0.37725575  1
  Co  Co100  1  -0.00098830  0.49885955  -0.00188935  1
  Co  Co101  1  -0.00198892  0.24678272  0.74863678  1
  Co  Co102  1  0.87605852  0.87594779  0.37955787  1
  Co  Co103  1  0.24836066  0.25227927  0.50004899  1
  Co  Co104  1  0.87124108  0.62554011  0.87294069  1
  Co  Co105  1  0.62729680  0.62380103  0.62834365  1
  Co  Co106  1  0.50305747  0.25005699  0.75164940  1
  Co  Co107  1  0.62276815  0.87461899  0.87673691  1
  Co  Co108  1  0.25602000  0.49607245  0.74683211  1
  Co  Co109  1  0.87195499  0.37439304  0.12237206  1
  Co  Co110  1  0.00328647  0.00224691  0.50086159  1
  Co  Co111  1  0.49883650  0.25315123  0.25108356  1
  Co  Co112  1  0.75128214  0.49944202  0.24999699  1
  Co  Co113  1  0.74657912  0.00182538  0.49832065  1
  Co  Co114  1  0.12749615  0.37707802  0.12393573  1
  Co  Co115  1  0.62315786  0.38026732  0.87327355  1
  Co  Co116  1  0.62277130  0.87748342  0.62298552  1
  Co  Co117  1  0.50180723  0.74613834  0.00063106  1
  Co  Co118  1  0.24955774  0.75316954  0.75248071  1
  Co  Co119  1  -0.00148430  0.49377757  0.24888576  1
  Co  Co120  1  0.62597103  0.12628052  0.37176516  1
  Co  Co121  1  0.37919886  0.36969964  0.62435178  1
  Co  Co122  1  0.12646303  0.37858698  0.37645285  1
  Co  Co123  1  0.37277409  0.12585055  0.37391582  1
  Co  Co124  1  0.62721480  0.62432933  0.37344854  1
  Co  Co125  1  0.12246230  0.37426400  0.63023821  1
  Co  Co126  1  0.25333407  0.49820743  0.24914419  1
  Co  Co127  1  0.00178245  0.74407982  -0.00214157  1
