# generated using pymatgen
data_Fe45Co19
_symmetry_space_group_name_H-M   'P 1'
_cell_length_a   11.41575355
_cell_length_b   11.41589946
_cell_length_c   11.41401002
_cell_angle_alpha   89.99493614
_cell_angle_beta   90.01358475
_cell_angle_gamma   90.00153109
_symmetry_Int_Tables_number   1
_chemical_formula_structural   Fe45Co19
_chemical_formula_sum   'Fe90 Co38'
_cell_volume   1487.48623356
_cell_formula_units_Z   2
loop_
 _symmetry_equiv_pos_site_id
 _symmetry_equiv_pos_as_xyz
  1  'x, y, z'
loop_
 _atom_site_type_symbol
 _atom_site_label
 _atom_site_symmetry_multiplicity
 _atom_site_fract_x
 _atom_site_fract_y
 _atom_site_fract_z
 _atom_site_occupancy
  Fe  Fe0  1  0.49813176  0.49987490  0.24912596  1
  Fe  Fe1  1  0.37688070  0.12447425  0.37695746  1
  Fe  Fe2  1  0.74586212  0.24541087  0.74863590  1
  Fe  Fe3  1  0.24825831  0.25164430  0.50064137  1
  Fe  Fe4  1  0.25050917  -0.00020388  0.50041880  1
  Fe  Fe5  1  0.00243925  0.25268048  0.50127202  1
  Fe  Fe6  1  0.75014602  0.50073220  0.75055411  1
  Fe  Fe7  1  0.62243046  0.87720762  0.12186421  1
  Fe  Fe8  1  0.12638362  0.37271736  0.12881152  1
  Fe  Fe9  1  0.74985894  0.50005586  -0.00144022  1
  Fe  Fe10  1  -0.00208552  0.50055179  0.75302396  1
  Fe  Fe11  1  0.62403670  0.12303741  0.37753946  1
  Fe  Fe12  1  0.00137511  0.75027452  0.49986220  1
  Fe  Fe13  1  0.50193882  0.75313083  0.50039613  1
  Fe  Fe14  1  0.24964503  0.24963518  0.74851066  1
  Fe  Fe15  1  0.12568531  0.37416732  0.87298978  1
  Fe  Fe16  1  0.24956676  0.75020514  0.75017016  1
  Fe  Fe17  1  0.37391686  0.62710521  0.37659641  1
  Fe  Fe18  1  -0.00131321  0.00077832  0.25013584  1
  Fe  Fe19  1  0.74885576  0.75122960  0.50186338  1
  Fe  Fe20  1  0.74785274  0.24904826  0.00000945  1
  Fe  Fe21  1  0.12577077  0.87908644  0.87559960  1
  Fe  Fe22  1  0.87351542  0.62483770  0.37539773  1
  Fe  Fe23  1  0.12600073  0.62328124  0.62663000  1
  Fe  Fe24  1  0.25159060  0.49740361  0.00147605  1
  Fe  Fe25  1  0.62501729  0.62398183  0.37626319  1
  Fe  Fe26  1  0.87468879  0.12560726  0.12437540  1
  Fe  Fe27  1  0.24919686  0.75044650  -0.00056377  1
  Fe  Fe28  1  0.87541360  0.62713068  0.12062782  1
  Fe  Fe29  1  0.37488805  0.62456694  0.12338690  1
  Fe  Fe30  1  0.87433948  0.87476302  0.37570235  1
  Fe  Fe31  1  0.12599017  0.12527672  0.12636120  1
  Fe  Fe32  1  0.37622300  0.87650103  0.12401148  1
  Fe  Fe33  1  0.62200254  0.37518608  0.12427335  1
  Fe  Fe34  1  0.87452015  0.12670689  0.87515888  1
  Fe  Fe35  1  0.87391416  0.37394985  0.37442539  1
  Fe  Fe36  1  0.75049354  -0.00031794  0.24986026  1
  Fe  Fe37  1  0.62403116  0.88007573  0.62753690  1
  Fe  Fe38  1  0.87416446  0.62684611  0.62641371  1
  Fe  Fe39  1  0.87698727  0.87344227  0.87683076  1
  Fe  Fe40  1  0.25461692  0.00332085  -0.00270636  1
  Fe  Fe41  1  0.37439669  0.62576294  0.87571004  1
  Fe  Fe42  1  0.50016816  -0.00266217  0.25403155  1
  Fe  Fe43  1  0.62372967  0.62486347  0.12212061  1
  Fe  Fe44  1  0.00180109  0.75100351  0.24938480  1
  Fe  Fe45  1  0.37370273  0.37487331  0.37450658  1
  Fe  Fe46  1  0.25359794  0.49912609  0.74704608  1
  Fe  Fe47  1  0.00251919  0.74745331  0.75364425  1
  Fe  Fe48  1  0.12419002  0.87714468  0.12265681  1
  Fe  Fe49  1  0.00043688  0.49856235  0.25091439  1
  Fe  Fe50  1  0.75019007  0.49980912  0.24779721  1
  Fe  Fe51  1  0.87689744  0.87344777  0.12124224  1
  Fe  Fe52  1  0.12620345  0.62393793  0.12488534  1
  Fe  Fe53  1  0.75131008  0.00042054  0.50479234  1
  Fe  Fe54  1  -0.00054222  0.50011002  -0.00406461  1
  Fe  Fe55  1  0.49893348  0.25004726  0.25084770  1
  Fe  Fe56  1  0.74913262  0.75218873  0.75063531  1
  Fe  Fe57  1  0.74770173  0.49815296  0.50217855  1
  Fe  Fe58  1  0.62422361  0.62619081  0.87549928  1
  Fe  Fe59  1  0.75065292  -0.00038977  -0.00139767  1
  Fe  Fe60  1  0.87429122  0.12700858  0.37660714  1
  Fe  Fe61  1  0.25410621  0.00169595  0.74963256  1
  Fe  Fe62  1  0.12444646  0.12664726  0.37333612  1
  Fe  Fe63  1  0.12376414  0.87648196  0.62631736  1
  Fe  Fe64  1  0.50087387  0.49736589  0.50347436  1
  Fe  Fe65  1  0.49871433  0.24623017  -0.00066588  1
  Fe  Fe66  1  0.49854371  0.74988210  0.74937629  1
  Fe  Fe67  1  -0.00102965  -0.00008871  0.50152225  1
  Fe  Fe68  1  0.25274267  0.24772296  0.00206195  1
  Fe  Fe69  1  0.12362596  0.12548754  0.62703793  1
  Fe  Fe70  1  0.62474313  0.37477923  0.87509384  1
  Fe  Fe71  1  0.12762440  0.62527513  0.37253125  1
  Fe  Fe72  1  0.24913085  0.49716508  0.50175051  1
  Fe  Fe73  1  0.38209861  0.12856649  0.62384263  1
  Fe  Fe74  1  0.37635602  0.37323117  0.87525582  1
  Fe  Fe75  1  0.74390930  0.25088314  0.50200133  1
  Fe  Fe76  1  0.62245224  0.12225564  0.12391152  1
  Fe  Fe77  1  0.87570939  0.37394368  0.12312080  1
  Fe  Fe78  1  0.74843693  0.75026613  0.24833947  1
  Fe  Fe79  1  0.24793877  0.75219168  0.49993530  1
  Fe  Fe80  1  0.00158565  0.49778604  0.49994494  1
  Fe  Fe81  1  0.87498016  0.37214663  0.62821290  1
  Fe  Fe82  1  -0.00303672  0.00291808  0.74997489  1
  Fe  Fe83  1  0.37524756  0.87487776  0.62506541  1
  Fe  Fe84  1  0.49832497  0.50020254  0.74764995  1
  Fe  Fe85  1  0.74852410  0.25020584  0.24956617  1
  Fe  Fe86  1  0.00185276  0.24853292  -0.00193915  1
  Fe  Fe87  1  0.25013155  -0.00121370  0.25273968  1
  Fe  Fe88  1  0.50008933  0.75167102  0.25070350  1
  Fe  Fe89  1  0.62159585  0.87900155  0.87563409  1
  Co  Co90  1  0.25197390  0.49995934  0.24919832  1
  Co  Co91  1  0.37469180  0.12919737  0.87171840  1
  Co  Co92  1  0.12697371  0.37321744  0.37105117  1
  Co  Co93  1  -0.00220281  0.24926052  0.24992427  1
  Co  Co94  1  0.25417685  0.24891567  0.24960023  1
  Co  Co95  1  0.49511872  0.00063034  0.75293191  1
  Co  Co96  1  -0.00090517  0.00430390  -0.00097953  1
  Co  Co97  1  0.74630248  0.75169876  -0.00047463  1
  Co  Co98  1  0.62541351  0.62549150  0.62516633  1
  Co  Co99  1  0.13054104  0.62130216  0.87438186  1
  Co  Co100  1  0.50404649  0.25475914  0.49797746  1
  Co  Co101  1  0.50314377  0.24987164  0.75256655  1
  Co  Co102  1  0.62877535  0.87543096  0.37576592  1
  Co  Co103  1  0.62525409  0.37793225  0.37105514  1
  Co  Co104  1  0.87165342  0.62802468  0.87670705  1
  Co  Co105  1  0.49871894  -0.00397193  0.49845407  1
  Co  Co106  1  0.12426715  0.37580828  0.62935014  1
  Co  Co107  1  0.61867212  0.12111370  0.62440573  1
  Co  Co108  1  0.49917986  0.74956926  -0.00048512  1
  Co  Co109  1  0.37651463  0.12127015  0.12860582  1
  Co  Co110  1  0.87325105  0.37137853  0.87386784  1
  Co  Co111  1  0.87540396  0.12922402  0.62427778  1
  Co  Co112  1  0.25025378  0.75153402  0.24768609  1
  Co  Co113  1  0.00473969  0.74703951  -0.00303059  1
  Co  Co114  1  0.12433055  0.87608046  0.37538326  1
  Co  Co115  1  0.12733376  0.12364446  0.87387481  1
  Co  Co116  1  0.87708834  0.87179039  0.62623369  1
  Co  Co117  1  0.50005149  0.50012173  -0.00249277  1
  Co  Co118  1  0.37251095  0.87332969  0.37541904  1
  Co  Co119  1  0.37655324  0.37080033  0.62513446  1
  Co  Co120  1  0.37423963  0.87205622  0.87511337  1
  Co  Co121  1  0.75363500  0.00141255  0.74943647  1
  Co  Co122  1  0.62507084  0.12096337  0.87457323  1
  Co  Co123  1  0.00135653  0.24799968  0.75202477  1
  Co  Co124  1  0.49504294  0.00303044  -0.00430153  1
  Co  Co125  1  0.62448069  0.37476231  0.62904777  1
  Co  Co126  1  0.37446597  0.62729820  0.62282058  1
  Co  Co127  1  0.37712277  0.37473598  0.12454551  1
