# generated using pymatgen
data_Fe45Co19
_symmetry_space_group_name_H-M   'P 1'
_cell_length_a   11.41535235
_cell_length_b   11.41530493
_cell_length_c   11.41489969
_cell_angle_alpha   90.00454657
_cell_angle_beta   89.99370667
_cell_angle_gamma   90.00268717
_symmetry_Int_Tables_number   1
_chemical_formula_structural   Fe45Co19
_chemical_formula_sum   'Fe90 Co38'
_cell_volume   1487.47245697
_cell_formula_units_Z   2
loop_
 _symmetry_equiv_pos_site_id
 _symmetry_equiv_pos_as_xyz
  1  'x, y, z'
loop_
 _atom_site_type_symbol
 _atom_site_label
 _atom_site_symmetry_multiplicity
 _atom_site_fract_x
 _atom_site_fract_y
 _atom_site_fract_z
 _atom_site_occupancy
  Fe  Fe0  1  0.74976565  0.00130702  0.75161300  1
  Fe  Fe1  1  0.25339704  0.50272048  0.75000389  1
  Fe  Fe2  1  0.12247601  0.12465514  0.62720304  1
  Fe  Fe3  1  0.50234083  0.00056316  0.25142505  1
  Fe  Fe4  1  0.87610314  0.62466075  0.87807526  1
  Fe  Fe5  1  0.49696442  0.25204720  0.74640080  1
  Fe  Fe6  1  0.50114187  0.75185708  0.00176498  1
  Fe  Fe7  1  0.12636643  0.37310284  0.37451186  1
  Fe  Fe8  1  0.62473003  0.62610667  0.87410271  1
  Fe  Fe9  1  0.87300719  0.37732394  0.12309629  1
  Fe  Fe10  1  0.37555594  0.62873272  0.37974740  1
  Fe  Fe11  1  0.25134576  0.24938852  0.00169233  1
  Fe  Fe12  1  0.50055407  -0.00148905  0.49902560  1
  Fe  Fe13  1  0.12527997  0.37715947  0.12504296  1
  Fe  Fe14  1  0.50017434  0.75062894  0.25020239  1
  Fe  Fe15  1  0.24692004  0.00032294  -0.00231046  1
  Fe  Fe16  1  0.49900686  0.25057646  0.50229399  1
  Fe  Fe17  1  0.24813249  0.74789686  0.24860824  1
  Fe  Fe18  1  0.00253554  -0.00012174  0.75531568  1
  Fe  Fe19  1  0.87525667  0.87301568  0.37580898  1
  Fe  Fe20  1  0.62703728  0.37227221  0.37464564  1
  Fe  Fe21  1  0.86961509  0.37347005  0.87223081  1
  Fe  Fe22  1  0.74984141  0.74981349  0.00143678  1
  Fe  Fe23  1  0.37355801  0.37394216  0.37642070  1
  Fe  Fe24  1  0.12592310  0.37606771  0.62720739  1
  Fe  Fe25  1  0.87373482  0.12677416  0.87624131  1
  Fe  Fe26  1  0.49631861  0.49943640  0.75056099  1
  Fe  Fe27  1  0.50288284  -0.00271892  -0.00046557  1
  Fe  Fe28  1  0.37438676  0.87529857  0.62367919  1
  Fe  Fe29  1  0.62765026  0.87500750  0.62617499  1
  Fe  Fe30  1  0.24949694  0.50074557  -0.00239993  1
  Fe  Fe31  1  0.75240763  0.74580008  0.25074814  1
  Fe  Fe32  1  0.75095795  0.00325418  0.25210106  1
  Fe  Fe33  1  0.62847139  0.37428241  0.86984200  1
  Fe  Fe34  1  0.37405564  0.87710199  0.12650415  1
  Fe  Fe35  1  0.00055445  0.50060737  0.25276407  1
  Fe  Fe36  1  -0.00304610  0.25050574  0.24930883  1
  Fe  Fe37  1  0.12224699  0.12753334  0.37458225  1
  Fe  Fe38  1  0.75330508  0.74677508  0.74757896  1
  Fe  Fe39  1  0.24885633  0.00007928  0.75134245  1
  Fe  Fe40  1  0.50056851  0.49907718  -0.00297089  1
  Fe  Fe41  1  0.12309815  0.62752226  0.87544398  1
  Fe  Fe42  1  0.87538723  0.87447301  0.87765801  1
  Fe  Fe43  1  0.37648635  0.12479022  0.87407121  1
  Fe  Fe44  1  0.12736154  0.37157331  0.87354545  1
  Fe  Fe45  1  0.62421310  0.12660755  0.87295407  1
  Fe  Fe46  1  0.62703827  0.12522424  0.12492405  1
  Fe  Fe47  1  -0.00098577  0.25069029  -0.00067803  1
  Fe  Fe48  1  0.24835311  0.74881698  0.00177200  1
  Fe  Fe49  1  0.87227428  0.37728461  0.37854938  1
  Fe  Fe50  1  0.87442600  0.87916674  0.12188342  1
  Fe  Fe51  1  0.49950948  0.49892130  0.25254100  1
  Fe  Fe52  1  0.62676189  0.37647942  0.12665809  1
  Fe  Fe53  1  0.24920494  0.50289922  0.25205897  1
  Fe  Fe54  1  0.25408882  0.24973232  0.74709352  1
  Fe  Fe55  1  0.75218898  0.24858197  0.24957129  1
  Fe  Fe56  1  0.37558920  0.62354947  0.12330351  1
  Fe  Fe57  1  0.62736534  0.87346445  0.37341517  1
  Fe  Fe58  1  -0.00020355  0.75158010  0.74704329  1
  Fe  Fe59  1  -0.00112960  0.74724707  0.24830881  1
  Fe  Fe60  1  0.37251931  0.87281166  0.37641658  1
  Fe  Fe61  1  0.24674027  0.50416832  0.50057475  1
  Fe  Fe62  1  -0.00005301  -0.00062174  0.49815389  1
  Fe  Fe63  1  0.87528514  0.87780431  0.62441498  1
  Fe  Fe64  1  0.37367779  0.87281662  0.87411974  1
  Fe  Fe65  1  -0.00080714  0.00141372  0.25101846  1
  Fe  Fe66  1  0.49874509  0.75111485  0.74794719  1
  Fe  Fe67  1  0.75267899  0.24861130  0.50651937  1
  Fe  Fe68  1  0.62655851  0.87268623  0.87351984  1
  Fe  Fe69  1  0.50280959  0.49860165  0.49942599  1
  Fe  Fe70  1  0.24910674  0.00117096  0.49896440  1
  Fe  Fe71  1  0.25142419  0.24923324  0.24925928  1
  Fe  Fe72  1  0.87899623  0.61937523  0.61932701  1
  Fe  Fe73  1  0.50078802  0.25178569  0.00066680  1
  Fe  Fe74  1  0.74991437  0.74657575  0.49969337  1
  Fe  Fe75  1  0.24849981  0.74778615  0.74435250  1
  Fe  Fe76  1  0.37544749  0.12325154  0.12672240  1
  Fe  Fe77  1  -0.00252803  0.25251605  0.50468358  1
  Fe  Fe78  1  0.62277538  0.62435699  0.62505229  1
  Fe  Fe79  1  0.62280035  0.12324895  0.62587562  1
  Fe  Fe80  1  0.25086097  0.24762400  0.50169775  1
  Fe  Fe81  1  0.12311647  0.12501031  0.12518760  1
  Fe  Fe82  1  0.12315706  0.87610743  0.12353193  1
  Fe  Fe83  1  0.12544698  0.87154383  0.37620341  1
  Fe  Fe84  1  0.87641785  0.62034070  0.12192058  1
  Fe  Fe85  1  0.37488322  0.37644610  0.12483654  1
  Fe  Fe86  1  0.75074201  0.00241036  0.49899503  1
  Fe  Fe87  1  -0.00127788  0.49725655  0.75276454  1
  Fe  Fe88  1  0.62553619  0.62327794  0.12619150  1
  Fe  Fe89  1  0.37620064  0.12533529  0.37334420  1
  Co  Co90  1  0.62838734  0.87472637  0.12827226  1
  Co  Co91  1  0.62669084  0.37620269  0.62817636  1
  Co  Co92  1  0.37604990  0.12238856  0.62575592  1
  Co  Co93  1  0.24550015  0.74826762  0.50589152  1
  Co  Co94  1  0.12307865  0.62167804  0.12282238  1
  Co  Co95  1  -0.00338469  0.25224757  0.74822532  1
  Co  Co96  1  0.75116595  0.50147733  0.25201181  1
  Co  Co97  1  0.37525484  0.62857285  0.87587960  1
  Co  Co98  1  0.74794959  0.49971745  -0.00260016  1
  Co  Co99  1  0.74715716  -0.00036845  -0.00261873  1
  Co  Co100  1  0.24738283  0.00039814  0.25194166  1
  Co  Co101  1  0.87607629  0.12701962  0.37666517  1
  Co  Co102  1  0.00152053  0.75265334  0.50317222  1
  Co  Co103  1  0.49942487  0.25059550  0.24892574  1
  Co  Co104  1  0.62349666  0.62587853  0.37323442  1
  Co  Co105  1  0.12215327  0.62927513  0.37599366  1
  Co  Co106  1  0.74883167  0.25121403  0.00012768  1
  Co  Co107  1  0.87815560  0.62321387  0.37963939  1
  Co  Co108  1  0.37296074  0.37800929  0.62200942  1
  Co  Co109  1  0.12671298  0.13093601  0.87297982  1
  Co  Co110  1  0.37398820  0.37341305  0.87582258  1
  Co  Co111  1  0.87888211  0.11979882  0.62692576  1
  Co  Co112  1  0.87300115  0.38119270  0.62520101  1
  Co  Co113  1  0.75107052  0.50521931  0.74937567  1
  Co  Co114  1  0.37904893  0.62489792  0.62154985  1
  Co  Co115  1  0.74530488  0.50202838  0.49925608  1
  Co  Co116  1  0.75193807  0.24640091  0.74407830  1
  Co  Co117  1  0.11920729  0.62108201  0.62666217  1
  Co  Co118  1  0.62597852  0.12847852  0.37704890  1
  Co  Co119  1  0.87477220  0.12276073  0.12240305  1
  Co  Co120  1  0.12345227  0.87953327  0.62551226  1
  Co  Co121  1  0.00489594  0.49513263  0.49685502  1
  Co  Co122  1  0.50362925  0.75344196  0.50073732  1
  Co  Co123  1  -0.00075745  0.75071614  0.00239983  1
  Co  Co124  1  0.00021701  0.49561131  -0.00392408  1
  Co  Co125  1  0.12549581  0.86916942  0.87482678  1
  Co  Co126  1  0.50048996  -0.00310643  0.75026246  1
  Co  Co127  1  0.00345250  0.00188067  -0.00415414  1
