# generated using pymatgen
data_Fe45Co19
_symmetry_space_group_name_H-M   'P 1'
_cell_length_a   11.41614218
_cell_length_b   11.41543150
_cell_length_c   11.41597851
_cell_angle_alpha   90.00610332
_cell_angle_beta   90.00067691
_cell_angle_gamma   90.01287564
_symmetry_Int_Tables_number   1
_chemical_formula_structural   Fe45Co19
_chemical_formula_sum   'Fe90 Co38'
_cell_volume   1487.73243067
_cell_formula_units_Z   2
loop_
 _symmetry_equiv_pos_site_id
 _symmetry_equiv_pos_as_xyz
  1  'x, y, z'
loop_
 _atom_site_type_symbol
 _atom_site_label
 _atom_site_symmetry_multiplicity
 _atom_site_fract_x
 _atom_site_fract_y
 _atom_site_fract_z
 _atom_site_occupancy
  Fe  Fe0  1  0.37650536  0.12670827  0.87419482  1
  Fe  Fe1  1  0.24882001  0.25081032  0.00204170  1
  Fe  Fe2  1  0.37293215  0.62304785  0.12384264  1
  Fe  Fe3  1  0.12649327  0.62326094  0.12339091  1
  Fe  Fe4  1  0.87011985  0.12276235  0.62577523  1
  Fe  Fe5  1  0.74948610  0.49868808  0.75058367  1
  Fe  Fe6  1  0.24972908  -0.00060721  0.75089252  1
  Fe  Fe7  1  0.37508251  0.37517455  0.87640966  1
  Fe  Fe8  1  0.87786250  0.62370280  0.37552532  1
  Fe  Fe9  1  0.49821954  0.24981949  0.50135030  1
  Fe  Fe10  1  0.12497253  0.87616852  0.37629200  1
  Fe  Fe11  1  0.00218295  0.75465381  0.74953633  1
  Fe  Fe12  1  0.37502895  0.37389681  0.37369713  1
  Fe  Fe13  1  0.74936397  0.75078083  -0.00233559  1
  Fe  Fe14  1  0.00115113  0.75131439  -0.00088371  1
  Fe  Fe15  1  0.00274613  0.25078274  0.50353496  1
  Fe  Fe16  1  0.25072581  0.74800897  -0.00514280  1
  Fe  Fe17  1  0.75180790  0.50069338  0.25047789  1
  Fe  Fe18  1  -0.00338064  -0.00400328  0.50198015  1
  Fe  Fe19  1  -0.00007834  0.49961867  0.00051791  1
  Fe  Fe20  1  0.12604219  0.62606891  0.62471466  1
  Fe  Fe21  1  0.50077089  0.25123275  0.00529635  1
  Fe  Fe22  1  0.00048529  0.49941382  0.74695169  1
  Fe  Fe23  1  0.62390875  0.37431678  0.87539798  1
  Fe  Fe24  1  0.74932378  -0.00037512  0.25176211  1
  Fe  Fe25  1  0.74636737  0.75211844  0.75543756  1
  Fe  Fe26  1  0.49867034  0.74889134  -0.00305946  1
  Fe  Fe27  1  0.75026647  0.75041908  0.49622285  1
  Fe  Fe28  1  0.62327726  0.87534901  0.12484179  1
  Fe  Fe29  1  0.49913801  0.00240122  0.00156572  1
  Fe  Fe30  1  0.62531808  0.62375666  0.12452705  1
  Fe  Fe31  1  0.50093354  0.00116085  0.50058159  1
  Fe  Fe32  1  0.49994742  0.49932070  0.24879430  1
  Fe  Fe33  1  0.37326699  0.37556431  0.62483401  1
  Fe  Fe34  1  0.25254134  0.00090045  -0.00018702  1
  Fe  Fe35  1  0.50179915  0.74663410  0.50129502  1
  Fe  Fe36  1  0.37558689  0.12616584  0.62545753  1
  Fe  Fe37  1  0.87631349  0.12514779  0.37597592  1
  Fe  Fe38  1  0.87953869  0.37577412  0.37573535  1
  Fe  Fe39  1  0.37697868  0.62372255  0.37539948  1
  Fe  Fe40  1  0.75211015  0.49941032  -0.00169481  1
  Fe  Fe41  1  0.62402703  0.12782233  0.87252857  1
  Fe  Fe42  1  0.74938824  0.74851778  0.25058359  1
  Fe  Fe43  1  0.87659944  0.62646955  0.87426963  1
  Fe  Fe44  1  0.62370206  0.37656153  0.37563196  1
  Fe  Fe45  1  0.12337895  0.12538588  0.87613732  1
  Fe  Fe46  1  0.87455554  0.87497623  0.12587499  1
  Fe  Fe47  1  0.25046178  0.75000515  0.25144791  1
  Fe  Fe48  1  0.62325604  0.12577948  0.37422247  1
  Fe  Fe49  1  0.75017849  -0.00042308  -0.00275977  1
  Fe  Fe50  1  0.24797611  0.49925268  0.49855056  1
  Fe  Fe51  1  0.24930497  0.24935481  0.74915062  1
  Fe  Fe52  1  0.62387874  0.37337230  0.62419071  1
  Fe  Fe53  1  0.24823891  0.50120173  0.75360236  1
  Fe  Fe54  1  0.87800878  0.37160011  0.87324557  1
  Fe  Fe55  1  0.75006933  0.25075204  0.00024716  1
  Fe  Fe56  1  0.87274634  0.62775966  0.62609291  1
  Fe  Fe57  1  0.24392910  0.24881892  0.25112539  1
  Fe  Fe58  1  0.00169660  0.74865379  0.24981895  1
  Fe  Fe59  1  0.87304647  0.12505346  0.12531410  1
  Fe  Fe60  1  0.12249629  0.37300975  0.87536888  1
  Fe  Fe61  1  -0.00180573  0.00052736  0.00008287  1
  Fe  Fe62  1  0.74868749  0.24862813  0.50106275  1
  Fe  Fe63  1  0.87655297  0.37450936  0.12613035  1
  Fe  Fe64  1  -0.00021192  -0.00296427  0.74803343  1
  Fe  Fe65  1  -0.00091537  0.75155422  0.50116299  1
  Fe  Fe66  1  0.12755358  0.87651591  0.12337674  1
  Fe  Fe67  1  0.87514774  0.62555471  0.12408695  1
  Fe  Fe68  1  0.75011982  0.50113795  0.50052558  1
  Fe  Fe69  1  0.37565170  0.12641713  0.37186102  1
  Fe  Fe70  1  0.37445513  0.87343413  0.62706141  1
  Fe  Fe71  1  0.87561121  0.12714307  0.87204400  1
  Fe  Fe72  1  0.37479327  0.12670208  0.12973819  1
  Fe  Fe73  1  0.25043940  0.74941577  0.49837246  1
  Fe  Fe74  1  0.12705988  0.12405781  0.62241850  1
  Fe  Fe75  1  0.50099906  -0.00066021  0.74966190  1
  Fe  Fe76  1  0.62811232  0.87617919  0.62469736  1
  Fe  Fe77  1  0.62256331  0.87377994  0.37279846  1
  Fe  Fe78  1  0.49819515  0.49849889  0.00200008  1
  Fe  Fe79  1  0.87509338  0.37398350  0.62468095  1
  Fe  Fe80  1  0.37530043  0.87531897  0.12602414  1
  Fe  Fe81  1  0.50161333  0.50116975  0.74837746  1
  Fe  Fe82  1  0.24924495  0.75065470  0.75458163  1
  Fe  Fe83  1  0.00268795  0.00127329  0.24941157  1
  Fe  Fe84  1  0.37549349  0.62523736  0.62696244  1
  Fe  Fe85  1  0.24634511  0.49919859  0.25102154  1
  Fe  Fe86  1  0.00368298  0.24794414  0.24769169  1
  Fe  Fe87  1  0.37778703  0.87500023  0.37326305  1
  Fe  Fe88  1  0.74837379  0.25084698  0.24957911  1
  Fe  Fe89  1  0.25300930  -0.00003035  0.49835569  1
  Co  Co90  1  0.12830759  0.37555824  0.62505809  1
  Co  Co91  1  0.74994261  0.25181978  0.74920909  1
  Co  Co92  1  0.12121311  0.62454689  0.87448400  1
  Co  Co93  1  0.49958277  0.50055248  0.50176393  1
  Co  Co94  1  0.74926909  -0.00073896  0.75368464  1
  Co  Co95  1  0.12573094  0.87820237  0.87705923  1
  Co  Co96  1  0.62383854  0.62215916  0.87606879  1
  Co  Co97  1  0.12441265  0.37654073  0.12350727  1
  Co  Co98  1  0.24895547  0.50050652  -0.00323000  1
  Co  Co99  1  -0.00108659  0.24862447  0.00224514  1
  Co  Co100  1  0.87705997  0.87448710  0.87520777  1
  Co  Co101  1  0.12363597  0.62486295  0.37691896  1
  Co  Co102  1  0.49850908  0.74733155  0.24872409  1
  Co  Co103  1  0.00079709  0.50195544  0.24826927  1
  Co  Co104  1  0.12615724  0.12263838  0.12188870  1
  Co  Co105  1  0.62579120  0.12510902  0.62703358  1
  Co  Co106  1  0.24933332  -0.00033573  0.25147108  1
  Co  Co107  1  0.62803869  0.62591707  0.62550942  1
  Co  Co108  1  0.86862924  0.87402413  0.62646622  1
  Co  Co109  1  0.00103512  0.24853480  0.74542600  1
  Co  Co110  1  0.74945911  0.00012156  0.49577751  1
  Co  Co111  1  0.12912871  0.87498727  0.62323175  1
  Co  Co112  1  0.37101760  0.37456539  0.12705601  1
  Co  Co113  1  0.12117606  0.37536707  0.37654816  1
  Co  Co114  1  0.62124930  0.87711543  0.87717623  1
  Co  Co115  1  0.62707619  0.12371268  0.12542494  1
  Co  Co116  1  0.87670207  0.87515778  0.37190200  1
  Co  Co117  1  0.25092649  0.25034289  0.49955301  1
  Co  Co118  1  0.50325277  0.25192223  0.24745692  1
  Co  Co119  1  0.00032503  0.50118515  0.50436346  1
  Co  Co120  1  0.37844772  0.62358701  0.87300641  1
  Co  Co121  1  0.37547127  0.87600440  0.87361155  1
  Co  Co122  1  0.50232202  0.75043393  0.74969358  1
  Co  Co123  1  0.50016039  -0.00007489  0.24904418  1
  Co  Co124  1  0.62767089  0.37761097  0.12500911  1
  Co  Co125  1  0.62392175  0.62273777  0.37422008  1
  Co  Co126  1  0.49786732  0.25216866  0.74869924  1
  Co  Co127  1  0.12373667  0.12312970  0.38022166  1
