# generated using pymatgen
data_Fe45Co19
_symmetry_space_group_name_H-M   'P 1'
_cell_length_a   11.41665266
_cell_length_b   11.41588982
_cell_length_c   11.41567417
_cell_angle_alpha   89.99553994
_cell_angle_beta   90.00274951
_cell_angle_gamma   89.99642690
_symmetry_Int_Tables_number   1
_chemical_formula_structural   Fe45Co19
_chemical_formula_sum   'Fe90 Co38'
_cell_volume   1487.81906328
_cell_formula_units_Z   2
loop_
 _symmetry_equiv_pos_site_id
 _symmetry_equiv_pos_as_xyz
  1  'x, y, z'
loop_
 _atom_site_type_symbol
 _atom_site_label
 _atom_site_symmetry_multiplicity
 _atom_site_fract_x
 _atom_site_fract_y
 _atom_site_fract_z
 _atom_site_occupancy
  Fe  Fe0  1  0.37167206  0.12517748  0.62398711  1
  Fe  Fe1  1  0.62245458  0.37236007  0.87266510  1
  Fe  Fe2  1  0.12328075  0.37410336  0.87685645  1
  Fe  Fe3  1  0.24875711  0.50119501  0.75154082  1
  Fe  Fe4  1  0.74851387  0.25164019  0.00017401  1
  Fe  Fe5  1  0.00125668  0.50384406  0.74957075  1
  Fe  Fe6  1  0.25039412  0.25061242  0.75112376  1
  Fe  Fe7  1  0.74981917  0.00037701  0.75036772  1
  Fe  Fe8  1  0.37378620  0.37478278  0.62415948  1
  Fe  Fe9  1  0.12846627  0.12333099  0.12386412  1
  Fe  Fe10  1  0.12464223  0.87734219  0.37712858  1
  Fe  Fe11  1  0.87810814  0.87403428  0.87636123  1
  Fe  Fe12  1  0.37769687  0.87406767  0.87557846  1
  Fe  Fe13  1  0.87625215  0.37256126  0.37277307  1
  Fe  Fe14  1  0.24968491  0.49725652  0.49764992  1
  Fe  Fe15  1  -0.00096263  0.50033540  0.25070610  1
  Fe  Fe16  1  0.37281379  0.12510479  0.37357656  1
  Fe  Fe17  1  0.87457521  0.62366447  0.12554953  1
  Fe  Fe18  1  0.50567015  0.00006763  0.25120084  1
  Fe  Fe19  1  0.25162545  0.25421311  0.24478938  1
  Fe  Fe20  1  -0.00075183  0.00265031  0.74831234  1
  Fe  Fe21  1  0.49976214  0.50083039  0.49933330  1
  Fe  Fe22  1  0.00215701  0.74574393  0.74916262  1
  Fe  Fe23  1  0.12625111  0.87618681  0.62225789  1
  Fe  Fe24  1  0.37346438  0.12691782  0.87972734  1
  Fe  Fe25  1  0.87223438  0.62650360  0.37443465  1
  Fe  Fe26  1  0.49866616  0.00207236  0.74938094  1
  Fe  Fe27  1  0.87335234  0.12479028  0.37345672  1
  Fe  Fe28  1  -0.00026522  0.75067800  0.24935381  1
  Fe  Fe29  1  0.12507433  0.37409501  0.62511441  1
  Fe  Fe30  1  0.49989404  0.24700983  0.24613158  1
  Fe  Fe31  1  0.62304104  0.37352391  0.37340473  1
  Fe  Fe32  1  -0.00048505  0.24663710  0.74801484  1
  Fe  Fe33  1  0.37569712  0.62560556  0.12466210  1
  Fe  Fe34  1  0.50025489  -0.00113340  0.49776751  1
  Fe  Fe35  1  0.74962726  0.25066657  0.49966428  1
  Fe  Fe36  1  0.50116600  0.00204805  0.00171872  1
  Fe  Fe37  1  0.25097100  0.75248854  -0.00081988  1
  Fe  Fe38  1  0.62591312  0.62616640  0.62513888  1
  Fe  Fe39  1  0.62385644  0.12782604  0.87381305  1
  Fe  Fe40  1  0.62585388  0.12655408  0.62589643  1
  Fe  Fe41  1  0.49750485  0.25051561  0.50094910  1
  Fe  Fe42  1  0.87073865  0.12475175  0.12759773  1
  Fe  Fe43  1  0.62886747  0.62966013  0.37380642  1
  Fe  Fe44  1  0.00105379  0.24792982  0.00295612  1
  Fe  Fe45  1  0.62369576  0.37454711  0.12670365  1
  Fe  Fe46  1  0.87557100  0.37414961  0.12799313  1
  Fe  Fe47  1  0.49788236  0.75070137  0.49686035  1
  Fe  Fe48  1  0.75113112  0.50006912  0.75006984  1
  Fe  Fe49  1  0.75163090  0.74966196  0.74958767  1
  Fe  Fe50  1  0.62426953  0.37318013  0.62715289  1
  Fe  Fe51  1  0.87537416  0.87819118  0.12506290  1
  Fe  Fe52  1  0.25055459  0.75193769  0.25119054  1
  Fe  Fe53  1  0.74898573  -0.00093070  -0.00046691  1
  Fe  Fe54  1  0.50126908  0.50349772  -0.00212359  1
  Fe  Fe55  1  0.24946692  0.49699500  0.00145190  1
  Fe  Fe56  1  0.12595464  0.62471269  0.12476242  1
  Fe  Fe57  1  0.87621476  0.37366775  0.62464376  1
  Fe  Fe58  1  0.25071568  0.49663476  0.24915049  1
  Fe  Fe59  1  0.25069706  -0.00257097  0.75196347  1
  Fe  Fe60  1  0.12579653  0.62507795  0.37482030  1
  Fe  Fe61  1  0.37277478  0.87310892  0.62420755  1
  Fe  Fe62  1  0.50097202  0.50212715  0.25152372  1
  Fe  Fe63  1  0.74786132  -0.00069159  0.49850832  1
  Fe  Fe64  1  -0.00017396  0.50175198  0.00013807  1
  Fe  Fe65  1  0.87334867  0.87524351  0.37542382  1
  Fe  Fe66  1  0.12242881  0.87581768  0.12262618  1
  Fe  Fe67  1  0.36990839  0.62750592  0.62506502  1
  Fe  Fe68  1  0.62373642  0.87424293  0.62457436  1
  Fe  Fe69  1  0.25055837  -0.00298764  0.24887040  1
  Fe  Fe70  1  0.12083311  0.87585914  0.87853740  1
  Fe  Fe71  1  0.75072410  0.75053611  0.00043047  1
  Fe  Fe72  1  0.87608634  0.37506065  0.87478418  1
  Fe  Fe73  1  0.37739255  0.37359474  0.87796793  1
  Fe  Fe74  1  0.49852509  0.74732122  0.75239314  1
  Fe  Fe75  1  0.87421467  0.12534856  0.87483620  1
  Fe  Fe76  1  0.00050323  0.50142091  0.50013565  1
  Fe  Fe77  1  0.87636124  0.87680114  0.62313221  1
  Fe  Fe78  1  0.00006101  0.74835425  0.50068374  1
  Fe  Fe79  1  0.62432006  0.62905339  0.12617933  1
  Fe  Fe80  1  0.74982618  0.49967796  0.49913895  1
  Fe  Fe81  1  0.12395425  0.37209473  0.37260361  1
  Fe  Fe82  1  0.12750407  0.12400898  0.87768116  1
  Fe  Fe83  1  0.62329667  0.87398553  0.87559804  1
  Fe  Fe84  1  0.00423512  0.24360023  0.50049606  1
  Fe  Fe85  1  0.37311518  0.62470554  0.37394512  1
  Fe  Fe86  1  0.38015095  0.87451909  0.12586681  1
  Fe  Fe87  1  0.49862548  0.50208825  0.75035679  1
  Fe  Fe88  1  0.00049530  0.00165281  0.25060755  1
  Fe  Fe89  1  0.74857187  0.50006946  -0.00003992  1
  Co  Co90  1  0.87477910  0.62352928  0.62487530  1
  Co  Co91  1  0.12062722  0.37690319  0.12584950  1
  Co  Co92  1  0.62758108  0.62609980  0.87350723  1
  Co  Co93  1  0.13074836  0.12463130  0.37080010  1
  Co  Co94  1  0.62915665  0.12387887  0.12438580  1
  Co  Co95  1  0.49849224  0.75072675  0.25361820  1
  Co  Co96  1  0.37527537  0.87845387  0.37373164  1
  Co  Co97  1  0.74604302  -0.00149182  0.25207339  1
  Co  Co98  1  -0.00120441  0.74785479  0.00276396  1
  Co  Co99  1  0.87154459  0.12393435  0.62336878  1
  Co  Co100  1  0.12556853  0.62492109  0.87853512  1
  Co  Co101  1  0.37176266  0.62438298  0.87573737  1
  Co  Co102  1  0.49640395  0.24900238  0.74874637  1
  Co  Co103  1  0.37727094  0.37346216  0.37323290  1
  Co  Co104  1  0.24848115  0.25086177  0.49937721  1
  Co  Co105  1  0.24969257  0.25387511  0.00421942  1
  Co  Co106  1  0.25186986  -0.00485629  -0.00040666  1
  Co  Co107  1  0.00114760  0.00425193  0.49892155  1
  Co  Co108  1  0.74950414  0.49939491  0.25081353  1
  Co  Co109  1  0.62236093  0.87317085  0.12413840  1
  Co  Co110  1  0.62425059  0.12772649  0.37673211  1
  Co  Co111  1  0.00148063  0.24635597  0.24820004  1
  Co  Co112  1  0.12917602  0.62542430  0.62234522  1
  Co  Co113  1  0.24688740  0.75244278  0.75406720  1
  Co  Co114  1  0.74800495  0.25097921  0.25066319  1
  Co  Co115  1  0.75243242  0.75238111  0.24555425  1
  Co  Co116  1  0.37281802  0.12168411  0.12512941  1
  Co  Co117  1  0.49911776  0.74792815  -0.00255173  1
  Co  Co118  1  0.62770085  0.87028498  0.37512477  1
  Co  Co119  1  -0.00150284  0.00431463  0.00188862  1
  Co  Co120  1  0.75157272  0.75011254  0.50342970  1
  Co  Co121  1  0.50060444  0.24732380  0.00370990  1
  Co  Co122  1  0.75178312  0.24995726  0.75026821  1
  Co  Co123  1  0.25065659  0.75200659  0.49544689  1
  Co  Co124  1  0.38104065  0.37857044  0.12377056  1
  Co  Co125  1  0.12943615  0.12222359  0.62716806  1
  Co  Co126  1  0.87487055  0.62514525  0.87529910  1
  Co  Co127  1  0.25073699  -0.00003156  0.49951203  1
