# generated using pymatgen
data_Fe45Co19
_symmetry_space_group_name_H-M   'P 1'
_cell_length_a   11.41680682
_cell_length_b   11.41559700
_cell_length_c   11.41499297
_cell_angle_alpha   90.00211099
_cell_angle_beta   89.99701943
_cell_angle_gamma   90.00583063
_symmetry_Int_Tables_number   1
_chemical_formula_structural   Fe45Co19
_chemical_formula_sum   'Fe90 Co38'
_cell_volume   1487.71220803
_cell_formula_units_Z   2
loop_
 _symmetry_equiv_pos_site_id
 _symmetry_equiv_pos_as_xyz
  1  'x, y, z'
loop_
 _atom_site_type_symbol
 _atom_site_label
 _atom_site_symmetry_multiplicity
 _atom_site_fract_x
 _atom_site_fract_y
 _atom_site_fract_z
 _atom_site_occupancy
  Fe  Fe0  1  0.87367557  0.37627766  0.12899335  1
  Fe  Fe1  1  0.50106598  0.00152708  0.74638609  1
  Fe  Fe2  1  0.37299055  0.37735682  0.12366942  1
  Fe  Fe3  1  0.37719841  0.12474656  0.87488420  1
  Fe  Fe4  1  0.00084751  0.74964046  0.50264694  1
  Fe  Fe5  1  0.12307483  0.87446161  0.87218972  1
  Fe  Fe6  1  0.25093161  0.75131325  -0.00028947  1
  Fe  Fe7  1  0.62640468  0.12645729  0.62029714  1
  Fe  Fe8  1  0.50258226  0.75088644  0.50254199  1
  Fe  Fe9  1  -0.00049945  0.25018069  0.00073777  1
  Fe  Fe10  1  0.12536076  0.37629317  0.12619069  1
  Fe  Fe11  1  0.24983815  0.50048497  0.74920063  1
  Fe  Fe12  1  0.62597227  0.62462422  0.87371978  1
  Fe  Fe13  1  0.49974162  0.25043783  0.00260374  1
  Fe  Fe14  1  -0.00196796  0.24736786  0.25201506  1
  Fe  Fe15  1  0.87226248  0.12388630  0.12468604  1
  Fe  Fe16  1  0.12498164  0.37344783  0.87271930  1
  Fe  Fe17  1  0.00133014  0.00561115  0.50385239  1
  Fe  Fe18  1  0.75091277  0.24973242  -0.00157926  1
  Fe  Fe19  1  0.75080924  0.49851576  -0.00019445  1
  Fe  Fe20  1  0.36974055  0.62593427  0.62011211  1
  Fe  Fe21  1  0.50154916  0.24919286  0.74752558  1
  Fe  Fe22  1  0.50286508  0.74875118  0.74554250  1
  Fe  Fe23  1  0.25144627  0.50107608  0.25358428  1
  Fe  Fe24  1  0.49926511  0.49910053  0.50093614  1
  Fe  Fe25  1  0.37431597  0.62561775  0.87514655  1
  Fe  Fe26  1  0.12599511  0.87466133  0.62674415  1
  Fe  Fe27  1  0.74761423  0.74879257  0.25258393  1
  Fe  Fe28  1  0.25073699  0.75146147  0.25590013  1
  Fe  Fe29  1  -0.00002139  0.00102135  0.24986998  1
  Fe  Fe30  1  0.25077601  -0.00052753  -0.00094125  1
  Fe  Fe31  1  0.37768643  0.37357130  0.37456686  1
  Fe  Fe32  1  0.50024727  0.50321607  0.24931299  1
  Fe  Fe33  1  0.87596664  0.87526735  0.87153525  1
  Fe  Fe34  1  0.50009518  0.50215522  0.00256355  1
  Fe  Fe35  1  0.50174866  0.00488910  0.24907895  1
  Fe  Fe36  1  0.12601414  0.12451775  0.12650556  1
  Fe  Fe37  1  -0.00147943  0.00013681  -0.00013593  1
  Fe  Fe38  1  0.87169248  0.62612380  0.62514592  1
  Fe  Fe39  1  0.12504350  0.37132387  0.62556444  1
  Fe  Fe40  1  0.12563607  0.87564463  0.12627616  1
  Fe  Fe41  1  0.74736301  0.75112664  0.50012348  1
  Fe  Fe42  1  0.25063418  -0.00244609  0.49488337  1
  Fe  Fe43  1  0.49953292  0.50145864  0.74683304  1
  Fe  Fe44  1  0.87413319  0.87497188  0.12746574  1
  Fe  Fe45  1  0.12489885  0.62605231  0.87207716  1
  Fe  Fe46  1  0.37350788  0.12502783  0.62199307  1
  Fe  Fe47  1  -0.00077765  0.49959828  0.50117605  1
  Fe  Fe48  1  0.62399504  0.87728593  0.87386855  1
  Fe  Fe49  1  0.00076544  0.74830982  0.25115315  1
  Fe  Fe50  1  0.12702761  0.62514628  0.38042632  1
  Fe  Fe51  1  0.25189752  0.24930016  0.25159648  1
  Fe  Fe52  1  0.87296888  0.87559546  0.62608767  1
  Fe  Fe53  1  0.87399846  0.62670106  0.87287841  1
  Fe  Fe54  1  0.37479905  0.12485730  0.12478188  1
  Fe  Fe55  1  0.00002013  0.49993588  0.00034700  1
  Fe  Fe56  1  0.87588458  0.37157614  0.87194978  1
  Fe  Fe57  1  0.75171862  0.49924614  0.49554697  1
  Fe  Fe58  1  0.12857343  0.62411041  0.12506974  1
  Fe  Fe59  1  0.12160547  0.37288786  0.37502355  1
  Fe  Fe60  1  0.75034744  0.49890772  0.74966725  1
  Fe  Fe61  1  0.62312582  0.37597028  0.87378489  1
  Fe  Fe62  1  0.25175019  -0.00132705  0.25456688  1
  Fe  Fe63  1  0.37518764  0.37508841  0.87484902  1
  Fe  Fe64  1  0.87131580  0.62395497  0.12685075  1
  Fe  Fe65  1  0.12278925  0.12556293  0.87096093  1
  Fe  Fe66  1  0.74866867  0.75353978  0.00059687  1
  Fe  Fe67  1  0.74877549  0.00230105  0.49752369  1
  Fe  Fe68  1  -0.00210775  0.50249932  0.25252596  1
  Fe  Fe69  1  0.62417073  0.12274162  0.87929000  1
  Fe  Fe70  1  0.74889494  0.24724779  0.25535980  1
  Fe  Fe71  1  0.50118268  0.75015985  0.00264399  1
  Fe  Fe72  1  0.74653520  0.00203847  0.25193971  1
  Fe  Fe73  1  0.50093009  0.74457604  0.24986884  1
  Fe  Fe74  1  0.37662469  0.87462459  0.12735905  1
  Fe  Fe75  1  0.62127230  0.87611765  0.37563147  1
  Fe  Fe76  1  -0.00054140  0.74956344  0.00100288  1
  Fe  Fe77  1  0.75113509  0.00305976  0.75038008  1
  Fe  Fe78  1  0.87753034  0.87579228  0.37598841  1
  Fe  Fe79  1  0.87237610  0.36747323  0.62317650  1
  Fe  Fe80  1  0.62797978  0.37370066  0.62378346  1
  Fe  Fe81  1  -0.00080337  0.50056804  0.74660379  1
  Fe  Fe82  1  0.37359219  0.37373905  0.62621828  1
  Fe  Fe83  1  0.24984910  0.25002302  0.49751436  1
  Fe  Fe84  1  0.37775572  0.87529324  0.87318835  1
  Fe  Fe85  1  0.62273741  0.37387875  0.37491849  1
  Fe  Fe86  1  0.25075492  -0.00016906  0.75087119  1
  Fe  Fe87  1  0.37482665  0.87509353  0.62465755  1
  Fe  Fe88  1  0.62721894  0.37530460  0.12724455  1
  Fe  Fe89  1  0.24921245  0.24995578  -0.00082882  1
  Co  Co90  1  0.00112842  0.24553606  0.49977289  1
  Co  Co91  1  0.38271230  0.87512272  0.37364300  1
  Co  Co92  1  0.61788139  0.12688494  0.37892323  1
  Co  Co93  1  0.13032831  0.12576788  0.62632319  1
  Co  Co94  1  0.74743811  0.75095621  0.74864343  1
  Co  Co95  1  0.62749817  0.12568140  0.12159440  1
  Co  Co96  1  0.62733136  0.87856104  0.62565168  1
  Co  Co97  1  0.75000673  0.50058454  0.25543897  1
  Co  Co98  1  0.49873390  0.25313401  0.50314247  1
  Co  Co99  1  0.49996028  0.24904614  0.24649104  1
  Co  Co100  1  0.62329440  0.87580879  0.12730090  1
  Co  Co101  1  0.49866771  -0.00131485  0.00300557  1
  Co  Co102  1  0.37449483  0.62487217  0.38017373  1
  Co  Co103  1  0.87809389  0.37407056  0.37566564  1
  Co  Co104  1  0.12577481  0.12445303  0.37335603  1
  Co  Co105  1  0.62889306  0.62352934  0.12384687  1
  Co  Co106  1  0.11870596  0.87689352  0.37490610  1
  Co  Co107  1  0.87052476  0.12964684  0.62516724  1
  Co  Co108  1  -0.00156685  0.00118401  0.74621276  1
  Co  Co109  1  0.74553602  0.24784536  0.75251314  1
  Co  Co110  1  -0.00090016  0.24787976  0.74632782  1
  Co  Co111  1  0.24958981  0.75714938  0.49579474  1
  Co  Co112  1  0.37159476  0.62492039  0.12500140  1
  Co  Co113  1  0.87682569  0.12601287  0.87456303  1
  Co  Co114  1  0.62783906  0.62123693  0.62386570  1
  Co  Co115  1  0.24835023  0.49981926  -0.00273171  1
  Co  Co116  1  0.75221826  -0.00298447  0.00025689  1
  Co  Co117  1  0.62374414  0.62387951  0.37847677  1
  Co  Co118  1  0.49990816  -0.00181593  0.50194893  1
  Co  Co119  1  0.24936025  0.49363622  0.49893594  1
  Co  Co120  1  0.25076022  0.75047663  0.74920514  1
  Co  Co121  1  -0.00033378  0.74882224  0.74639494  1
  Co  Co122  1  0.25327900  0.24971657  0.75089976  1
  Co  Co123  1  0.37842154  0.12609118  0.37766542  1
  Co  Co124  1  0.75095555  0.24833799  0.49273956  1
  Co  Co125  1  0.87765165  0.12156554  0.37560604  1
  Co  Co126  1  0.12982069  0.62590057  0.62223339  1
  Co  Co127  1  0.87539659  0.62789284  0.37693544  1
