# generated using pymatgen
data_Fe45Co19
_symmetry_space_group_name_H-M   'P 1'
_cell_length_a   11.41456634
_cell_length_b   11.41438237
_cell_length_c   11.41580976
_cell_angle_alpha   90.01085835
_cell_angle_beta   90.00150528
_cell_angle_gamma   89.99164300
_symmetry_Int_Tables_number   1
_chemical_formula_structural   Fe45Co19
_chemical_formula_sum   'Fe90 Co38'
_cell_volume   1487.36837648
_cell_formula_units_Z   2
loop_
 _symmetry_equiv_pos_site_id
 _symmetry_equiv_pos_as_xyz
  1  'x, y, z'
loop_
 _atom_site_type_symbol
 _atom_site_label
 _atom_site_symmetry_multiplicity
 _atom_site_fract_x
 _atom_site_fract_y
 _atom_site_fract_z
 _atom_site_occupancy
  Fe  Fe0  1  0.62512397  0.37377917  0.12533484  1
  Fe  Fe1  1  0.87245637  0.87581025  0.12444509  1
  Fe  Fe2  1  0.12847749  0.37241399  0.62295983  1
  Fe  Fe3  1  0.74984936  0.24995104  -0.00022698  1
  Fe  Fe4  1  0.87345142  0.37695799  0.62687132  1
  Fe  Fe5  1  0.25121270  0.75246031  0.25164302  1
  Fe  Fe6  1  0.62021902  0.62829962  0.87346505  1
  Fe  Fe7  1  0.49892195  0.49889047  0.50037457  1
  Fe  Fe8  1  0.37445868  0.62596711  0.12505022  1
  Fe  Fe9  1  0.25172785  0.24993226  0.49250474  1
  Fe  Fe10  1  0.25150301  0.74893128  -0.00283337  1
  Fe  Fe11  1  0.75030054  0.24991133  0.49916529  1
  Fe  Fe12  1  0.49892531  0.00113412  0.74699772  1
  Fe  Fe13  1  0.49777811  0.24916626  0.24840948  1
  Fe  Fe14  1  0.74864894  -0.00222034  -0.00202004  1
  Fe  Fe15  1  0.00040113  0.50237823  0.25031788  1
  Fe  Fe16  1  0.25014948  0.50081089  0.75367125  1
  Fe  Fe17  1  0.49850473  0.49765624  0.74997418  1
  Fe  Fe18  1  0.12585823  0.62567386  0.12449160  1
  Fe  Fe19  1  0.87750192  0.12429801  0.12178037  1
  Fe  Fe20  1  0.00235013  0.00096568  0.74801228  1
  Fe  Fe21  1  0.24896165  0.74935632  0.49903715  1
  Fe  Fe22  1  0.24729243  0.24659081  -0.00012208  1
  Fe  Fe23  1  0.37489971  0.37491191  0.87762702  1
  Fe  Fe24  1  0.00190608  0.50105114  0.50035802  1
  Fe  Fe25  1  0.37162930  0.87510889  0.62504119  1
  Fe  Fe26  1  0.75102368  0.50051789  0.49893229  1
  Fe  Fe27  1  0.37599693  0.62389406  0.37325623  1
  Fe  Fe28  1  0.74834610  0.75281725  -0.00320650  1
  Fe  Fe29  1  0.50025616  0.50122041  0.00144820  1
  Fe  Fe30  1  0.87783958  0.37412824  0.37344573  1
  Fe  Fe31  1  0.12701330  0.37491036  0.12635555  1
  Fe  Fe32  1  0.49879011  -0.00403802  0.24720667  1
  Fe  Fe33  1  0.62706371  0.87251664  0.37216465  1
  Fe  Fe34  1  0.87608543  0.62811982  0.37734458  1
  Fe  Fe35  1  0.50118664  0.00018769  0.50225484  1
  Fe  Fe36  1  0.49862842  0.25112277  0.50153079  1
  Fe  Fe37  1  0.74908998  0.00021589  0.49952107  1
  Fe  Fe38  1  0.37555454  0.87653348  0.37644314  1
  Fe  Fe39  1  0.37893924  0.87234887  0.87380027  1
  Fe  Fe40  1  0.12574357  0.37498011  0.87692873  1
  Fe  Fe41  1  0.12968367  0.88083010  0.12428407  1
  Fe  Fe42  1  0.00220355  0.50175667  0.74887777  1
  Fe  Fe43  1  0.75300366  0.00029848  0.25104540  1
  Fe  Fe44  1  0.62616410  0.62380834  0.62569387  1
  Fe  Fe45  1  0.87385235  0.12571560  0.62513175  1
  Fe  Fe46  1  0.00165089  0.49860381  0.00052406  1
  Fe  Fe47  1  0.37646762  0.12590335  0.87489842  1
  Fe  Fe48  1  0.00278721  0.74849191  0.50320603  1
  Fe  Fe49  1  0.75031377  0.50177291  0.25014790  1
  Fe  Fe50  1  0.75004685  0.00028498  0.75148099  1
  Fe  Fe51  1  0.87459890  0.62510503  0.12207290  1
  Fe  Fe52  1  0.75033600  0.24839775  0.24958609  1
  Fe  Fe53  1  0.87504920  0.37538620  0.87505147  1
  Fe  Fe54  1  -0.00136046  0.75244092  0.24836515  1
  Fe  Fe55  1  0.12350193  0.87564836  0.87466763  1
  Fe  Fe56  1  0.24824328  0.00306641  0.75195424  1
  Fe  Fe57  1  0.62407150  0.62780938  0.37228380  1
  Fe  Fe58  1  0.00093575  0.75313363  0.00072853  1
  Fe  Fe59  1  0.37230460  0.37558903  0.12620278  1
  Fe  Fe60  1  0.12234470  0.87564692  0.37528551  1
  Fe  Fe61  1  0.87915894  0.12499276  0.87713473  1
  Fe  Fe62  1  0.49994029  0.75018789  0.50141752  1
  Fe  Fe63  1  0.49891276  0.25133572  0.74763401  1
  Fe  Fe64  1  0.24877632  0.49890329  0.49552369  1
  Fe  Fe65  1  0.36946727  0.12084898  0.12758071  1
  Fe  Fe66  1  0.24824579  0.00198469  0.49800871  1
  Fe  Fe67  1  0.87464256  0.37561590  0.12531680  1
  Fe  Fe68  1  0.24901038  0.49899718  0.25188580  1
  Fe  Fe69  1  0.74868263  0.24928112  0.75198966  1
  Fe  Fe70  1  0.37195345  0.12722414  0.62421072  1
  Fe  Fe71  1  0.75045386  0.74975484  0.74942566  1
  Fe  Fe72  1  0.24968611  0.74793106  0.75188115  1
  Fe  Fe73  1  0.87496761  0.87364329  0.62389246  1
  Fe  Fe74  1  0.62275503  0.12429463  0.87618195  1
  Fe  Fe75  1  0.00314638  0.24893797  0.74880257  1
  Fe  Fe76  1  0.62719199  0.37504700  0.62645744  1
  Fe  Fe77  1  0.87867466  0.12501181  0.37610976  1
  Fe  Fe78  1  0.37215362  0.62366340  0.62518041  1
  Fe  Fe79  1  0.62250322  0.12482393  0.37385649  1
  Fe  Fe80  1  0.62489514  0.63010255  0.12779350  1
  Fe  Fe81  1  0.50080643  -0.00436319  0.00334658  1
  Fe  Fe82  1  0.00172099  0.00107474  0.50280838  1
  Fe  Fe83  1  0.74733395  0.49974477  -0.00222256  1
  Fe  Fe84  1  0.49949613  0.24794658  0.00319414  1
  Fe  Fe85  1  0.00232955  0.74857090  0.74763175  1
  Fe  Fe86  1  0.00379311  0.24620678  0.24717410  1
  Fe  Fe87  1  0.62293150  0.37504405  0.37291714  1
  Fe  Fe88  1  0.62529954  0.87569793  0.62685073  1
  Fe  Fe89  1  0.87729933  0.62571024  0.87478589  1
  Co  Co90  1  0.87684383  0.87404659  0.87236631  1
  Co  Co91  1  0.24866907  0.24831308  0.75478275  1
  Co  Co92  1  0.00246531  0.25245539  0.00222885  1
  Co  Co93  1  0.25302567  -0.00006358  -0.00704284  1
  Co  Co94  1  0.12741062  0.11877901  0.12272261  1
  Co  Co95  1  0.12476440  0.62725246  0.37298961  1
  Co  Co96  1  0.75589501  0.74924745  0.25106971  1
  Co  Co97  1  0.74844535  0.50161195  0.75354862  1
  Co  Co98  1  0.12886610  0.62351863  0.62476005  1
  Co  Co99  1  0.12057217  0.12302019  0.87885200  1
  Co  Co100  1  0.62565225  0.12606525  0.62542449  1
  Co  Co101  1  0.24874971  0.00120761  0.25597508  1
  Co  Co102  1  -0.00147121  -0.00362607  0.00031173  1
  Co  Co103  1  0.62598501  0.12332046  0.12536305  1
  Co  Co104  1  0.37819156  0.62548155  0.87548102  1
  Co  Co105  1  0.74742110  0.75011206  0.50167215  1
  Co  Co106  1  0.12889440  0.12839185  0.62297357  1
  Co  Co107  1  0.25004736  0.50166735  -0.00040557  1
  Co  Co108  1  0.49551906  0.75298802  0.24974355  1
  Co  Co109  1  0.62247565  0.37223198  0.87629459  1
  Co  Co110  1  0.62107547  0.87536411  0.87184239  1
  Co  Co111  1  0.49821639  0.74962529  0.74448382  1
  Co  Co112  1  -0.00201908  0.25060584  0.50293619  1
  Co  Co113  1  0.62889298  0.87265447  0.12867427  1
  Co  Co114  1  0.12120815  0.37331092  0.37417539  1
  Co  Co115  1  0.50077681  0.50118101  0.24706275  1
  Co  Co116  1  -0.00136699  -0.00169399  0.24883031  1
  Co  Co117  1  0.12064864  0.12477532  0.37575521  1
  Co  Co118  1  0.36925345  0.87655963  0.12409519  1
  Co  Co119  1  0.37026340  0.37467085  0.62477723  1
  Co  Co120  1  0.37976135  0.12259225  0.37455940  1
  Co  Co121  1  0.87680189  0.87404929  0.37936010  1
  Co  Co122  1  0.37805011  0.37686848  0.37175968  1
  Co  Co123  1  0.24891480  0.24771560  0.25268033  1
  Co  Co124  1  0.12271185  0.62539492  0.87731156  1
  Co  Co125  1  0.87464743  0.62458117  0.62512250  1
  Co  Co126  1  0.49925973  0.75328847  0.00406743  1
  Co  Co127  1  0.12798663  0.87486810  0.62538079  1
