# generated using pymatgen
data_Fe45Co19
_symmetry_space_group_name_H-M   'P 1'
_cell_length_a   11.41408683
_cell_length_b   11.41669087
_cell_length_c   11.41624297
_cell_angle_alpha   90.00108983
_cell_angle_beta   89.99449196
_cell_angle_gamma   89.99684915
_symmetry_Int_Tables_number   1
_chemical_formula_structural   Fe45Co19
_chemical_formula_sum   'Fe90 Co38'
_cell_volume   1487.66317990
_cell_formula_units_Z   2
loop_
 _symmetry_equiv_pos_site_id
 _symmetry_equiv_pos_as_xyz
  1  'x, y, z'
loop_
 _atom_site_type_symbol
 _atom_site_label
 _atom_site_symmetry_multiplicity
 _atom_site_fract_x
 _atom_site_fract_y
 _atom_site_fract_z
 _atom_site_occupancy
  Fe  Fe0  1  0.50069024  0.49931988  0.24826188  1
  Fe  Fe1  1  0.37270366  0.37577331  0.12391994  1
  Fe  Fe2  1  0.12228511  0.12569299  0.37504784  1
  Fe  Fe3  1  0.24884362  0.49921667  0.75173097  1
  Fe  Fe4  1  -0.00016178  0.50207702  -0.00044699  1
  Fe  Fe5  1  0.37707544  0.37650862  0.87478608  1
  Fe  Fe6  1  0.50095396  0.50085297  0.00158627  1
  Fe  Fe7  1  0.50042712  0.00068628  0.50202238  1
  Fe  Fe8  1  -0.00354890  0.49894695  0.25130197  1
  Fe  Fe9  1  0.36849924  0.62410568  0.12626415  1
  Fe  Fe10  1  0.12426486  0.62498621  0.62576484  1
  Fe  Fe11  1  0.12172806  0.37714183  0.62561621  1
  Fe  Fe12  1  0.75041493  0.25133950  0.49917092  1
  Fe  Fe13  1  0.25114034  0.24997755  0.75042960  1
  Fe  Fe14  1  0.37685400  0.12562539  0.37604709  1
  Fe  Fe15  1  0.75360089  0.25282297  0.25142992  1
  Fe  Fe16  1  0.37500400  0.62375032  0.87646645  1
  Fe  Fe17  1  0.50410945  0.49721435  0.50237871  1
  Fe  Fe18  1  0.86732521  0.87859757  0.12452145  1
  Fe  Fe19  1  0.37529962  0.62324151  0.37364384  1
  Fe  Fe20  1  0.12053141  0.87880331  0.87739789  1
  Fe  Fe21  1  0.24971219  0.25006471  0.25085289  1
  Fe  Fe22  1  0.12496114  0.87479975  0.62396598  1
  Fe  Fe23  1  0.37668175  0.87567744  0.37345723  1
  Fe  Fe24  1  0.49960348  0.75061067  0.50066837  1
  Fe  Fe25  1  0.25066877  0.24877634  -0.00242967  1
  Fe  Fe26  1  0.50271827  0.74563881  0.74707489  1
  Fe  Fe27  1  -0.00170310  0.74903323  0.50034528  1
  Fe  Fe28  1  0.75117423  0.75052880  0.49895286  1
  Fe  Fe29  1  0.37250568  0.87705769  0.12499575  1
  Fe  Fe30  1  0.62334200  0.12826884  0.37502968  1
  Fe  Fe31  1  0.74982186  0.49814010  -0.00219210  1
  Fe  Fe32  1  0.12529856  0.62620723  0.87637948  1
  Fe  Fe33  1  0.25093480  0.25100385  0.50181095  1
  Fe  Fe34  1  0.62428460  0.37352894  0.87421831  1
  Fe  Fe35  1  0.24672374  0.49910379  0.49776981  1
  Fe  Fe36  1  0.74963302  0.00021647  0.49682458  1
  Fe  Fe37  1  0.87713684  0.37600036  0.87616717  1
  Fe  Fe38  1  0.87818293  0.11927602  0.87680347  1
  Fe  Fe39  1  -0.00080916  0.00127174  0.24799747  1
  Fe  Fe40  1  0.62868798  0.37291324  0.12504181  1
  Fe  Fe41  1  -0.00165278  0.00205415  0.50268837  1
  Fe  Fe42  1  0.25006890  0.75224757  0.75260861  1
  Fe  Fe43  1  0.50514970  0.50167095  0.74679705  1
  Fe  Fe44  1  0.25029752  0.75137104  0.49691319  1
  Fe  Fe45  1  0.50748533  0.00275739  0.00208133  1
  Fe  Fe46  1  0.87666797  0.37750208  0.62408967  1
  Fe  Fe47  1  -0.00042918  0.75174317  0.00243114  1
  Fe  Fe48  1  0.25140802  -0.00236615  0.49838692  1
  Fe  Fe49  1  0.86697871  0.12174390  0.12250076  1
  Fe  Fe50  1  0.37433571  0.12315007  0.12574777  1
  Fe  Fe51  1  0.87806514  0.12797146  0.37519741  1
  Fe  Fe52  1  0.87275857  0.62287489  0.62761233  1
  Fe  Fe53  1  0.12907960  0.62390511  0.12624338  1
  Fe  Fe54  1  -0.00181426  0.75087669  0.75026434  1
  Fe  Fe55  1  0.50082751  0.74930350  0.00260450  1
  Fe  Fe56  1  0.50296696  0.24799476  0.00183197  1
  Fe  Fe57  1  0.62813159  0.12660093  0.62632250  1
  Fe  Fe58  1  0.62577919  0.62541009  0.37564107  1
  Fe  Fe59  1  0.50530608  -0.00060156  0.24888017  1
  Fe  Fe60  1  0.37789866  0.12499479  0.87442752  1
  Fe  Fe61  1  0.87568726  0.87425481  0.37306628  1
  Fe  Fe62  1  0.75310689  0.25078483  0.75241981  1
  Fe  Fe63  1  0.12210705  0.37298778  0.87549076  1
  Fe  Fe64  1  0.37727154  0.37439290  0.37711571  1
  Fe  Fe65  1  0.13020467  0.87730879  0.12525125  1
  Fe  Fe66  1  0.12438125  0.37639095  0.12452682  1
  Fe  Fe67  1  0.37936098  0.87515147  0.87584002  1
  Fe  Fe68  1  0.62542832  0.87353291  0.62455000  1
  Fe  Fe69  1  0.50031600  0.25068725  0.24883925  1
  Fe  Fe70  1  0.49981882  0.00071945  0.74608187  1
  Fe  Fe71  1  0.75333547  0.49817754  0.25324233  1
  Fe  Fe72  1  0.62856303  0.62575818  0.12456714  1
  Fe  Fe73  1  0.12838869  0.12270165  0.62603493  1
  Fe  Fe74  1  0.74830440  0.75491376  -0.00523846  1
  Fe  Fe75  1  -0.00186689  0.24710032  0.00325092  1
  Fe  Fe76  1  0.87223842  0.62612538  0.12530287  1
  Fe  Fe77  1  0.50222716  0.75087307  0.24849291  1
  Fe  Fe78  1  0.74900440  -0.00355167  0.75468360  1
  Fe  Fe79  1  0.25066689  -0.00100807  0.75310413  1
  Fe  Fe80  1  0.75159822  0.49728229  0.49686498  1
  Fe  Fe81  1  0.87393668  0.87593004  0.62708507  1
  Fe  Fe82  1  0.87282403  0.62596945  0.87316201  1
  Fe  Fe83  1  0.49732010  0.25111101  0.74343270  1
  Fe  Fe84  1  0.11746550  0.37058515  0.37530042  1
  Fe  Fe85  1  0.12902284  0.12266542  0.12401873  1
  Fe  Fe86  1  -0.00067873  0.75238445  0.24756914  1
  Fe  Fe87  1  0.12306273  0.62709065  0.37236193  1
  Fe  Fe88  1  -0.00132291  0.24581746  0.74692283  1
  Fe  Fe89  1  0.37307149  0.62394772  0.62387814  1
  Co  Co90  1  0.00003344  -0.00012151  0.00661831  1
  Co  Co91  1  0.87416784  0.37603107  0.12239469  1
  Co  Co92  1  0.74796336  0.74941633  0.25262042  1
  Co  Co93  1  0.25001280  0.00057008  0.25367874  1
  Co  Co94  1  0.74733101  0.49876655  0.75055931  1
  Co  Co95  1  0.74772111  0.00105300  0.25575506  1
  Co  Co96  1  0.62840184  0.37112956  0.62603277  1
  Co  Co97  1  0.74960069  0.75278065  0.75196583  1
  Co  Co98  1  0.88209810  0.37003707  0.37757694  1
  Co  Co99  1  0.12052326  0.87634960  0.37592457  1
  Co  Co100  1  0.24919007  0.49580120  0.25403500  1
  Co  Co101  1  0.74154767  -0.00020908  -0.00743386  1
  Co  Co102  1  -0.00059295  0.24487937  0.50857508  1
  Co  Co103  1  0.12105249  0.12397479  0.87532338  1
  Co  Co104  1  0.25228198  0.00114054  -0.00465573  1
  Co  Co105  1  0.37424226  0.87294416  0.62591033  1
  Co  Co106  1  0.87995819  0.87865768  0.87614654  1
  Co  Co107  1  0.62491407  0.87318012  0.37679966  1
  Co  Co108  1  0.25027748  0.75269350  0.25272821  1
  Co  Co109  1  0.24895025  0.49845398  -0.00259358  1
  Co  Co110  1  0.25027801  0.75174775  -0.00182097  1
  Co  Co111  1  0.50012197  0.24954782  0.50380885  1
  Co  Co112  1  0.62654583  0.62516907  0.87707189  1
  Co  Co113  1  0.86887839  0.12272115  0.62612510  1
  Co  Co114  1  0.61816699  0.87259536  0.87253909  1
  Co  Co115  1  0.62350721  0.37368997  0.37333392  1
  Co  Co116  1  0.87513550  0.62797386  0.37366774  1
  Co  Co117  1  0.37402153  0.37888172  0.62375603  1
  Co  Co118  1  0.63022794  0.87486755  0.12624739  1
  Co  Co119  1  -0.00068548  0.50359685  0.49812963  1
  Co  Co120  1  0.62954346  0.62653273  0.62150229  1
  Co  Co121  1  -0.00002715  0.00156983  0.74487990  1
  Co  Co122  1  -0.00031192  0.50166482  0.75203222  1
  Co  Co123  1  0.63082419  0.12793675  0.12793193  1
  Co  Co124  1  -0.00169387  0.24670708  0.24259318  1
  Co  Co125  1  0.37214290  0.12394943  0.62391660  1
  Co  Co126  1  0.74991632  0.24825655  -0.00434921  1
  Co  Co127  1  0.62197992  0.12897433  0.86910905  1
