# generated using pymatgen
data_Fe45Co19
_symmetry_space_group_name_H-M   'P 1'
_cell_length_a   11.41556812
_cell_length_b   11.41609435
_cell_length_c   11.41502046
_cell_angle_alpha   89.99941111
_cell_angle_beta   90.01169975
_cell_angle_gamma   89.99723853
_symmetry_Int_Tables_number   1
_chemical_formula_structural   Fe45Co19
_chemical_formula_sum   'Fe90 Co38'
_cell_volume   1487.61916279
_cell_formula_units_Z   2
loop_
 _symmetry_equiv_pos_site_id
 _symmetry_equiv_pos_as_xyz
  1  'x, y, z'
loop_
 _atom_site_type_symbol
 _atom_site_label
 _atom_site_symmetry_multiplicity
 _atom_site_fract_x
 _atom_site_fract_y
 _atom_site_fract_z
 _atom_site_occupancy
  Fe  Fe0  1  0.00172180  0.25012442  0.50131467  1
  Fe  Fe1  1  -0.00063980  0.50038115  -0.00135636  1
  Fe  Fe2  1  0.12517098  0.87346878  0.87097264  1
  Fe  Fe3  1  0.74891588  0.00021293  0.00083471  1
  Fe  Fe4  1  0.62368731  0.12426783  0.37595440  1
  Fe  Fe5  1  0.74743678  0.24730746  0.74768440  1
  Fe  Fe6  1  0.12750924  0.37691147  0.62434636  1
  Fe  Fe7  1  0.00081327  0.00180262  0.49838540  1
  Fe  Fe8  1  0.37447465  0.12203618  0.12645159  1
  Fe  Fe9  1  0.74811913  0.24997013  0.00232793  1
  Fe  Fe10  1  0.25354724  0.50144448  0.75198699  1
  Fe  Fe11  1  0.12374973  0.62837300  0.87292618  1
  Fe  Fe12  1  0.49952304  0.75297086  0.49979460  1
  Fe  Fe13  1  0.62388111  0.88006394  0.62011707  1
  Fe  Fe14  1  0.74934923  0.50173956  0.75231653  1
  Fe  Fe15  1  0.62525998  0.87374042  0.12670336  1
  Fe  Fe16  1  0.49855357  0.74879826  0.00273543  1
  Fe  Fe17  1  0.37043143  0.37211451  0.37736238  1
  Fe  Fe18  1  0.87507369  0.12570474  0.87442298  1
  Fe  Fe19  1  0.12424974  0.62386576  0.12757920  1
  Fe  Fe20  1  0.62428854  0.37523006  0.62400540  1
  Fe  Fe21  1  0.87659608  0.12601243  0.37395264  1
  Fe  Fe22  1  0.24842487  0.24787295  0.00250268  1
  Fe  Fe23  1  0.50209691  -0.00076612  -0.00166816  1
  Fe  Fe24  1  0.12443149  0.62669586  0.37185435  1
  Fe  Fe25  1  0.87580909  0.62223147  0.12656379  1
  Fe  Fe26  1  0.49943297  0.75312799  0.74952859  1
  Fe  Fe27  1  0.25003483  0.74971214  0.50248879  1
  Fe  Fe28  1  0.12462152  0.87243304  0.37320126  1
  Fe  Fe29  1  -0.00012037  0.25014170  0.74974306  1
  Fe  Fe30  1  0.50093491  0.49931032  0.25088416  1
  Fe  Fe31  1  -0.00063470  0.50043097  0.75147182  1
  Fe  Fe32  1  0.74985223  0.24651372  0.50160898  1
  Fe  Fe33  1  0.49762419  0.24906117  0.49876782  1
  Fe  Fe34  1  0.75074922  0.74897026  0.74836595  1
  Fe  Fe35  1  0.24765945  0.00062798  -0.00247813  1
  Fe  Fe36  1  0.12319341  0.87591582  0.12699073  1
  Fe  Fe37  1  0.62469588  0.12397055  0.12702921  1
  Fe  Fe38  1  0.75516464  0.75209308  0.25242948  1
  Fe  Fe39  1  0.00196289  0.00151288  -0.00243442  1
  Fe  Fe40  1  0.37625628  0.62538560  0.62584770  1
  Fe  Fe41  1  0.87370213  0.37547069  0.87635323  1
  Fe  Fe42  1  0.12405341  0.62430671  0.62654304  1
  Fe  Fe43  1  0.49765888  -0.00329591  0.25414483  1
  Fe  Fe44  1  0.37326213  0.87410891  0.87450047  1
  Fe  Fe45  1  0.12530812  0.87579697  0.62754654  1
  Fe  Fe46  1  0.74838813  0.50134306  0.49914030  1
  Fe  Fe47  1  0.62719240  0.87348084  0.87612124  1
  Fe  Fe48  1  -0.00111171  0.75025054  0.00043480  1
  Fe  Fe49  1  0.37407142  0.37652555  0.62316621  1
  Fe  Fe50  1  0.87423544  0.37488199  0.62463558  1
  Fe  Fe51  1  0.75074670  0.74683457  0.00001560  1
  Fe  Fe52  1  0.00464470  0.25165873  0.24712692  1
  Fe  Fe53  1  0.37316049  0.62765222  0.37365669  1
  Fe  Fe54  1  0.25181558  0.74886876  0.00262525  1
  Fe  Fe55  1  0.25154090  -0.00302403  0.25080391  1
  Fe  Fe56  1  0.62287512  0.62397577  0.62577221  1
  Fe  Fe57  1  0.49896776  0.50020250  0.49832207  1
  Fe  Fe58  1  0.25153675  0.50218928  -0.00349516  1
  Fe  Fe59  1  0.87414565  0.37566486  0.12574849  1
  Fe  Fe60  1  0.37548324  0.12466113  0.87430052  1
  Fe  Fe61  1  0.37569612  0.37747309  0.12272583  1
  Fe  Fe62  1  0.87463063  0.87460675  0.87358039  1
  Fe  Fe63  1  0.74802440  0.00394473  0.74798675  1
  Fe  Fe64  1  0.12993021  0.12752236  0.37255806  1
  Fe  Fe65  1  0.12955968  0.37242706  0.37813657  1
  Fe  Fe66  1  0.00323104  0.24811295  0.00221500  1
  Fe  Fe67  1  0.62567105  0.62893427  0.37353814  1
  Fe  Fe68  1  0.74727955  0.49839661  0.24873916  1
  Fe  Fe69  1  0.12336284  0.12291430  0.62867672  1
  Fe  Fe70  1  0.62449969  0.37695288  0.87675696  1
  Fe  Fe71  1  0.75111451  -0.00092097  0.25250685  1
  Fe  Fe72  1  0.25320969  0.00032591  0.50026858  1
  Fe  Fe73  1  -0.00237677  0.74871134  0.49862309  1
  Fe  Fe74  1  0.25199554  0.24876288  0.74905260  1
  Fe  Fe75  1  0.87459892  0.87802899  0.62197796  1
  Fe  Fe76  1  0.62578973  0.37303501  0.37581013  1
  Fe  Fe77  1  0.87782702  0.87763113  0.12587299  1
  Fe  Fe78  1  0.49894508  0.25073073  0.24992458  1
  Fe  Fe79  1  0.24950300  0.49835461  0.25060452  1
  Fe  Fe80  1  0.50134488  0.25078819  0.75151579  1
  Fe  Fe81  1  0.87554303  0.62402273  0.62383007  1
  Fe  Fe82  1  0.87426042  0.37401563  0.37419376  1
  Fe  Fe83  1  0.38062948  0.11971539  0.62589612  1
  Fe  Fe84  1  0.12666552  0.37311898  0.87519953  1
  Fe  Fe85  1  0.49529416  0.75254403  0.24755884  1
  Fe  Fe86  1  0.50128239  0.24813146  0.00089082  1
  Fe  Fe87  1  0.50323619  0.50422130  0.00086677  1
  Fe  Fe88  1  0.87641350  0.12464968  0.12671180  1
  Fe  Fe89  1  0.00074971  0.49919944  0.49787621  1
  Co  Co90  1  0.37591606  0.87754526  0.62580538  1
  Co  Co91  1  0.87784151  0.12509365  0.62493987  1
  Co  Co92  1  0.75028023  0.00395276  0.49870177  1
  Co  Co93  1  0.25045391  0.50397303  0.49957225  1
  Co  Co94  1  0.24976003  0.25327915  0.24333608  1
  Co  Co95  1  0.00214403  0.49663011  0.25207798  1
  Co  Co96  1  -0.00182721  -0.00120913  0.75217695  1
  Co  Co97  1  0.25107528  0.00017434  0.75040485  1
  Co  Co98  1  0.37353865  0.62152124  0.12631100  1
  Co  Co99  1  0.37800369  0.62801611  0.87360916  1
  Co  Co100  1  0.62676687  0.87247791  0.37524548  1
  Co  Co101  1  0.12646366  0.37935860  0.12117438  1
  Co  Co102  1  0.12653677  0.12038416  0.12756779  1
  Co  Co103  1  0.87406026  0.62181340  0.37484017  1
  Co  Co104  1  0.25092570  0.24491015  0.50668454  1
  Co  Co105  1  0.50272504  -0.00218283  0.75545629  1
  Co  Co106  1  0.62629703  0.12566602  0.87671058  1
  Co  Co107  1  0.12455432  0.12616941  0.87205025  1
  Co  Co108  1  0.37094072  0.87024180  0.37613754  1
  Co  Co109  1  0.87593141  0.87695901  0.37904012  1
  Co  Co110  1  0.61876637  0.12247644  0.62174713  1
  Co  Co111  1  0.25133937  0.74933885  0.74770011  1
  Co  Co112  1  0.37573038  0.37351914  0.87852353  1
  Co  Co113  1  0.37101137  0.12806199  0.37262334  1
  Co  Co114  1  0.00033822  0.00026725  0.25223539  1
  Co  Co115  1  0.62272918  0.62611657  0.87283749  1
  Co  Co116  1  -0.00349395  0.75033707  0.25035067  1
  Co  Co117  1  0.75053763  0.74886436  0.50084353  1
  Co  Co118  1  0.62582346  0.62934575  0.12875058  1
  Co  Co119  1  0.37418919  0.87905495  0.12247376  1
  Co  Co120  1  -0.00233626  0.75118895  0.74780995  1
  Co  Co121  1  0.62352297  0.37343845  0.12416001  1
  Co  Co122  1  0.25098234  0.75136812  0.24517770  1
  Co  Co123  1  0.49589404  -0.00293778  0.49236529  1
  Co  Co124  1  0.74726543  0.50252771  0.00097995  1
  Co  Co125  1  0.87605917  0.62583214  0.87502188  1
  Co  Co126  1  0.49742361  0.49761088  0.74976059  1
  Co  Co127  1  0.74833877  0.24912812  0.24972313  1
