# generated using pymatgen
data_Fe45Co19
_symmetry_space_group_name_H-M   'P 1'
_cell_length_a   11.41523650
_cell_length_b   11.41553277
_cell_length_c   11.41688366
_cell_angle_alpha   90.00129130
_cell_angle_beta   90.00807523
_cell_angle_gamma   90.00973459
_symmetry_Int_Tables_number   1
_chemical_formula_structural   Fe45Co19
_chemical_formula_sum   'Fe90 Co38'
_cell_volume   1487.74556249
_cell_formula_units_Z   2
loop_
 _symmetry_equiv_pos_site_id
 _symmetry_equiv_pos_as_xyz
  1  'x, y, z'
loop_
 _atom_site_type_symbol
 _atom_site_label
 _atom_site_symmetry_multiplicity
 _atom_site_fract_x
 _atom_site_fract_y
 _atom_site_fract_z
 _atom_site_occupancy
  Fe  Fe0  1  0.75232779  0.49909694  0.74724056  1
  Fe  Fe1  1  0.87683674  0.62536410  0.12671356  1
  Fe  Fe2  1  0.50018310  0.25046228  0.25011887  1
  Fe  Fe3  1  0.87618672  0.37291159  0.37994306  1
  Fe  Fe4  1  0.12780578  0.12455344  0.62628947  1
  Fe  Fe5  1  0.12447770  0.87338014  0.12619215  1
  Fe  Fe6  1  0.62636675  0.62576759  0.37583090  1
  Fe  Fe7  1  0.25092987  -0.00105413  0.25034205  1
  Fe  Fe8  1  0.62373176  0.12195183  0.62454371  1
  Fe  Fe9  1  0.12605800  0.37937942  0.87416488  1
  Fe  Fe10  1  0.50032386  0.24845807  0.49848238  1
  Fe  Fe11  1  0.87425625  0.62827249  0.37756283  1
  Fe  Fe12  1  0.62392082  0.37842347  0.12495116  1
  Fe  Fe13  1  0.75183177  0.49904754  0.25214076  1
  Fe  Fe14  1  0.12528434  0.87441901  0.87342833  1
  Fe  Fe15  1  0.75211399  -0.00315709  0.25224009  1
  Fe  Fe16  1  0.49759253  0.50025853  0.75249696  1
  Fe  Fe17  1  0.37844409  0.62196458  0.12377996  1
  Fe  Fe18  1  0.87440146  0.12509068  0.62153096  1
  Fe  Fe19  1  0.74815437  0.24783297  0.00149283  1
  Fe  Fe20  1  0.62559606  0.12393219  0.37393471  1
  Fe  Fe21  1  0.62514115  0.87795380  0.87453695  1
  Fe  Fe22  1  0.37418782  0.37578630  0.37528999  1
  Fe  Fe23  1  0.24890342  0.50378665  0.50162105  1
  Fe  Fe24  1  -0.00190357  -0.00208083  0.75006985  1
  Fe  Fe25  1  0.50210503  0.75001018  0.50028364  1
  Fe  Fe26  1  0.37420227  0.37282919  0.62472873  1
  Fe  Fe27  1  0.74967044  0.25057917  0.24997202  1
  Fe  Fe28  1  0.62401743  0.37600893  0.62542940  1
  Fe  Fe29  1  0.50094852  0.50137901  0.49841662  1
  Fe  Fe30  1  0.49691554  0.24628100  0.75098037  1
  Fe  Fe31  1  0.87548375  0.12361624  0.12483891  1
  Fe  Fe32  1  0.12085723  0.62221235  0.12706010  1
  Fe  Fe33  1  0.87750092  0.37683820  0.12441636  1
  Fe  Fe34  1  0.37400682  0.87277484  0.12431565  1
  Fe  Fe35  1  0.62611164  0.37608029  0.37611518  1
  Fe  Fe36  1  0.24589146  0.25083332  0.00311838  1
  Fe  Fe37  1  0.12308152  0.62180740  0.86980904  1
  Fe  Fe38  1  0.37659120  0.62577016  0.62509935  1
  Fe  Fe39  1  0.75061563  0.75181288  0.00008302  1
  Fe  Fe40  1  0.49844011  0.74832471  0.25101880  1
  Fe  Fe41  1  0.62481059  0.62360566  0.12634119  1
  Fe  Fe42  1  0.12824331  0.87183932  0.37377533  1
  Fe  Fe43  1  0.24869780  0.74582468  0.00041827  1
  Fe  Fe44  1  0.37233204  0.87139232  0.37589851  1
  Fe  Fe45  1  0.50143909  0.74962016  -0.00075182  1
  Fe  Fe46  1  0.37202982  0.37478622  0.87639969  1
  Fe  Fe47  1  0.62593789  0.87621781  0.12552812  1
  Fe  Fe48  1  0.24945573  0.24730257  0.49961227  1
  Fe  Fe49  1  0.87499937  0.37375095  0.87600780  1
  Fe  Fe50  1  0.12678744  0.12476331  0.37267792  1
  Fe  Fe51  1  -0.00025601  0.75041461  -0.00152174  1
  Fe  Fe52  1  0.24845550  0.25037340  0.24737698  1
  Fe  Fe53  1  0.00383345  0.74994752  0.50129591  1
  Fe  Fe54  1  0.12684764  0.62759538  0.37359320  1
  Fe  Fe55  1  0.74971750  0.24901939  0.74792800  1
  Fe  Fe56  1  0.50156007  0.75205964  0.74892507  1
  Fe  Fe57  1  0.12639498  0.87542598  0.62594451  1
  Fe  Fe58  1  0.87685444  0.62656034  0.62333829  1
  Fe  Fe59  1  0.75219074  -0.00206742  0.74834219  1
  Fe  Fe60  1  0.00269689  0.00031289  0.49938952  1
  Fe  Fe61  1  0.87475202  0.12601164  0.37827887  1
  Fe  Fe62  1  0.49827846  -0.00038509  0.24957600  1
  Fe  Fe63  1  0.49717745  0.00082249  0.49851341  1
  Fe  Fe64  1  0.25412384  0.00308063  0.75095356  1
  Fe  Fe65  1  0.87567999  0.12546380  0.87552623  1
  Fe  Fe66  1  0.00182135  0.25076568  0.24872960  1
  Fe  Fe67  1  0.87607832  0.37374116  0.61987807  1
  Fe  Fe68  1  0.62617399  0.37547754  0.87376810  1
  Fe  Fe69  1  0.37435237  0.12509556  0.12450628  1
  Fe  Fe70  1  0.37633576  0.37926758  0.12435056  1
  Fe  Fe71  1  0.12496524  0.12486765  0.87528419  1
  Fe  Fe72  1  0.62576813  0.62527538  0.87198117  1
  Fe  Fe73  1  0.25156875  0.50217406  0.25012437  1
  Fe  Fe74  1  0.87542866  0.62697835  0.87185429  1
  Fe  Fe75  1  0.25047409  -0.00029061  0.00019095  1
  Fe  Fe76  1  0.75185603  0.75388474  0.25251447  1
  Fe  Fe77  1  0.12477388  0.37526764  0.37478409  1
  Fe  Fe78  1  0.37513037  0.87374018  0.87588404  1
  Fe  Fe79  1  0.62403377  0.12120830  0.87597350  1
  Fe  Fe80  1  0.00092267  0.25136078  0.74846959  1
  Fe  Fe81  1  0.00319041  0.25116687  0.00243573  1
  Fe  Fe82  1  0.75045634  0.50156137  -0.00074506  1
  Fe  Fe83  1  0.74929000  0.75364034  0.74401083  1
  Fe  Fe84  1  -0.00195482  -0.00273772  -0.00067856  1
  Fe  Fe85  1  0.12518019  0.37732891  0.62530040  1
  Fe  Fe86  1  0.24982288  0.74773598  0.74835919  1
  Fe  Fe87  1  0.37437582  0.87621859  0.62421576  1
  Fe  Fe88  1  0.50193350  0.24890308  0.00108825  1
  Fe  Fe89  1  -0.00122793  -0.00356385  0.25119379  1
  Co  Co90  1  0.74621153  0.75227309  0.50288520  1
  Co  Co91  1  0.87340694  0.87309388  0.87399563  1
  Co  Co92  1  0.12357947  0.38156821  0.12634960  1
  Co  Co93  1  0.00169201  0.50211873  0.49798601  1
  Co  Co94  1  0.00006346  0.75308790  0.74962540  1
  Co  Co95  1  0.62367832  0.62291451  0.62634094  1
  Co  Co96  1  0.49883964  -0.00092177  0.00128496  1
  Co  Co97  1  0.37419235  0.62629837  0.37739310  1
  Co  Co98  1  0.74954503  0.50037470  0.50071220  1
  Co  Co99  1  0.24884369  0.74872147  0.50382593  1
  Co  Co100  1  0.37360510  0.12584761  0.37352027  1
  Co  Co101  1  0.25303940  0.50176135  0.74806080  1
  Co  Co102  1  0.62242076  0.87434311  0.37461808  1
  Co  Co103  1  0.62589797  0.12244627  0.12735846  1
  Co  Co104  1  0.87549428  0.87405904  0.12395112  1
  Co  Co105  1  0.74933894  -0.00262260  0.49852527  1
  Co  Co106  1  0.49531267  0.00162787  0.75101631  1
  Co  Co107  1  -0.00136998  0.75184767  0.25066994  1
  Co  Co108  1  0.25014329  0.50386670  -0.00011972  1
  Co  Co109  1  0.62221785  0.87960207  0.62417335  1
  Co  Co110  1  0.12230080  0.62386361  0.62898825  1
  Co  Co111  1  0.87698481  0.87303101  0.38067711  1
  Co  Co112  1  0.87745560  0.87436892  0.62085507  1
  Co  Co113  1  0.50069323  0.50100476  0.25361170  1
  Co  Co114  1  0.24945794  -0.00017733  0.49868763  1
  Co  Co115  1  0.37353915  0.12710556  0.87930322  1
  Co  Co116  1  0.00424609  0.24765839  0.50062719  1
  Co  Co117  1  -0.00224476  0.50156408  -0.00237025  1
  Co  Co118  1  -0.00199398  0.49990057  0.25529757  1
  Co  Co119  1  0.25216436  0.74699657  0.24663227  1
  Co  Co120  1  0.12391239  0.12093518  0.12573618  1
  Co  Co121  1  0.50169983  0.50104555  -0.00436618  1
  Co  Co122  1  0.24922350  0.24920780  0.75039593  1
  Co  Co123  1  0.74596118  0.24917621  0.50102773  1
  Co  Co124  1  0.37361797  0.12632824  0.62256342  1
  Co  Co125  1  0.75133267  -0.00041582  0.00030128  1
  Co  Co126  1  -0.00374594  0.49698042  0.74862173  1
  Co  Co127  1  0.37586058  0.62735283  0.87377287  1
