# generated using pymatgen
data_Fe45Co19
_symmetry_space_group_name_H-M   'P 1'
_cell_length_a   11.41493548
_cell_length_b   11.41504111
_cell_length_c   11.41491735
_cell_angle_alpha   89.99626988
_cell_angle_beta   90.01360228
_cell_angle_gamma   90.00153948
_symmetry_Int_Tables_number   1
_chemical_formula_structural   Fe45Co19
_chemical_formula_sum   'Fe90 Co38'
_cell_volume   1487.38603370
_cell_formula_units_Z   2
loop_
 _symmetry_equiv_pos_site_id
 _symmetry_equiv_pos_as_xyz
  1  'x, y, z'
loop_
 _atom_site_type_symbol
 _atom_site_label
 _atom_site_symmetry_multiplicity
 _atom_site_fract_x
 _atom_site_fract_y
 _atom_site_fract_z
 _atom_site_occupancy
  Fe  Fe0  1  0.87429679  0.87577377  0.37382873  1
  Fe  Fe1  1  0.87843389  0.63072186  0.87483420  1
  Fe  Fe2  1  0.50152405  0.75140153  0.74815548  1
  Fe  Fe3  1  0.49726290  -0.00047793  0.25061204  1
  Fe  Fe4  1  0.75344884  0.50107928  0.74980558  1
  Fe  Fe5  1  0.49568405  0.49846149  0.49696410  1
  Fe  Fe6  1  0.62425860  0.87571583  0.37703050  1
  Fe  Fe7  1  0.25013872  0.00049178  0.75155086  1
  Fe  Fe8  1  0.49925599  0.49917945  0.74959407  1
  Fe  Fe9  1  0.12785083  0.87781575  0.12623345  1
  Fe  Fe10  1  -0.00033914  0.00391447  0.49632727  1
  Fe  Fe11  1  0.37653594  0.87298304  0.87530668  1
  Fe  Fe12  1  0.62441234  0.87571510  0.12310893  1
  Fe  Fe13  1  -0.00084628  0.00115325  0.75233446  1
  Fe  Fe14  1  0.36971839  0.87255181  0.37403746  1
  Fe  Fe15  1  -0.00055438  0.49847273  0.25192714  1
  Fe  Fe16  1  -0.00291337  -0.00299664  0.00048409  1
  Fe  Fe17  1  -0.00097105  0.25156548  0.00426437  1
  Fe  Fe18  1  0.12323648  0.62738987  0.87580985  1
  Fe  Fe19  1  0.12737058  0.62346364  0.37773870  1
  Fe  Fe20  1  0.50099581  0.25062219  0.24780501  1
  Fe  Fe21  1  0.24655379  0.25113169  0.75075784  1
  Fe  Fe22  1  0.62478559  0.62577000  0.37724268  1
  Fe  Fe23  1  0.62636246  0.12240057  0.62591674  1
  Fe  Fe24  1  0.74962190  0.75232654  -0.00087792  1
  Fe  Fe25  1  0.75273969  0.49954754  0.49782440  1
  Fe  Fe26  1  0.87358811  0.37650952  0.12779919  1
  Fe  Fe27  1  0.12252337  0.37507445  0.87662919  1
  Fe  Fe28  1  0.49940606  0.75027253  0.25011625  1
  Fe  Fe29  1  0.13119792  0.87956412  0.37511356  1
  Fe  Fe30  1  0.24565187  0.24935177  0.49904032  1
  Fe  Fe31  1  0.87444416  0.62642084  0.12786987  1
  Fe  Fe32  1  0.62486721  0.62474333  0.62150751  1
  Fe  Fe33  1  0.24984867  0.75002369  0.00287383  1
  Fe  Fe34  1  0.62721857  0.37578030  0.87453054  1
  Fe  Fe35  1  0.75229261  0.24508184  0.49763276  1
  Fe  Fe36  1  0.75181749  0.00431924  0.49514550  1
  Fe  Fe37  1  0.62427216  0.12252402  0.12539993  1
  Fe  Fe38  1  0.62631335  0.37676965  0.12536105  1
  Fe  Fe39  1  0.12261196  0.12579425  0.87793573  1
  Fe  Fe40  1  0.37492422  0.37354132  0.87562735  1
  Fe  Fe41  1  0.37294917  0.62447213  0.62302838  1
  Fe  Fe42  1  0.62637739  0.62389730  0.12637867  1
  Fe  Fe43  1  0.37362642  0.87559694  0.62463409  1
  Fe  Fe44  1  0.50052060  0.24863365  0.50156823  1
  Fe  Fe45  1  0.12395888  0.12350623  0.62558725  1
  Fe  Fe46  1  -0.00018499  0.49995763  0.75024838  1
  Fe  Fe47  1  0.37372984  0.62498000  0.12762789  1
  Fe  Fe48  1  0.37222536  0.12763413  0.37297918  1
  Fe  Fe49  1  0.75228732  0.50087288  -0.00090738  1
  Fe  Fe50  1  0.62487060  0.87795152  0.62353692  1
  Fe  Fe51  1  0.49971069  0.49930812  0.00086844  1
  Fe  Fe52  1  0.62714454  0.37481239  0.62427927  1
  Fe  Fe53  1  0.49844689  -0.00023682  0.00011276  1
  Fe  Fe54  1  0.87323239  0.87587378  0.12716634  1
  Fe  Fe55  1  0.25269749  0.00072047  0.00230666  1
  Fe  Fe56  1  0.00421911  0.75209783  0.25108889  1
  Fe  Fe57  1  -0.00274180  0.50098044  0.00057490  1
  Fe  Fe58  1  0.25191912  0.49596821  0.25453771  1
  Fe  Fe59  1  0.25172660  0.49931209  -0.00125342  1
  Fe  Fe60  1  0.74781579  0.75098368  0.25133483  1
  Fe  Fe61  1  0.50107291  0.24953880  0.75036201  1
  Fe  Fe62  1  0.87499053  0.62814198  0.37512053  1
  Fe  Fe63  1  0.75314074  0.24823143  0.75182512  1
  Fe  Fe64  1  0.62460712  0.12264648  0.87514791  1
  Fe  Fe65  1  0.49795465  0.49871935  0.25266149  1
  Fe  Fe66  1  0.87691304  0.62887201  0.62141707  1
  Fe  Fe67  1  0.12588260  0.62182519  0.12615168  1
  Fe  Fe68  1  0.49637550  0.00153233  0.49921478  1
  Fe  Fe69  1  0.62462098  0.62655869  0.87436532  1
  Fe  Fe70  1  0.24866011  0.24949854  0.00474350  1
  Fe  Fe71  1  0.87850477  0.37031085  0.37430552  1
  Fe  Fe72  1  0.62489967  0.37357129  0.37616198  1
  Fe  Fe73  1  0.37551433  0.12705627  0.87594305  1
  Fe  Fe74  1  0.12347067  0.37777776  0.62135342  1
  Fe  Fe75  1  0.37293071  0.37477365  0.62549303  1
  Fe  Fe76  1  0.87648716  0.12115265  0.12983012  1
  Fe  Fe77  1  0.37343018  0.12597982  0.62687872  1
  Fe  Fe78  1  0.75154495  0.24786170  0.00030624  1
  Fe  Fe79  1  0.87676436  0.87526225  0.62262640  1
  Fe  Fe80  1  0.24663402  0.74988490  0.74736971  1
  Fe  Fe81  1  0.75348708  -0.00199119  0.75542184  1
  Fe  Fe82  1  0.74875064  0.24735094  0.25092249  1
  Fe  Fe83  1  0.12538818  0.62162957  0.62051814  1
  Fe  Fe84  1  0.12280678  0.87260796  0.87580808  1
  Fe  Fe85  1  0.12417303  0.87779425  0.62267740  1
  Fe  Fe86  1  0.87704633  0.37176309  0.62453645  1
  Fe  Fe87  1  0.37421210  0.62660821  0.87364682  1
  Fe  Fe88  1  0.24357995  0.24934881  0.24521436  1
  Fe  Fe89  1  0.74999989  0.75289744  0.74935043  1
  Co  Co90  1  0.87873674  0.12606701  0.87613319  1
  Co  Co91  1  0.37327507  0.63039721  0.37478719  1
  Co  Co92  1  0.12510806  0.38067038  0.12324744  1
  Co  Co93  1  -0.00411920  0.50025723  0.49812816  1
  Co  Co94  1  0.24676560  0.74978883  0.24794152  1
  Co  Co95  1  0.00204550  0.75072996  0.00734723  1
  Co  Co96  1  0.49861802  0.75215686  0.50060860  1
  Co  Co97  1  0.12515022  0.12314858  0.37145782  1
  Co  Co98  1  0.74969032  0.75130577  0.49955148  1
  Co  Co99  1  0.25290866  0.00451851  0.24522382  1
  Co  Co100  1  0.24803289  0.49942107  0.75124655  1
  Co  Co101  1  0.00252751  0.74991497  0.74499893  1
  Co  Co102  1  0.87961929  0.87023280  0.87522687  1
  Co  Co103  1  0.49769703  0.00068323  0.74988468  1
  Co  Co104  1  0.75173599  -0.00060756  -0.00175206  1
  Co  Co105  1  0.25489694  0.49770059  0.49577597  1
  Co  Co106  1  0.87943609  0.12593735  0.36750911  1
  Co  Co107  1  0.37472723  0.37457618  0.12517413  1
  Co  Co108  1  0.50294317  0.25139132  -0.00053248  1
  Co  Co109  1  0.74636901  0.00042575  0.25175945  1
  Co  Co110  1  0.87636748  0.37381712  0.87465041  1
  Co  Co111  1  0.12176765  0.37435173  0.37784786  1
  Co  Co112  1  0.00203599  0.25002083  0.74845278  1
  Co  Co113  1  0.49907020  0.74742726  0.00181524  1
  Co  Co114  1  0.00588339  0.25234744  0.24626070  1
  Co  Co115  1  0.62155562  0.87498761  0.87609500  1
  Co  Co116  1  0.25148380  0.00313302  0.50125752  1
  Co  Co117  1  0.75026006  0.49956600  0.25405818  1
  Co  Co118  1  0.37484248  0.87305704  0.12611511  1
  Co  Co119  1  0.00300580  0.75237460  0.49633245  1
  Co  Co120  1  0.62152633  0.12495206  0.37456502  1
  Co  Co121  1  0.00196942  -0.00465984  0.25149450  1
  Co  Co122  1  0.00085665  0.24399154  0.50041912  1
  Co  Co123  1  0.24775458  0.75061729  0.50245921  1
  Co  Co124  1  0.87469003  0.12345272  0.62677281  1
  Co  Co125  1  0.37397724  0.36764396  0.37307494  1
  Co  Co126  1  0.37792004  0.12777375  0.12472521  1
  Co  Co127  1  0.12065358  0.11995718  0.12361544  1
