# generated using pymatgen
data_Fe45Co19
_symmetry_space_group_name_H-M   'P 1'
_cell_length_a   11.41678337
_cell_length_b   11.41419595
_cell_length_c   11.41600711
_cell_angle_alpha   89.99164386
_cell_angle_beta   90.00022226
_cell_angle_gamma   89.99323661
_symmetry_Int_Tables_number   1
_chemical_formula_structural   Fe45Co19
_chemical_formula_sum   'Fe90 Co38'
_cell_volume   1487.65870334
_cell_formula_units_Z   2
loop_
 _symmetry_equiv_pos_site_id
 _symmetry_equiv_pos_as_xyz
  1  'x, y, z'
loop_
 _atom_site_type_symbol
 _atom_site_label
 _atom_site_symmetry_multiplicity
 _atom_site_fract_x
 _atom_site_fract_y
 _atom_site_fract_z
 _atom_site_occupancy
  Fe  Fe0  1  0.37804006  0.12676597  0.12370133  1
  Fe  Fe1  1  0.12530654  0.62969131  0.62008730  1
  Fe  Fe2  1  0.87595028  0.12528324  0.37491234  1
  Fe  Fe3  1  0.37609343  0.12562914  0.37808697  1
  Fe  Fe4  1  -0.00197384  0.25266890  0.74830055  1
  Fe  Fe5  1  0.25221954  0.00048209  -0.00074162  1
  Fe  Fe6  1  0.12398212  0.37727255  0.37421908  1
  Fe  Fe7  1  0.87380636  0.86986753  0.36960747  1
  Fe  Fe8  1  0.12687485  0.37742351  0.87526498  1
  Fe  Fe9  1  0.75035918  0.24974549  0.00244518  1
  Fe  Fe10  1  0.87521636  0.12550469  0.87544087  1
  Fe  Fe11  1  0.50210444  0.25273044  0.75085742  1
  Fe  Fe12  1  0.50205724  0.00373180  0.25139528  1
  Fe  Fe13  1  0.00122636  -0.00100865  0.24898387  1
  Fe  Fe14  1  0.49940177  -0.00064543  0.75017355  1
  Fe  Fe15  1  0.12752038  0.87578895  0.12596905  1
  Fe  Fe16  1  0.00005894  0.25186750  0.24767405  1
  Fe  Fe17  1  0.24860474  0.24878745  0.74825405  1
  Fe  Fe18  1  0.00072809  0.74995646  0.00222433  1
  Fe  Fe19  1  0.12510601  0.62261314  0.87900999  1
  Fe  Fe20  1  0.87711286  0.12563591  0.62318527  1
  Fe  Fe21  1  0.62624873  0.37607396  0.37482243  1
  Fe  Fe22  1  0.25036032  0.00260141  0.25025335  1
  Fe  Fe23  1  -0.00150323  0.25349399  0.00229639  1
  Fe  Fe24  1  0.24959347  0.25298767  0.49976243  1
  Fe  Fe25  1  0.62382665  0.12598334  0.62192573  1
  Fe  Fe26  1  0.37421279  0.62286617  0.37746577  1
  Fe  Fe27  1  0.50351010  0.74358686  0.24782848  1
  Fe  Fe28  1  0.24925156  0.25056521  0.24894620  1
  Fe  Fe29  1  -0.00054074  0.50173116  0.74894142  1
  Fe  Fe30  1  0.12356764  0.37750577  0.62394343  1
  Fe  Fe31  1  0.00099192  -0.00643927  0.49982025  1
  Fe  Fe32  1  0.62336707  0.37990683  0.12548333  1
  Fe  Fe33  1  0.49925538  0.50119698  0.75256658  1
  Fe  Fe34  1  0.37076969  0.87166975  0.62841832  1
  Fe  Fe35  1  0.25181721  0.74708203  0.00160881  1
  Fe  Fe36  1  0.74740146  0.00320055  0.24919753  1
  Fe  Fe37  1  0.50006219  -0.00193139  0.49978513  1
  Fe  Fe38  1  0.74989440  0.00101221  0.74940281  1
  Fe  Fe39  1  0.00010769  -0.00180615  0.00012268  1
  Fe  Fe40  1  0.37625962  0.12576517  0.62332695  1
  Fe  Fe41  1  0.25166598  0.25555882  0.00272151  1
  Fe  Fe42  1  0.62377853  0.87663921  0.12563377  1
  Fe  Fe43  1  0.00228753  -0.00233521  0.75008456  1
  Fe  Fe44  1  0.87650954  0.62628249  0.87642950  1
  Fe  Fe45  1  0.74963525  0.50370210  0.75145069  1
  Fe  Fe46  1  0.74807235  0.24735914  0.24789070  1
  Fe  Fe47  1  0.62560313  0.87215219  0.37516092  1
  Fe  Fe48  1  0.75085904  -0.00268764  0.49890729  1
  Fe  Fe49  1  0.62691542  0.87128117  0.62591424  1
  Fe  Fe50  1  0.74872827  0.74877333  0.00258841  1
  Fe  Fe51  1  0.12351020  0.12475930  0.37661061  1
  Fe  Fe52  1  0.87436528  0.87223200  0.87382787  1
  Fe  Fe53  1  -0.00274073  0.50077242  0.49869212  1
  Fe  Fe54  1  0.75134805  0.25105600  0.50130413  1
  Fe  Fe55  1  0.62800715  0.37636282  0.62615888  1
  Fe  Fe56  1  0.37492153  0.37681091  0.37301073  1
  Fe  Fe57  1  0.49844809  0.75037733  0.50072682  1
  Fe  Fe58  1  0.75215405  0.50077640  0.00177131  1
  Fe  Fe59  1  0.12832222  0.87296426  0.87172837  1
  Fe  Fe60  1  0.24863045  -0.00369198  0.50001811  1
  Fe  Fe61  1  0.12412381  0.12552497  0.12313827  1
  Fe  Fe62  1  0.62511772  0.12609317  0.87582211  1
  Fe  Fe63  1  0.49992204  0.49779931  0.49934614  1
  Fe  Fe64  1  0.75184004  0.50269598  0.49798823  1
  Fe  Fe65  1  0.87466399  0.87197210  0.12745553  1
  Fe  Fe66  1  0.24899715  0.74631008  0.25036041  1
  Fe  Fe67  1  0.49804662  -0.00227493  -0.00135709  1
  Fe  Fe68  1  0.75048554  0.00092879  0.00199113  1
  Fe  Fe69  1  0.62458387  0.87270869  0.87367994  1
  Fe  Fe70  1  0.12499230  0.12615867  0.87591460  1
  Fe  Fe71  1  0.87494813  0.62794969  0.62555948  1
  Fe  Fe72  1  0.37499914  0.87379800  0.12803169  1
  Fe  Fe73  1  0.62447191  0.62623113  0.62260589  1
  Fe  Fe74  1  0.37360757  0.87059928  0.87225350  1
  Fe  Fe75  1  0.37416513  0.37684081  0.62648749  1
  Fe  Fe76  1  -0.00337558  0.49730601  0.00392477  1
  Fe  Fe77  1  0.87432724  0.37562760  0.37290553  1
  Fe  Fe78  1  0.87525589  0.86916077  0.62808742  1
  Fe  Fe79  1  0.37562129  0.87410733  0.37177548  1
  Fe  Fe80  1  0.50227392  0.24848713  0.25234585  1
  Fe  Fe81  1  0.12530180  0.61924275  0.12452316  1
  Fe  Fe82  1  0.49885334  0.25691702  -0.00241168  1
  Fe  Fe83  1  0.12359880  0.12434056  0.62331621  1
  Fe  Fe84  1  0.37481068  0.12707502  0.87456560  1
  Fe  Fe85  1  0.25140797  0.50614729  0.74951848  1
  Fe  Fe86  1  0.61953706  0.62550431  0.87993326  1
  Fe  Fe87  1  0.87253100  0.37505966  0.87269847  1
  Fe  Fe88  1  0.87432040  0.62912348  0.36884047  1
  Fe  Fe89  1  0.12523007  0.62435378  0.37600807  1
  Co  Co90  1  0.37558537  0.62419585  0.62073232  1
  Co  Co91  1  0.36965341  0.37580444  0.86901430  1
  Co  Co92  1  0.24983424  0.00255182  0.74994043  1
  Co  Co93  1  0.49934862  0.75336707  0.00393735  1
  Co  Co94  1  0.49359029  0.49295572  -0.00375862  1
  Co  Co95  1  -0.00092303  0.49979258  0.24986246  1
  Co  Co96  1  0.12554869  0.37843719  0.12516341  1
  Co  Co97  1  0.62498952  0.62638135  0.38052866  1
  Co  Co98  1  0.62121473  0.12519026  0.12115078  1
  Co  Co99  1  0.74804192  0.74607500  0.75322611  1
  Co  Co100  1  0.49955263  0.25446380  0.49990933  1
  Co  Co101  1  0.25024726  0.50096478  0.24977360  1
  Co  Co102  1  0.25165779  0.75259355  0.49664703  1
  Co  Co103  1  0.63036208  0.37660018  0.87478478  1
  Co  Co104  1  0.49965968  0.74739976  0.74823802  1
  Co  Co105  1  0.74660114  0.50428648  0.25060596  1
  Co  Co106  1  0.37739231  0.62226705  0.12413178  1
  Co  Co107  1  0.75078062  0.24831406  0.74770597  1
  Co  Co108  1  0.24985065  0.49782270  0.49989033  1
  Co  Co109  1  0.74223053  0.74548807  0.24571208  1
  Co  Co110  1  0.87158385  0.37681196  0.12815178  1
  Co  Co111  1  0.37821441  0.37742532  0.13248011  1
  Co  Co112  1  0.12765663  0.86967234  0.62776312  1
  Co  Co113  1  0.50261294  0.50493322  0.25369381  1
  Co  Co114  1  0.37873965  0.62738049  0.87897581  1
  Co  Co115  1  0.75193653  0.74969954  0.49947392  1
  Co  Co116  1  0.25607329  0.49741268  0.00120310  1
  Co  Co117  1  0.00154718  0.74729094  0.75305237  1
  Co  Co118  1  -0.00017454  0.25316786  0.50005282  1
  Co  Co119  1  0.25081113  0.74177390  0.75186145  1
  Co  Co120  1  0.62572901  0.12550277  0.38008744  1
  Co  Co121  1  0.87326341  0.37846639  0.62540440  1
  Co  Co122  1  0.12563664  0.87439882  0.37350187  1
  Co  Co123  1  0.00546461  0.74899183  0.24770312  1
  Co  Co124  1  0.62108443  0.61844799  0.11797082  1
  Co  Co125  1  0.87670713  0.12404672  0.12521131  1
  Co  Co126  1  0.87541442  0.62635462  0.12805680  1
  Co  Co127  1  -0.00144898  0.75149314  0.49725153  1
