# generated using pymatgen
data_Fe45Co19
_symmetry_space_group_name_H-M   'P 1'
_cell_length_a   11.41637563
_cell_length_b   11.41433109
_cell_length_c   11.41456075
_cell_angle_alpha   90.00520352
_cell_angle_beta   90.00646173
_cell_angle_gamma   89.99894481
_symmetry_Int_Tables_number   1
_chemical_formula_structural   Fe45Co19
_chemical_formula_sum   'Fe90 Co38'
_cell_volume   1487.43471943
_cell_formula_units_Z   2
loop_
 _symmetry_equiv_pos_site_id
 _symmetry_equiv_pos_as_xyz
  1  'x, y, z'
loop_
 _atom_site_type_symbol
 _atom_site_label
 _atom_site_symmetry_multiplicity
 _atom_site_fract_x
 _atom_site_fract_y
 _atom_site_fract_z
 _atom_site_occupancy
  Fe  Fe0  1  0.24756207  -0.00324785  0.24827444  1
  Fe  Fe1  1  0.37688345  0.37459111  0.87593390  1
  Fe  Fe2  1  0.24996760  0.49894982  0.75178371  1
  Fe  Fe3  1  0.12368310  0.37462829  0.87664179  1
  Fe  Fe4  1  0.87277960  0.12537727  0.62363317  1
  Fe  Fe5  1  -0.00225384  0.75082594  0.74917307  1
  Fe  Fe6  1  0.37355210  0.12257872  0.62403195  1
  Fe  Fe7  1  0.74919842  0.49999121  0.49744267  1
  Fe  Fe8  1  0.12462085  0.12602329  0.12774451  1
  Fe  Fe9  1  0.62696455  0.37592335  0.12787011  1
  Fe  Fe10  1  0.62410810  0.87626484  0.12383470  1
  Fe  Fe11  1  0.12440427  0.62581093  0.62654766  1
  Fe  Fe12  1  0.24936501  0.49799472  0.24987838  1
  Fe  Fe13  1  0.74914213  0.49946181  -0.00366054  1
  Fe  Fe14  1  0.12580717  0.62462926  0.12458698  1
  Fe  Fe15  1  0.00128629  0.49666162  0.24812875  1
  Fe  Fe16  1  0.50126075  0.24932727  0.49992471  1
  Fe  Fe17  1  0.37415269  0.37418614  0.37457276  1
  Fe  Fe18  1  0.75239916  0.25646447  0.75141120  1
  Fe  Fe19  1  0.00110631  0.49945042  0.49923692  1
  Fe  Fe20  1  0.50110757  0.00078722  0.49958194  1
  Fe  Fe21  1  -0.00259307  0.25212500  0.74794498  1
  Fe  Fe22  1  0.00020504  0.49896982  0.00051328  1
  Fe  Fe23  1  0.37350348  0.62486668  0.87585605  1
  Fe  Fe24  1  0.24949456  -0.00171858  0.75054001  1
  Fe  Fe25  1  0.37345885  0.12379820  0.37564313  1
  Fe  Fe26  1  0.49872197  0.24876876  0.24805207  1
  Fe  Fe27  1  0.12560405  0.12315346  0.62421675  1
  Fe  Fe28  1  0.75128390  0.74940416  0.24907091  1
  Fe  Fe29  1  0.74999801  0.74896065  0.50054086  1
  Fe  Fe30  1  0.12288478  0.87438907  0.87559895  1
  Fe  Fe31  1  0.12556885  0.62556561  0.87475701  1
  Fe  Fe32  1  0.50237359  0.24474386  -0.00081177  1
  Fe  Fe33  1  0.50127537  0.74900576  0.00177482  1
  Fe  Fe34  1  0.12416607  0.62685326  0.37482881  1
  Fe  Fe35  1  0.74720686  -0.00095792  -0.00196483  1
  Fe  Fe36  1  0.37695541  0.37618656  0.62489123  1
  Fe  Fe37  1  0.37493160  0.62730047  0.37517969  1
  Fe  Fe38  1  0.24974504  0.75329107  0.00238866  1
  Fe  Fe39  1  0.74984644  0.25008409  0.00172536  1
  Fe  Fe40  1  0.24847863  0.75353546  0.24716434  1
  Fe  Fe41  1  0.62816712  0.62871053  0.87185087  1
  Fe  Fe42  1  0.11909279  0.87347045  0.37634122  1
  Fe  Fe43  1  -0.00213650  0.25123035  0.00512195  1
  Fe  Fe44  1  0.75136780  0.00153380  0.25112312  1
  Fe  Fe45  1  0.49786178  0.75125969  0.74941484  1
  Fe  Fe46  1  0.87789870  0.87658054  0.62079118  1
  Fe  Fe47  1  0.87769666  0.87444317  0.37572400  1
  Fe  Fe48  1  0.87408279  0.62053357  0.62771931  1
  Fe  Fe49  1  0.62402339  0.37740831  0.62660398  1
  Fe  Fe50  1  0.87776022  0.12673301  0.37437018  1
  Fe  Fe51  1  0.25033267  0.24840415  0.00025752  1
  Fe  Fe52  1  0.87382096  0.62284995  0.12582140  1
  Fe  Fe53  1  0.12451712  0.12629725  0.87437049  1
  Fe  Fe54  1  0.24914914  0.24953337  0.49945232  1
  Fe  Fe55  1  0.12336193  0.37553262  0.62392231  1
  Fe  Fe56  1  0.74929889  0.25030045  0.49907189  1
  Fe  Fe57  1  0.50045629  -0.00023412  0.24926753  1
  Fe  Fe58  1  0.25070916  0.25103773  0.75016230  1
  Fe  Fe59  1  0.37491860  0.11992052  0.12252450  1
  Fe  Fe60  1  0.62697510  0.62216427  0.12880315  1
  Fe  Fe61  1  0.37549759  0.62486135  0.62394823  1
  Fe  Fe62  1  0.37408878  0.37585988  0.12354570  1
  Fe  Fe63  1  0.12319790  0.12860927  0.37264336  1
  Fe  Fe64  1  0.87293882  0.62578374  0.87268806  1
  Fe  Fe65  1  0.50171606  0.00184743  0.75479079  1
  Fe  Fe66  1  0.62549583  0.37523900  0.37018554  1
  Fe  Fe67  1  0.62497636  0.12553067  0.37339553  1
  Fe  Fe68  1  0.62607683  0.62442554  0.62718245  1
  Fe  Fe69  1  0.24948344  0.75436852  0.50307706  1
  Fe  Fe70  1  0.87667689  0.37244937  0.37403291  1
  Fe  Fe71  1  0.50085793  0.74921846  0.24987742  1
  Fe  Fe72  1  0.37665482  0.87890285  0.88031294  1
  Fe  Fe73  1  0.87394844  0.12575895  0.87627639  1
  Fe  Fe74  1  0.37345324  0.62490757  0.12609844  1
  Fe  Fe75  1  0.87691685  0.87667801  0.12438235  1
  Fe  Fe76  1  -0.00171508  0.74848899  0.00097935  1
  Fe  Fe77  1  0.37614274  0.87461226  0.37612158  1
  Fe  Fe78  1  0.62373221  0.87507937  0.62418914  1
  Fe  Fe79  1  0.75154430  -0.00486024  0.75276431  1
  Fe  Fe80  1  -0.00199855  0.00001625  0.75054732  1
  Fe  Fe81  1  0.25136863  0.75414696  0.74848375  1
  Fe  Fe82  1  0.00151372  0.00119067  0.00040570  1
  Fe  Fe83  1  0.87649838  0.62625513  0.37395542  1
  Fe  Fe84  1  0.62597306  0.87352435  0.37650913  1
  Fe  Fe85  1  0.49953950  0.24752025  0.75167735  1
  Fe  Fe86  1  0.62816218  0.12402907  0.62668646  1
  Fe  Fe87  1  0.50090656  0.50183210  0.49676194  1
  Fe  Fe88  1  0.24857948  0.49929867  0.49895811  1
  Fe  Fe89  1  0.50084376  0.50163162  -0.00071008  1
  Co  Co90  1  0.24493416  -0.00107455  0.00229374  1
  Co  Co91  1  0.75231710  0.24650642  0.24957156  1
  Co  Co92  1  0.49958367  0.50210823  0.75247898  1
  Co  Co93  1  0.86944175  0.37764178  0.12557789  1
  Co  Co94  1  -0.00147190  0.74731893  0.50243658  1
  Co  Co95  1  0.49700847  0.50045503  0.25061843  1
  Co  Co96  1  0.37892726  0.87754964  0.12240413  1
  Co  Co97  1  0.12842913  0.37501411  0.12398202  1
  Co  Co98  1  0.63134922  0.12730027  0.87206616  1
  Co  Co99  1  -0.00144115  0.74815224  0.24754751  1
  Co  Co100  1  0.11992156  0.87320044  0.12444895  1
  Co  Co101  1  0.50651211  0.00413428  -0.00411979  1
  Co  Co102  1  0.75008277  0.49541942  0.75386131  1
  Co  Co103  1  0.24711553  -0.00199537  0.49760874  1
  Co  Co104  1  0.00013444  0.00087891  0.24992077  1
  Co  Co105  1  0.75245156  0.50138825  0.25338603  1
  Co  Co106  1  0.12129932  0.87584281  0.62519822  1
  Co  Co107  1  0.00062862  0.00369119  0.49940641  1
  Co  Co108  1  0.87483175  0.37743801  0.62212609  1
  Co  Co109  1  0.62523056  0.86961844  0.87551513  1
  Co  Co110  1  0.87803341  0.37406598  0.87817598  1
  Co  Co111  1  0.75341713  0.75443614  0.74673637  1
  Co  Co112  1  0.75060555  0.74921466  0.00365176  1
  Co  Co113  1  0.00073851  0.49852558  0.75172347  1
  Co  Co114  1  0.62475068  0.62600980  0.37352445  1
  Co  Co115  1  0.25048041  0.50024846  -0.00172261  1
  Co  Co116  1  0.37115317  0.12304132  0.87640576  1
  Co  Co117  1  0.75035987  0.00070569  0.49820874  1
  Co  Co118  1  0.37790201  0.87909787  0.62424978  1
  Co  Co119  1  0.62639139  0.12411913  0.12731072  1
  Co  Co120  1  0.62188317  0.37318374  0.87612049  1
  Co  Co121  1  0.25260187  0.24949462  0.24860282  1
  Co  Co122  1  0.00001001  0.24881250  0.50285303  1
  Co  Co123  1  -0.00292014  0.25240221  0.24424130  1
  Co  Co124  1  0.12381840  0.37116781  0.37376695  1
  Co  Co125  1  0.87385022  0.12156590  0.12342557  1
  Co  Co126  1  0.87620396  0.87406454  0.87920594  1
  Co  Co127  1  0.50080239  0.74933459  0.50022676  1
