# generated using pymatgen
data_Fe45Co19
_symmetry_space_group_name_H-M   'P 1'
_cell_length_a   11.41740096
_cell_length_b   11.41447462
_cell_length_c   11.41501723
_cell_angle_alpha   89.99641525
_cell_angle_beta   89.99750569
_cell_angle_gamma   89.99429784
_symmetry_Int_Tables_number   1
_chemical_formula_structural   Fe45Co19
_chemical_formula_sum   'Fe90 Co38'
_cell_volume   1487.64650998
_cell_formula_units_Z   2
loop_
 _symmetry_equiv_pos_site_id
 _symmetry_equiv_pos_as_xyz
  1  'x, y, z'
loop_
 _atom_site_type_symbol
 _atom_site_label
 _atom_site_symmetry_multiplicity
 _atom_site_fract_x
 _atom_site_fract_y
 _atom_site_fract_z
 _atom_site_occupancy
  Fe  Fe0  1  0.37744667  0.62891596  0.62212260  1
  Fe  Fe1  1  0.87719183  0.87417666  0.62834458  1
  Fe  Fe2  1  0.87723590  0.12491978  0.87173857  1
  Fe  Fe3  1  0.37549280  0.37139867  0.62670614  1
  Fe  Fe4  1  0.49873824  0.50441744  0.24853865  1
  Fe  Fe5  1  -0.00014149  0.49994330  0.24964582  1
  Fe  Fe6  1  0.00062670  0.75017931  -0.00274216  1
  Fe  Fe7  1  0.74928835  0.74926479  0.74992002  1
  Fe  Fe8  1  0.49889406  0.75088361  0.00095843  1
  Fe  Fe9  1  0.12170935  0.62643419  0.62343466  1
  Fe  Fe10  1  0.25163563  0.49774244  -0.00136291  1
  Fe  Fe11  1  0.62354625  0.87593371  0.12613596  1
  Fe  Fe12  1  0.74996648  0.49954038  0.24840741  1
  Fe  Fe13  1  0.87489545  0.62297620  0.87498235  1
  Fe  Fe14  1  0.12678485  0.62619567  0.37711342  1
  Fe  Fe15  1  0.62390271  0.87727673  0.62830074  1
  Fe  Fe16  1  0.87321159  0.87627591  0.87158173  1
  Fe  Fe17  1  0.49707767  0.25242183  -0.00290734  1
  Fe  Fe18  1  0.25050581  0.75127601  0.24906453  1
  Fe  Fe19  1  0.62375581  0.37612166  0.12288811  1
  Fe  Fe20  1  0.74921486  0.00201272  0.24830863  1
  Fe  Fe21  1  0.87572403  0.62574577  0.62430234  1
  Fe  Fe22  1  0.50101311  0.75146595  0.75184952  1
  Fe  Fe23  1  0.25234435  -0.00016122  -0.00166690  1
  Fe  Fe24  1  0.37436880  0.87206095  0.37688516  1
  Fe  Fe25  1  0.12430608  0.12470724  0.12140689  1
  Fe  Fe26  1  0.87610899  0.12927425  0.12746569  1
  Fe  Fe27  1  0.12609592  0.37358928  0.62581179  1
  Fe  Fe28  1  0.62612413  0.87428369  0.37385565  1
  Fe  Fe29  1  0.62446619  0.37571801  0.37655683  1
  Fe  Fe30  1  0.87551342  0.62582374  0.12496036  1
  Fe  Fe31  1  0.87434690  0.37501761  0.62688910  1
  Fe  Fe32  1  0.75068847  0.00021089  -0.00017216  1
  Fe  Fe33  1  0.24947681  0.74904155  0.74857815  1
  Fe  Fe34  1  0.62506504  0.12406772  0.37650799  1
  Fe  Fe35  1  0.37738868  0.12270323  0.12396061  1
  Fe  Fe36  1  0.00175987  0.00067416  0.25002032  1
  Fe  Fe37  1  0.37436294  0.12501251  0.37528470  1
  Fe  Fe38  1  0.12442954  0.37553683  0.12365560  1
  Fe  Fe39  1  0.12537912  0.62551477  0.12317767  1
  Fe  Fe40  1  0.49970968  0.49813108  0.75241941  1
  Fe  Fe41  1  0.49854085  0.74711342  0.24764860  1
  Fe  Fe42  1  0.87396388  0.37157614  0.37115418  1
  Fe  Fe43  1  0.37524523  0.37567590  0.37458869  1
  Fe  Fe44  1  0.87790932  0.12528786  0.62723973  1
  Fe  Fe45  1  -0.00158327  0.49939104  0.49894372  1
  Fe  Fe46  1  0.12533329  0.62297180  0.87580545  1
  Fe  Fe47  1  0.87404401  0.12785573  0.37259394  1
  Fe  Fe48  1  0.12668090  0.87749209  0.87301212  1
  Fe  Fe49  1  0.49734538  -0.00079106  0.50084399  1
  Fe  Fe50  1  0.75126307  -0.00079553  0.50224005  1
  Fe  Fe51  1  0.49883023  -0.00435270  -0.00503964  1
  Fe  Fe52  1  -0.00048058  -0.00114960  0.49985926  1
  Fe  Fe53  1  0.24966146  0.24883818  0.24743058  1
  Fe  Fe54  1  0.62461562  0.62404853  0.87844991  1
  Fe  Fe55  1  0.62480853  0.12283403  0.87406359  1
  Fe  Fe56  1  0.74800292  0.25098473  0.50111465  1
  Fe  Fe57  1  0.75194652  0.49744463  0.00117082  1
  Fe  Fe58  1  0.74954163  0.75162081  0.00070442  1
  Fe  Fe59  1  0.62570189  0.62380317  0.62250375  1
  Fe  Fe60  1  0.00047908  0.25063991  0.49966899  1
  Fe  Fe61  1  0.00177811  0.49809926  0.75245123  1
  Fe  Fe62  1  0.25094811  0.50134051  0.25051728  1
  Fe  Fe63  1  0.25207015  0.24886151  0.50079364  1
  Fe  Fe64  1  0.74836703  0.25018226  0.75004239  1
  Fe  Fe65  1  0.62212155  0.12278180  0.12374074  1
  Fe  Fe66  1  0.25228335  -0.00034988  0.50528330  1
  Fe  Fe67  1  0.25082221  0.75266319  0.00108999  1
  Fe  Fe68  1  0.37523774  0.62568823  0.87647638  1
  Fe  Fe69  1  -0.00221857  -0.00195835  -0.00048702  1
  Fe  Fe70  1  0.37568590  0.37631569  0.12498823  1
  Fe  Fe71  1  0.12634010  0.12363984  0.37666001  1
  Fe  Fe72  1  0.25160632  0.50209311  0.74849503  1
  Fe  Fe73  1  0.25181935  0.50122701  0.50176792  1
  Fe  Fe74  1  0.49890551  0.49975034  0.50051025  1
  Fe  Fe75  1  0.25020371  -0.00127233  0.24798712  1
  Fe  Fe76  1  0.87567259  0.87400469  0.12661131  1
  Fe  Fe77  1  0.00278890  0.75168803  0.25113477  1
  Fe  Fe78  1  0.24632448  0.24269219  0.75300987  1
  Fe  Fe79  1  0.50088414  0.24798514  0.25104312  1
  Fe  Fe80  1  0.87203244  0.62812128  0.37628445  1
  Fe  Fe81  1  0.62139967  0.12411197  0.62567504  1
  Fe  Fe82  1  0.12405477  0.87437318  0.62607123  1
  Fe  Fe83  1  0.12635449  0.37485999  0.37572733  1
  Fe  Fe84  1  0.50087735  0.25103417  0.75250307  1
  Fe  Fe85  1  -0.00040250  0.25551248  -0.00353760  1
  Fe  Fe86  1  0.87372132  0.87372115  0.37413341  1
  Fe  Fe87  1  0.62771605  0.62666070  0.37706773  1
  Fe  Fe88  1  0.74668652  0.49874398  0.74969376  1
  Fe  Fe89  1  0.75074792  0.25058842  -0.00033683  1
  Co  Co90  1  0.50339080  0.75141582  0.50028710  1
  Co  Co91  1  0.25215302  0.24968313  0.00047979  1
  Co  Co92  1  0.12920598  0.37585361  0.87372287  1
  Co  Co93  1  0.75141780  0.49834019  0.49962014  1
  Co  Co94  1  0.12224449  0.12329511  0.87999594  1
  Co  Co95  1  0.12431620  0.87591090  0.12360174  1
  Co  Co96  1  0.49609410  -0.00138482  0.75258834  1
  Co  Co97  1  0.00271384  0.25147742  0.75163514  1
  Co  Co98  1  0.74849039  0.75076672  0.24773809  1
  Co  Co99  1  0.87514254  0.37230252  0.12873872  1
  Co  Co100  1  0.12742538  0.87709096  0.37660662  1
  Co  Co101  1  0.62321641  0.37507839  0.62421521  1
  Co  Co102  1  0.87267438  0.37619934  0.87149141  1
  Co  Co103  1  0.37689923  0.87677571  0.12561862  1
  Co  Co104  1  -0.00027431  0.75082486  0.49844598  1
  Co  Co105  1  0.49945654  0.00013720  0.25351427  1
  Co  Co106  1  0.37399018  0.62701619  0.37813079  1
  Co  Co107  1  0.00360740  0.00122519  0.75015106  1
  Co  Co108  1  -0.00088278  0.49821740  -0.00042059  1
  Co  Co109  1  0.37610650  0.12448025  0.87573868  1
  Co  Co110  1  0.74992604  0.00176453  0.74963413  1
  Co  Co111  1  0.37191502  0.62430298  0.12222168  1
  Co  Co112  1  0.37552981  0.87238488  0.62677568  1
  Co  Co113  1  0.49951210  0.24993614  0.49765990  1
  Co  Co114  1  0.37913872  0.12709939  0.62678085  1
  Co  Co115  1  0.00584854  0.24912204  0.25024327  1
  Co  Co116  1  0.12211109  0.12506716  0.62219844  1
  Co  Co117  1  0.24992396  0.00390169  0.74786429  1
  Co  Co118  1  0.24777883  0.74985872  0.50233957  1
  Co  Co119  1  0.49702675  0.49896330  -0.00225816  1
  Co  Co120  1  0.74980569  0.75256464  0.50369232  1
  Co  Co121  1  0.37138113  0.37432407  0.87169044  1
  Co  Co122  1  0.74353997  0.24892276  0.24861699  1
  Co  Co123  1  0.62641112  0.62400701  0.12216687  1
  Co  Co124  1  0.62778065  0.87506646  0.87413785  1
  Co  Co125  1  0.00045972  0.74871663  0.75372309  1
  Co  Co126  1  0.37199163  0.87346250  0.87193435  1
  Co  Co127  1  0.62620085  0.37545534  0.87635598  1
