# generated using pymatgen
data_Fe45Co19
_symmetry_space_group_name_H-M   'P 1'
_cell_length_a   11.41559504
_cell_length_b   11.41483475
_cell_length_c   11.41591635
_cell_angle_alpha   90.00121987
_cell_angle_beta   89.99529834
_cell_angle_gamma   89.99854776
_symmetry_Int_Tables_number   1
_chemical_formula_structural   Fe45Co19
_chemical_formula_sum   'Fe90 Co38'
_cell_volume   1487.57530141
_cell_formula_units_Z   2
loop_
 _symmetry_equiv_pos_site_id
 _symmetry_equiv_pos_as_xyz
  1  'x, y, z'
loop_
 _atom_site_type_symbol
 _atom_site_label
 _atom_site_symmetry_multiplicity
 _atom_site_fract_x
 _atom_site_fract_y
 _atom_site_fract_z
 _atom_site_occupancy
  Fe  Fe0  1  0.74759686  -0.00148590  -0.00074014  1
  Fe  Fe1  1  0.12525414  0.87511303  0.37781450  1
  Fe  Fe2  1  0.37485402  0.62517851  0.12634780  1
  Fe  Fe3  1  -0.00042930  0.49874942  0.74601126  1
  Fe  Fe4  1  0.87719616  0.37520152  0.37580795  1
  Fe  Fe5  1  0.37191824  0.37625994  0.12742969  1
  Fe  Fe6  1  0.75201237  0.49967990  0.50058949  1
  Fe  Fe7  1  0.87598670  0.12264540  0.37471048  1
  Fe  Fe8  1  0.00264198  0.24942751  0.74935502  1
  Fe  Fe9  1  0.12482515  0.62505036  0.62185705  1
  Fe  Fe10  1  0.24814555  0.49897802  -0.00031031  1
  Fe  Fe11  1  0.74760166  0.00007954  0.24918953  1
  Fe  Fe12  1  0.37719210  0.12196540  0.37744152  1
  Fe  Fe13  1  0.49935994  0.24804860  0.24914493  1
  Fe  Fe14  1  0.62509274  0.37407885  0.12389029  1
  Fe  Fe15  1  0.74986676  0.24770823  0.49819456  1
  Fe  Fe16  1  0.00160742  -0.00315223  0.24748406  1
  Fe  Fe17  1  0.87784472  0.87558324  0.37237127  1
  Fe  Fe18  1  0.00108457  0.24950223  0.24744360  1
  Fe  Fe19  1  0.87819669  0.12555932  0.87730334  1
  Fe  Fe20  1  0.87954019  0.37362390  0.87810300  1
  Fe  Fe21  1  0.74731876  0.75230364  0.00010608  1
  Fe  Fe22  1  0.87423587  0.62903103  0.12727501  1
  Fe  Fe23  1  0.62332277  0.37348762  0.87648432  1
  Fe  Fe24  1  0.75017816  0.24931349  0.75317100  1
  Fe  Fe25  1  0.49957304  0.49862019  0.74868152  1
  Fe  Fe26  1  0.87762660  0.37303250  0.12087940  1
  Fe  Fe27  1  0.37511825  0.62560687  0.87429329  1
  Fe  Fe28  1  0.75117452  0.49988305  0.75052736  1
  Fe  Fe29  1  0.49889924  0.49999856  0.00052187  1
  Fe  Fe30  1  0.49644355  0.00332980  0.74516255  1
  Fe  Fe31  1  0.87614086  0.87255229  0.87434744  1
  Fe  Fe32  1  0.87607924  0.62620996  0.37427532  1
  Fe  Fe33  1  0.12718548  0.12432222  0.62411998  1
  Fe  Fe34  1  0.74913631  0.49895332  0.25039569  1
  Fe  Fe35  1  0.50250763  0.24459533  0.50365056  1
  Fe  Fe36  1  0.24959330  0.74993731  0.74928750  1
  Fe  Fe37  1  -0.00032755  0.25039194  0.50233874  1
  Fe  Fe38  1  0.62456763  0.62435868  0.87430415  1
  Fe  Fe39  1  0.37611406  0.62499953  0.37500173  1
  Fe  Fe40  1  0.62691478  0.37342467  0.62564046  1
  Fe  Fe41  1  0.25296606  0.75203468  -0.00096378  1
  Fe  Fe42  1  0.62345004  0.62724723  0.12530822  1
  Fe  Fe43  1  0.87479384  0.12395123  0.12303401  1
  Fe  Fe44  1  0.00119703  -0.00170877  0.00242162  1
  Fe  Fe45  1  0.00020109  -0.00148706  0.74796306  1
  Fe  Fe46  1  0.62438348  0.12531630  0.12310297  1
  Fe  Fe47  1  0.62571256  0.62587422  0.62376179  1
  Fe  Fe48  1  0.25164770  -0.00171941  0.25157480  1
  Fe  Fe49  1  0.87410874  0.62889926  0.62591484  1
  Fe  Fe50  1  0.75203895  0.50055085  -0.00024103  1
  Fe  Fe51  1  0.49908685  0.74972302  0.74944359  1
  Fe  Fe52  1  0.12108662  0.62515424  0.37628878  1
  Fe  Fe53  1  0.75057244  0.24914394  0.24952704  1
  Fe  Fe54  1  0.49923598  0.75176786  0.49857962  1
  Fe  Fe55  1  0.24851831  0.25066089  0.49613801  1
  Fe  Fe56  1  0.61864954  0.88010560  0.37347311  1
  Fe  Fe57  1  0.12351211  0.62510749  0.87493892  1
  Fe  Fe58  1  0.87072320  0.12197611  0.62494778  1
  Fe  Fe59  1  0.37614443  0.37420076  0.87446583  1
  Fe  Fe60  1  0.37525264  0.12635601  0.87408655  1
  Fe  Fe61  1  0.00085042  0.49948190  0.24781866  1
  Fe  Fe62  1  0.62680916  0.87874930  0.62631254  1
  Fe  Fe63  1  0.24902498  0.25222863  0.25377637  1
  Fe  Fe64  1  0.74978690  0.75315433  0.49831451  1
  Fe  Fe65  1  0.12733277  0.62570008  0.12668460  1
  Fe  Fe66  1  0.24559655  0.25141968  -0.00246323  1
  Fe  Fe67  1  0.62085514  0.87569090  0.87398042  1
  Fe  Fe68  1  0.24683705  0.25176610  0.75301685  1
  Fe  Fe69  1  0.25252618  -0.00157984  0.74714766  1
  Fe  Fe70  1  0.25133187  0.75171269  0.25281219  1
  Fe  Fe71  1  0.62373817  0.37367755  0.37532285  1
  Fe  Fe72  1  0.25396009  -0.00173567  -0.00036639  1
  Fe  Fe73  1  0.74597526  0.75231062  0.25103418  1
  Fe  Fe74  1  0.62105015  0.12739953  0.87562193  1
  Fe  Fe75  1  0.12292130  0.12250032  0.37583074  1
  Fe  Fe76  1  0.12670691  0.87638339  0.87542110  1
  Fe  Fe77  1  0.38074634  0.87329573  0.12670942  1
  Fe  Fe78  1  0.50019330  0.49968299  0.49986245  1
  Fe  Fe79  1  0.37459445  0.62628436  0.62378025  1
  Fe  Fe80  1  0.12715799  0.12347778  0.12483874  1
  Fe  Fe81  1  0.50065994  0.50122301  0.25174969  1
  Fe  Fe82  1  0.37347078  0.12594946  0.12345060  1
  Fe  Fe83  1  0.37356035  0.37237557  0.62353536  1
  Fe  Fe84  1  0.24983482  0.49934670  0.74957518  1
  Fe  Fe85  1  0.12743089  0.87404448  0.62104119  1
  Fe  Fe86  1  0.24980357  0.49783798  0.49628367  1
  Fe  Fe87  1  0.87696687  0.62819203  0.87343620  1
  Fe  Fe88  1  0.87165831  0.87584763  0.62704024  1
  Fe  Fe89  1  0.00135212  0.75177386  0.00365110  1
  Co  Co90  1  0.00364280  0.75215454  0.74777891  1
  Co  Co91  1  0.00280440  0.75283466  0.24825206  1
  Co  Co92  1  0.49846412  0.00476809  0.24733757  1
  Co  Co93  1  0.37746506  0.87884118  0.37597127  1
  Co  Co94  1  0.12640264  0.11873906  0.87394186  1
  Co  Co95  1  0.74949412  0.24912136  -0.00053612  1
  Co  Co96  1  0.87187992  0.87495271  0.12586401  1
  Co  Co97  1  0.00003073  0.50428334  0.00317776  1
  Co  Co98  1  0.49844215  0.00145843  -0.00021677  1
  Co  Co99  1  0.62729874  0.62377651  0.37739396  1
  Co  Co100  1  0.49953583  0.74680446  0.25363424  1
  Co  Co101  1  0.25165096  0.00051102  0.50035690  1
  Co  Co102  1  0.12812678  0.37464063  0.62375006  1
  Co  Co103  1  0.36927150  0.12943511  0.62487571  1
  Co  Co104  1  -0.00082177  -0.00077824  0.50212200  1
  Co  Co105  1  0.12049370  0.37912913  0.87523906  1
  Co  Co106  1  0.00657927  0.24640347  0.00042107  1
  Co  Co107  1  0.25080158  0.74856921  0.49698500  1
  Co  Co108  1  0.49722440  0.25132423  0.00232242  1
  Co  Co109  1  0.50055285  0.24884021  0.74659560  1
  Co  Co110  1  -0.00229000  0.75213377  0.50111353  1
  Co  Co111  1  0.37971602  0.37349269  0.37585246  1
  Co  Co112  1  0.63240293  0.12215651  0.62674633  1
  Co  Co113  1  0.75103708  0.00090340  0.75666718  1
  Co  Co114  1  0.87201459  0.37160787  0.62609038  1
  Co  Co115  1  0.49929986  0.74869040  -0.00270873  1
  Co  Co116  1  0.74718296  0.74997711  0.75091038  1
  Co  Co117  1  0.62011034  0.87448625  0.12591090  1
  Co  Co118  1  0.24944614  0.49931008  0.25515610  1
  Co  Co119  1  0.12626832  0.37527108  0.12628152  1
  Co  Co120  1  0.12006306  0.37512522  0.37523993  1
  Co  Co121  1  0.37609276  0.87545105  0.87204758  1
  Co  Co122  1  0.37344533  0.87212876  0.62266912  1
  Co  Co123  1  -0.00261061  0.49897765  0.50341883  1
  Co  Co124  1  0.62454001  0.12378615  0.37465900  1
  Co  Co125  1  0.12934716  0.87573160  0.12395554  1
  Co  Co126  1  0.75047274  -0.00172129  0.49560028  1
  Co  Co127  1  0.49891607  0.00319019  0.50623546  1
