# generated using pymatgen
data_Fe45Co19
_symmetry_space_group_name_H-M   'P 1'
_cell_length_a   11.41557568
_cell_length_b   11.41545085
_cell_length_c   11.41450375
_cell_angle_alpha   89.99160799
_cell_angle_beta   89.99312854
_cell_angle_gamma   89.99651805
_symmetry_Int_Tables_number   1
_chemical_formula_structural   Fe45Co19
_chemical_formula_sum   'Fe90 Co38'
_cell_volume   1487.46896262
_cell_formula_units_Z   2
loop_
 _symmetry_equiv_pos_site_id
 _symmetry_equiv_pos_as_xyz
  1  'x, y, z'
loop_
 _atom_site_type_symbol
 _atom_site_label
 _atom_site_symmetry_multiplicity
 _atom_site_fract_x
 _atom_site_fract_y
 _atom_site_fract_z
 _atom_site_occupancy
  Fe  Fe0  1  0.00061694  -0.00084596  0.50000872  1
  Fe  Fe1  1  0.24621851  0.50078597  0.75211144  1
  Fe  Fe2  1  0.49902142  0.75036635  0.00092485  1
  Fe  Fe3  1  0.75186607  0.74601457  0.74828002  1
  Fe  Fe4  1  0.25045199  0.75353729  0.25313678  1
  Fe  Fe5  1  0.12469024  0.87699543  0.12539990  1
  Fe  Fe6  1  0.37479854  0.37387597  0.87256815  1
  Fe  Fe7  1  0.62396059  0.87680594  0.37730743  1
  Fe  Fe8  1  0.37480917  0.62757959  0.87428969  1
  Fe  Fe9  1  0.62676693  0.12764402  0.87628648  1
  Fe  Fe10  1  0.49730519  0.24541626  0.74477434  1
  Fe  Fe11  1  0.25221432  0.24807078  0.25053710  1
  Fe  Fe12  1  0.37309928  0.62378151  0.62434642  1
  Fe  Fe13  1  0.37270435  0.11908314  0.37730360  1
  Fe  Fe14  1  0.49494734  0.24535517  0.50518524  1
  Fe  Fe15  1  -0.00169388  0.74942278  -0.00060322  1
  Fe  Fe16  1  0.74984341  0.50015657  0.49852919  1
  Fe  Fe17  1  0.87618821  0.87392779  0.87246869  1
  Fe  Fe18  1  0.37277658  0.62534633  0.12516432  1
  Fe  Fe19  1  0.49976739  0.50046160  0.24990049  1
  Fe  Fe20  1  0.00380292  0.50011187  -0.00304487  1
  Fe  Fe21  1  0.50056843  0.75061980  0.50177486  1
  Fe  Fe22  1  0.00119749  0.50078771  0.25099500  1
  Fe  Fe23  1  0.62482019  0.12573766  0.37639002  1
  Fe  Fe24  1  0.37817916  0.37468672  0.37492104  1
  Fe  Fe25  1  0.87722143  0.37767191  0.87231527  1
  Fe  Fe26  1  0.49937220  0.75161165  0.24940490  1
  Fe  Fe27  1  0.12681869  0.62653201  0.12334567  1
  Fe  Fe28  1  0.12698984  0.37263204  0.12409416  1
  Fe  Fe29  1  0.87705416  0.38104574  0.62830856  1
  Fe  Fe30  1  0.25034211  0.49754650  0.49873124  1
  Fe  Fe31  1  -0.00040177  0.25101425  0.50227719  1
  Fe  Fe32  1  -0.00083056  0.74815091  0.24894955  1
  Fe  Fe33  1  0.74758283  0.49982838  -0.00296797  1
  Fe  Fe34  1  0.49828828  0.50028998  -0.00018182  1
  Fe  Fe35  1  0.62539647  0.87229648  0.87525302  1
  Fe  Fe36  1  -0.00088342  0.00048267  -0.00224990  1
  Fe  Fe37  1  0.87604619  0.87219798  0.37792242  1
  Fe  Fe38  1  0.75075422  0.74944782  0.25079241  1
  Fe  Fe39  1  -0.00093046  0.74236081  0.74657582  1
  Fe  Fe40  1  0.25053478  0.75610519  -0.00273911  1
  Fe  Fe41  1  0.24946828  0.75170479  0.75034116  1
  Fe  Fe42  1  0.62548318  0.62581826  0.12407936  1
  Fe  Fe43  1  0.12924924  0.12461363  0.62080644  1
  Fe  Fe44  1  0.87647334  0.12627742  0.37562831  1
  Fe  Fe45  1  0.25091801  0.25037175  0.74787433  1
  Fe  Fe46  1  0.62443547  0.62591488  0.37556398  1
  Fe  Fe47  1  -0.00121948  0.24940155  0.24686977  1
  Fe  Fe48  1  0.75058092  0.49948956  0.25129222  1
  Fe  Fe49  1  0.24895660  0.50035057  0.25162541  1
  Fe  Fe50  1  0.75114032  0.25159508  0.24832967  1
  Fe  Fe51  1  -0.00021920  0.00294356  0.75031321  1
  Fe  Fe52  1  0.87654320  0.37530597  0.37411985  1
  Fe  Fe53  1  0.25066011  0.75582337  0.49900931  1
  Fe  Fe54  1  0.37417000  0.12184525  0.87358375  1
  Fe  Fe55  1  0.74981977  0.00041417  0.25181363  1
  Fe  Fe56  1  0.62772027  0.87516453  0.12383118  1
  Fe  Fe57  1  0.62155508  0.37182201  0.37633276  1
  Fe  Fe58  1  0.24741825  -0.00366885  0.75433516  1
  Fe  Fe59  1  0.62265964  0.37411023  0.62409004  1
  Fe  Fe60  1  0.25009974  0.49710112  -0.00172566  1
  Fe  Fe61  1  0.49596245  0.25021913  0.00197119  1
  Fe  Fe62  1  0.00047143  0.24873981  0.74922605  1
  Fe  Fe63  1  0.62329739  0.37307664  0.12574876  1
  Fe  Fe64  1  0.12189540  0.87396100  0.62633977  1
  Fe  Fe65  1  0.37380850  0.87861588  0.12749398  1
  Fe  Fe66  1  0.12777844  0.12400543  0.12346623  1
  Fe  Fe67  1  0.50041874  0.75039801  0.74778016  1
  Fe  Fe68  1  -0.00243043  0.25046192  -0.00029531  1
  Fe  Fe69  1  0.62838023  0.87917878  0.62387432  1
  Fe  Fe70  1  0.62567848  0.62276717  0.62458613  1
  Fe  Fe71  1  0.87167253  0.12454456  0.12213606  1
  Fe  Fe72  1  0.50044642  0.50134436  0.74954493  1
  Fe  Fe73  1  0.37260266  0.12033436  0.12543751  1
  Fe  Fe74  1  0.50077415  -0.00103029  -0.00106678  1
  Fe  Fe75  1  0.75108496  0.25095464  0.74996253  1
  Fe  Fe76  1  0.12491537  0.37641704  0.62499131  1
  Fe  Fe77  1  0.12280593  0.62880198  0.37905449  1
  Fe  Fe78  1  0.87424535  0.62269634  0.12418351  1
  Fe  Fe79  1  0.37622476  0.62636717  0.37637733  1
  Fe  Fe80  1  0.12425384  0.37100122  0.37539375  1
  Fe  Fe81  1  0.62272110  0.37310854  0.87370011  1
  Fe  Fe82  1  0.87311287  0.87605773  0.12418798  1
  Fe  Fe83  1  0.37706085  0.88102025  0.62530018  1
  Fe  Fe84  1  0.00170915  0.00185503  0.25163666  1
  Fe  Fe85  1  0.12595585  0.12683058  0.87698718  1
  Fe  Fe86  1  0.87307203  0.12361774  0.62510654  1
  Fe  Fe87  1  0.62718714  0.12621064  0.12349431  1
  Fe  Fe88  1  0.75226538  0.25029456  0.50167061  1
  Fe  Fe89  1  0.75040720  0.00196842  0.75268046  1
  Co  Co90  1  0.49732803  0.24707408  0.24991150  1
  Co  Co91  1  0.12503303  0.36990814  0.87476019  1
  Co  Co92  1  0.62235113  0.62790844  0.87508475  1
  Co  Co93  1  0.00090293  0.49909769  0.49856546  1
  Co  Co94  1  0.74968967  0.74855794  0.50248071  1
  Co  Co95  1  0.63014646  0.12458449  0.62477524  1
  Co  Co96  1  0.50285115  0.00061922  0.24820332  1
  Co  Co97  1  0.87451857  0.62213350  0.87420764  1
  Co  Co98  1  0.87409158  0.12668310  0.87504148  1
  Co  Co99  1  0.24449558  -0.00700799  0.49606237  1
  Co  Co100  1  0.74549862  0.50037045  0.75153105  1
  Co  Co101  1  0.75253532  0.00092403  0.49796480  1
  Co  Co102  1  0.75056391  -0.00137575  -0.00326989  1
  Co  Co103  1  0.25423112  0.25281353  0.50149910  1
  Co  Co104  1  0.75185150  0.25412850  -0.00095288  1
  Co  Co105  1  0.87547766  0.37843783  0.12348367  1
  Co  Co106  1  0.24530139  -0.00204961  0.25504626  1
  Co  Co107  1  0.50427810  0.00271900  0.75007004  1
  Co  Co108  1  0.12816767  0.62972599  0.87789179  1
  Co  Co109  1  0.12887538  0.62489749  0.62016405  1
  Co  Co110  1  0.37535607  0.37848950  0.62712141  1
  Co  Co111  1  0.37955931  0.87539722  0.87240004  1
  Co  Co112  1  0.75232967  0.74848323  -0.00089710  1
  Co  Co113  1  0.11813432  0.87100916  0.37452017  1
  Co  Co114  1  0.25387288  0.25008334  0.00033807  1
  Co  Co115  1  0.87646946  0.62673865  0.37603016  1
  Co  Co116  1  0.37451819  0.37646112  0.12759601  1
  Co  Co117  1  0.24876527  -0.00365078  -0.00434107  1
  Co  Co118  1  0.49994587  0.50114716  0.50098716  1
  Co  Co119  1  -0.00336930  0.74908125  0.50656703  1
  Co  Co120  1  0.12500368  0.12916790  0.37786195  1
  Co  Co121  1  0.87400597  0.61798324  0.62442882  1
  Co  Co122  1  0.50247183  0.00373814  0.50391574  1
  Co  Co123  1  0.38101119  0.87853077  0.37554020  1
  Co  Co124  1  0.11872338  0.87279260  0.87276021  1
  Co  Co125  1  0.87403627  0.87736696  0.62706372  1
  Co  Co126  1  0.36776822  0.11682910  0.62568073  1
  Co  Co127  1  0.00724219  0.50504459  0.75203517  1
