# generated using pymatgen
data_Fe45Co19
_symmetry_space_group_name_H-M   'P 1'
_cell_length_a   11.41568266
_cell_length_b   11.41455114
_cell_length_c   11.41486811
_cell_angle_alpha   90.00124833
_cell_angle_beta   89.99709885
_cell_angle_gamma   90.00055194
_symmetry_Int_Tables_number   1
_chemical_formula_structural   Fe45Co19
_chemical_formula_sum   'Fe90 Co38'
_cell_volume   1487.41317246
_cell_formula_units_Z   2
loop_
 _symmetry_equiv_pos_site_id
 _symmetry_equiv_pos_as_xyz
  1  'x, y, z'
loop_
 _atom_site_type_symbol
 _atom_site_label
 _atom_site_symmetry_multiplicity
 _atom_site_fract_x
 _atom_site_fract_y
 _atom_site_fract_z
 _atom_site_occupancy
  Fe  Fe0  1  0.00014937  -0.00098882  0.49681331  1
  Fe  Fe1  1  0.87432935  0.37202199  0.62650698  1
  Fe  Fe2  1  0.12196772  0.37427003  0.87760235  1
  Fe  Fe3  1  -0.00017956  0.50136838  0.50117134  1
  Fe  Fe4  1  0.12671102  0.62385375  0.12478118  1
  Fe  Fe5  1  0.12588777  0.12411509  0.62613585  1
  Fe  Fe6  1  0.74813501  0.25089360  0.00055883  1
  Fe  Fe7  1  0.25020253  0.25028538  0.49740266  1
  Fe  Fe8  1  0.74844238  0.75179970  0.50133163  1
  Fe  Fe9  1  0.75045402  0.75045429  0.25177872  1
  Fe  Fe10  1  0.75121782  0.24455869  0.75004205  1
  Fe  Fe11  1  0.75093040  0.75349239  0.75101957  1
  Fe  Fe12  1  0.12592259  0.12494627  0.12617606  1
  Fe  Fe13  1  0.37456707  0.37576847  0.62273241  1
  Fe  Fe14  1  0.62522942  0.12570839  0.37552552  1
  Fe  Fe15  1  0.62442368  0.37442938  0.37384555  1
  Fe  Fe16  1  0.24565174  0.75356659  0.50192032  1
  Fe  Fe17  1  0.62704880  0.62363642  0.62636158  1
  Fe  Fe18  1  0.74805488  0.75358961  -0.00297308  1
  Fe  Fe19  1  0.37525906  0.87763848  0.62389106  1
  Fe  Fe20  1  0.75136481  0.00067918  0.49921245  1
  Fe  Fe21  1  0.87554014  0.37316433  0.37434795  1
  Fe  Fe22  1  0.24970156  -0.00166253  -0.00137917  1
  Fe  Fe23  1  0.50090712  0.24954477  0.50125310  1
  Fe  Fe24  1  0.38063613  0.87492599  0.87381337  1
  Fe  Fe25  1  0.50274325  0.75334652  0.00417802  1
  Fe  Fe26  1  0.12348058  0.37494113  0.37411555  1
  Fe  Fe27  1  0.37241804  0.62116394  0.62198325  1
  Fe  Fe28  1  0.62309697  0.87432344  0.37365678  1
  Fe  Fe29  1  0.24966050  0.49968283  0.75098717  1
  Fe  Fe30  1  0.37794101  0.37635006  0.87746886  1
  Fe  Fe31  1  -0.00372137  0.00578496  0.75345886  1
  Fe  Fe32  1  0.74915682  0.49921047  -0.00070632  1
  Fe  Fe33  1  0.37816791  0.37752292  0.12236704  1
  Fe  Fe34  1  0.74659390  -0.00402942  -0.00690250  1
  Fe  Fe35  1  0.49974539  0.24933717  0.24750848  1
  Fe  Fe36  1  0.24868482  0.75093766  -0.00198716  1
  Fe  Fe37  1  0.37716729  0.62473589  0.87699515  1
  Fe  Fe38  1  0.25288079  0.00105730  0.74997369  1
  Fe  Fe39  1  0.87301932  0.87511718  0.12351111  1
  Fe  Fe40  1  0.62470428  0.12328638  0.12237669  1
  Fe  Fe41  1  0.50305090  0.74858050  0.50206660  1
  Fe  Fe42  1  0.12436563  0.12508921  0.37235360  1
  Fe  Fe43  1  0.25043536  0.25067425  0.00092067  1
  Fe  Fe44  1  0.12512254  0.62564104  0.37547844  1
  Fe  Fe45  1  0.75003550  0.49921421  0.75220740  1
  Fe  Fe46  1  0.87492638  0.62569847  0.87591081  1
  Fe  Fe47  1  0.87418657  0.12492035  0.12408354  1
  Fe  Fe48  1  0.12417014  0.62315347  0.87476551  1
  Fe  Fe49  1  0.00090033  0.00204503  -0.00098478  1
  Fe  Fe50  1  0.25423117  0.75179173  0.25198933  1
  Fe  Fe51  1  0.25160870  0.25234170  0.24953491  1
  Fe  Fe52  1  0.75148004  0.00061311  0.25243203  1
  Fe  Fe53  1  0.49857218  -0.00410418  0.24730781  1
  Fe  Fe54  1  0.50024975  0.00277912  0.50262432  1
  Fe  Fe55  1  -0.00269500  0.50187927  0.24822775  1
  Fe  Fe56  1  0.00088385  0.74898452  0.74857175  1
  Fe  Fe57  1  0.74847198  0.49863743  0.49869196  1
  Fe  Fe58  1  0.37494189  0.62381275  0.12280087  1
  Fe  Fe59  1  0.12308801  0.37559283  0.12284518  1
  Fe  Fe60  1  0.25118564  0.49865150  0.25147185  1
  Fe  Fe61  1  0.12319525  0.87652915  0.87244904  1
  Fe  Fe62  1  0.87389784  0.62506286  0.62527844  1
  Fe  Fe63  1  0.62609471  0.37297560  0.62570291  1
  Fe  Fe64  1  0.24985461  0.75019090  0.74841773  1
  Fe  Fe65  1  0.00220738  0.75254305  0.50210858  1
  Fe  Fe66  1  0.37553153  0.12458823  0.37572560  1
  Fe  Fe67  1  0.00049333  0.74920211  0.00137858  1
  Fe  Fe68  1  0.12461025  0.37523879  0.62496611  1
  Fe  Fe69  1  0.75043956  0.24999283  0.25003563  1
  Fe  Fe70  1  0.37746982  0.62424864  0.37844874  1
  Fe  Fe71  1  0.87627717  0.37472539  0.12307893  1
  Fe  Fe72  1  0.62319703  0.62809273  0.87309971  1
  Fe  Fe73  1  0.25253320  -0.00301074  0.25317648  1
  Fe  Fe74  1  0.12645840  0.87471637  0.12697439  1
  Fe  Fe75  1  0.87290561  0.62597644  0.37624866  1
  Fe  Fe76  1  0.50058519  0.50108389  0.74928419  1
  Fe  Fe77  1  -0.00147817  0.24773479  0.50036577  1
  Fe  Fe78  1  0.87604475  0.87805805  0.62702023  1
  Fe  Fe79  1  0.62347191  0.37205271  0.87552326  1
  Fe  Fe80  1  0.62791888  0.62511329  0.12820021  1
  Fe  Fe81  1  -0.00257234  0.75051838  0.24912518  1
  Fe  Fe82  1  0.49989202  0.24583998  0.74842941  1
  Fe  Fe83  1  -0.00273101  -0.00072989  0.25135275  1
  Fe  Fe84  1  0.24976024  0.24990325  0.75120520  1
  Fe  Fe85  1  0.50133562  0.50097626  0.25079920  1
  Fe  Fe86  1  -0.00185834  0.49875308  0.75070181  1
  Fe  Fe87  1  0.62434691  0.87881102  0.63067371  1
  Fe  Fe88  1  0.37529245  0.12268843  0.12314022  1
  Fe  Fe89  1  0.37785841  0.12436451  0.87793341  1
  Co  Co90  1  0.87063394  0.62669312  0.12401636  1
  Co  Co91  1  0.37774789  0.87464953  0.38023806  1
  Co  Co92  1  0.37781901  0.37537267  0.37590433  1
  Co  Co93  1  0.75035973  0.25080574  0.49784668  1
  Co  Co94  1  0.50478053  0.49906386  0.50123479  1
  Co  Co95  1  -0.00278924  0.50176742  0.00057491  1
  Co  Co96  1  0.87410659  0.37222014  0.87512945  1
  Co  Co97  1  0.75165836  0.49725148  0.25074901  1
  Co  Co98  1  0.62933647  0.12475450  0.62380336  1
  Co  Co99  1  0.12568254  0.62248865  0.62583452  1
  Co  Co100  1  0.12813333  0.12544480  0.87498051  1
  Co  Co101  1  0.62405000  0.37500465  0.12550726  1
  Co  Co102  1  0.12305823  0.87995137  0.62953448  1
  Co  Co103  1  0.00135123  0.24647362  -0.00061077  1
  Co  Co104  1  0.24789470  0.49787835  0.49777925  1
  Co  Co105  1  0.87383935  0.12418652  0.62282133  1
  Co  Co106  1  0.61753540  0.87449584  0.86768077  1
  Co  Co107  1  0.49923696  0.00704068  0.74676830  1
  Co  Co108  1  -0.00000524  0.24770554  0.75106972  1
  Co  Co109  1  0.24924934  0.49946031  -0.00126897  1
  Co  Co110  1  0.37159037  0.87503035  0.12299019  1
  Co  Co111  1  0.37111800  0.12707751  0.62244165  1
  Co  Co112  1  0.87484307  0.12709931  0.37468866  1
  Co  Co113  1  -0.00070581  0.24974511  0.24837389  1
  Co  Co114  1  0.49949642  0.24926706  0.00192560  1
  Co  Co115  1  0.50520765  0.50184012  -0.00065758  1
  Co  Co116  1  0.50272768  -0.00457598  0.00262754  1
  Co  Co117  1  0.49789175  0.75180571  0.24830185  1
  Co  Co118  1  0.87897005  0.87365196  0.87482841  1
  Co  Co119  1  0.87225948  0.12821822  0.87856799  1
  Co  Co120  1  0.87352048  0.87300105  0.37523445  1
  Co  Co121  1  0.62579160  0.62603925  0.37305915  1
  Co  Co122  1  0.24746320  -0.00039841  0.49849095  1
  Co  Co123  1  0.49710375  0.74626412  0.74450945  1
  Co  Co124  1  0.12505662  0.87417731  0.37165728  1
  Co  Co125  1  0.75125688  0.00114444  0.75460773  1
  Co  Co126  1  0.62979540  0.87538639  0.12875249  1
  Co  Co127  1  0.62239619  0.12545303  0.87700711  1
