# generated using pymatgen
data_Fe45Co19
_symmetry_space_group_name_H-M   'P 1'
_cell_length_a   11.41553928
_cell_length_b   11.41587760
_cell_length_c   11.41594740
_cell_angle_alpha   89.99912674
_cell_angle_beta   89.99211728
_cell_angle_gamma   89.99765592
_symmetry_Int_Tables_number   1
_chemical_formula_structural   Fe45Co19
_chemical_formula_sum   'Fe90 Co38'
_cell_volume   1487.70797435
_cell_formula_units_Z   2
loop_
 _symmetry_equiv_pos_site_id
 _symmetry_equiv_pos_as_xyz
  1  'x, y, z'
loop_
 _atom_site_type_symbol
 _atom_site_label
 _atom_site_symmetry_multiplicity
 _atom_site_fract_x
 _atom_site_fract_y
 _atom_site_fract_z
 _atom_site_occupancy
  Fe  Fe0  1  0.37635688  0.37679315  0.12299083  1
  Fe  Fe1  1  0.00107269  0.49665006  0.75066898  1
  Fe  Fe2  1  0.87574044  0.62415274  0.87488152  1
  Fe  Fe3  1  0.74975272  0.74917099  0.50467786  1
  Fe  Fe4  1  0.24805548  0.00047722  0.49812829  1
  Fe  Fe5  1  0.00184556  0.25161163  0.75192456  1
  Fe  Fe6  1  0.37530266  0.87728912  0.87976821  1
  Fe  Fe7  1  0.00312814  -0.00097875  -0.00013107  1
  Fe  Fe8  1  0.00031471  0.25108624  0.49838779  1
  Fe  Fe9  1  0.87410985  0.37343135  0.62583581  1
  Fe  Fe10  1  0.50035374  0.75162857  0.50163182  1
  Fe  Fe11  1  0.74871796  0.00085616  0.50132190  1
  Fe  Fe12  1  0.75041778  0.50033489  0.75050027  1
  Fe  Fe13  1  0.00316441  0.25222457  0.00104918  1
  Fe  Fe14  1  0.62423826  0.12498792  0.62929771  1
  Fe  Fe15  1  0.25168045  0.74585304  0.24828836  1
  Fe  Fe16  1  0.62456913  0.87635176  0.12579402  1
  Fe  Fe17  1  0.50061920  0.25085557  0.24585479  1
  Fe  Fe18  1  0.24780974  0.50183061  0.00035329  1
  Fe  Fe19  1  0.24960912  0.25144536  0.49762276  1
  Fe  Fe20  1  -0.00495366  0.24871471  0.24928341  1
  Fe  Fe21  1  0.74680628  -0.00013464  -0.00198679  1
  Fe  Fe22  1  0.12537466  0.87190834  0.12511499  1
  Fe  Fe23  1  0.37566450  0.62388623  0.62700190  1
  Fe  Fe24  1  0.25250699  0.24918220  0.75092852  1
  Fe  Fe25  1  0.87513709  0.87379686  0.12173400  1
  Fe  Fe26  1  0.74498601  0.24953667  0.00414681  1
  Fe  Fe27  1  0.37536982  0.87573800  0.37624351  1
  Fe  Fe28  1  0.12572535  0.87647429  0.62799965  1
  Fe  Fe29  1  -0.00206114  0.74427232  0.25050978  1
  Fe  Fe30  1  0.37609160  0.88003377  0.62259220  1
  Fe  Fe31  1  0.75193488  0.74674883  0.24799678  1
  Fe  Fe32  1  0.12913077  0.12471599  0.87656331  1
  Fe  Fe33  1  0.25268503  0.25102732  0.24871638  1
  Fe  Fe34  1  -0.00049568  0.00264104  0.75115000  1
  Fe  Fe35  1  0.87164377  0.37738490  0.12481357  1
  Fe  Fe36  1  0.62348175  0.37341164  0.62962640  1
  Fe  Fe37  1  0.12652157  0.62299251  0.62710591  1
  Fe  Fe38  1  0.12513565  0.37746411  0.37081813  1
  Fe  Fe39  1  0.00427639  0.74789769  -0.00223146  1
  Fe  Fe40  1  0.00227041  0.50040712  0.00002373  1
  Fe  Fe41  1  0.37559748  0.37132368  0.87844155  1
  Fe  Fe42  1  0.62102544  0.12583574  0.87335227  1
  Fe  Fe43  1  0.00009729  0.49991209  0.49827422  1
  Fe  Fe44  1  0.87382207  0.12765696  0.62442332  1
  Fe  Fe45  1  0.87418623  0.87389722  0.37607574  1
  Fe  Fe46  1  0.49858260  0.50044401  0.25082720  1
  Fe  Fe47  1  0.62615817  0.87507364  0.37356072  1
  Fe  Fe48  1  0.49769621  -0.00112157  0.24926632  1
  Fe  Fe49  1  0.50187901  0.50008102  -0.00166565  1
  Fe  Fe50  1  0.49900455  0.74920657  0.24889724  1
  Fe  Fe51  1  0.74820420  0.50021717  0.50180580  1
  Fe  Fe52  1  0.62318697  0.37230516  0.87235472  1
  Fe  Fe53  1  0.37682521  0.12506892  0.11832822  1
  Fe  Fe54  1  0.12472463  0.12568381  0.12534182  1
  Fe  Fe55  1  0.25068144  0.49670754  0.75143760  1
  Fe  Fe56  1  0.37597813  0.37355315  0.62391573  1
  Fe  Fe57  1  0.75465356  0.00313980  0.24803594  1
  Fe  Fe58  1  0.62423514  0.87677973  0.63220788  1
  Fe  Fe59  1  0.87487413  0.12768033  0.87850967  1
  Fe  Fe60  1  0.62776093  0.37326604  0.37052759  1
  Fe  Fe61  1  -0.00077465  0.74929278  0.75035902  1
  Fe  Fe62  1  0.12433125  0.12470265  0.37258308  1
  Fe  Fe63  1  0.00051356  -0.00020792  0.49940973  1
  Fe  Fe64  1  0.87013534  0.37411891  0.37280864  1
  Fe  Fe65  1  0.87377246  0.87606518  0.62771706  1
  Fe  Fe66  1  0.74716763  0.50096265  -0.00157150  1
  Fe  Fe67  1  0.12722972  0.12614266  0.62549434  1
  Fe  Fe68  1  0.62650153  0.12570729  0.37222326  1
  Fe  Fe69  1  0.00070470  0.74811111  0.50041350  1
  Fe  Fe70  1  0.37611484  0.62668101  0.87619395  1
  Fe  Fe71  1  0.25069219  0.49786656  0.49778532  1
  Fe  Fe72  1  0.25114000  0.75281620  0.75240727  1
  Fe  Fe73  1  0.87399973  0.87509033  0.87441087  1
  Fe  Fe74  1  0.62186992  0.62817546  0.87017009  1
  Fe  Fe75  1  0.62531235  0.62634381  0.37559412  1
  Fe  Fe76  1  0.37545322  0.87219513  0.12061045  1
  Fe  Fe77  1  0.74634742  0.75022030  -0.00222201  1
  Fe  Fe78  1  0.12481774  0.37812971  0.12826462  1
  Fe  Fe79  1  0.50072837  0.49884422  0.50006279  1
  Fe  Fe80  1  0.37551409  0.62458541  0.37589345  1
  Fe  Fe81  1  0.62331779  0.62376633  0.12468265  1
  Fe  Fe82  1  0.50228982  0.24960716  0.50084995  1
  Fe  Fe83  1  0.37702119  0.12540828  0.37690915  1
  Fe  Fe84  1  0.12565598  0.87365723  0.37265909  1
  Fe  Fe85  1  -0.00284407  0.00081624  0.24935298  1
  Fe  Fe86  1  0.87386448  0.37339443  0.87699253  1
  Fe  Fe87  1  0.25169884  0.00024716  0.24729914  1
  Fe  Fe88  1  0.24988141  0.74975510  0.50029968  1
  Fe  Fe89  1  0.62158426  0.62595183  0.62996386  1
  Co  Co90  1  0.24694027  -0.00220974  0.00274902  1
  Co  Co91  1  0.12625242  0.37463415  0.62434408  1
  Co  Co92  1  0.12675035  0.37477184  0.87601758  1
  Co  Co93  1  0.37376101  0.12445260  0.61973130  1
  Co  Co94  1  0.87396596  0.62516041  0.11935704  1
  Co  Co95  1  0.62479784  0.87455128  0.86901288  1
  Co  Co96  1  0.62269285  0.12092370  0.12665455  1
  Co  Co97  1  0.50475669  0.25182682  0.00269151  1
  Co  Co98  1  0.25414434  0.00100261  0.75146702  1
  Co  Co99  1  0.87148502  0.62603329  0.37929777  1
  Co  Co100  1  0.24658116  0.74820647  -0.00203468  1
  Co  Co101  1  0.37808104  0.37329023  0.37548848  1
  Co  Co102  1  0.12576984  0.62293063  0.12670662  1
  Co  Co103  1  0.87323370  0.12554626  0.37840439  1
  Co  Co104  1  0.50407240  -0.00031446  0.49937408  1
  Co  Co105  1  0.12510652  0.62334048  0.87122408  1
  Co  Co106  1  0.12740734  0.62326772  0.37490940  1
  Co  Co107  1  0.87662393  0.12433689  0.11886209  1
  Co  Co108  1  0.24702510  0.25254335  0.00283529  1
  Co  Co109  1  0.50368286  0.75102646  -0.00040143  1
  Co  Co110  1  0.74739398  0.25066573  0.50196730  1
  Co  Co111  1  0.75135723  0.25039705  0.75149713  1
  Co  Co112  1  0.75242016  0.00337578  0.75265497  1
  Co  Co113  1  -0.00512947  0.50363198  0.25072754  1
  Co  Co114  1  0.49475148  0.75394891  0.74991218  1
  Co  Co115  1  0.37344796  0.12632848  0.88348353  1
  Co  Co116  1  0.25467984  0.49990930  0.25015232  1
  Co  Co117  1  0.75310814  0.74739642  0.74989421  1
  Co  Co118  1  0.75180839  0.24599265  0.24416121  1
  Co  Co119  1  0.50353580  -0.00208512  -0.00131502  1
  Co  Co120  1  0.75178799  0.50460475  0.24954558  1
  Co  Co121  1  0.37692225  0.62471267  0.12160364  1
  Co  Co122  1  0.62580830  0.37931719  0.12775154  1
  Co  Co123  1  0.49414002  0.00321431  0.75204573  1
  Co  Co124  1  0.87707410  0.62210119  0.62563022  1
  Co  Co125  1  0.12456540  0.87715940  0.87289489  1
  Co  Co126  1  0.49765590  0.49730139  0.75169167  1
  Co  Co127  1  0.49423643  0.24739660  0.75047767  1
