# generated using pymatgen
data_Fe45Co19
_symmetry_space_group_name_H-M   'P 1'
_cell_length_a   11.41407170
_cell_length_b   11.41479713
_cell_length_c   11.41477351
_cell_angle_alpha   89.99392491
_cell_angle_beta   89.99939645
_cell_angle_gamma   90.00746642
_symmetry_Int_Tables_number   1
_chemical_formula_structural   Fe45Co19
_chemical_formula_sum   'Fe90 Co38'
_cell_volume   1487.22297653
_cell_formula_units_Z   2
loop_
 _symmetry_equiv_pos_site_id
 _symmetry_equiv_pos_as_xyz
  1  'x, y, z'
loop_
 _atom_site_type_symbol
 _atom_site_label
 _atom_site_symmetry_multiplicity
 _atom_site_fract_x
 _atom_site_fract_y
 _atom_site_fract_z
 _atom_site_occupancy
  Fe  Fe0  1  0.62832797  0.37501523  0.12196020  1
  Fe  Fe1  1  0.37684415  0.87366167  0.62390014  1
  Fe  Fe2  1  0.50117198  0.50030082  0.49977139  1
  Fe  Fe3  1  0.74713133  0.00070638  0.00274573  1
  Fe  Fe4  1  0.62699666  0.62425785  0.37325876  1
  Fe  Fe5  1  0.25042807  -0.00226446  0.74950058  1
  Fe  Fe6  1  -0.00138444  0.24579694  -0.00352085  1
  Fe  Fe7  1  0.87149225  0.87561557  0.87605952  1
  Fe  Fe8  1  0.12484428  0.12505551  0.37282252  1
  Fe  Fe9  1  0.12655495  0.62539261  0.87472204  1
  Fe  Fe10  1  0.12530826  0.87565743  0.87702416  1
  Fe  Fe11  1  0.50071756  0.50044814  -0.00098169  1
  Fe  Fe12  1  0.37309295  0.62337498  0.37425073  1
  Fe  Fe13  1  0.49923579  0.25062132  -0.00201264  1
  Fe  Fe14  1  -0.00347402  0.24875837  0.75254537  1
  Fe  Fe15  1  0.37505892  0.37536135  0.12370581  1
  Fe  Fe16  1  0.87440699  0.62444725  0.12487614  1
  Fe  Fe17  1  0.87441333  0.12259243  0.37542527  1
  Fe  Fe18  1  0.24913123  0.49730657  0.74972086  1
  Fe  Fe19  1  0.37529137  0.62508258  0.12300531  1
  Fe  Fe20  1  0.87648983  0.12593787  0.12369230  1
  Fe  Fe21  1  0.24844554  0.75003740  0.24840993  1
  Fe  Fe22  1  0.12323136  0.62523802  0.12654045  1
  Fe  Fe23  1  0.87456175  0.87651882  0.12353406  1
  Fe  Fe24  1  0.74790193  -0.00327009  0.74752013  1
  Fe  Fe25  1  0.37135618  0.62564378  0.87711313  1
  Fe  Fe26  1  0.62577938  0.87829782  0.37152055  1
  Fe  Fe27  1  0.50121585  0.49556513  0.75086183  1
  Fe  Fe28  1  0.87354193  0.12451639  0.62640222  1
  Fe  Fe29  1  0.74878250  0.24736160  0.25167520  1
  Fe  Fe30  1  0.12496076  0.12647326  0.62691418  1
  Fe  Fe31  1  0.62824233  0.37591456  0.37796759  1
  Fe  Fe32  1  0.50095233  0.25124691  0.49821639  1
  Fe  Fe33  1  0.25168556  -0.00011376  0.24984993  1
  Fe  Fe34  1  0.25198308  0.25160206  0.75124636  1
  Fe  Fe35  1  0.87554640  0.37530414  0.37486205  1
  Fe  Fe36  1  0.87788868  0.62599749  0.37338705  1
  Fe  Fe37  1  0.50220048  0.74870497  0.49846340  1
  Fe  Fe38  1  0.74579338  0.74827227  0.00123110  1
  Fe  Fe39  1  0.87211062  0.62505021  0.62723749  1
  Fe  Fe40  1  0.87728989  0.87558192  0.37729717  1
  Fe  Fe41  1  0.12170927  0.87409077  0.62351917  1
  Fe  Fe42  1  0.24858306  0.49880717  0.24872970  1
  Fe  Fe43  1  0.37622426  0.87431810  0.37504079  1
  Fe  Fe44  1  0.24863892  0.24936696  -0.00067281  1
  Fe  Fe45  1  0.50105369  0.74933561  0.24835889  1
  Fe  Fe46  1  0.24663329  0.50112430  0.50180882  1
  Fe  Fe47  1  -0.00150716  0.49887094  0.00268018  1
  Fe  Fe48  1  0.12047080  0.37132970  0.12637002  1
  Fe  Fe49  1  0.50332304  0.00024248  0.00142204  1
  Fe  Fe50  1  0.24967647  0.00081791  0.49948563  1
  Fe  Fe51  1  0.87323263  0.37497343  0.62265599  1
  Fe  Fe52  1  0.37897577  0.12634020  0.37201069  1
  Fe  Fe53  1  0.00127317  0.49937525  0.74790281  1
  Fe  Fe54  1  0.37758420  0.12723200  0.12745206  1
  Fe  Fe55  1  0.37635288  0.87321439  0.87829262  1
  Fe  Fe56  1  0.37735870  0.87310508  0.12254994  1
  Fe  Fe57  1  0.62624869  0.13036670  0.62626571  1
  Fe  Fe58  1  0.37576572  0.37481993  0.62391602  1
  Fe  Fe59  1  -0.00121538  0.00119609  0.24909422  1
  Fe  Fe60  1  0.75396643  0.25203205  -0.00438090  1
  Fe  Fe61  1  -0.00035231  0.00054509  0.75237310  1
  Fe  Fe62  1  0.37440226  0.62636791  0.62718750  1
  Fe  Fe63  1  0.62698383  0.62361716  0.87524386  1
  Fe  Fe64  1  0.50124726  0.00035420  0.50042522  1
  Fe  Fe65  1  0.12379900  0.37424010  0.87494280  1
  Fe  Fe66  1  0.00006241  0.75054059  0.00028640  1
  Fe  Fe67  1  0.24897126  0.00246636  0.00083400  1
  Fe  Fe68  1  0.75087477  0.75096519  0.24869804  1
  Fe  Fe69  1  0.50039636  0.49734983  0.25064091  1
  Fe  Fe70  1  0.12126997  0.87303193  0.37643163  1
  Fe  Fe71  1  0.50194821  -0.00023047  0.75028281  1
  Fe  Fe72  1  0.25025063  0.25007871  0.49933676  1
  Fe  Fe73  1  0.74890374  -0.00003728  0.50136208  1
  Fe  Fe74  1  0.12335852  0.87793903  0.12406176  1
  Fe  Fe75  1  -0.00196399  0.75033843  0.74992592  1
  Fe  Fe76  1  0.24756516  0.74791706  0.50119003  1
  Fe  Fe77  1  0.75095450  0.75115586  0.50212280  1
  Fe  Fe78  1  0.62648100  0.62463965  0.62552794  1
  Fe  Fe79  1  0.00171539  0.50310320  0.50134666  1
  Fe  Fe80  1  0.74806174  0.49422613  0.75137999  1
  Fe  Fe81  1  0.25079525  0.25144794  0.25021593  1
  Fe  Fe82  1  0.37480245  0.12516618  0.87379118  1
  Fe  Fe83  1  0.62670886  0.12777171  0.87320267  1
  Fe  Fe84  1  0.12319361  0.37627350  0.37454325  1
  Fe  Fe85  1  -0.00097997  0.24808164  0.49950697  1
  Fe  Fe86  1  0.87318636  0.62377172  0.87465676  1
  Fe  Fe87  1  0.75255824  0.49922804  0.24821414  1
  Fe  Fe88  1  0.50199475  0.75097506  0.75271106  1
  Fe  Fe89  1  0.37575574  0.12571915  0.62579424  1
  Co  Co90  1  0.62549732  0.62205253  0.12689090  1
  Co  Co91  1  0.24664231  0.49915713  0.00181345  1
  Co  Co92  1  0.37322327  0.37638132  0.87695405  1
  Co  Co93  1  0.75227805  0.49955669  -0.00007571  1
  Co  Co94  1  0.25050361  0.75379553  0.75079325  1
  Co  Co95  1  0.12379808  0.12537099  0.12675975  1
  Co  Co96  1  -0.00274190  0.24760593  0.25267497  1
  Co  Co97  1  0.62724382  0.37320188  0.62172128  1
  Co  Co98  1  0.62187553  0.12238733  0.37389847  1
  Co  Co99  1  0.62470354  0.37322465  0.87798046  1
  Co  Co100  1  0.87061414  0.11993421  0.87348636  1
  Co  Co101  1  0.37337016  0.37649140  0.37668114  1
  Co  Co102  1  0.24740688  0.74974634  0.00153870  1
  Co  Co103  1  -0.00265593  0.49954229  0.24809369  1
  Co  Co104  1  0.62458490  0.12866288  0.12372344  1
  Co  Co105  1  -0.00107345  0.74465914  0.50319722  1
  Co  Co106  1  0.87783225  0.87614352  0.62442081  1
  Co  Co107  1  0.87852842  0.37940745  0.87498592  1
  Co  Co108  1  0.49944427  0.25305902  0.75082065  1
  Co  Co109  1  0.50441114  0.74801262  -0.00015653  1
  Co  Co110  1  0.87502736  0.37122678  0.12556968  1
  Co  Co111  1  0.00024356  0.00265739  -0.00146595  1
  Co  Co112  1  0.75261019  0.25488642  0.75252347  1
  Co  Co113  1  0.62298010  0.87304522  0.62419892  1
  Co  Co114  1  0.75150264  0.24695232  0.49735292  1
  Co  Co115  1  0.12332960  0.37122018  0.62500021  1
  Co  Co116  1  0.50333916  0.25548296  0.25105235  1
  Co  Co117  1  0.12680294  0.62703912  0.62933670  1
  Co  Co118  1  0.12743915  0.12515913  0.87310767  1
  Co  Co119  1  0.74944730  0.75151821  0.74876253  1
  Co  Co120  1  0.49963815  -0.00001113  0.24651971  1
  Co  Co121  1  0.75179768  0.00322170  0.24816268  1
  Co  Co122  1  0.62694410  0.87566306  0.87625108  1
  Co  Co123  1  0.75190539  0.50256993  0.49932250  1
  Co  Co124  1  0.12344168  0.62491076  0.37183467  1
  Co  Co125  1  0.00056675  0.00413334  0.50023749  1
  Co  Co126  1  -0.00073737  0.75209746  0.24694457  1
  Co  Co127  1  0.62539235  0.87476226  0.12762665  1
