# generated using pymatgen
data_Fe45Co19
_symmetry_space_group_name_H-M   'P 1'
_cell_length_a   11.41500459
_cell_length_b   11.41590575
_cell_length_c   11.41446443
_cell_angle_alpha   90.00637424
_cell_angle_beta   90.00243263
_cell_angle_gamma   90.00209983
_symmetry_Int_Tables_number   1
_chemical_formula_structural   Fe45Co19
_chemical_formula_sum   'Fe90 Co38'
_cell_volume   1487.44871444
_cell_formula_units_Z   2
loop_
 _symmetry_equiv_pos_site_id
 _symmetry_equiv_pos_as_xyz
  1  'x, y, z'
loop_
 _atom_site_type_symbol
 _atom_site_label
 _atom_site_symmetry_multiplicity
 _atom_site_fract_x
 _atom_site_fract_y
 _atom_site_fract_z
 _atom_site_occupancy
  Fe  Fe0  1  0.12698179  0.37260629  0.12539935  1
  Fe  Fe1  1  0.87531427  0.62395565  0.87591235  1
  Fe  Fe2  1  0.75173492  0.49963863  0.25103090  1
  Fe  Fe3  1  0.12566784  0.62537715  0.87588914  1
  Fe  Fe4  1  0.00023209  0.75055869  0.00157670  1
  Fe  Fe5  1  0.74758818  0.00258702  0.75694360  1
  Fe  Fe6  1  0.37446770  0.37379935  0.37490354  1
  Fe  Fe7  1  0.12262764  0.12680061  0.87621643  1
  Fe  Fe8  1  0.25045569  0.24854200  0.74911675  1
  Fe  Fe9  1  0.50321172  0.00019265  0.24926440  1
  Fe  Fe10  1  0.87311051  0.37598601  0.87753712  1
  Fe  Fe11  1  0.62348304  0.36992529  0.87494502  1
  Fe  Fe12  1  0.24713247  0.00063724  0.24544710  1
  Fe  Fe13  1  0.75075467  0.24658068  0.75265896  1
  Fe  Fe14  1  0.37513856  0.12140945  0.62363008  1
  Fe  Fe15  1  0.00028548  0.25164875  0.75034827  1
  Fe  Fe16  1  0.37919493  0.12449600  0.87767993  1
  Fe  Fe17  1  0.50207554  -0.00182392  0.75311503  1
  Fe  Fe18  1  0.24869785  0.49942464  0.75087623  1
  Fe  Fe19  1  0.00065688  0.75078150  0.49993265  1
  Fe  Fe20  1  0.37402666  0.37659317  0.62333116  1
  Fe  Fe21  1  0.62414188  0.62839233  0.37175642  1
  Fe  Fe22  1  0.00124880  0.49783636  0.75034728  1
  Fe  Fe23  1  0.62978650  0.37176139  0.12428047  1
  Fe  Fe24  1  0.74918160  0.50108923  0.49871877  1
  Fe  Fe25  1  0.37693979  0.37209295  0.87501073  1
  Fe  Fe26  1  0.75016733  0.24637245  0.49763487  1
  Fe  Fe27  1  0.50057017  0.24803408  0.24593455  1
  Fe  Fe28  1  0.00104666  0.75197767  0.74983874  1
  Fe  Fe29  1  0.24669967  0.00100479  0.75048196  1
  Fe  Fe30  1  0.37369768  0.87697531  0.87845879  1
  Fe  Fe31  1  0.00150378  0.00266575  0.24985492  1
  Fe  Fe32  1  -0.00166595  0.24911940  0.24937598  1
  Fe  Fe33  1  -0.00254241  0.74911773  0.24933506  1
  Fe  Fe34  1  0.87683510  0.62384852  0.62512719  1
  Fe  Fe35  1  0.00128999  0.00139721  0.00243738  1
  Fe  Fe36  1  0.24932827  0.75018735  0.75002652  1
  Fe  Fe37  1  0.25045890  0.49834390  0.00073282  1
  Fe  Fe38  1  0.62551098  0.37347938  0.62493549  1
  Fe  Fe39  1  0.75215650  0.75001742  0.75044242  1
  Fe  Fe40  1  0.86849548  0.12434548  0.12652860  1
  Fe  Fe41  1  0.25200448  0.24678909  0.24886816  1
  Fe  Fe42  1  0.62372015  0.62724331  0.62641264  1
  Fe  Fe43  1  0.62555898  0.87459391  0.62667827  1
  Fe  Fe44  1  0.49956547  0.50120767  0.49811246  1
  Fe  Fe45  1  0.49819377  0.24824100  0.50130691  1
  Fe  Fe46  1  0.62315271  0.37243359  0.37498591  1
  Fe  Fe47  1  0.62397962  0.62629000  0.12638001  1
  Fe  Fe48  1  -0.00305783  0.25111850  0.00228782  1
  Fe  Fe49  1  0.75194702  0.74949778  0.49896290  1
  Fe  Fe50  1  0.12573063  0.87540728  0.87865418  1
  Fe  Fe51  1  0.37575371  0.62598964  0.87841275  1
  Fe  Fe52  1  0.00088507  0.49788173  0.00132676  1
  Fe  Fe53  1  0.49793466  0.75502250  0.00346545  1
  Fe  Fe54  1  0.87486928  0.87671658  0.37398770  1
  Fe  Fe55  1  -0.00040518  0.49942211  0.24922198  1
  Fe  Fe56  1  0.00220413  0.50054846  0.49917102  1
  Fe  Fe57  1  0.87649507  0.87923979  0.62523470  1
  Fe  Fe58  1  0.49889440  0.75141815  0.49968140  1
  Fe  Fe59  1  0.12598014  0.87672919  0.37304265  1
  Fe  Fe60  1  0.12725089  0.37387779  0.62332220  1
  Fe  Fe61  1  0.24920321  0.75117871  0.50123776  1
  Fe  Fe62  1  0.87346741  0.37400451  0.62359595  1
  Fe  Fe63  1  0.62890131  0.87858022  0.12583342  1
  Fe  Fe64  1  0.49753028  0.50024151  0.24890126  1
  Fe  Fe65  1  0.25254256  0.50195990  0.25013732  1
  Fe  Fe66  1  0.25444388  0.75101716  0.24488350  1
  Fe  Fe67  1  0.37506104  0.12217451  0.37643369  1
  Fe  Fe68  1  0.37498219  0.87719232  0.37433421  1
  Fe  Fe69  1  0.37502360  0.87720535  0.62486079  1
  Fe  Fe70  1  0.74813000  0.50064747  0.75193401  1
  Fe  Fe71  1  0.74883091  0.00238091  0.49669054  1
  Fe  Fe72  1  0.87371321  0.62287280  0.12467061  1
  Fe  Fe73  1  0.62326156  0.12374302  0.62522298  1
  Fe  Fe74  1  0.62500774  0.87310852  0.37366889  1
  Fe  Fe75  1  0.37424881  0.62411568  0.62379661  1
  Fe  Fe76  1  0.12797699  0.37219866  0.37430487  1
  Fe  Fe77  1  0.50065732  0.49605353  0.00184284  1
  Fe  Fe78  1  0.62206346  0.62914547  0.87552285  1
  Fe  Fe79  1  0.50045870  0.49942016  0.75022708  1
  Fe  Fe80  1  0.87515103  0.37402177  0.37525155  1
  Fe  Fe81  1  0.12688722  0.62659616  0.12400131  1
  Fe  Fe82  1  0.25156892  0.24914941  0.00060902  1
  Fe  Fe83  1  0.87227969  0.87869786  0.12561200  1
  Fe  Fe84  1  0.87864473  0.12141069  0.62682492  1
  Fe  Fe85  1  0.37727542  0.12068152  0.12104278  1
  Fe  Fe86  1  0.87531060  0.87708827  0.87622427  1
  Fe  Fe87  1  0.75078082  0.75037624  0.00136039  1
  Fe  Fe88  1  0.00217181  0.24537770  0.49800239  1
  Fe  Fe89  1  0.12682692  0.62629920  0.37502288  1
  Co  Co90  1  0.87544176  0.12456984  0.37292803  1
  Co  Co91  1  0.49682413  0.75371691  0.24657968  1
  Co  Co92  1  0.37446006  0.88153457  0.12259956  1
  Co  Co93  1  0.24563251  0.00175802  0.00113499  1
  Co  Co94  1  0.37183157  0.37483364  0.12648601  1
  Co  Co95  1  0.49572601  0.75161710  0.74919756  1
  Co  Co96  1  0.87144544  0.37518852  0.12431818  1
  Co  Co97  1  0.62129525  0.12725937  0.37471318  1
  Co  Co98  1  0.74745252  0.00190685  0.25520589  1
  Co  Co99  1  0.74756996  0.00234644  -0.00701050  1
  Co  Co100  1  0.87498224  0.62404780  0.37528642  1
  Co  Co101  1  0.24935843  0.50020238  0.49797355  1
  Co  Co102  1  0.49860128  0.25217231  0.00628773  1
  Co  Co103  1  0.00237882  0.00150299  0.49607010  1
  Co  Co104  1  0.12317397  0.87364386  0.12565435  1
  Co  Co105  1  0.25112785  0.24721041  0.50124029  1
  Co  Co106  1  0.12340116  0.87664752  0.62437046  1
  Co  Co107  1  0.37647889  0.62417864  0.12244175  1
  Co  Co108  1  0.75204090  0.24617765  -0.00386000  1
  Co  Co109  1  0.74951079  0.24981110  0.25351787  1
  Co  Co110  1  0.12580607  0.37254335  0.87706245  1
  Co  Co111  1  0.49776533  0.24960075  0.74535395  1
  Co  Co112  1  0.88052737  0.12346759  0.87386632  1
  Co  Co113  1  0.37564122  0.62751151  0.37458699  1
  Co  Co114  1  0.12258852  0.12360591  0.62660981  1
  Co  Co115  1  0.75293533  0.74978222  0.24900258  1
  Co  Co116  1  0.25080589  0.75234965  0.00267830  1
  Co  Co117  1  0.12437866  0.62500269  0.62575457  1
  Co  Co118  1  0.50538802  -0.00312393  -0.00166523  1
  Co  Co119  1  0.50200234  -0.00163874  0.49946403  1
  Co  Co120  1  0.00396481  -0.00294340  0.75243799  1
  Co  Co121  1  0.62877285  0.12424547  0.12362641  1
  Co  Co122  1  0.61788444  0.13102711  0.87725176  1
  Co  Co123  1  0.12835700  0.12426401  0.37358148  1
  Co  Co124  1  0.24728386  -0.00005633  0.50116287  1
  Co  Co125  1  0.74672980  0.50130575  -0.00179548  1
  Co  Co126  1  0.62531767  0.86970123  0.87349803  1
  Co  Co127  1  0.12436961  0.12864640  0.12380786  1
