# generated using pymatgen
data_Fe45Co19
_symmetry_space_group_name_H-M   'P 1'
_cell_length_a   11.41421762
_cell_length_b   11.41548767
_cell_length_c   11.41535359
_cell_angle_alpha   89.99742950
_cell_angle_beta   89.98765549
_cell_angle_gamma   89.99510669
_symmetry_Int_Tables_number   1
_chemical_formula_structural   Fe45Co19
_chemical_formula_sum   'Fe90 Co38'
_cell_volume   1487.40752417
_cell_formula_units_Z   2
loop_
 _symmetry_equiv_pos_site_id
 _symmetry_equiv_pos_as_xyz
  1  'x, y, z'
loop_
 _atom_site_type_symbol
 _atom_site_label
 _atom_site_symmetry_multiplicity
 _atom_site_fract_x
 _atom_site_fract_y
 _atom_site_fract_z
 _atom_site_occupancy
  Fe  Fe0  1  0.37621226  0.87293693  0.87473928  1
  Fe  Fe1  1  0.87964422  0.12535637  0.37370110  1
  Fe  Fe2  1  0.12362975  0.62456730  0.62490712  1
  Fe  Fe3  1  0.24806797  -0.00018593  0.49952255  1
  Fe  Fe4  1  0.25052804  0.49982071  0.25005889  1
  Fe  Fe5  1  0.49973791  0.24988060  0.25010656  1
  Fe  Fe6  1  0.37618429  0.87719017  0.37607483  1
  Fe  Fe7  1  0.25294842  0.74641884  -0.00260568  1
  Fe  Fe8  1  0.37472208  0.37615756  0.87479536  1
  Fe  Fe9  1  0.12461418  0.37639514  0.12735659  1
  Fe  Fe10  1  0.11940033  0.12451344  0.37677856  1
  Fe  Fe11  1  0.75151946  0.00058152  0.75183223  1
  Fe  Fe12  1  0.62389777  0.62446839  0.87579499  1
  Fe  Fe13  1  0.24911425  -0.00095873  0.75096016  1
  Fe  Fe14  1  0.24848976  0.24890468  0.25173850  1
  Fe  Fe15  1  0.12620711  0.62454299  0.12507184  1
  Fe  Fe16  1  0.74954467  0.24917281  0.24895325  1
  Fe  Fe17  1  -0.00006587  0.74975757  0.75163415  1
  Fe  Fe18  1  -0.00353141  0.50167518  0.75078825  1
  Fe  Fe19  1  0.87623242  0.87576728  0.87829984  1
  Fe  Fe20  1  0.12378546  0.87713210  0.62532142  1
  Fe  Fe21  1  0.87554489  0.87570843  0.37158139  1
  Fe  Fe22  1  0.12379230  0.37596901  0.87485417  1
  Fe  Fe23  1  0.25017137  0.25288638  0.00059796  1
  Fe  Fe24  1  0.00107141  0.75213072  0.49743687  1
  Fe  Fe25  1  0.62263317  0.37505212  0.12470634  1
  Fe  Fe26  1  0.24417545  0.25295301  0.50126305  1
  Fe  Fe27  1  0.62661451  0.12617256  0.62484793  1
  Fe  Fe28  1  -0.00008816  0.49758309  0.49870512  1
  Fe  Fe29  1  0.50330867  0.49877034  0.50301425  1
  Fe  Fe30  1  0.87629738  0.37452623  0.12597505  1
  Fe  Fe31  1  0.37501414  0.62404195  0.37456013  1
  Fe  Fe32  1  0.49449478  0.50086200  0.00282540  1
  Fe  Fe33  1  0.50268559  0.49880492  0.74549178  1
  Fe  Fe34  1  0.75114989  0.49921799  -0.00024768  1
  Fe  Fe35  1  0.74807911  0.24857078  0.00117188  1
  Fe  Fe36  1  0.87372035  0.37342560  0.87442499  1
  Fe  Fe37  1  0.25056848  0.49985149  0.74984610  1
  Fe  Fe38  1  0.24828246  0.75068390  0.25314395  1
  Fe  Fe39  1  0.00194352  0.75020718  0.24997418  1
  Fe  Fe40  1  0.37494685  0.12596429  0.87563162  1
  Fe  Fe41  1  0.37550720  0.37575050  0.37531143  1
  Fe  Fe42  1  0.37365447  0.87462909  0.62454879  1
  Fe  Fe43  1  0.87631336  0.87633510  0.12281199  1
  Fe  Fe44  1  0.62389837  0.12538601  0.87582833  1
  Fe  Fe45  1  0.62755284  0.87283239  0.62609136  1
  Fe  Fe46  1  0.75211579  0.24979128  0.49852517  1
  Fe  Fe47  1  0.62297338  0.12209131  0.37408196  1
  Fe  Fe48  1  0.50108254  0.75097919  0.49965354  1
  Fe  Fe49  1  0.74867610  0.75068342  0.00005497  1
  Fe  Fe50  1  0.87462166  0.62614556  0.12507546  1
  Fe  Fe51  1  0.87478280  0.87368094  0.62699202  1
  Fe  Fe52  1  0.75054525  0.50010535  0.25042908  1
  Fe  Fe53  1  0.74978500  0.00109167  0.24731230  1
  Fe  Fe54  1  0.50058991  0.74945342  0.25090436  1
  Fe  Fe55  1  0.12380957  0.87583084  0.87799134  1
  Fe  Fe56  1  0.50060706  0.25125259  0.50175294  1
  Fe  Fe57  1  0.49939614  0.00030407  0.00155546  1
  Fe  Fe58  1  0.24784275  0.25098886  0.74721664  1
  Fe  Fe59  1  0.49890956  0.00086772  0.74734606  1
  Fe  Fe60  1  0.87504545  0.12414570  0.87804286  1
  Fe  Fe61  1  0.62431840  0.62500469  0.12535764  1
  Fe  Fe62  1  0.87876852  0.37333580  0.37161359  1
  Fe  Fe63  1  0.62749433  0.62534056  0.37594133  1
  Fe  Fe64  1  0.62551108  0.37585685  0.37582734  1
  Fe  Fe65  1  0.87830058  0.12283818  0.62340612  1
  Fe  Fe66  1  0.37721342  0.12311859  0.37754413  1
  Fe  Fe67  1  0.37473290  0.87281486  0.12477877  1
  Fe  Fe68  1  0.24984375  0.00039454  0.25066051  1
  Fe  Fe69  1  0.00086541  0.24797492  0.74776863  1
  Fe  Fe70  1  0.00121820  0.24710497  0.00399251  1
  Fe  Fe71  1  0.37410160  0.62557082  0.62553816  1
  Fe  Fe72  1  0.75045444  -0.00095955  0.49951678  1
  Fe  Fe73  1  0.49980897  0.25198649  0.74825102  1
  Fe  Fe74  1  0.00020230  0.50099545  0.00080046  1
  Fe  Fe75  1  0.87148363  0.37566353  0.62732885  1
  Fe  Fe76  1  0.62465697  0.87684850  0.37399666  1
  Fe  Fe77  1  0.24776894  0.75009918  0.49887188  1
  Fe  Fe78  1  0.37318187  0.12567797  0.62369244  1
  Fe  Fe79  1  0.37522054  0.12683152  0.12350983  1
  Fe  Fe80  1  0.62679019  0.37495674  0.87322286  1
  Fe  Fe81  1  0.62434199  0.87450866  0.87471586  1
  Fe  Fe82  1  0.87429973  0.62618062  0.37541907  1
  Fe  Fe83  1  0.12651090  0.62398603  0.87517823  1
  Fe  Fe84  1  0.12601311  0.12380783  0.87617171  1
  Fe  Fe85  1  0.62413065  0.87527640  0.12500439  1
  Fe  Fe86  1  0.24716408  0.49779846  0.49919435  1
  Fe  Fe87  1  0.50015210  0.74818269  0.74929355  1
  Fe  Fe88  1  0.87381616  0.62640907  0.87648945  1
  Fe  Fe89  1  0.12526939  0.87675295  0.12275554  1
  Co  Co90  1  0.62853039  0.62824728  0.62339008  1
  Co  Co91  1  0.87566265  0.62678541  0.62171493  1
  Co  Co92  1  0.50147530  -0.00084022  0.50334980  1
  Co  Co93  1  0.87147617  0.12375047  0.12482537  1
  Co  Co94  1  0.12302749  0.12115001  0.62371083  1
  Co  Co95  1  0.50089898  0.50030525  0.25045342  1
  Co  Co96  1  0.75018005  0.50427442  0.74990462  1
  Co  Co97  1  -0.00185642  -0.00386858  0.49860286  1
  Co  Co98  1  0.13007600  0.12263020  0.12341501  1
  Co  Co99  1  0.75194520  0.24640482  0.75100428  1
  Co  Co100  1  0.75096403  0.75301259  0.49833178  1
  Co  Co101  1  0.12469595  0.62364479  0.37512306  1
  Co  Co102  1  0.37457678  0.37306641  0.12785171  1
  Co  Co103  1  0.49896669  0.74838236  0.00041559  1
  Co  Co104  1  0.74994647  0.75002555  0.24853742  1
  Co  Co105  1  0.75190961  0.74824828  0.75295819  1
  Co  Co106  1  0.12138626  0.37423145  0.36992091  1
  Co  Co107  1  0.12349220  0.37847605  0.62875044  1
  Co  Co108  1  0.62326945  0.12578523  0.12517651  1
  Co  Co109  1  -0.00117987  0.50357601  0.24925836  1
  Co  Co110  1  0.74762834  -0.00000270  0.00001331  1
  Co  Co111  1  0.00157641  0.00096528  0.24668718  1
  Co  Co112  1  0.49941063  0.25168398  -0.00096462  1
  Co  Co113  1  0.37544274  0.62396991  0.87129607  1
  Co  Co114  1  0.75107555  0.49870690  0.49915484  1
  Co  Co115  1  0.37414402  0.62702662  0.12892079  1
  Co  Co116  1  0.24800886  0.75121984  0.75069748  1
  Co  Co117  1  0.00152955  0.25460711  0.50370530  1
  Co  Co118  1  0.25198976  0.50044605  0.00136582  1
  Co  Co119  1  0.25321456  -0.00097972  -0.00159197  1
  Co  Co120  1  0.00084282  0.00384860  0.00192600  1
  Co  Co121  1  0.12466356  0.87778800  0.37409208  1
  Co  Co122  1  0.49761836  -0.00012511  0.24722250  1
  Co  Co123  1  0.37325573  0.37460087  0.62379283  1
  Co  Co124  1  0.63122270  0.37202110  0.62608198  1
  Co  Co125  1  0.00123687  0.24539975  0.24458739  1
  Co  Co126  1  0.00093269  0.74743667  0.00013918  1
  Co  Co127  1  0.00013088  -0.00008016  0.75317664  1
