# generated using pymatgen
data_Fe45Co19
_symmetry_space_group_name_H-M   'P 1'
_cell_length_a   11.41499440
_cell_length_b   11.41534064
_cell_length_c   11.41507510
_cell_angle_alpha   89.99462372
_cell_angle_beta   89.99386135
_cell_angle_gamma   89.99597039
_symmetry_Int_Tables_number   1
_chemical_formula_structural   Fe45Co19
_chemical_formula_sum   'Fe90 Co38'
_cell_volume   1487.45332264
_cell_formula_units_Z   2
loop_
 _symmetry_equiv_pos_site_id
 _symmetry_equiv_pos_as_xyz
  1  'x, y, z'
loop_
 _atom_site_type_symbol
 _atom_site_label
 _atom_site_symmetry_multiplicity
 _atom_site_fract_x
 _atom_site_fract_y
 _atom_site_fract_z
 _atom_site_occupancy
  Fe  Fe0  1  0.87581315  0.62231669  0.37633792  1
  Fe  Fe1  1  0.62798183  0.87631635  0.87521982  1
  Fe  Fe2  1  0.62477851  0.62533814  0.87452127  1
  Fe  Fe3  1  0.37502418  0.37095185  0.62550822  1
  Fe  Fe4  1  0.87512404  0.87347547  0.62357360  1
  Fe  Fe5  1  0.75119644  0.00383646  0.50179181  1
  Fe  Fe6  1  -0.00158408  0.25227988  -0.00426648  1
  Fe  Fe7  1  0.62609951  0.37231695  0.62635131  1
  Fe  Fe8  1  0.12423893  0.37243528  0.12579010  1
  Fe  Fe9  1  0.62374610  0.62192339  0.37738305  1
  Fe  Fe10  1  0.12073505  0.12678627  0.62676689  1
  Fe  Fe11  1  0.37318694  0.87489869  0.37841501  1
  Fe  Fe12  1  0.12229168  0.12135993  0.87434188  1
  Fe  Fe13  1  0.75390830  0.24799332  -0.00481269  1
  Fe  Fe14  1  0.74916582  0.50363275  0.00419068  1
  Fe  Fe15  1  -0.00109153  0.24668361  0.25224073  1
  Fe  Fe16  1  0.37369496  0.37281885  0.12424369  1
  Fe  Fe17  1  -0.00185632  0.00165475  0.49985236  1
  Fe  Fe18  1  0.24753449  0.49987717  0.00284021  1
  Fe  Fe19  1  0.75110457  0.50002108  0.50389474  1
  Fe  Fe20  1  0.87786582  0.62309304  0.87815654  1
  Fe  Fe21  1  0.37256297  0.87511206  0.12567270  1
  Fe  Fe22  1  0.62584264  0.87451223  0.62554811  1
  Fe  Fe23  1  0.24843628  0.24898882  0.75025686  1
  Fe  Fe24  1  0.62732845  0.37585037  0.87418587  1
  Fe  Fe25  1  0.50038759  -0.00041013  0.49950031  1
  Fe  Fe26  1  0.74850918  0.50133434  0.24601299  1
  Fe  Fe27  1  0.50205259  0.24970096  0.49661015  1
  Fe  Fe28  1  0.75112171  0.50232904  0.74714896  1
  Fe  Fe29  1  0.12128308  0.62360763  0.62163804  1
  Fe  Fe30  1  0.50108147  0.75234912  -0.00114075  1
  Fe  Fe31  1  0.75095764  0.74630266  0.24953913  1
  Fe  Fe32  1  0.25005473  0.49950824  0.50071613  1
  Fe  Fe33  1  0.37437260  0.62500509  0.87647153  1
  Fe  Fe34  1  0.87467623  0.37018446  0.62690968  1
  Fe  Fe35  1  0.37299452  0.37531934  0.87535441  1
  Fe  Fe36  1  0.25138739  0.00089228  0.74699930  1
  Fe  Fe37  1  0.12308958  0.62478001  0.87577703  1
  Fe  Fe38  1  0.12475729  0.87496197  0.62514449  1
  Fe  Fe39  1  0.12632908  0.37690962  0.87369494  1
  Fe  Fe40  1  0.24927357  0.24769641  0.49853554  1
  Fe  Fe41  1  0.24730281  0.74822434  0.25339190  1
  Fe  Fe42  1  0.37611509  0.62546489  0.37796552  1
  Fe  Fe43  1  0.24891865  0.00246364  0.25023438  1
  Fe  Fe44  1  0.62655777  0.12316589  0.87497056  1
  Fe  Fe45  1  -0.00071970  0.49722385  0.74761134  1
  Fe  Fe46  1  0.50012393  0.75122084  0.74876923  1
  Fe  Fe47  1  0.75313965  0.00325938  0.74718364  1
  Fe  Fe48  1  0.87429853  0.37424869  0.12393251  1
  Fe  Fe49  1  0.25038911  0.50074883  0.74688258  1
  Fe  Fe50  1  0.24847570  0.24805974  0.25175393  1
  Fe  Fe51  1  0.75173907  0.74793659  0.74957387  1
  Fe  Fe52  1  0.50289471  0.25123353  0.25220228  1
  Fe  Fe53  1  0.37619501  0.62676460  0.12455162  1
  Fe  Fe54  1  0.11951530  0.62881006  0.12492912  1
  Fe  Fe55  1  0.49825455  0.00093120  0.74806756  1
  Fe  Fe56  1  0.12410594  0.12437883  0.12370684  1
  Fe  Fe57  1  0.87605406  0.87131468  0.12646036  1
  Fe  Fe58  1  -0.00080929  0.25050245  0.49846481  1
  Fe  Fe59  1  0.24922610  0.74925899  0.74724966  1
  Fe  Fe60  1  0.87268130  0.87758283  0.87541357  1
  Fe  Fe61  1  0.87341463  0.87704147  0.37446534  1
  Fe  Fe62  1  0.50003328  -0.00085011  0.00076705  1
  Fe  Fe63  1  0.37364652  0.12501484  0.87533197  1
  Fe  Fe64  1  0.12345576  0.87787464  0.37277171  1
  Fe  Fe65  1  0.37255492  0.87560031  0.87329770  1
  Fe  Fe66  1  0.12477333  0.37631768  0.37604407  1
  Fe  Fe67  1  0.00016771  0.74943571  0.49622240  1
  Fe  Fe68  1  0.37388317  0.12568297  0.12504886  1
  Fe  Fe69  1  0.50132302  0.75198541  0.25376268  1
  Fe  Fe70  1  0.37770116  0.62920955  0.62076797  1
  Fe  Fe71  1  0.49983265  0.25038913  -0.00180384  1
  Fe  Fe72  1  0.49893002  0.49936322  0.74806045  1
  Fe  Fe73  1  0.37476843  0.37507871  0.37416598  1
  Fe  Fe74  1  0.00141952  -0.00474512  0.00224442  1
  Fe  Fe75  1  0.25102451  0.00230803  0.50161470  1
  Fe  Fe76  1  0.62506631  0.12840318  0.62595962  1
  Fe  Fe77  1  0.74973286  0.24838462  0.25231288  1
  Fe  Fe78  1  0.24634446  0.75327921  0.00029056  1
  Fe  Fe79  1  0.62616088  0.12638553  0.12403333  1
  Fe  Fe80  1  0.87273558  0.37461635  0.37471962  1
  Fe  Fe81  1  0.50214291  0.49769225  0.24810360  1
  Fe  Fe82  1  0.62766732  0.87288345  0.12502263  1
  Fe  Fe83  1  0.50148424  0.49887723  0.00217579  1
  Fe  Fe84  1  -0.00066913  0.50059636  0.25005010  1
  Fe  Fe85  1  0.50141902  -0.00105662  0.25124342  1
  Fe  Fe86  1  0.24844180  0.50121849  0.24881950  1
  Fe  Fe87  1  -0.00076468  0.75234600  0.75174430  1
  Fe  Fe88  1  0.74822094  0.74788336  0.50087405  1
  Fe  Fe89  1  0.75312047  0.00358369  0.24774117  1
  Co  Co90  1  0.74941094  0.24898523  0.49864992  1
  Co  Co91  1  -0.00224234  0.25257216  0.75495285  1
  Co  Co92  1  0.12417703  0.87417429  0.13108179  1
  Co  Co93  1  0.24833125  0.24974142  -0.00159315  1
  Co  Co94  1  0.87800652  0.12876430  0.62568572  1
  Co  Co95  1  0.00259335  0.49608096  0.00183426  1
  Co  Co96  1  0.62758244  0.37820049  0.37660252  1
  Co  Co97  1  0.12341566  0.12349353  0.37610616  1
  Co  Co98  1  0.87265842  0.38124719  0.87554445  1
  Co  Co99  1  0.12334327  0.62028895  0.37727267  1
  Co  Co100  1  0.62278280  0.62586833  0.62486177  1
  Co  Co101  1  0.37479805  0.87332095  0.62327604  1
  Co  Co102  1  0.63073477  0.87750314  0.37406426  1
  Co  Co103  1  0.88056639  0.62640547  0.12209566  1
  Co  Co104  1  0.12798885  0.87724211  0.87050820  1
  Co  Co105  1  0.37653983  0.12784019  0.62461422  1
  Co  Co106  1  0.75354449  0.24719693  0.75453837  1
  Co  Co107  1  0.62635763  0.12271400  0.37412373  1
  Co  Co108  1  0.24903996  -0.00151033  0.00104136  1
  Co  Co109  1  0.87690370  0.12751951  0.12224031  1
  Co  Co110  1  0.49893373  0.49709183  0.50242018  1
  Co  Co111  1  0.37634053  0.12430286  0.37372285  1
  Co  Co112  1  0.62778108  0.37096967  0.12295036  1
  Co  Co113  1  0.75090084  0.00031807  0.00283275  1
  Co  Co114  1  0.50100361  0.25036972  0.75285835  1
  Co  Co115  1  0.00120077  0.75629302  -0.00341345  1
  Co  Co116  1  0.87900591  0.62726883  0.62512377  1
  Co  Co117  1  0.62152081  0.62883252  0.12567665  1
  Co  Co118  1  -0.00096266  0.74873731  0.25542016  1
  Co  Co119  1  0.50480052  0.75447857  0.49776609  1
  Co  Co120  1  -0.00295726  0.00293758  0.24932888  1
  Co  Co121  1  0.87426393  0.12493380  0.37679061  1
  Co  Co122  1  0.87906121  0.11865398  0.87452860  1
  Co  Co123  1  0.75073283  0.74789010  -0.00061969  1
  Co  Co124  1  -0.00250509  -0.00317803  0.74686721  1
  Co  Co125  1  0.12451066  0.37352772  0.62416644  1
  Co  Co126  1  -0.00353773  0.49655900  0.50092488  1
  Co  Co127  1  0.24542651  0.74982672  0.49907089  1
