# generated using pymatgen
data_Fe45Co19
_symmetry_space_group_name_H-M   'P 1'
_cell_length_a   11.41454243
_cell_length_b   11.41428844
_cell_length_c   11.41448265
_cell_angle_alpha   89.98689559
_cell_angle_beta   89.99644126
_cell_angle_gamma   89.99725562
_symmetry_Int_Tables_number   1
_chemical_formula_structural   Fe45Co19
_chemical_formula_sum   'Fe90 Co38'
_cell_volume   1487.18011395
_cell_formula_units_Z   2
loop_
 _symmetry_equiv_pos_site_id
 _symmetry_equiv_pos_as_xyz
  1  'x, y, z'
loop_
 _atom_site_type_symbol
 _atom_site_label
 _atom_site_symmetry_multiplicity
 _atom_site_fract_x
 _atom_site_fract_y
 _atom_site_fract_z
 _atom_site_occupancy
  Fe  Fe0  1  0.50076993  -0.00174383  0.50410580  1
  Fe  Fe1  1  0.75187562  0.24883282  0.24832995  1
  Fe  Fe2  1  0.37291573  0.62370323  0.12439419  1
  Fe  Fe3  1  0.62480812  0.62618299  0.37576067  1
  Fe  Fe4  1  0.62525838  0.62641522  0.12449167  1
  Fe  Fe5  1  0.62431689  0.62672197  0.87422879  1
  Fe  Fe6  1  0.50127126  0.49907411  0.25026334  1
  Fe  Fe7  1  0.12204231  0.12696890  0.37687186  1
  Fe  Fe8  1  0.49996143  0.24814279  0.74985590  1
  Fe  Fe9  1  0.12299266  0.37675549  0.37341358  1
  Fe  Fe10  1  0.24539876  0.24567325  0.74758552  1
  Fe  Fe11  1  0.74772585  0.50044101  -0.00144961  1
  Fe  Fe12  1  0.62515609  0.12387270  0.12352381  1
  Fe  Fe13  1  0.24578086  0.00241811  0.74966628  1
  Fe  Fe14  1  0.37670895  0.62411907  0.37563312  1
  Fe  Fe15  1  0.50067354  0.49852340  0.50117958  1
  Fe  Fe16  1  0.87678352  0.37731881  0.37403559  1
  Fe  Fe17  1  0.62734076  0.62700494  0.62461255  1
  Fe  Fe18  1  0.75542677  0.74611876  0.75249811  1
  Fe  Fe19  1  0.87598980  0.12450901  0.37571499  1
  Fe  Fe20  1  0.87459676  0.87442627  0.62516885  1
  Fe  Fe21  1  0.87919968  0.12620726  0.87615745  1
  Fe  Fe22  1  -0.00055218  0.25368938  0.50352418  1
  Fe  Fe23  1  0.74854608  -0.00150920  -0.00241515  1
  Fe  Fe24  1  0.00357672  -0.00278283  -0.00034555  1
  Fe  Fe25  1  0.49728841  0.75229168  0.50337056  1
  Fe  Fe26  1  0.12643000  0.87039262  0.62566194  1
  Fe  Fe27  1  0.87398186  0.87641902  0.12552140  1
  Fe  Fe28  1  0.37392850  0.37524132  0.37547341  1
  Fe  Fe29  1  0.25022962  0.24830505  0.25018060  1
  Fe  Fe30  1  0.37253863  0.87814402  0.12784550  1
  Fe  Fe31  1  0.24838091  0.50106193  0.49960423  1
  Fe  Fe32  1  0.50044766  0.75299571  0.00187287  1
  Fe  Fe33  1  0.62696522  0.37142471  0.37677785  1
  Fe  Fe34  1  0.87441720  0.62546157  0.12267958  1
  Fe  Fe35  1  0.50042073  0.75249211  0.24843588  1
  Fe  Fe36  1  0.12679297  0.37503653  0.12593933  1
  Fe  Fe37  1  0.62529150  0.12682465  0.62370077  1
  Fe  Fe38  1  0.24856295  0.24908700  0.50275141  1
  Fe  Fe39  1  0.75350508  0.24962810  0.00210394  1
  Fe  Fe40  1  0.12326315  0.37040991  0.87452172  1
  Fe  Fe41  1  0.50062551  0.49846054  -0.00053303  1
  Fe  Fe42  1  0.50182942  0.24858827  0.25146794  1
  Fe  Fe43  1  0.87848592  0.12347816  0.62462199  1
  Fe  Fe44  1  0.87785864  0.87247132  0.87681999  1
  Fe  Fe45  1  0.50172905  -0.00135015  -0.00225440  1
  Fe  Fe46  1  0.75184958  0.50034758  0.50040171  1
  Fe  Fe47  1  0.49790142  0.24948460  -0.00065555  1
  Fe  Fe48  1  0.12246282  0.62937782  0.62174489  1
  Fe  Fe49  1  0.37441015  0.12247042  0.12570033  1
  Fe  Fe50  1  0.75035723  0.00047768  0.49943297  1
  Fe  Fe51  1  0.74675730  0.00122833  0.25189728  1
  Fe  Fe52  1  0.74955403  0.49948432  0.24937169  1
  Fe  Fe53  1  0.00209720  0.49947035  0.00255600  1
  Fe  Fe54  1  0.00140376  0.00149007  0.24971090  1
  Fe  Fe55  1  0.12529864  0.12571109  0.12279808  1
  Fe  Fe56  1  -0.00035408  0.50284271  0.74835992  1
  Fe  Fe57  1  0.37262748  0.37420373  0.87248383  1
  Fe  Fe58  1  0.24611418  -0.00133905  -0.00143263  1
  Fe  Fe59  1  0.24892587  0.49924432  -0.00126688  1
  Fe  Fe60  1  0.00002929  -0.00419473  0.49893699  1
  Fe  Fe61  1  0.12149295  0.63057855  0.87620242  1
  Fe  Fe62  1  0.74911171  0.00120993  0.75134632  1
  Fe  Fe63  1  0.37417928  0.12379240  0.87338718  1
  Fe  Fe64  1  0.37626465  0.62597837  0.87596763  1
  Fe  Fe65  1  0.62698622  0.37268665  0.62426342  1
  Fe  Fe66  1  0.75266378  0.24876890  0.74992644  1
  Fe  Fe67  1  0.24923567  0.74783554  0.25106088  1
  Fe  Fe68  1  0.12545322  0.87435505  0.37321833  1
  Fe  Fe69  1  0.49656925  0.75151165  0.74577243  1
  Fe  Fe70  1  0.62497184  0.87275173  0.87222364  1
  Fe  Fe71  1  0.75523265  0.75021055  0.49670937  1
  Fe  Fe72  1  0.62473724  0.87522468  0.37614183  1
  Fe  Fe73  1  0.12055569  0.62300887  0.37525038  1
  Fe  Fe74  1  0.75046778  0.75090430  0.25084321  1
  Fe  Fe75  1  0.87700683  0.37580801  0.87439682  1
  Fe  Fe76  1  -0.00127134  0.74889899  0.24925554  1
  Fe  Fe77  1  0.24686453  0.75284937  0.00072343  1
  Fe  Fe78  1  0.37384984  0.87686961  0.37401784  1
  Fe  Fe79  1  0.37442784  0.37634266  0.12610842  1
  Fe  Fe80  1  0.87520437  0.37742799  0.62743090  1
  Fe  Fe81  1  0.50171697  0.50012714  0.74916732  1
  Fe  Fe82  1  0.24846394  0.00098660  0.49981088  1
  Fe  Fe83  1  0.37236316  0.37592907  0.62644744  1
  Fe  Fe84  1  0.62634046  0.37260560  0.87554658  1
  Fe  Fe85  1  -0.00289646  0.25007683  0.24580995  1
  Fe  Fe86  1  0.00236768  -0.00042704  0.75128538  1
  Fe  Fe87  1  0.24779057  0.50483803  0.75095078  1
  Fe  Fe88  1  0.37329829  0.87603478  0.87082671  1
  Fe  Fe89  1  0.37686958  0.12380446  0.37631212  1
  Co  Co90  1  0.36926569  0.87692245  0.62686333  1
  Co  Co91  1  -0.00056436  0.50014741  0.24577307  1
  Co  Co92  1  0.63029246  0.87251873  0.62611097  1
  Co  Co93  1  0.62603148  0.12697249  0.87574984  1
  Co  Co94  1  0.37588852  0.12375960  0.62622227  1
  Co  Co95  1  0.12714215  0.37709447  0.62704683  1
  Co  Co96  1  0.50362490  -0.00051640  0.74830148  1
  Co  Co97  1  0.25235572  0.74587625  0.75003806  1
  Co  Co98  1  0.87418925  0.11941344  0.12403694  1
  Co  Co99  1  0.74999738  0.50140094  0.75072842  1
  Co  Co100  1  0.12080090  0.12259036  0.62205543  1
  Co  Co101  1  0.00063229  0.24941346  0.74713503  1
  Co  Co102  1  0.87724631  0.62081472  0.37424512  1
  Co  Co103  1  0.87391453  0.37876510  0.12390031  1
  Co  Co104  1  -0.00376783  0.75314920  0.49667020  1
  Co  Co105  1  0.00222162  0.75314858  0.00370436  1
  Co  Co106  1  0.37458333  0.62239597  0.62366949  1
  Co  Co107  1  0.87802497  0.62338986  0.87981969  1
  Co  Co108  1  0.75595482  0.24973549  0.50124308  1
  Co  Co109  1  0.62680485  0.87627871  0.12465527  1
  Co  Co110  1  0.87599286  0.62521189  0.62185743  1
  Co  Co111  1  0.50265544  0.00042811  0.25148429  1
  Co  Co112  1  0.25125932  0.74868028  0.49708552  1
  Co  Co113  1  0.25049260  0.50077663  0.25159038  1
  Co  Co114  1  0.49707460  0.25088116  0.50073064  1
  Co  Co115  1  0.12222606  0.12865422  0.87818979  1
  Co  Co116  1  0.87469849  0.87862973  0.37115255  1
  Co  Co117  1  -0.00264434  0.25068753  0.00410101  1
  Co  Co118  1  0.24782367  0.00410578  0.25220397  1
  Co  Co119  1  -0.00455580  0.74893921  0.74935086  1
  Co  Co120  1  0.25148607  0.25060520  0.00074952  1
  Co  Co121  1  0.12682363  0.62419141  0.12533534  1
  Co  Co122  1  -0.00029975  0.49801796  0.50303870  1
  Co  Co123  1  0.62589281  0.12667120  0.37862655  1
  Co  Co124  1  0.12485178  0.87074887  0.87011285  1
  Co  Co125  1  0.62424031  0.37335930  0.12436615  1
  Co  Co126  1  0.75024693  0.75046746  -0.00167350  1
  Co  Co127  1  0.12580601  0.87643696  0.12991669  1
