# generated using pymatgen
data_Fe45Co19
_symmetry_space_group_name_H-M   'P 1'
_cell_length_a   11.41474420
_cell_length_b   11.41555628
_cell_length_c   11.41445893
_cell_angle_alpha   90.00777222
_cell_angle_beta   90.00232395
_cell_angle_gamma   90.00133092
_symmetry_Int_Tables_number   1
_chemical_formula_structural   Fe45Co19
_chemical_formula_sum   'Fe90 Co38'
_cell_volume   1487.36853071
_cell_formula_units_Z   2
loop_
 _symmetry_equiv_pos_site_id
 _symmetry_equiv_pos_as_xyz
  1  'x, y, z'
loop_
 _atom_site_type_symbol
 _atom_site_label
 _atom_site_symmetry_multiplicity
 _atom_site_fract_x
 _atom_site_fract_y
 _atom_site_fract_z
 _atom_site_occupancy
  Fe  Fe0  1  0.75038798  -0.00531898  0.49707928  1
  Fe  Fe1  1  0.75412269  0.25285130  0.49742899  1
  Fe  Fe2  1  0.12723477  0.37187699  0.12620208  1
  Fe  Fe3  1  0.49803065  0.49961932  0.50339795  1
  Fe  Fe4  1  0.49822848  0.75174201  0.24945454  1
  Fe  Fe5  1  0.87655192  0.62183137  0.87566441  1
  Fe  Fe6  1  0.37644374  0.62520984  0.37682207  1
  Fe  Fe7  1  0.74793135  0.50187993  0.24863039  1
  Fe  Fe8  1  0.75002711  0.74956228  -0.00130138  1
  Fe  Fe9  1  -0.00106009  0.25071997  0.00115919  1
  Fe  Fe10  1  0.37068432  0.12788288  0.62684618  1
  Fe  Fe11  1  0.37461645  0.37065106  0.62741519  1
  Fe  Fe12  1  0.00026270  0.49900136  0.74798625  1
  Fe  Fe13  1  0.62218088  0.62282972  0.87275607  1
  Fe  Fe14  1  0.00611832  -0.00040936  0.00368355  1
  Fe  Fe15  1  0.62539085  0.37325988  0.12419823  1
  Fe  Fe16  1  0.87631745  0.87457385  0.12593796  1
  Fe  Fe17  1  0.12528249  0.87572253  0.37670138  1
  Fe  Fe18  1  0.87905983  0.12377534  0.87544363  1
  Fe  Fe19  1  0.24817473  0.75367850  -0.00373129  1
  Fe  Fe20  1  0.87476222  0.12552352  0.62067146  1
  Fe  Fe21  1  0.49835642  0.75311532  -0.00360680  1
  Fe  Fe22  1  0.25204842  0.49955549  0.74912612  1
  Fe  Fe23  1  0.87485174  0.12473498  0.12584262  1
  Fe  Fe24  1  0.37138828  0.87796427  0.12325679  1
  Fe  Fe25  1  0.37360225  0.62915047  0.62740041  1
  Fe  Fe26  1  0.24820307  0.00232065  0.25097911  1
  Fe  Fe27  1  0.12299210  0.12496592  0.38143842  1
  Fe  Fe28  1  0.62530552  0.37527843  0.87239545  1
  Fe  Fe29  1  0.87302916  0.37640345  0.12410410  1
  Fe  Fe30  1  0.12495570  0.62357972  0.87460611  1
  Fe  Fe31  1  -0.00207890  0.24982243  0.25400796  1
  Fe  Fe32  1  0.00235234  0.75096947  0.74947474  1
  Fe  Fe33  1  0.62395427  0.62775776  0.37569226  1
  Fe  Fe34  1  0.00168284  0.75034556  0.50096290  1
  Fe  Fe35  1  0.49980966  0.24832434  -0.00019192  1
  Fe  Fe36  1  0.87299001  0.87366327  0.62442272  1
  Fe  Fe37  1  0.12724142  0.62148089  0.37872074  1
  Fe  Fe38  1  0.24556858  0.00608963  0.75225607  1
  Fe  Fe39  1  0.25232097  0.24839183  0.25472370  1
  Fe  Fe40  1  0.49846573  0.49871047  0.24768101  1
  Fe  Fe41  1  0.75067861  0.24924654  0.25181890  1
  Fe  Fe42  1  0.74984742  0.00085035  -0.00018988  1
  Fe  Fe43  1  0.75183085  0.49965700  0.50256604  1
  Fe  Fe44  1  0.62524600  0.87378302  0.12487467  1
  Fe  Fe45  1  0.25019230  0.49819869  -0.00040749  1
  Fe  Fe46  1  0.49818685  0.49801074  -0.00035303  1
  Fe  Fe47  1  0.87330057  0.37686581  0.87475292  1
  Fe  Fe48  1  0.62353729  0.62667658  0.62710187  1
  Fe  Fe49  1  0.24980426  0.24515479  -0.00402620  1
  Fe  Fe50  1  0.74995768  -0.00345369  0.25292091  1
  Fe  Fe51  1  0.62527035  0.12531333  0.12498761  1
  Fe  Fe52  1  0.12595132  0.37331309  0.62033465  1
  Fe  Fe53  1  0.37755062  0.37403339  0.37470839  1
  Fe  Fe54  1  0.62508272  0.37375207  0.62697421  1
  Fe  Fe55  1  0.49889792  0.24735707  0.50060516  1
  Fe  Fe56  1  0.13070590  0.87486629  0.62397592  1
  Fe  Fe57  1  0.25087469  0.74976464  0.25257905  1
  Fe  Fe58  1  0.00274892  0.75153407  -0.00054624  1
  Fe  Fe59  1  0.62375605  0.12447585  0.37643173  1
  Fe  Fe60  1  0.00095357  0.50032364  0.24905621  1
  Fe  Fe61  1  0.75062113  0.00254245  0.74950641  1
  Fe  Fe62  1  0.87307562  0.62620154  0.37604567  1
  Fe  Fe63  1  0.49831936  -0.00133159  0.50423673  1
  Fe  Fe64  1  0.12720700  0.62518895  0.12400084  1
  Fe  Fe65  1  0.50170606  0.00236395  0.74568408  1
  Fe  Fe66  1  0.12853766  0.62371973  0.62299358  1
  Fe  Fe67  1  0.00037291  0.00082916  0.25149549  1
  Fe  Fe68  1  0.37620034  0.37216500  0.87211177  1
  Fe  Fe69  1  0.12429221  0.37766018  0.37936325  1
  Fe  Fe70  1  0.37369925  0.62532612  0.12235805  1
  Fe  Fe71  1  0.37365239  0.87993321  0.87300482  1
  Fe  Fe72  1  0.12428850  0.37409938  0.87474978  1
  Fe  Fe73  1  0.00101332  0.74854601  0.25054941  1
  Fe  Fe74  1  0.75010495  0.24793052  0.75069048  1
  Fe  Fe75  1  0.25257984  0.49875665  0.25060811  1
  Fe  Fe76  1  0.62346252  0.12444873  0.87529946  1
  Fe  Fe77  1  0.37436138  0.12420019  0.12417716  1
  Fe  Fe78  1  0.00244223  0.00113575  0.74432998  1
  Fe  Fe79  1  0.49882248  0.75513459  0.50430568  1
  Fe  Fe80  1  0.62347441  0.37505541  0.37538001  1
  Fe  Fe81  1  0.50141080  0.00008552  0.24906951  1
  Fe  Fe82  1  0.00173545  0.24888484  0.74632093  1
  Fe  Fe83  1  0.87465358  0.62579359  0.62583799  1
  Fe  Fe84  1  0.37509754  0.87764321  0.37593493  1
  Fe  Fe85  1  0.87513906  0.62383263  0.12245400  1
  Fe  Fe86  1  0.62515322  0.87748846  0.87191625  1
  Fe  Fe87  1  0.62252619  0.62695337  0.12427676  1
  Fe  Fe88  1  0.87777767  0.87720931  0.87460420  1
  Fe  Fe89  1  0.74962820  0.74935848  0.75140169  1
  Co  Co90  1  0.24884765  0.74864047  0.75372291  1
  Co  Co91  1  0.62198766  0.87315987  0.37565658  1
  Co  Co92  1  0.87460837  0.12217294  0.37723884  1
  Co  Co93  1  0.49970268  0.24947484  0.24911992  1
  Co  Co94  1  0.62956193  0.12573999  0.62055556  1
  Co  Co95  1  0.12309755  0.87760970  0.87212429  1
  Co  Co96  1  0.25282289  0.25014911  0.49601720  1
  Co  Co97  1  0.00206750  0.49774584  0.00114709  1
  Co  Co98  1  0.12548014  0.12896394  0.12699881  1
  Co  Co99  1  0.75012829  0.50065575  0.74823388  1
  Co  Co100  1  0.87724678  0.87130495  0.37489895  1
  Co  Co101  1  0.25291246  0.00136722  0.49987884  1
  Co  Co102  1  0.37448176  0.62435079  0.87565909  1
  Co  Co103  1  0.50283136  0.24626250  0.74855265  1
  Co  Co104  1  0.24499203  0.00248846  -0.00125086  1
  Co  Co105  1  -0.00011773  -0.00288937  0.50219387  1
  Co  Co106  1  0.37762524  0.12303960  0.87387141  1
  Co  Co107  1  0.49674825  0.49992142  0.74840477  1
  Co  Co108  1  0.74763202  0.50086047  -0.00027818  1
  Co  Co109  1  -0.00388429  0.25273191  0.49859473  1
  Co  Co110  1  0.50135739  -0.00027112  0.00061774  1
  Co  Co111  1  0.49923811  0.75224301  0.75073982  1
  Co  Co112  1  0.37868391  0.12308580  0.37427740  1
  Co  Co113  1  0.74857542  0.75105387  0.50086236  1
  Co  Co114  1  0.25588413  0.49896574  0.50123682  1
  Co  Co115  1  0.25114436  0.75149077  0.49769838  1
  Co  Co116  1  0.75001948  0.75049244  0.24857844  1
  Co  Co117  1  0.24622253  0.24854472  0.75239375  1
  Co  Co118  1  0.11881065  0.12507985  0.87494592  1
  Co  Co119  1  0.12586659  0.12838921  0.61906594  1
  Co  Co120  1  0.87467190  0.37941335  0.37233244  1
  Co  Co121  1  0.37270818  0.37160274  0.12437457  1
  Co  Co122  1  -0.00410029  0.50023255  0.50199843  1
  Co  Co123  1  0.87470460  0.37368880  0.62821786  1
  Co  Co124  1  0.36940197  0.87525484  0.63003066  1
  Co  Co125  1  0.62761091  0.87538511  0.62779882  1
  Co  Co126  1  0.12646095  0.87363133  0.12862889  1
  Co  Co127  1  0.75044912  0.24800029  -0.00174964  1
