# generated using pymatgen
data_Fe45Co19
_symmetry_space_group_name_H-M   'P 1'
_cell_length_a   11.41437352
_cell_length_b   11.41471449
_cell_length_c   11.41514120
_cell_angle_alpha   89.99338513
_cell_angle_beta   90.00228006
_cell_angle_gamma   90.00406756
_symmetry_Int_Tables_number   1
_chemical_formula_structural   Fe45Co19
_chemical_formula_sum   'Fe90 Co38'
_cell_volume   1487.29944807
_cell_formula_units_Z   2
loop_
 _symmetry_equiv_pos_site_id
 _symmetry_equiv_pos_as_xyz
  1  'x, y, z'
loop_
 _atom_site_type_symbol
 _atom_site_label
 _atom_site_symmetry_multiplicity
 _atom_site_fract_x
 _atom_site_fract_y
 _atom_site_fract_z
 _atom_site_occupancy
  Fe  Fe0  1  0.87651387  0.12232317  0.37357713  1
  Fe  Fe1  1  0.12510276  0.37344665  0.62340234  1
  Fe  Fe2  1  0.37295107  0.87559885  0.87690288  1
  Fe  Fe3  1  0.12762871  0.87221685  0.37504600  1
  Fe  Fe4  1  0.37444011  0.12752961  0.87053110  1
  Fe  Fe5  1  0.87390440  0.37783724  0.87607473  1
  Fe  Fe6  1  0.49911135  0.25069453  0.25083167  1
  Fe  Fe7  1  0.12328775  0.62893601  0.62682430  1
  Fe  Fe8  1  0.00172210  -0.00201075  0.49995576  1
  Fe  Fe9  1  0.74397183  0.74542242  0.50063172  1
  Fe  Fe10  1  0.75167239  0.49926777  0.74815915  1
  Fe  Fe11  1  0.62490091  0.62272311  0.87479470  1
  Fe  Fe12  1  0.50135523  -0.00074118  0.00004832  1
  Fe  Fe13  1  0.12632956  0.62878618  0.87313913  1
  Fe  Fe14  1  0.37378075  0.62567161  0.37222384  1
  Fe  Fe15  1  0.87446755  0.87437328  0.62393272  1
  Fe  Fe16  1  0.62465019  0.37302525  0.12412445  1
  Fe  Fe17  1  0.50265507  0.50263823  0.49810745  1
  Fe  Fe18  1  -0.00041151  0.50131202  0.75059995  1
  Fe  Fe19  1  0.12400099  0.12508837  0.37438800  1
  Fe  Fe20  1  0.00024766  0.25173234  0.75224974  1
  Fe  Fe21  1  0.25007192  -0.00186523  0.24878032  1
  Fe  Fe22  1  0.37557309  0.12503979  0.12489102  1
  Fe  Fe23  1  0.62693549  0.87683093  0.87447840  1
  Fe  Fe24  1  0.87606629  0.87729167  0.12372738  1
  Fe  Fe25  1  0.87843720  0.37540562  0.12536193  1
  Fe  Fe26  1  0.49905622  0.75087119  0.75106536  1
  Fe  Fe27  1  0.50213396  0.00391935  0.50262765  1
  Fe  Fe28  1  0.00074003  0.75025909  0.25334660  1
  Fe  Fe29  1  0.25002158  0.50029389  0.74958908  1
  Fe  Fe30  1  0.62673261  0.37432608  0.37610685  1
  Fe  Fe31  1  0.24934226  0.00101256  0.50164278  1
  Fe  Fe32  1  0.75070887  0.25131165  0.75043720  1
  Fe  Fe33  1  0.11959824  0.12767478  0.12450078  1
  Fe  Fe34  1  0.12440969  0.87013461  0.62821224  1
  Fe  Fe35  1  0.49872060  0.24695021  0.50128729  1
  Fe  Fe36  1  0.74925525  0.50127447  0.00328353  1
  Fe  Fe37  1  0.12527200  0.87253837  0.12411435  1
  Fe  Fe38  1  0.49886320  0.25252258  -0.00311749  1
  Fe  Fe39  1  0.49353578  0.75534174  0.24762237  1
  Fe  Fe40  1  0.87427310  0.87476829  0.37729503  1
  Fe  Fe41  1  0.62630795  0.12486425  0.87264421  1
  Fe  Fe42  1  0.49959375  0.49463676  0.75257651  1
  Fe  Fe43  1  0.00405377  0.49981219  0.25030245  1
  Fe  Fe44  1  0.37815832  0.62403509  0.62623982  1
  Fe  Fe45  1  0.87680815  0.12403414  0.62675000  1
  Fe  Fe46  1  0.87556638  0.62509670  0.62401152  1
  Fe  Fe47  1  0.24819123  0.25128914  0.25035715  1
  Fe  Fe48  1  0.62028701  0.62748094  0.12576773  1
  Fe  Fe49  1  0.74823683  0.74970239  0.00070448  1
  Fe  Fe50  1  0.62676662  0.37505221  0.62354291  1
  Fe  Fe51  1  0.00343932  -0.00316387  0.75390646  1
  Fe  Fe52  1  0.74858342  0.50120916  0.24940732  1
  Fe  Fe53  1  0.24975345  0.50099075  0.50121957  1
  Fe  Fe54  1  0.49854682  -0.00196448  0.24883975  1
  Fe  Fe55  1  0.87430116  0.37780427  0.37616839  1
  Fe  Fe56  1  0.25210929  0.74843349  0.50072796  1
  Fe  Fe57  1  0.00244384  0.50088627  -0.00109627  1
  Fe  Fe58  1  0.87605156  0.12146910  0.87585871  1
  Fe  Fe59  1  0.37729902  0.87560121  0.62241625  1
  Fe  Fe60  1  0.62382454  0.12492656  0.12562688  1
  Fe  Fe61  1  0.75233577  0.24836478  0.00098990  1
  Fe  Fe62  1  0.75144328  0.24854718  0.49975040  1
  Fe  Fe63  1  0.87519755  0.62440079  0.37631760  1
  Fe  Fe64  1  0.24635107  0.50206064  0.24376023  1
  Fe  Fe65  1  0.87245115  0.87807604  0.87631713  1
  Fe  Fe66  1  0.00138317  0.50089466  0.49967162  1
  Fe  Fe67  1  0.00035186  0.25095452  0.49767220  1
  Fe  Fe68  1  0.25089278  0.25001318  0.00006204  1
  Fe  Fe69  1  0.88040134  0.12203673  0.12467147  1
  Fe  Fe70  1  0.62193164  0.87383978  0.37602851  1
  Fe  Fe71  1  0.37172767  0.37556694  0.37459788  1
  Fe  Fe72  1  0.12831255  0.37524629  0.87706760  1
  Fe  Fe73  1  -0.00209896  0.75103577  -0.00404779  1
  Fe  Fe74  1  0.49980820  0.49695028  0.24931116  1
  Fe  Fe75  1  0.75048020  0.74979989  0.24839665  1
  Fe  Fe76  1  0.25396862  0.74622098  0.00319227  1
  Fe  Fe77  1  0.87806090  0.62535649  0.12454375  1
  Fe  Fe78  1  0.12558688  0.12644701  0.62647192  1
  Fe  Fe79  1  0.50063112  0.00094778  0.74789903  1
  Fe  Fe80  1  0.75168967  0.24901274  0.24969071  1
  Fe  Fe81  1  0.75080875  0.74931634  0.75019797  1
  Fe  Fe82  1  0.24808874  -0.00081311  0.75085182  1
  Fe  Fe83  1  0.37400586  0.37219105  0.62550052  1
  Fe  Fe84  1  0.74865591  -0.00053058  0.24880876  1
  Fe  Fe85  1  0.49746738  0.49626944  -0.00048812  1
  Fe  Fe86  1  0.37412864  0.12321724  0.37514749  1
  Fe  Fe87  1  0.24585324  0.00203651  -0.00177265  1
  Fe  Fe88  1  0.74673163  0.00121371  0.50181199  1
  Fe  Fe89  1  0.37541778  0.62334271  0.87624604  1
  Co  Co90  1  -0.00591377  0.75035506  0.75261230  1
  Co  Co91  1  0.00143367  -0.00342459  0.25138225  1
  Co  Co92  1  0.12941686  0.86702278  0.87403285  1
  Co  Co93  1  0.62401212  0.87381461  0.62517767  1
  Co  Co94  1  0.00484064  -0.00308605  -0.00379756  1
  Co  Co95  1  0.37998377  0.62356988  0.12510510  1
  Co  Co96  1  0.62740670  0.12692940  0.62816378  1
  Co  Co97  1  -0.00286041  0.25103132  -0.00329348  1
  Co  Co98  1  0.37192695  0.87855978  0.11954990  1
  Co  Co99  1  0.74841065  0.00142847  0.00307322  1
  Co  Co100  1  0.74669756  0.50439036  0.49913474  1
  Co  Co101  1  0.62310844  0.62284673  0.63109510  1
  Co  Co102  1  0.00099419  0.75016494  0.49865533  1
  Co  Co103  1  0.12749927  0.37692167  0.37614548  1
  Co  Co104  1  0.62949966  0.37613891  0.87657318  1
  Co  Co105  1  0.25289379  0.75084127  0.24836506  1
  Co  Co106  1  0.24829643  0.25137254  0.74921360  1
  Co  Co107  1  0.12774751  0.62583336  0.37556713  1
  Co  Co108  1  0.25654760  0.74904963  0.74737789  1
  Co  Co109  1  0.50089677  0.74517673  0.50110168  1
  Co  Co110  1  -0.00073598  0.25228047  0.25371219  1
  Co  Co111  1  0.12127599  0.62943616  0.12370564  1
  Co  Co112  1  0.87287616  0.62249101  0.87664692  1
  Co  Co113  1  0.75079549  -0.00042320  0.74770888  1
  Co  Co114  1  0.62163126  0.62744217  0.36809535  1
  Co  Co115  1  0.25088631  0.24867996  0.49884910  1
  Co  Co116  1  0.50198106  0.25337601  0.75079410  1
  Co  Co117  1  0.12341692  0.37179813  0.12226168  1
  Co  Co118  1  0.37520227  0.87668293  0.38002550  1
  Co  Co119  1  0.37240966  0.12607770  0.62868016  1
  Co  Co120  1  0.62466172  0.87448793  0.12549282  1
  Co  Co121  1  0.37331348  0.37402871  0.12510058  1
  Co  Co122  1  0.62460469  0.12485039  0.37338083  1
  Co  Co123  1  0.36963426  0.37418207  0.87491770  1
  Co  Co124  1  0.87557933  0.37555612  0.62365383  1
  Co  Co125  1  0.50046529  0.75247706  -0.00215735  1
  Co  Co126  1  0.24963655  0.50308804  0.00317149  1
  Co  Co127  1  0.12511017  0.12856624  0.87528770  1
