# generated using pymatgen
data_Fe45Co19
_symmetry_space_group_name_H-M   'P 1'
_cell_length_a   11.41535437
_cell_length_b   11.41510480
_cell_length_c   11.41372623
_cell_angle_alpha   90.00217764
_cell_angle_beta   89.99163760
_cell_angle_gamma   90.00371438
_symmetry_Int_Tables_number   1
_chemical_formula_structural   Fe45Co19
_chemical_formula_sum   'Fe90 Co38'
_cell_volume   1487.29372700
_cell_formula_units_Z   2
loop_
 _symmetry_equiv_pos_site_id
 _symmetry_equiv_pos_as_xyz
  1  'x, y, z'
loop_
 _atom_site_type_symbol
 _atom_site_label
 _atom_site_symmetry_multiplicity
 _atom_site_fract_x
 _atom_site_fract_y
 _atom_site_fract_z
 _atom_site_occupancy
  Fe  Fe0  1  0.37298615  0.87206951  0.12144414  1
  Fe  Fe1  1  0.12800955  0.87468430  0.87665238  1
  Fe  Fe2  1  0.87654741  0.37595892  0.62842199  1
  Fe  Fe3  1  0.37520241  0.37519990  0.37276232  1
  Fe  Fe4  1  0.00138086  0.25010428  -0.00093141  1
  Fe  Fe5  1  0.25297604  -0.00108348  0.75365161  1
  Fe  Fe6  1  0.49821911  0.00160675  0.00038181  1
  Fe  Fe7  1  0.12812566  0.87227883  0.12154737  1
  Fe  Fe8  1  0.37348899  0.12661987  0.37275839  1
  Fe  Fe9  1  0.74970175  0.50228639  0.25045069  1
  Fe  Fe10  1  0.87614972  0.12461265  0.87385369  1
  Fe  Fe11  1  0.75178649  0.24948149  0.50044526  1
  Fe  Fe12  1  0.75018024  0.24877836  -0.00062542  1
  Fe  Fe13  1  0.62447858  0.62242165  0.87344505  1
  Fe  Fe14  1  0.50028302  0.24980431  0.00151529  1
  Fe  Fe15  1  0.25036719  -0.00387905  0.24991760  1
  Fe  Fe16  1  0.12526371  0.12439918  0.37485540  1
  Fe  Fe17  1  0.50090830  0.49824610  0.74713558  1
  Fe  Fe18  1  -0.00220827  0.74917861  -0.00334715  1
  Fe  Fe19  1  0.62262658  0.37587786  0.87658276  1
  Fe  Fe20  1  0.75122641  -0.00241826  0.24948212  1
  Fe  Fe21  1  -0.00130976  0.50336288  0.50279406  1
  Fe  Fe22  1  0.12310167  0.37727793  0.87338713  1
  Fe  Fe23  1  0.87612404  0.12465783  0.37385489  1
  Fe  Fe24  1  0.37281699  0.12637712  0.12574634  1
  Fe  Fe25  1  0.62089945  0.62548706  0.37733877  1
  Fe  Fe26  1  -0.00096101  0.75077708  0.25120045  1
  Fe  Fe27  1  0.62672817  0.87439724  0.12288188  1
  Fe  Fe28  1  -0.00035054  0.24892108  0.50277354  1
  Fe  Fe29  1  -0.00155211  0.50292222  -0.00457133  1
  Fe  Fe30  1  0.75309635  0.00019157  0.50125461  1
  Fe  Fe31  1  -0.00105901  -0.00219495  0.00100683  1
  Fe  Fe32  1  0.49818165  0.25042926  0.49990036  1
  Fe  Fe33  1  -0.00046608  -0.00391896  0.24926826  1
  Fe  Fe34  1  0.25105786  0.50256083  0.75076922  1
  Fe  Fe35  1  0.12496082  0.62676269  0.62798461  1
  Fe  Fe36  1  0.12530344  0.37637923  0.62632412  1
  Fe  Fe37  1  0.12415726  0.37605614  0.37647693  1
  Fe  Fe38  1  -0.00158661  0.75060209  0.75321383  1
  Fe  Fe39  1  0.12760827  0.12380957  0.12500777  1
  Fe  Fe40  1  0.37817807  0.62557751  0.62299572  1
  Fe  Fe41  1  0.62620743  0.37460712  0.12584397  1
  Fe  Fe42  1  0.62377855  0.87777187  0.87657871  1
  Fe  Fe43  1  0.37652161  0.37613890  0.87502516  1
  Fe  Fe44  1  0.62515234  0.12467009  0.12731313  1
  Fe  Fe45  1  0.62301756  0.87540906  0.37838504  1
  Fe  Fe46  1  0.87414597  0.12376853  0.12570930  1
  Fe  Fe47  1  0.37482745  0.12458453  0.62542008  1
  Fe  Fe48  1  0.87587786  0.37617378  0.37439485  1
  Fe  Fe49  1  0.12515250  0.87282287  0.37727501  1
  Fe  Fe50  1  0.00052968  0.50101532  0.24985009  1
  Fe  Fe51  1  0.00248863  0.25176347  0.24841109  1
  Fe  Fe52  1  0.50131303  0.50215258  0.24824841  1
  Fe  Fe53  1  0.62467327  0.12596632  0.37380390  1
  Fe  Fe54  1  0.24882684  0.24847238  0.75238263  1
  Fe  Fe55  1  0.87523510  0.37605084  0.12467112  1
  Fe  Fe56  1  0.25057973  0.25121350  0.50036440  1
  Fe  Fe57  1  -0.00123344  -0.00237037  0.50362068  1
  Fe  Fe58  1  0.12603832  0.12385331  0.62609873  1
  Fe  Fe59  1  0.87018305  0.62657884  0.63125174  1
  Fe  Fe60  1  0.37582608  0.86825308  0.37853283  1
  Fe  Fe61  1  0.50050635  0.74691981  0.00014986  1
  Fe  Fe62  1  0.62426264  0.37607817  0.62313304  1
  Fe  Fe63  1  0.75042835  0.25112931  0.75046519  1
  Fe  Fe64  1  0.25346624  0.75065541  0.75162657  1
  Fe  Fe65  1  0.62373668  0.12399272  0.87414371  1
  Fe  Fe66  1  0.49699390  -0.00165319  0.74986791  1
  Fe  Fe67  1  0.49828398  -0.00275807  0.25069595  1
  Fe  Fe68  1  0.75036338  0.50097713  0.50051774  1
  Fe  Fe69  1  0.25139071  0.50482976  -0.00349414  1
  Fe  Fe70  1  0.25034012  -0.00291182  0.50138386  1
  Fe  Fe71  1  -0.00074696  -0.00125896  0.74812681  1
  Fe  Fe72  1  0.49958989  0.25051990  0.74860586  1
  Fe  Fe73  1  0.25287549  0.50240018  0.49976531  1
  Fe  Fe74  1  0.75145643  0.75096127  -0.00459526  1
  Fe  Fe75  1  0.12450914  0.62606240  0.12332877  1
  Fe  Fe76  1  0.74928624  0.75055111  0.25172072  1
  Fe  Fe77  1  0.12604965  0.62610816  0.37539524  1
  Fe  Fe78  1  0.75163212  -0.00259721  0.74978686  1
  Fe  Fe79  1  0.24840461  0.50124282  0.25011875  1
  Fe  Fe80  1  0.24779797  0.24825603  -0.00275371  1
  Fe  Fe81  1  0.37517646  0.62711266  0.12704395  1
  Fe  Fe82  1  0.50379441  0.75243898  0.74568217  1
  Fe  Fe83  1  0.75042222  0.49973464  -0.00267216  1
  Fe  Fe84  1  0.37264849  0.37455893  0.12484915  1
  Fe  Fe85  1  0.87342967  0.62697843  0.12516353  1
  Fe  Fe86  1  0.62496553  0.37351646  0.37371038  1
  Fe  Fe87  1  0.74775899  0.75008297  0.50281122  1
  Fe  Fe88  1  -0.00052670  0.74956849  0.50118118  1
  Fe  Fe89  1  0.62407248  0.12287466  0.62415395  1
  Co  Co90  1  0.25215655  0.00137306  -0.00254922  1
  Co  Co91  1  0.24595873  0.25168024  0.24969146  1
  Co  Co92  1  0.87022508  0.62445685  0.87046931  1
  Co  Co93  1  0.87423996  0.87138130  0.62568311  1
  Co  Co94  1  0.62868409  0.62690455  0.12308387  1
  Co  Co95  1  0.49691223  0.00173205  0.49808472  1
  Co  Co96  1  0.74844328  0.49540218  0.75192607  1
  Co  Co97  1  0.75210248  0.24986293  0.24934299  1
  Co  Co98  1  0.87487579  0.87427527  0.37702811  1
  Co  Co99  1  0.37684579  0.87237019  0.87759977  1
  Co  Co100  1  0.62483753  0.88121297  0.62215642  1
  Co  Co101  1  0.62659719  0.62080697  0.62648337  1
  Co  Co102  1  0.37766083  0.62848253  0.37472539  1
  Co  Co103  1  0.74997775  0.00166992  -0.00017638  1
  Co  Co104  1  0.87271608  0.87251130  0.12445449  1
  Co  Co105  1  0.24869834  0.74832985  0.50218486  1
  Co  Co106  1  0.12527017  0.62635012  0.87336309  1
  Co  Co107  1  0.37509350  0.87524432  0.62320299  1
  Co  Co108  1  0.24831428  0.75016114  0.24999272  1
  Co  Co109  1  -0.00007457  0.50231421  0.75089479  1
  Co  Co110  1  0.87472975  0.87748137  0.87489615  1
  Co  Co111  1  0.50228878  0.75117555  0.24785235  1
  Co  Co112  1  0.49952499  0.50136923  0.00327515  1
  Co  Co113  1  0.87752996  0.37355710  0.87381070  1
  Co  Co114  1  0.12560056  0.37817376  0.12081891  1
  Co  Co115  1  0.87419166  0.62545881  0.37539156  1
  Co  Co116  1  0.50305477  0.74976276  0.50526169  1
  Co  Co117  1  0.00139468  0.24912730  0.74878979  1
  Co  Co118  1  0.37321639  0.37500776  0.62685356  1
  Co  Co119  1  0.12588661  0.87365309  0.62762353  1
  Co  Co120  1  0.74418735  0.75485819  0.75129129  1
  Co  Co121  1  0.49801901  0.49806614  0.49966118  1
  Co  Co122  1  0.25146845  0.74478792  -0.00318494  1
  Co  Co123  1  0.38129449  0.62521124  0.87141938  1
  Co  Co124  1  0.87433765  0.12502987  0.62662817  1
  Co  Co125  1  0.12189394  0.12155411  0.87479139  1
  Co  Co126  1  0.49966456  0.25034075  0.24891020  1
  Co  Co127  1  0.37804242  0.12693233  0.87516726  1
