# generated using pymatgen
data_Fe45Co19
_symmetry_space_group_name_H-M   'P 1'
_cell_length_a   11.41628081
_cell_length_b   11.41744735
_cell_length_c   11.41504567
_cell_angle_alpha   89.99907741
_cell_angle_beta   90.00146828
_cell_angle_gamma   90.00478075
_symmetry_Int_Tables_number   1
_chemical_formula_structural   Fe45Co19
_chemical_formula_sum   'Fe90 Co38'
_cell_volume   1487.89166867
_cell_formula_units_Z   2
loop_
 _symmetry_equiv_pos_site_id
 _symmetry_equiv_pos_as_xyz
  1  'x, y, z'
loop_
 _atom_site_type_symbol
 _atom_site_label
 _atom_site_symmetry_multiplicity
 _atom_site_fract_x
 _atom_site_fract_y
 _atom_site_fract_z
 _atom_site_occupancy
  Fe  Fe0  1  0.12155354  0.12394173  0.62760628  1
  Fe  Fe1  1  0.12601410  0.37456639  0.62305873  1
  Fe  Fe2  1  0.37595155  0.87583126  0.12350286  1
  Fe  Fe3  1  0.37250273  0.87346480  0.87563618  1
  Fe  Fe4  1  0.24977172  0.00177455  0.50010152  1
  Fe  Fe5  1  -0.00411110  0.25240915  0.49762206  1
  Fe  Fe6  1  0.62327845  0.12771843  0.62340956  1
  Fe  Fe7  1  0.62669451  0.62443752  0.87357993  1
  Fe  Fe8  1  0.75054735  0.74675686  0.00153896  1
  Fe  Fe9  1  0.74561482  0.49837812  0.25154264  1
  Fe  Fe10  1  0.37354203  0.37550757  0.37539870  1
  Fe  Fe11  1  0.75168167  0.25188507  0.74919452  1
  Fe  Fe12  1  -0.00266176  0.75443099  0.74778023  1
  Fe  Fe13  1  0.87670092  0.12273020  0.62529267  1
  Fe  Fe14  1  0.00339525  0.49598661  0.25520000  1
  Fe  Fe15  1  0.25271111  0.24732319  0.50152580  1
  Fe  Fe16  1  0.87147782  0.62236867  0.62761616  1
  Fe  Fe17  1  0.62233995  0.12719439  0.37699930  1
  Fe  Fe18  1  0.50372331  0.49638340  0.75042521  1
  Fe  Fe19  1  0.12477799  0.87474392  0.12485690  1
  Fe  Fe20  1  0.25029119  0.74952955  0.50195419  1
  Fe  Fe21  1  0.50197741  0.49797676  0.00218838  1
  Fe  Fe22  1  0.24762404  0.50158114  0.49787544  1
  Fe  Fe23  1  0.25030879  0.00258204  -0.00173820  1
  Fe  Fe24  1  0.12291322  0.62611216  0.12662784  1
  Fe  Fe25  1  -0.00110536  0.75029272  0.00037102  1
  Fe  Fe26  1  0.12506784  0.37159095  0.12502185  1
  Fe  Fe27  1  0.87078749  0.37974606  0.61952227  1
  Fe  Fe28  1  0.00088098  0.00082097  -0.00187105  1
  Fe  Fe29  1  0.12226759  0.12850695  0.87101437  1
  Fe  Fe30  1  0.12870947  0.87364903  0.87187251  1
  Fe  Fe31  1  -0.00027812  -0.00164607  0.25137399  1
  Fe  Fe32  1  0.37579372  0.87663087  0.37482999  1
  Fe  Fe33  1  0.50450004  -0.00136524  0.24721843  1
  Fe  Fe34  1  0.12291556  0.12694904  0.12593431  1
  Fe  Fe35  1  0.62627013  0.87543947  0.87693116  1
  Fe  Fe36  1  0.50159176  0.25452845  0.24979695  1
  Fe  Fe37  1  0.74790655  0.00381287  0.00225364  1
  Fe  Fe38  1  0.37848726  0.12376328  0.37522081  1
  Fe  Fe39  1  0.37889610  0.12436283  0.62616172  1
  Fe  Fe40  1  0.37342781  0.87772720  0.62599456  1
  Fe  Fe41  1  0.87759637  0.12725034  0.87295823  1
  Fe  Fe42  1  0.87713447  0.62271531  0.12690985  1
  Fe  Fe43  1  0.37759126  0.62324176  0.12671203  1
  Fe  Fe44  1  0.87288809  0.87716673  0.12511215  1
  Fe  Fe45  1  0.12573872  0.62748664  0.87308893  1
  Fe  Fe46  1  0.50174571  0.74935094  0.00216505  1
  Fe  Fe47  1  0.12532534  0.62421123  0.62627093  1
  Fe  Fe48  1  0.74971513  0.74978421  0.24809530  1
  Fe  Fe49  1  0.37378980  0.62461508  0.87432988  1
  Fe  Fe50  1  0.37694458  0.62194500  0.62643659  1
  Fe  Fe51  1  0.75192828  0.24849338  0.25397567  1
  Fe  Fe52  1  0.25061653  0.74970113  0.24897615  1
  Fe  Fe53  1  -0.00005236  -0.00325971  0.50084505  1
  Fe  Fe54  1  0.00027634  0.49833513  -0.00150571  1
  Fe  Fe55  1  0.25038590  0.24871186  0.25002882  1
  Fe  Fe56  1  0.12514793  0.87228444  0.37529619  1
  Fe  Fe57  1  0.75125306  0.50063596  0.00047249  1
  Fe  Fe58  1  0.87278710  0.87582267  0.37552190  1
  Fe  Fe59  1  0.87582441  0.12510765  0.12744304  1
  Fe  Fe60  1  -0.00045470  0.49624850  0.74982395  1
  Fe  Fe61  1  0.24801794  0.50098835  -0.00100967  1
  Fe  Fe62  1  0.74865349  0.74534368  0.50086732  1
  Fe  Fe63  1  0.37439760  0.37577664  0.62594203  1
  Fe  Fe64  1  0.12255633  0.12739959  0.37483636  1
  Fe  Fe65  1  0.12530430  0.37059369  0.87447535  1
  Fe  Fe66  1  -0.00064046  0.74957780  0.50235636  1
  Fe  Fe67  1  0.74881725  0.00263133  0.49893233  1
  Fe  Fe68  1  0.24724322  0.50068993  0.25214397  1
  Fe  Fe69  1  0.37722208  0.12923884  0.87455860  1
  Fe  Fe70  1  0.62804946  0.37336986  0.61869943  1
  Fe  Fe71  1  0.87403262  0.62320216  0.87140259  1
  Fe  Fe72  1  0.37315643  0.37567661  0.12430338  1
  Fe  Fe73  1  0.62589270  0.87472712  0.37459394  1
  Fe  Fe74  1  0.24965391  0.00128864  0.25027675  1
  Fe  Fe75  1  0.87760918  0.62288646  0.37376181  1
  Fe  Fe76  1  0.87224516  0.87579575  0.87553744  1
  Fe  Fe77  1  0.62028959  0.62532703  0.37059481  1
  Fe  Fe78  1  0.50068393  0.00007865  0.75145978  1
  Fe  Fe79  1  0.50073613  0.75030463  0.74979329  1
  Fe  Fe80  1  0.62733939  0.87426013  0.62553317  1
  Fe  Fe81  1  0.75031507  0.00086516  0.74982258  1
  Fe  Fe82  1  0.50257733  0.49884355  0.49836726  1
  Fe  Fe83  1  0.37717183  0.62438380  0.37256036  1
  Fe  Fe84  1  0.37820861  0.12552363  0.12365918  1
  Fe  Fe85  1  0.62296214  0.12819820  0.87752081  1
  Fe  Fe86  1  0.87460385  0.37402060  0.12533136  1
  Fe  Fe87  1  0.62820737  0.37213725  0.87905697  1
  Fe  Fe88  1  0.49995898  0.75075371  0.50082869  1
  Fe  Fe89  1  0.37262205  0.37301492  0.87406058  1
  Co  Co90  1  0.49659239  0.25216357  0.50005958  1
  Co  Co91  1  0.74666080  0.00292057  0.25052790  1
  Co  Co92  1  0.75475119  0.24516511  0.49747892  1
  Co  Co93  1  0.24960570  0.74821508  0.00300532  1
  Co  Co94  1  0.87390592  0.37517511  0.87651001  1
  Co  Co95  1  0.87816755  0.12087306  0.37522367  1
  Co  Co96  1  0.74979450  0.75131469  0.75020293  1
  Co  Co97  1  0.50188720  -0.00183931  0.50077069  1
  Co  Co98  1  0.75423314  0.24746963  -0.00004291  1
  Co  Co99  1  0.25171846  0.00379704  0.75099395  1
  Co  Co100  1  0.62380547  0.62501628  0.62848489  1
  Co  Co101  1  0.62950381  0.37216930  0.12280708  1
  Co  Co102  1  -0.00299197  0.25261006  0.25284809  1
  Co  Co103  1  0.12789994  0.37033263  0.37754084  1
  Co  Co104  1  0.49988188  0.00015410  -0.00026074  1
  Co  Co105  1  0.49830221  0.25356777  0.00159555  1
  Co  Co106  1  0.74679564  0.49596267  0.75052835  1
  Co  Co107  1  0.24844499  0.49944580  0.75132836  1
  Co  Co108  1  0.62398004  0.12953064  0.12340046  1
  Co  Co109  1  0.62747336  0.87485053  0.12253700  1
  Co  Co110  1  -0.00200556  -0.00452908  0.75069775  1
  Co  Co111  1  0.00245123  0.50135492  0.49824389  1
  Co  Co112  1  -0.00234359  0.75205049  0.24930074  1
  Co  Co113  1  0.87178914  0.37959703  0.37841778  1
  Co  Co114  1  0.50009955  0.75342807  0.24820966  1
  Co  Co115  1  -0.00423502  0.25508718  0.74659352  1
  Co  Co116  1  0.50275924  0.49365935  0.24965097  1
  Co  Co117  1  0.25233532  0.74767199  0.74636753  1
  Co  Co118  1  0.12773232  0.87718157  0.62663395  1
  Co  Co119  1  0.12450512  0.62882988  0.37417666  1
  Co  Co120  1  0.25065402  0.24899834  0.74664392  1
  Co  Co121  1  0.62377750  0.62378905  0.12629616  1
  Co  Co122  1  0.62781530  0.37208867  0.37935396  1
  Co  Co123  1  0.87004878  0.87597680  0.62254175  1
  Co  Co124  1  0.74516757  0.50739812  0.49711170  1
  Co  Co125  1  -0.00185686  0.24984519  0.00081742  1
  Co  Co126  1  0.24970386  0.24819898  0.00071552  1
  Co  Co127  1  0.50238103  0.25330934  0.74902147  1
