# generated using pymatgen
data_Fe45Co19
_symmetry_space_group_name_H-M   'P 1'
_cell_length_a   11.41439699
_cell_length_b   11.41516728
_cell_length_c   11.41504695
_cell_angle_alpha   89.99062368
_cell_angle_beta   89.98552502
_cell_angle_gamma   89.99578899
_symmetry_Int_Tables_number   1
_chemical_formula_structural   Fe45Co19
_chemical_formula_sum   'Fe90 Co38'
_cell_volume   1487.34916528
_cell_formula_units_Z   2
loop_
 _symmetry_equiv_pos_site_id
 _symmetry_equiv_pos_as_xyz
  1  'x, y, z'
loop_
 _atom_site_type_symbol
 _atom_site_label
 _atom_site_symmetry_multiplicity
 _atom_site_fract_x
 _atom_site_fract_y
 _atom_site_fract_z
 _atom_site_occupancy
  Fe  Fe0  1  0.50055315  0.74851284  0.25059559  1
  Fe  Fe1  1  0.00015200  0.24889888  0.50187466  1
  Fe  Fe2  1  0.37512742  0.62459367  0.37468307  1
  Fe  Fe3  1  0.62873862  0.87458905  0.62796620  1
  Fe  Fe4  1  0.62723075  0.12668814  0.37507144  1
  Fe  Fe5  1  0.12578938  0.37768757  0.62463492  1
  Fe  Fe6  1  0.12168448  0.37485913  0.87277085  1
  Fe  Fe7  1  0.37754272  0.12457767  0.87457151  1
  Fe  Fe8  1  0.49894194  0.49853727  0.49933721  1
  Fe  Fe9  1  0.75029940  0.25154371  0.00121344  1
  Fe  Fe10  1  0.87639575  0.12844967  0.87566978  1
  Fe  Fe11  1  0.62487016  0.37756069  0.87301356  1
  Fe  Fe12  1  0.50018135  -0.00065227  0.25284083  1
  Fe  Fe13  1  0.12595318  0.37543010  0.37743463  1
  Fe  Fe14  1  0.49855707  0.25207568  0.25099730  1
  Fe  Fe15  1  0.75275143  -0.00183092  0.50011531  1
  Fe  Fe16  1  0.50269703  -0.00264784  -0.00009860  1
  Fe  Fe17  1  0.62704702  0.37539700  0.12873182  1
  Fe  Fe18  1  -0.00016704  -0.00196685  -0.00218129  1
  Fe  Fe19  1  0.24845077  0.24794570  0.74684835  1
  Fe  Fe20  1  0.50168463  0.75262624  0.49968987  1
  Fe  Fe21  1  0.37305919  0.87522931  0.62809839  1
  Fe  Fe22  1  0.62558769  0.12523790  0.12747715  1
  Fe  Fe23  1  0.24829141  -0.00344312  0.49886247  1
  Fe  Fe24  1  0.87401042  0.12579183  0.37616495  1
  Fe  Fe25  1  0.12472545  0.12347941  0.37566846  1
  Fe  Fe26  1  0.75107146  0.24970514  0.74871151  1
  Fe  Fe27  1  0.24909560  0.50355027  0.74672449  1
  Fe  Fe28  1  0.37386799  0.12418399  0.37709328  1
  Fe  Fe29  1  -0.00020505  0.49948140  -0.00007055  1
  Fe  Fe30  1  0.74998281  0.50137353  0.49571066  1
  Fe  Fe31  1  0.37733002  0.62356970  0.87453997  1
  Fe  Fe32  1  0.87364658  0.62546490  0.12196563  1
  Fe  Fe33  1  0.50172431  -0.00318901  0.49918723  1
  Fe  Fe34  1  0.63021636  0.87163354  0.37179160  1
  Fe  Fe35  1  0.62480950  0.62406522  0.62329202  1
  Fe  Fe36  1  -0.00306413  0.75026927  0.25086642  1
  Fe  Fe37  1  0.62626791  0.12520017  0.62397325  1
  Fe  Fe38  1  0.87528384  0.37591813  0.62480014  1
  Fe  Fe39  1  0.87141011  0.62662140  0.87775333  1
  Fe  Fe40  1  0.00020627  0.74952746  0.74870607  1
  Fe  Fe41  1  0.50119356  0.49847032  0.00187211  1
  Fe  Fe42  1  0.87119280  0.87150047  0.87429498  1
  Fe  Fe43  1  0.25046525  0.25096805  0.25034868  1
  Fe  Fe44  1  0.12026688  0.11811709  0.62494085  1
  Fe  Fe45  1  0.50037861  0.25043096  0.74756044  1
  Fe  Fe46  1  -0.00105373  0.24984717  0.24969759  1
  Fe  Fe47  1  0.50500761  0.75173607  -0.00184714  1
  Fe  Fe48  1  0.50438871  0.74862163  0.75243049  1
  Fe  Fe49  1  0.00015273  0.50097677  0.50018899  1
  Fe  Fe50  1  0.00059754  0.75068695  -0.00004807  1
  Fe  Fe51  1  0.24813603  0.50103462  0.00182288  1
  Fe  Fe52  1  0.75167016  0.25287800  0.49833976  1
  Fe  Fe53  1  0.12363339  0.87411180  0.12572866  1
  Fe  Fe54  1  0.12537425  0.37539951  0.12482713  1
  Fe  Fe55  1  0.62746042  0.62382049  0.12476834  1
  Fe  Fe56  1  -0.00304747  -0.00276032  0.25331349  1
  Fe  Fe57  1  0.75371470  0.00135319  0.74840577  1
  Fe  Fe58  1  0.62557621  0.37635005  0.62436747  1
  Fe  Fe59  1  0.75105356  0.50301508  0.75021120  1
  Fe  Fe60  1  0.12471354  0.62663531  0.37592189  1
  Fe  Fe61  1  0.24788675  0.75108166  0.50223889  1
  Fe  Fe62  1  0.87767709  0.37373305  0.87318159  1
  Fe  Fe63  1  0.37559058  0.12348774  0.62326567  1
  Fe  Fe64  1  0.49854166  0.25199207  0.50055484  1
  Fe  Fe65  1  0.24962317  0.25013966  -0.00033238  1
  Fe  Fe66  1  0.87407070  0.37627610  0.12766961  1
  Fe  Fe67  1  0.50085851  0.25208828  0.00082379  1
  Fe  Fe68  1  0.25133923  -0.00243622  0.25022129  1
  Fe  Fe69  1  0.87592992  0.62766039  0.62256331  1
  Fe  Fe70  1  0.12098102  0.12652165  0.87360434  1
  Fe  Fe71  1  0.74896929  -0.00370059  0.00280943  1
  Fe  Fe72  1  0.37193105  0.37696530  0.37628426  1
  Fe  Fe73  1  0.37675280  0.62595071  0.62524953  1
  Fe  Fe74  1  0.12753813  0.87490161  0.87002840  1
  Fe  Fe75  1  0.24955535  -0.00019798  -0.00101498  1
  Fe  Fe76  1  0.87496830  0.12419249  0.12435662  1
  Fe  Fe77  1  0.24985175  0.74962690  -0.00059075  1
  Fe  Fe78  1  0.37508327  0.87548638  0.87168610  1
  Fe  Fe79  1  0.37448398  0.62322888  0.12533866  1
  Fe  Fe80  1  0.62497428  0.12300850  0.87366186  1
  Fe  Fe81  1  0.12393183  0.62445689  0.87443651  1
  Fe  Fe82  1  0.00101776  0.50217962  0.25087722  1
  Fe  Fe83  1  0.00117484  0.75669972  0.50025961  1
  Fe  Fe84  1  0.37559362  0.12483634  0.12424266  1
  Fe  Fe85  1  0.37538320  0.37659394  0.87258998  1
  Fe  Fe86  1  0.75053437  0.50251053  0.25679573  1
  Fe  Fe87  1  0.12400250  0.12362112  0.12499425  1
  Fe  Fe88  1  0.24995073  0.74951200  0.24929380  1
  Fe  Fe89  1  0.37667142  0.87441838  0.12505506  1
  Co  Co90  1  0.87882290  0.37522467  0.37597415  1
  Co  Co91  1  0.12583577  0.87393579  0.37277890  1
  Co  Co92  1  0.50141805  0.50109617  0.74796248  1
  Co  Co93  1  0.74749997  0.74546854  0.74948291  1
  Co  Co94  1  0.75177182  0.00041084  0.24856317  1
  Co  Co95  1  0.37320432  0.37633860  0.12469309  1
  Co  Co96  1  -0.00291059  -0.00490970  0.49654519  1
  Co  Co97  1  0.62404430  0.87423694  0.13057919  1
  Co  Co98  1  -0.00213842  0.50306140  0.74940673  1
  Co  Co99  1  0.74911517  0.74813632  0.50016991  1
  Co  Co100  1  0.37455208  0.87305001  0.37496949  1
  Co  Co101  1  0.62724560  0.62202734  0.87846424  1
  Co  Co102  1  0.12196496  0.62655338  0.62312676  1
  Co  Co103  1  0.75148387  0.49642540  -0.00098782  1
  Co  Co104  1  0.12367492  0.62765170  0.12494239  1
  Co  Co105  1  0.62331304  0.37434227  0.37558154  1
  Co  Co106  1  -0.00004412  0.24991678  0.74503950  1
  Co  Co107  1  0.86871820  0.87268656  0.37517028  1
  Co  Co108  1  0.37295362  0.37562683  0.62537015  1
  Co  Co109  1  0.25128836  0.00388333  0.75104700  1
  Co  Co110  1  0.62746357  0.87788085  0.87061535  1
  Co  Co111  1  0.87404634  0.87266262  0.62583714  1
  Co  Co112  1  0.75345907  0.74573662  0.24850658  1
  Co  Co113  1  0.87616115  0.12470513  0.62288412  1
  Co  Co114  1  -0.00550547  -0.00153447  0.75257568  1
  Co  Co115  1  0.24791373  0.24729153  0.50228907  1
  Co  Co116  1  0.25075002  0.50427828  0.50100675  1
  Co  Co117  1  0.24715992  0.50113258  0.25011775  1
  Co  Co118  1  0.87819656  0.62747100  0.37881390  1
  Co  Co119  1  0.12498449  0.87806724  0.62992246  1
  Co  Co120  1  0.24976919  0.74519436  0.74900550  1
  Co  Co121  1  0.50030099  0.49949158  0.25027002  1
  Co  Co122  1  0.75184320  0.25100160  0.25156463  1
  Co  Co123  1  0.50004423  0.00026161  0.74694413  1
  Co  Co124  1  -0.00093503  0.25144863  0.00332845  1
  Co  Co125  1  0.74552482  0.75432149  0.00248590  1
  Co  Co126  1  0.62267747  0.62687529  0.37596169  1
  Co  Co127  1  0.87679108  0.87397692  0.12460428  1
