# generated using pymatgen
data_Fe45Co19
_symmetry_space_group_name_H-M   'P 1'
_cell_length_a   11.41540404
_cell_length_b   11.41724091
_cell_length_c   11.41535400
_cell_angle_alpha   90.00771373
_cell_angle_beta   90.01182424
_cell_angle_gamma   89.99672763
_symmetry_Int_Tables_number   1
_chemical_formula_structural   Fe45Co19
_chemical_formula_sum   'Fe90 Co38'
_cell_volume   1487.79064290
_cell_formula_units_Z   2
loop_
 _symmetry_equiv_pos_site_id
 _symmetry_equiv_pos_as_xyz
  1  'x, y, z'
loop_
 _atom_site_type_symbol
 _atom_site_label
 _atom_site_symmetry_multiplicity
 _atom_site_fract_x
 _atom_site_fract_y
 _atom_site_fract_z
 _atom_site_occupancy
  Fe  Fe0  1  0.87314338  0.87502442  0.87268025  1
  Fe  Fe1  1  0.00050425  0.49774813  0.00139990  1
  Fe  Fe2  1  0.62483977  0.62602211  0.87351055  1
  Fe  Fe3  1  0.49781924  -0.00011437  0.24732922  1
  Fe  Fe4  1  0.62537626  0.37606939  0.62717317  1
  Fe  Fe5  1  0.37228169  0.37645122  0.37228529  1
  Fe  Fe6  1  0.75449684  0.50470050  0.74938845  1
  Fe  Fe7  1  0.24753164  0.24921341  0.49715225  1
  Fe  Fe8  1  0.74980940  -0.00172889  0.50221477  1
  Fe  Fe9  1  0.24899024  -0.00122834  0.50091104  1
  Fe  Fe10  1  0.12999110  0.37531940  0.12873504  1
  Fe  Fe11  1  0.87191858  0.62414009  0.37969672  1
  Fe  Fe12  1  0.62903071  0.87316484  0.63046223  1
  Fe  Fe13  1  0.25154630  0.00003758  0.24968997  1
  Fe  Fe14  1  0.75016852  -0.00153740  -0.00079636  1
  Fe  Fe15  1  0.49596798  0.50273930  0.24902228  1
  Fe  Fe16  1  0.50287999  0.50256795  0.49905036  1
  Fe  Fe17  1  0.62541078  0.37492079  0.37094899  1
  Fe  Fe18  1  0.24947846  0.50024027  0.00059697  1
  Fe  Fe19  1  0.12547285  0.87512271  0.37447492  1
  Fe  Fe20  1  0.00068067  0.49901514  0.49949229  1
  Fe  Fe21  1  0.87516975  0.37481262  0.87521983  1
  Fe  Fe22  1  0.49936905  -0.00142953  0.00096653  1
  Fe  Fe23  1  0.00286046  0.25063860  0.49703894  1
  Fe  Fe24  1  0.50152958  0.00157134  0.74929923  1
  Fe  Fe25  1  0.75072017  -0.00024179  0.24827380  1
  Fe  Fe26  1  0.74966655  0.24719150  0.75004461  1
  Fe  Fe27  1  0.50058897  0.49937221  0.00087248  1
  Fe  Fe28  1  0.50055102  0.25088704  0.50014193  1
  Fe  Fe29  1  0.37490708  0.37382225  0.87732003  1
  Fe  Fe30  1  -0.00000938  -0.00061613  0.24921167  1
  Fe  Fe31  1  0.87488963  0.37684509  0.62377385  1
  Fe  Fe32  1  0.12642926  0.62316489  0.62898798  1
  Fe  Fe33  1  0.74848658  0.75060872  -0.00139879  1
  Fe  Fe34  1  0.37420079  0.12526034  0.62524023  1
  Fe  Fe35  1  0.24918221  -0.00188768  -0.00140647  1
  Fe  Fe36  1  -0.00153632  0.74927103  0.25065450  1
  Fe  Fe37  1  0.87568088  0.12490716  0.62393590  1
  Fe  Fe38  1  0.25042257  0.75049274  0.50461707  1
  Fe  Fe39  1  0.87582885  0.62633067  0.12309716  1
  Fe  Fe40  1  0.25163140  0.74639598  0.24748373  1
  Fe  Fe41  1  0.49762589  0.50031169  0.75020016  1
  Fe  Fe42  1  0.12209772  0.87480553  0.62829065  1
  Fe  Fe43  1  0.50047393  0.24899627  0.74988561  1
  Fe  Fe44  1  0.37501400  0.37537661  0.62420135  1
  Fe  Fe45  1  0.87468811  0.12661516  0.12450681  1
  Fe  Fe46  1  -0.00253526  0.00165445  0.75186363  1
  Fe  Fe47  1  0.00318098  0.25052233  0.25379325  1
  Fe  Fe48  1  0.87589966  0.12465562  0.37551261  1
  Fe  Fe49  1  0.37362548  0.62630770  0.87464822  1
  Fe  Fe50  1  0.62415837  0.87353711  0.37348067  1
  Fe  Fe51  1  0.74959648  0.25248600  0.49816582  1
  Fe  Fe52  1  0.00155067  0.25086899  0.75290978  1
  Fe  Fe53  1  0.74742773  0.25131490  0.00283713  1
  Fe  Fe54  1  -0.00005278  0.75128318  -0.00102294  1
  Fe  Fe55  1  -0.00511706  0.74527173  0.74980331  1
  Fe  Fe56  1  0.50157469  -0.00039253  0.50223211  1
  Fe  Fe57  1  0.12506353  0.12399211  0.62614895  1
  Fe  Fe58  1  0.12416781  0.87284075  0.12549202  1
  Fe  Fe59  1  0.12500747  0.37765316  0.62740645  1
  Fe  Fe60  1  0.62376544  0.87440230  0.12417077  1
  Fe  Fe61  1  0.50300107  0.74781705  0.50176215  1
  Fe  Fe62  1  0.24850754  0.75008699  -0.00041625  1
  Fe  Fe63  1  0.00417079  0.25085181  -0.00265219  1
  Fe  Fe64  1  0.25070200  -0.00347033  0.75063611  1
  Fe  Fe65  1  0.12807239  0.12593157  0.12444962  1
  Fe  Fe66  1  0.12607089  0.62510510  0.37513142  1
  Fe  Fe67  1  0.25120651  0.50170346  0.50017847  1
  Fe  Fe68  1  0.00030922  0.00003810  -0.00138520  1
  Fe  Fe69  1  0.24858641  0.25258564  0.75293556  1
  Fe  Fe70  1  0.62477876  0.62496743  0.12561976  1
  Fe  Fe71  1  0.62633110  0.37601444  0.87355111  1
  Fe  Fe72  1  0.49700219  0.74862862  0.24771479  1
  Fe  Fe73  1  0.37384489  0.12583770  0.87612394  1
  Fe  Fe74  1  0.62553018  0.12465488  0.87649364  1
  Fe  Fe75  1  0.37568399  0.12427858  0.37506401  1
  Fe  Fe76  1  0.75211729  0.49968048  0.25041532  1
  Fe  Fe77  1  0.87586017  0.87599828  0.37683739  1
  Fe  Fe78  1  0.50020315  0.24857893  0.24526686  1
  Fe  Fe79  1  0.50129096  0.25146060  0.00379242  1
  Fe  Fe80  1  0.74948540  0.49938396  0.00084091  1
  Fe  Fe81  1  0.49801502  0.74905672  0.74918039  1
  Fe  Fe82  1  0.75189073  0.75118360  0.24985555  1
  Fe  Fe83  1  0.12446832  0.62279897  0.87242706  1
  Fe  Fe84  1  0.37624642  0.87289190  0.87562847  1
  Fe  Fe85  1  0.87474739  0.37274433  0.12731649  1
  Fe  Fe86  1  0.37489799  0.87262401  0.37658701  1
  Fe  Fe87  1  0.00036046  0.50133061  0.25066387  1
  Fe  Fe88  1  0.62520929  0.12459991  0.37468968  1
  Fe  Fe89  1  -0.00048513  0.75171669  0.50068223  1
  Co  Co90  1  0.12619824  0.12287011  0.87388858  1
  Co  Co91  1  0.87382225  0.87455024  0.62720879  1
  Co  Co92  1  0.12234707  0.87288089  0.87283248  1
  Co  Co93  1  0.62588479  0.87414943  0.87160376  1
  Co  Co94  1  0.24897171  0.24770748  0.25412980  1
  Co  Co95  1  0.87266232  0.62434224  0.61667141  1
  Co  Co96  1  0.12768284  0.37966461  0.37363485  1
  Co  Co97  1  0.12162495  0.62629605  0.12379431  1
  Co  Co98  1  0.62643794  0.62605195  0.37176780  1
  Co  Co99  1  0.75520729  0.74413163  0.75126906  1
  Co  Co100  1  0.74994777  0.00458582  0.74994699  1
  Co  Co101  1  -0.00516298  0.50223345  0.74949987  1
  Co  Co102  1  0.37550740  0.62349466  0.62491456  1
  Co  Co103  1  0.12353752  0.38032254  0.87304953  1
  Co  Co104  1  0.37144395  0.37428603  0.12573232  1
  Co  Co105  1  0.87447623  0.12717660  0.87768102  1
  Co  Co106  1  0.87629099  0.87416158  0.12306308  1
  Co  Co107  1  0.37416733  0.87337110  0.12334434  1
  Co  Co108  1  0.74513469  0.49756728  0.49851441  1
  Co  Co109  1  0.87695154  0.62336480  0.88166488  1
  Co  Co110  1  0.00055480  -0.00163664  0.50145468  1
  Co  Co111  1  0.62500000  0.37884649  0.12733940  1
  Co  Co112  1  0.62562720  0.12158491  0.12377598  1
  Co  Co113  1  0.37465830  0.62753420  0.37849894  1
  Co  Co114  1  0.62510644  0.12704174  0.62285362  1
  Co  Co115  1  0.12403273  0.12042812  0.37560614  1
  Co  Co116  1  0.25377391  0.49806429  0.75116030  1
  Co  Co117  1  0.50186245  0.74986648  -0.00034533  1
  Co  Co118  1  0.37754094  0.87564551  0.62381711  1
  Co  Co119  1  0.74764277  0.75250234  0.49970446  1
  Co  Co120  1  0.25173124  0.75171874  0.74889338  1
  Co  Co121  1  0.87536681  0.37573324  0.37469545  1
  Co  Co122  1  0.74854916  0.24863731  0.24951678  1
  Co  Co123  1  0.37623999  0.62500078  0.12060623  1
  Co  Co124  1  0.25138517  0.50640482  0.24866968  1
  Co  Co125  1  0.37176507  0.12667112  0.12319936  1
  Co  Co126  1  0.62572939  0.62441115  0.62714703  1
  Co  Co127  1  0.24707374  0.25146849  -0.00351448  1
