# generated using pymatgen
data_Fe45Co19
_symmetry_space_group_name_H-M   'P 1'
_cell_length_a   11.41488040
_cell_length_b   11.41510888
_cell_length_c   11.41679182
_cell_angle_alpha   89.99784147
_cell_angle_beta   90.00071434
_cell_angle_gamma   89.99462780
_symmetry_Int_Tables_number   1
_chemical_formula_structural   Fe45Co19
_chemical_formula_sum   'Fe90 Co38'
_cell_volume   1487.63197123
_cell_formula_units_Z   2
loop_
 _symmetry_equiv_pos_site_id
 _symmetry_equiv_pos_as_xyz
  1  'x, y, z'
loop_
 _atom_site_type_symbol
 _atom_site_label
 _atom_site_symmetry_multiplicity
 _atom_site_fract_x
 _atom_site_fract_y
 _atom_site_fract_z
 _atom_site_occupancy
  Fe  Fe0  1  0.11930428  0.87472542  0.87712366  1
  Fe  Fe1  1  0.12422048  0.87676827  0.37563200  1
  Fe  Fe2  1  0.12232831  0.87475887  0.12320679  1
  Fe  Fe3  1  0.00062820  0.24984092  0.00210912  1
  Fe  Fe4  1  0.49590294  0.50044427  0.75207402  1
  Fe  Fe5  1  0.62258221  0.62816003  0.87306839  1
  Fe  Fe6  1  0.86958078  0.37488401  0.12545480  1
  Fe  Fe7  1  0.12328984  0.62161261  0.62839195  1
  Fe  Fe8  1  0.87537995  0.37248264  0.62299554  1
  Fe  Fe9  1  0.37441477  0.62579326  0.62567684  1
  Fe  Fe10  1  0.12657132  0.37731766  0.87309250  1
  Fe  Fe11  1  0.37759788  0.87063765  0.87853928  1
  Fe  Fe12  1  0.62483473  0.62711396  0.37342721  1
  Fe  Fe13  1  0.24864117  0.00097509  -0.00118396  1
  Fe  Fe14  1  0.87582279  0.87531455  0.12204688  1
  Fe  Fe15  1  0.50239641  0.49778067  0.25018670  1
  Fe  Fe16  1  0.24829896  0.74882586  0.49944159  1
  Fe  Fe17  1  0.74968277  0.24992486  0.74960408  1
  Fe  Fe18  1  0.12403599  0.87814437  0.62455908  1
  Fe  Fe19  1  0.24888795  0.00264770  0.49989219  1
  Fe  Fe20  1  0.00049320  0.24906283  0.25053645  1
  Fe  Fe21  1  0.87630797  0.62510368  0.62612737  1
  Fe  Fe22  1  0.62396739  0.12543430  0.87617322  1
  Fe  Fe23  1  0.50214857  0.25098899  0.50052216  1
  Fe  Fe24  1  0.62301360  0.87276260  0.87521695  1
  Fe  Fe25  1  0.75042595  -0.00069701  0.75115607  1
  Fe  Fe26  1  0.12117383  0.62294066  0.87040610  1
  Fe  Fe27  1  0.74999427  0.50141226  0.49844319  1
  Fe  Fe28  1  0.87234602  0.37213768  0.37454146  1
  Fe  Fe29  1  0.74860227  0.75110118  0.50072208  1
  Fe  Fe30  1  0.87282374  0.12698069  0.12631491  1
  Fe  Fe31  1  0.49802903  0.75707687  0.24582635  1
  Fe  Fe32  1  0.62528864  0.62535393  0.62764196  1
  Fe  Fe33  1  0.37366213  0.37700994  0.12394646  1
  Fe  Fe34  1  0.24963476  0.75094065  0.25137604  1
  Fe  Fe35  1  0.37844213  0.12291790  0.37369668  1
  Fe  Fe36  1  0.62557435  0.12400723  0.12541142  1
  Fe  Fe37  1  0.74827459  0.00138805  0.25422325  1
  Fe  Fe38  1  0.50055175  0.24907465  0.74785393  1
  Fe  Fe39  1  0.12362523  0.12496815  0.87396175  1
  Fe  Fe40  1  0.49953537  -0.00123908  0.74909784  1
  Fe  Fe41  1  0.62574415  0.37672283  0.62449496  1
  Fe  Fe42  1  -0.00113181  0.74750195  0.24780990  1
  Fe  Fe43  1  0.62753018  0.12315142  0.62215561  1
  Fe  Fe44  1  0.24945951  0.75100636  0.74950404  1
  Fe  Fe45  1  0.12320873  0.62326899  0.37287045  1
  Fe  Fe46  1  0.62753975  0.62498476  0.12632683  1
  Fe  Fe47  1  0.87525632  0.87811116  0.62278749  1
  Fe  Fe48  1  0.50489446  0.25251274  0.24979580  1
  Fe  Fe49  1  0.87440975  0.37512204  0.87738493  1
  Fe  Fe50  1  0.50069300  0.50127694  0.49959882  1
  Fe  Fe51  1  0.37160366  0.62450976  0.12464684  1
  Fe  Fe52  1  0.50424826  -0.00406048  0.49803670  1
  Fe  Fe53  1  0.50041228  -0.00385699  0.00442222  1
  Fe  Fe54  1  -0.00068158  0.00140655  0.25074267  1
  Fe  Fe55  1  0.00244387  0.24437882  0.49908483  1
  Fe  Fe56  1  0.50230679  0.75213374  0.50194819  1
  Fe  Fe57  1  -0.00137604  -0.00024240  0.74928840  1
  Fe  Fe58  1  0.12654823  0.12444682  0.12669946  1
  Fe  Fe59  1  0.37576178  0.37476286  0.37615887  1
  Fe  Fe60  1  0.75197290  0.49915411  0.75059612  1
  Fe  Fe61  1  0.25054279  0.24838938  0.74740993  1
  Fe  Fe62  1  0.12715199  0.38020387  0.12768454  1
  Fe  Fe63  1  -0.00028183  0.25113676  0.74897219  1
  Fe  Fe64  1  0.37320962  0.37456275  0.62478025  1
  Fe  Fe65  1  0.37520901  0.87541889  0.62315741  1
  Fe  Fe66  1  0.37522431  0.12426030  0.12623401  1
  Fe  Fe67  1  0.24960664  0.25221834  0.25198815  1
  Fe  Fe68  1  0.25259008  -0.00008270  0.75148123  1
  Fe  Fe69  1  0.25246023  -0.00253878  0.24995013  1
  Fe  Fe70  1  -0.00005837  0.49915888  0.49978693  1
  Fe  Fe71  1  0.75393389  0.74792126  0.25087999  1
  Fe  Fe72  1  0.75303945  0.74979175  -0.00286726  1
  Fe  Fe73  1  -0.00471282  0.50224911  0.25053081  1
  Fe  Fe74  1  0.00158776  0.74975462  0.50137659  1
  Fe  Fe75  1  0.62394155  0.37346977  0.87591092  1
  Fe  Fe76  1  0.75160606  0.00075297  -0.00209705  1
  Fe  Fe77  1  0.24689264  0.24766496  0.49936020  1
  Fe  Fe78  1  0.74932489  0.50160520  -0.00205843  1
  Fe  Fe79  1  0.37682577  0.12629777  0.87606471  1
  Fe  Fe80  1  0.24877453  0.49992675  0.49820459  1
  Fe  Fe81  1  0.50087265  0.25124482  0.00187013  1
  Fe  Fe82  1  0.49711039  0.50125943  -0.00234270  1
  Fe  Fe83  1  0.87655107  0.87494512  0.37689242  1
  Fe  Fe84  1  0.24506297  0.74654921  -0.00024640  1
  Fe  Fe85  1  0.75350220  0.75203702  0.75103409  1
  Fe  Fe86  1  0.37698309  0.62746914  0.37427733  1
  Fe  Fe87  1  0.87628468  0.12588609  0.87491559  1
  Fe  Fe88  1  0.24860927  0.25129114  0.00077025  1
  Fe  Fe89  1  -0.00015606  0.50261550  0.00160415  1
  Co  Co90  1  -0.00031469  0.00405258  0.49808424  1
  Co  Co91  1  0.25424156  0.50029227  0.75128665  1
  Co  Co92  1  -0.00034646  0.00488975  0.00221073  1
  Co  Co93  1  0.12700933  0.12285833  0.37133609  1
  Co  Co94  1  0.75014924  0.24804655  -0.00071630  1
  Co  Co95  1  0.37645789  0.63171810  0.87562674  1
  Co  Co96  1  0.49871330  0.75120631  0.74606674  1
  Co  Co97  1  0.74942226  -0.00151577  0.49668696  1
  Co  Co98  1  0.62714110  0.87523677  0.62727342  1
  Co  Co99  1  0.87780208  0.62394237  0.87250758  1
  Co  Co100  1  0.87347875  0.12355210  0.62591859  1
  Co  Co101  1  0.36930231  0.87382760  0.12055143  1
  Co  Co102  1  0.25176514  0.50165836  -0.00418208  1
  Co  Co103  1  0.50062333  -0.00470740  0.24714090  1
  Co  Co104  1  -0.00337981  0.49622288  0.74821559  1
  Co  Co105  1  -0.00208655  0.75255273  0.74790715  1
  Co  Co106  1  0.37471943  0.36986974  0.87444475  1
  Co  Co107  1  0.87215725  0.12689055  0.37440385  1
  Co  Co108  1  0.75002653  0.24930014  0.50025967  1
  Co  Co109  1  0.37455346  0.87522433  0.37806344  1
  Co  Co110  1  0.62276232  0.12511819  0.37670053  1
  Co  Co111  1  -0.00074952  0.74488983  0.00195560  1
  Co  Co112  1  0.74956466  0.49977040  0.25323391  1
  Co  Co113  1  0.87534341  0.62639016  0.37846047  1
  Co  Co114  1  0.37700540  0.12355404  0.62273025  1
  Co  Co115  1  0.12566628  0.37485996  0.62465331  1
  Co  Co116  1  0.50245796  0.75029840  0.00636268  1
  Co  Co117  1  0.63284456  0.87420487  0.12561133  1
  Co  Co118  1  0.25279216  0.49938823  0.25480096  1
  Co  Co119  1  0.74410940  0.25128680  0.25017604  1
  Co  Co120  1  0.62656605  0.87136771  0.37152614  1
  Co  Co121  1  0.62714691  0.37622408  0.37854210  1
  Co  Co122  1  0.12387955  0.12349089  0.62794753  1
  Co  Co123  1  0.87942166  0.87632928  0.87815899  1
  Co  Co124  1  0.62755779  0.37756754  0.12118351  1
  Co  Co125  1  0.87158541  0.62400021  0.12361579  1
  Co  Co126  1  0.12247821  0.37566572  0.37401440  1
  Co  Co127  1  0.12728317  0.62184523  0.12882817  1
