# generated using pymatgen
data_Fe45Co19
_symmetry_space_group_name_H-M   'P 1'
_cell_length_a   11.41571174
_cell_length_b   11.41493462
_cell_length_c   11.41577997
_cell_angle_alpha   89.99073790
_cell_angle_beta   90.00124556
_cell_angle_gamma   89.99791162
_symmetry_Int_Tables_number   1
_chemical_formula_structural   Fe45Co19
_chemical_formula_sum   'Fe90 Co38'
_cell_volume   1487.58573670
_cell_formula_units_Z   2
loop_
 _symmetry_equiv_pos_site_id
 _symmetry_equiv_pos_as_xyz
  1  'x, y, z'
loop_
 _atom_site_type_symbol
 _atom_site_label
 _atom_site_symmetry_multiplicity
 _atom_site_fract_x
 _atom_site_fract_y
 _atom_site_fract_z
 _atom_site_occupancy
  Fe  Fe0  1  0.24975633  0.49976679  0.75008432  1
  Fe  Fe1  1  0.62540348  0.62346971  0.12273775  1
  Fe  Fe2  1  0.87156956  0.87375528  0.62912938  1
  Fe  Fe3  1  0.25193309  0.50100116  0.50100891  1
  Fe  Fe4  1  -0.00328000  -0.00107638  0.00099843  1
  Fe  Fe5  1  0.12697024  0.87526137  0.62334159  1
  Fe  Fe6  1  0.62826002  0.87827238  0.62621279  1
  Fe  Fe7  1  -0.00086561  0.00022174  0.74854896  1
  Fe  Fe8  1  0.75310020  0.25117190  -0.00018769  1
  Fe  Fe9  1  0.37693760  0.37432790  0.12431200  1
  Fe  Fe10  1  -0.00198719  0.74901670  0.00125515  1
  Fe  Fe11  1  0.49814247  0.00228159  0.50078723  1
  Fe  Fe12  1  0.24648049  0.24877852  0.75117953  1
  Fe  Fe13  1  0.37412805  0.37109348  0.62636545  1
  Fe  Fe14  1  0.25087792  0.75267543  -0.00104168  1
  Fe  Fe15  1  0.25083978  0.00097537  0.49848571  1
  Fe  Fe16  1  0.62495929  0.62424429  0.62226007  1
  Fe  Fe17  1  -0.00077464  -0.00309767  0.24994505  1
  Fe  Fe18  1  0.87620475  0.12621486  0.87197805  1
  Fe  Fe19  1  0.62212936  0.61969378  0.37997187  1
  Fe  Fe20  1  0.37468001  0.87684334  0.12773372  1
  Fe  Fe21  1  0.24762378  0.24971536  0.25103193  1
  Fe  Fe22  1  0.74916083  0.24808483  0.74891578  1
  Fe  Fe23  1  0.24877281  0.74957984  0.74906251  1
  Fe  Fe24  1  0.37402027  0.87544247  0.62545549  1
  Fe  Fe25  1  0.62554614  0.37287936  0.62147288  1
  Fe  Fe26  1  0.87430359  0.62509299  0.37499518  1
  Fe  Fe27  1  0.37848032  0.37160117  0.87557742  1
  Fe  Fe28  1  0.62740848  0.87777828  0.87200055  1
  Fe  Fe29  1  0.24837848  0.24927952  0.49757743  1
  Fe  Fe30  1  0.50394385  0.74945158  0.74969300  1
  Fe  Fe31  1  0.75436582  0.49823969  -0.00025004  1
  Fe  Fe32  1  0.49961268  0.00093900  0.00100971  1
  Fe  Fe33  1  0.74967171  0.75076621  -0.00321499  1
  Fe  Fe34  1  -0.00161766  0.50323875  0.24651640  1
  Fe  Fe35  1  0.50417229  0.74986144  0.25212102  1
  Fe  Fe36  1  0.37267118  0.12343482  0.12609728  1
  Fe  Fe37  1  0.75333824  -0.00092374  -0.00118828  1
  Fe  Fe38  1  0.12631800  0.87511405  0.12612336  1
  Fe  Fe39  1  0.75584111  0.00371742  0.50042349  1
  Fe  Fe40  1  0.12573572  0.62468916  0.12263421  1
  Fe  Fe41  1  0.12100974  0.37479715  0.12172368  1
  Fe  Fe42  1  0.74884666  0.49884087  0.25244549  1
  Fe  Fe43  1  -0.00087428  0.25128301  0.25154896  1
  Fe  Fe44  1  0.12275848  0.37806003  0.37536817  1
  Fe  Fe45  1  0.75060044  0.50094673  0.74769763  1
  Fe  Fe46  1  0.00068790  0.75072942  0.50070028  1
  Fe  Fe47  1  0.50106164  0.49926099  0.74910822  1
  Fe  Fe48  1  0.87428317  0.12611152  0.12826919  1
  Fe  Fe49  1  0.74856236  0.74921442  0.49994399  1
  Fe  Fe50  1  0.62368249  0.37459010  0.87593532  1
  Fe  Fe51  1  0.12457617  0.62454594  0.87551865  1
  Fe  Fe52  1  0.50151941  0.75071474  -0.00183825  1
  Fe  Fe53  1  0.12434097  0.37513966  0.62376500  1
  Fe  Fe54  1  0.37640680  0.62536744  0.12452218  1
  Fe  Fe55  1  0.87448411  0.87275676  0.37192583  1
  Fe  Fe56  1  0.37813017  0.62564990  0.37728246  1
  Fe  Fe57  1  0.37737703  0.37436312  0.37397254  1
  Fe  Fe58  1  0.37432637  0.87575803  0.37393423  1
  Fe  Fe59  1  0.00011651  0.74893821  0.74813638  1
  Fe  Fe60  1  0.37459858  0.87743672  0.87215311  1
  Fe  Fe61  1  0.87385552  0.62628580  0.87313640  1
  Fe  Fe62  1  0.62771416  0.12326563  0.12608860  1
  Fe  Fe63  1  -0.00176466  0.50062397  0.50249057  1
  Fe  Fe64  1  0.75564544  0.25018394  0.49592656  1
  Fe  Fe65  1  0.62491518  0.12535744  0.87560193  1
  Fe  Fe66  1  0.12544416  0.12484425  0.12317421  1
  Fe  Fe67  1  0.62445501  0.37522356  0.12468101  1
  Fe  Fe68  1  0.12477263  0.62498850  0.37721650  1
  Fe  Fe69  1  0.12433772  0.12405508  0.87814464  1
  Fe  Fe70  1  0.87207803  0.87016667  0.12882376  1
  Fe  Fe71  1  0.62539609  0.12431849  0.37519583  1
  Fe  Fe72  1  -0.00077892  0.50016392  0.74953863  1
  Fe  Fe73  1  0.87623539  0.37260500  0.62543569  1
  Fe  Fe74  1  0.24792647  0.74990836  0.25247135  1
  Fe  Fe75  1  0.37413684  0.12580968  0.87424478  1
  Fe  Fe76  1  0.12073962  0.37470875  0.87927505  1
  Fe  Fe77  1  0.12017164  0.12203685  0.37702834  1
  Fe  Fe78  1  0.75210645  0.25221467  0.25435582  1
  Fe  Fe79  1  0.25095153  0.49793077  -0.00028976  1
  Fe  Fe80  1  0.37620805  0.62528716  0.87549244  1
  Fe  Fe81  1  0.50147686  0.00519150  0.74669215  1
  Fe  Fe82  1  0.12170658  0.12509358  0.62185488  1
  Fe  Fe83  1  0.62688048  0.87685476  0.12646391  1
  Fe  Fe84  1  0.25113259  0.49967964  0.24970932  1
  Fe  Fe85  1  0.62643648  0.87939494  0.37494448  1
  Fe  Fe86  1  0.50160003  0.24861779  0.24932124  1
  Fe  Fe87  1  0.37613860  0.62767940  0.62332462  1
  Fe  Fe88  1  0.49884617  0.24796703  0.50121878  1
  Fe  Fe89  1  0.12450381  0.87598670  0.87548514  1
  Co  Co90  1  0.62812109  0.12539100  0.62061990  1
  Co  Co91  1  0.25079915  -0.00136106  -0.00039983  1
  Co  Co92  1  0.62621542  0.62211265  0.87611949  1
  Co  Co93  1  0.49675400  0.49673412  0.50355158  1
  Co  Co94  1  0.50077463  0.24757545  0.00202201  1
  Co  Co95  1  0.75186483  0.00039950  0.25116712  1
  Co  Co96  1  0.87412413  0.62665930  0.62420914  1
  Co  Co97  1  0.50301963  0.75453687  0.49985400  1
  Co  Co98  1  0.24878606  0.74984723  0.49947347  1
  Co  Co99  1  0.37183940  0.12683597  0.62578607  1
  Co  Co100  1  0.50264920  0.24792372  0.74804406  1
  Co  Co101  1  0.87477635  0.87347118  0.87189008  1
  Co  Co102  1  0.74692571  0.74719567  0.74981341  1
  Co  Co103  1  0.75146116  0.00451381  0.75005511  1
  Co  Co104  1  0.50082572  0.50040472  0.24940315  1
  Co  Co105  1  0.50127304  0.00089011  0.24980627  1
  Co  Co106  1  0.49938392  0.49953465  -0.00037889  1
  Co  Co107  1  0.87854394  0.37917144  0.37347810  1
  Co  Co108  1  0.75246571  0.49770638  0.50033281  1
  Co  Co109  1  0.74362599  0.74692182  0.25394037  1
  Co  Co110  1  0.87601500  0.37416102  0.12709843  1
  Co  Co111  1  0.00343965  0.25023139  0.75062831  1
  Co  Co112  1  0.25033301  0.25052257  0.00006696  1
  Co  Co113  1  0.62172806  0.37468381  0.37749140  1
  Co  Co114  1  -0.00204165  0.25276177  0.49780452  1
  Co  Co115  1  0.12460615  0.87595883  0.37587483  1
  Co  Co116  1  0.00268230  0.74861116  0.25038282  1
  Co  Co117  1  0.87515770  0.37372310  0.87216006  1
  Co  Co118  1  0.37594253  0.12603004  0.37352129  1
  Co  Co119  1  0.12574433  0.62430689  0.62490294  1
  Co  Co120  1  -0.00506448  0.50211895  0.00044844  1
  Co  Co121  1  0.24740954  0.00165616  0.25240006  1
  Co  Co122  1  0.24734604  0.00180181  0.74917402  1
  Co  Co123  1  -0.00438209  0.24822931  0.00003428  1
  Co  Co124  1  0.87819329  0.12843234  0.62607095  1
  Co  Co125  1  0.87941451  0.12313060  0.37374022  1
  Co  Co126  1  0.87084644  0.62791465  0.12710436  1
  Co  Co127  1  -0.00457501  -0.00456131  0.50198787  1
