# generated using pymatgen
data_Fe45Co19
_symmetry_space_group_name_H-M   'P 1'
_cell_length_a   11.41476216
_cell_length_b   11.41489985
_cell_length_c   11.41618973
_cell_angle_alpha   89.99971858
_cell_angle_beta   90.00694618
_cell_angle_gamma   89.98561415
_symmetry_Int_Tables_number   1
_chemical_formula_structural   Fe45Co19
_chemical_formula_sum   'Fe90 Co38'
_cell_volume   1487.51082055
_cell_formula_units_Z   2
loop_
 _symmetry_equiv_pos_site_id
 _symmetry_equiv_pos_as_xyz
  1  'x, y, z'
loop_
 _atom_site_type_symbol
 _atom_site_label
 _atom_site_symmetry_multiplicity
 _atom_site_fract_x
 _atom_site_fract_y
 _atom_site_fract_z
 _atom_site_occupancy
  Fe  Fe0  1  0.50088049  -0.00265750  0.24974345  1
  Fe  Fe1  1  0.37304522  0.87682571  0.87291720  1
  Fe  Fe2  1  0.25034637  0.50197798  0.74882488  1
  Fe  Fe3  1  0.87532588  0.62269084  0.37615537  1
  Fe  Fe4  1  0.49865072  0.75091673  0.50326978  1
  Fe  Fe5  1  0.62194934  0.62541313  0.12277644  1
  Fe  Fe6  1  0.00246291  -0.00011442  0.25189157  1
  Fe  Fe7  1  0.75000939  0.24879783  -0.00056833  1
  Fe  Fe8  1  0.00181805  -0.00309020  0.74867719  1
  Fe  Fe9  1  0.12288540  0.12679265  0.62594901  1
  Fe  Fe10  1  0.62541320  0.12314450  0.12383195  1
  Fe  Fe11  1  0.12560546  0.37282835  0.62691149  1
  Fe  Fe12  1  0.25218615  0.75020736  0.25121686  1
  Fe  Fe13  1  0.74939076  0.25418140  0.75134095  1
  Fe  Fe14  1  0.62412659  0.62222215  0.87564533  1
  Fe  Fe15  1  0.37574881  0.62242357  0.37587662  1
  Fe  Fe16  1  -0.00280820  0.49988674  0.74831804  1
  Fe  Fe17  1  0.87543435  0.12405257  0.62568075  1
  Fe  Fe18  1  0.25187067  0.74964856  0.50271569  1
  Fe  Fe19  1  0.87644419  0.62677492  0.12395441  1
  Fe  Fe20  1  0.12344159  0.62946288  0.62914132  1
  Fe  Fe21  1  0.49938240  0.75140355  0.24939739  1
  Fe  Fe22  1  0.37498950  0.37536321  0.12320870  1
  Fe  Fe23  1  0.24818279  0.00172846  -0.00305545  1
  Fe  Fe24  1  0.75250569  0.74717208  0.74902355  1
  Fe  Fe25  1  0.74983270  0.75068771  0.24985224  1
  Fe  Fe26  1  0.87395750  0.87768708  0.37780271  1
  Fe  Fe27  1  0.24687518  0.74692156  -0.00409629  1
  Fe  Fe28  1  0.50404395  -0.00451847  -0.00126270  1
  Fe  Fe29  1  0.87342178  0.12229888  0.12407073  1
  Fe  Fe30  1  0.50069456  0.49895713  0.50152732  1
  Fe  Fe31  1  0.37493410  0.37599858  0.62574331  1
  Fe  Fe32  1  0.00062717  0.75172098  0.50156326  1
  Fe  Fe33  1  0.37633419  0.62567408  0.12411622  1
  Fe  Fe34  1  0.62447586  0.12831135  0.62632743  1
  Fe  Fe35  1  -0.00184313  0.25103612  0.50032536  1
  Fe  Fe36  1  0.00392135  0.50119327  0.00296532  1
  Fe  Fe37  1  0.24642116  0.50248536  0.00088835  1
  Fe  Fe38  1  0.12411114  0.37142725  0.37294025  1
  Fe  Fe39  1  0.62360888  0.12631888  0.87550801  1
  Fe  Fe40  1  0.24812228  0.50013235  0.50097841  1
  Fe  Fe41  1  0.87187918  0.87744955  0.12296413  1
  Fe  Fe42  1  0.37807056  0.12325031  0.12296696  1
  Fe  Fe43  1  0.87166683  0.37751186  0.62301100  1
  Fe  Fe44  1  0.25436018  0.24850138  0.25290147  1
  Fe  Fe45  1  0.87669892  0.12249890  0.37637168  1
  Fe  Fe46  1  0.87576278  0.37476809  0.12480936  1
  Fe  Fe47  1  0.62416013  0.37592323  0.12157360  1
  Fe  Fe48  1  0.75079012  0.25048996  0.49883367  1
  Fe  Fe49  1  0.00048847  0.25081775  -0.00047832  1
  Fe  Fe50  1  0.49674284  0.75018284  0.74769331  1
  Fe  Fe51  1  0.12233491  0.12633071  0.87284913  1
  Fe  Fe52  1  0.49929500  0.25611347  0.75510583  1
  Fe  Fe53  1  0.37617478  0.12304984  0.62572866  1
  Fe  Fe54  1  0.87395681  0.37671129  0.87689192  1
  Fe  Fe55  1  0.50286908  -0.00155301  0.50258775  1
  Fe  Fe56  1  0.12588103  0.87263416  0.12395035  1
  Fe  Fe57  1  0.62438670  0.12427410  0.37509251  1
  Fe  Fe58  1  0.75171823  0.25032390  0.25080642  1
  Fe  Fe59  1  0.24944570  0.49981706  0.24939064  1
  Fe  Fe60  1  0.37463374  0.87695017  0.37763976  1
  Fe  Fe61  1  0.62370672  0.62386694  0.37476888  1
  Fe  Fe62  1  0.74932413  0.74771015  0.50085716  1
  Fe  Fe63  1  0.87414107  0.87476214  0.87702172  1
  Fe  Fe64  1  0.87715494  0.62479526  0.87708427  1
  Fe  Fe65  1  0.00159151  0.49999884  0.50075674  1
  Fe  Fe66  1  0.50184946  -0.00212101  0.74900912  1
  Fe  Fe67  1  0.12554580  0.37542267  0.87397531  1
  Fe  Fe68  1  0.24852388  0.00015299  0.25167475  1
  Fe  Fe69  1  0.24518392  0.00005475  0.50002326  1
  Fe  Fe70  1  0.74813846  -0.00002046  0.75015291  1
  Fe  Fe71  1  0.62529943  0.62227855  0.62657079  1
  Fe  Fe72  1  0.87566694  0.12505378  0.87395207  1
  Fe  Fe73  1  0.87283201  0.87601478  0.62311665  1
  Fe  Fe74  1  0.49746959  0.25098400  0.49822227  1
  Fe  Fe75  1  0.25250965  0.24781251  -0.00298800  1
  Fe  Fe76  1  0.62450689  0.37633629  0.37487345  1
  Fe  Fe77  1  0.37689835  0.62179399  0.87369515  1
  Fe  Fe78  1  0.74952073  0.50023150  0.24937157  1
  Fe  Fe79  1  0.74748275  0.75100103  0.00023279  1
  Fe  Fe80  1  -0.00121375  0.75203613  0.24931539  1
  Fe  Fe81  1  0.49775941  0.25048419  0.25085401  1
  Fe  Fe82  1  0.00151556  -0.00123491  -0.00101681  1
  Fe  Fe83  1  0.37411977  0.87377845  0.12194928  1
  Fe  Fe84  1  0.12488923  0.62758346  0.37321957  1
  Fe  Fe85  1  0.62703661  0.87528653  0.37612404  1
  Fe  Fe86  1  0.00225559  0.49874868  0.24842895  1
  Fe  Fe87  1  0.12457411  0.12821635  0.12645969  1
  Fe  Fe88  1  0.25295641  0.24924935  0.49817358  1
  Fe  Fe89  1  0.25262780  0.24707761  0.75234251  1
  Co  Co90  1  0.49758455  0.49885436  -0.00059414  1
  Co  Co91  1  -0.00223617  0.25311107  0.74949244  1
  Co  Co92  1  0.50142806  0.49570923  0.75059554  1
  Co  Co93  1  0.62782890  0.87285665  0.62608615  1
  Co  Co94  1  0.37616995  0.11980739  0.37617659  1
  Co  Co95  1  0.62841234  0.37931047  0.87941821  1
  Co  Co96  1  0.12084627  0.62531331  0.87005317  1
  Co  Co97  1  0.75156295  0.49996633  0.74968447  1
  Co  Co98  1  -0.00388195  0.24904451  0.24949525  1
  Co  Co99  1  0.87607245  0.37818669  0.37530157  1
  Co  Co100  1  0.25432621  0.74721987  0.75090421  1
  Co  Co101  1  0.12706109  0.37028490  0.12576913  1
  Co  Co102  1  0.12502474  0.62854944  0.12846480  1
  Co  Co103  1  0.50005749  0.50038105  0.24801557  1
  Co  Co104  1  0.62734086  0.87489443  0.12583845  1
  Co  Co105  1  0.12395451  0.12958646  0.37471487  1
  Co  Co106  1  0.37548374  0.37926964  0.37565425  1
  Co  Co107  1  0.12819574  0.87117079  0.62950029  1
  Co  Co108  1  0.37232748  0.87854760  0.62616334  1
  Co  Co109  1  0.74979882  0.00043498  0.25252810  1
  Co  Co110  1  0.74688641  -0.00010883  -0.00425257  1
  Co  Co111  1  0.87543417  0.62429862  0.62235689  1
  Co  Co112  1  0.37066501  0.37822416  0.87570484  1
  Co  Co113  1  0.49994803  0.75183705  -0.00192511  1
  Co  Co114  1  0.37971254  0.12106147  0.87483927  1
  Co  Co115  1  0.00422015  -0.00134164  0.50135221  1
  Co  Co116  1  0.62540885  0.37458377  0.62336966  1
  Co  Co117  1  0.12559955  0.87145350  0.37417918  1
  Co  Co118  1  0.37627715  0.62158614  0.62429803  1
  Co  Co119  1  -0.00451546  0.75234343  0.74983248  1
  Co  Co120  1  0.00236418  0.75044690  0.00035017  1
  Co  Co121  1  0.62584978  0.87107494  0.87058076  1
  Co  Co122  1  0.74837003  0.50034713  0.49953477  1
  Co  Co123  1  0.24697673  0.00428710  0.75119507  1
  Co  Co124  1  0.74759562  0.00251590  0.50211328  1
  Co  Co125  1  0.12638625  0.87279814  0.87231311  1
  Co  Co126  1  0.49936980  0.25208517  -0.00241426  1
  Co  Co127  1  0.75208386  0.50222260  0.00230496  1
