# generated using pymatgen
data_Fe45Co19
_symmetry_space_group_name_H-M   'P 1'
_cell_length_a   11.41497581
_cell_length_b   11.41545464
_cell_length_c   11.41455175
_cell_angle_alpha   89.99594889
_cell_angle_beta   89.99342729
_cell_angle_gamma   89.99747455
_symmetry_Int_Tables_number   1
_chemical_formula_structural   Fe45Co19
_chemical_formula_sum   'Fe90 Co38'
_cell_volume   1487.39756077
_cell_formula_units_Z   2
loop_
 _symmetry_equiv_pos_site_id
 _symmetry_equiv_pos_as_xyz
  1  'x, y, z'
loop_
 _atom_site_type_symbol
 _atom_site_label
 _atom_site_symmetry_multiplicity
 _atom_site_fract_x
 _atom_site_fract_y
 _atom_site_fract_z
 _atom_site_occupancy
  Fe  Fe0  1  0.37602196  0.87541417  0.87597404  1
  Fe  Fe1  1  0.12258302  0.62275068  0.37680133  1
  Fe  Fe2  1  0.75289531  0.24954901  0.24924542  1
  Fe  Fe3  1  -0.00101428  0.25145691  -0.00771851  1
  Fe  Fe4  1  0.62591703  0.37430295  0.12432752  1
  Fe  Fe5  1  -0.00015640  0.25102013  0.50113929  1
  Fe  Fe6  1  0.49879261  0.24905879  -0.00174241  1
  Fe  Fe7  1  0.24960123  0.50421806  0.75323470  1
  Fe  Fe8  1  0.12294905  0.87208476  0.62660626  1
  Fe  Fe9  1  0.12344632  0.86915630  0.87418307  1
  Fe  Fe10  1  0.24930825  -0.00110064  0.50047873  1
  Fe  Fe11  1  0.37383169  0.87462956  0.37461520  1
  Fe  Fe12  1  0.37337902  0.37470555  0.12493924  1
  Fe  Fe13  1  0.25040563  0.00114444  -0.00012636  1
  Fe  Fe14  1  0.25108675  0.24855140  -0.00223207  1
  Fe  Fe15  1  0.37678412  0.62703538  0.62406229  1
  Fe  Fe16  1  0.87482608  0.87583986  0.12937140  1
  Fe  Fe17  1  -0.00305486  0.74986548  0.49875975  1
  Fe  Fe18  1  0.62912738  0.87868835  0.37691259  1
  Fe  Fe19  1  0.75211493  0.49883495  0.50024374  1
  Fe  Fe20  1  0.49916608  0.50019274  0.49939467  1
  Fe  Fe21  1  -0.00353826  -0.00119732  0.49920818  1
  Fe  Fe22  1  0.50201113  -0.00186635  0.74982357  1
  Fe  Fe23  1  0.49981072  0.00089942  0.24966145  1
  Fe  Fe24  1  0.62400417  0.37622298  0.62450191  1
  Fe  Fe25  1  0.62595545  0.37542767  0.37485784  1
  Fe  Fe26  1  0.87726232  0.37666804  0.62984106  1
  Fe  Fe27  1  0.37486382  0.12453508  0.62681060  1
  Fe  Fe28  1  0.62556393  0.12297068  0.62174537  1
  Fe  Fe29  1  -0.00075361  -0.00060813  -0.00331046  1
  Fe  Fe30  1  0.62662891  0.62412628  0.12500900  1
  Fe  Fe31  1  0.75291144  0.00101253  0.00158970  1
  Fe  Fe32  1  0.62442935  0.37837212  0.87497944  1
  Fe  Fe33  1  0.87527903  0.62573336  0.62494678  1
  Fe  Fe34  1  0.87837649  0.37496401  0.12402592  1
  Fe  Fe35  1  0.12242212  0.12447524  0.62640913  1
  Fe  Fe36  1  0.87518062  0.62274477  0.12456547  1
  Fe  Fe37  1  0.75158920  0.24871610  -0.00176275  1
  Fe  Fe38  1  0.87714563  0.12411987  0.62880320  1
  Fe  Fe39  1  0.62929899  0.62338239  0.37395614  1
  Fe  Fe40  1  0.12446730  0.12555914  0.12327501  1
  Fe  Fe41  1  0.49801978  0.00260779  0.00099584  1
  Fe  Fe42  1  0.37585038  0.37712163  0.87449871  1
  Fe  Fe43  1  0.00041585  0.24830308  0.25177727  1
  Fe  Fe44  1  0.37305548  0.62341753  0.37282695  1
  Fe  Fe45  1  0.74892133  0.24958448  0.74982556  1
  Fe  Fe46  1  0.25134649  0.74913280  0.00079554  1
  Fe  Fe47  1  0.62563587  0.12596841  0.12495273  1
  Fe  Fe48  1  0.24851830  0.25123061  0.50002082  1
  Fe  Fe49  1  0.49937715  0.24977287  0.25163899  1
  Fe  Fe50  1  0.37487261  0.37511761  0.62557738  1
  Fe  Fe51  1  0.62397057  0.62677596  0.62384073  1
  Fe  Fe52  1  0.37810221  0.87272305  0.62279754  1
  Fe  Fe53  1  0.00021865  0.50288400  0.75686178  1
  Fe  Fe54  1  0.12393913  0.87655427  0.12598771  1
  Fe  Fe55  1  0.63025387  0.12331526  0.37739919  1
  Fe  Fe56  1  0.37151102  0.12397897  0.37362883  1
  Fe  Fe57  1  -0.00113542  0.74670045  0.25000520  1
  Fe  Fe58  1  0.74706782  0.75118468  0.75043703  1
  Fe  Fe59  1  0.49833011  0.24965289  0.49852665  1
  Fe  Fe60  1  0.12463391  0.62684171  0.62643844  1
  Fe  Fe61  1  0.12197680  0.62285882  0.11827122  1
  Fe  Fe62  1  0.24666011  0.74890834  0.24862589  1
  Fe  Fe63  1  0.50139436  0.74901879  0.00069905  1
  Fe  Fe64  1  0.12375178  0.37729502  0.37519522  1
  Fe  Fe65  1  0.75130652  0.49965863  -0.00113924  1
  Fe  Fe66  1  0.24683986  0.49991990  0.24568769  1
  Fe  Fe67  1  0.50228161  0.75048296  0.75206775  1
  Fe  Fe68  1  0.12331952  0.87626951  0.37362197  1
  Fe  Fe69  1  0.74813505  -0.00402871  0.74708712  1
  Fe  Fe70  1  0.62620389  0.87639960  0.12485017  1
  Fe  Fe71  1  0.24923266  0.75016003  0.49992320  1
  Fe  Fe72  1  0.24821833  -0.00233328  0.75071008  1
  Fe  Fe73  1  0.24835992  0.24815109  0.75150598  1
  Fe  Fe74  1  -0.00164921  0.00480269  0.25156391  1
  Fe  Fe75  1  0.12314534  0.37624626  0.62938797  1
  Fe  Fe76  1  0.75328979  0.75325193  0.49935847  1
  Fe  Fe77  1  0.50021252  0.49942292  0.24796253  1
  Fe  Fe78  1  0.87563831  0.87289637  0.87236523  1
  Fe  Fe79  1  0.24907438  0.49939354  0.50157437  1
  Fe  Fe80  1  0.75307299  0.25193953  0.50173665  1
  Fe  Fe81  1  0.50249022  0.75004156  0.25139663  1
  Fe  Fe82  1  0.74923856  0.50316464  0.75213724  1
  Fe  Fe83  1  0.75018964  0.75073561  0.00077827  1
  Fe  Fe84  1  0.50163101  0.25023885  0.75050964  1
  Fe  Fe85  1  0.37767804  0.62317738  0.87761362  1
  Fe  Fe86  1  0.62611941  0.12270384  0.87520853  1
  Fe  Fe87  1  0.87785281  0.37879125  0.37441589  1
  Fe  Fe88  1  0.24717823  0.24996505  0.25019168  1
  Fe  Fe89  1  0.37447586  0.87418859  0.12706785  1
  Co  Co90  1  0.50008641  0.49909497  0.00406915  1
  Co  Co91  1  -0.00038104  0.74649218  0.74904302  1
  Co  Co92  1  0.37522006  0.62671914  0.12614135  1
  Co  Co93  1  0.87293193  0.12284061  0.87155058  1
  Co  Co94  1  0.24946575  0.50053629  0.00000458  1
  Co  Co95  1  0.12301029  0.63036167  0.87925638  1
  Co  Co96  1  0.62416337  0.62348023  0.87685189  1
  Co  Co97  1  0.87419037  0.87512172  0.36998245  1
  Co  Co98  1  0.49807666  0.00291833  0.49808842  1
  Co  Co99  1  0.87218890  0.12559074  0.37767619  1
  Co  Co100  1  -0.00116716  0.49611294  -0.00606182  1
  Co  Co101  1  0.37530379  0.12347675  0.87208179  1
  Co  Co102  1  0.75148785  0.49736518  0.24817343  1
  Co  Co103  1  -0.00287769  0.75301942  0.00378328  1
  Co  Co104  1  0.12505193  0.12433656  0.87516310  1
  Co  Co105  1  0.37360216  0.12614089  0.12657447  1
  Co  Co106  1  0.00088146  0.25057293  0.75403174  1
  Co  Co107  1  0.24905642  -0.00023682  0.24858773  1
  Co  Co108  1  0.37282133  0.37690619  0.37411443  1
  Co  Co109  1  0.12875925  0.37589481  0.87472682  1
  Co  Co110  1  0.87563741  0.62969422  0.87764265  1
  Co  Co111  1  0.87815712  0.12778982  0.12207302  1
  Co  Co112  1  0.25297984  0.74930948  0.75086648  1
  Co  Co113  1  0.50054569  0.50042154  0.74756965  1
  Co  Co114  1  0.12263014  0.37252664  0.12220722  1
  Co  Co115  1  0.62056570  0.87351179  0.61948053  1
  Co  Co116  1  0.87873291  0.87392392  0.62915843  1
  Co  Co117  1  0.87414379  0.62314952  0.37469551  1
  Co  Co118  1  0.00305165  -0.00165768  0.75286494  1
  Co  Co119  1  -0.00009397  0.50034726  0.50300665  1
  Co  Co120  1  0.00158255  0.50151293  0.24745212  1
  Co  Co121  1  0.12542413  0.12432754  0.37670104  1
  Co  Co122  1  0.75558889  -0.00348764  0.50399643  1
  Co  Co123  1  0.75152336  0.00391426  0.24675180  1
  Co  Co124  1  0.74956526  0.74991369  0.24933176  1
  Co  Co125  1  0.87088102  0.37420327  0.87208129  1
  Co  Co126  1  0.50052325  0.74761443  0.49470733  1
  Co  Co127  1  0.62554612  0.87599480  0.87896025  1
