# generated using pymatgen
data_Fe45Co19
_symmetry_space_group_name_H-M   'P 1'
_cell_length_a   11.41608705
_cell_length_b   11.41527964
_cell_length_c   11.41520309
_cell_angle_alpha   90.00505414
_cell_angle_beta   90.00830123
_cell_angle_gamma   89.99918224
_symmetry_Int_Tables_number   1
_chemical_formula_structural   Fe45Co19
_chemical_formula_sum   'Fe90 Co38'
_cell_volume   1487.60443050
_cell_formula_units_Z   2
loop_
 _symmetry_equiv_pos_site_id
 _symmetry_equiv_pos_as_xyz
  1  'x, y, z'
loop_
 _atom_site_type_symbol
 _atom_site_label
 _atom_site_symmetry_multiplicity
 _atom_site_fract_x
 _atom_site_fract_y
 _atom_site_fract_z
 _atom_site_occupancy
  Fe  Fe0  1  0.24926981  0.74900173  0.24960731  1
  Fe  Fe1  1  0.50020288  0.50141255  0.25087576  1
  Fe  Fe2  1  0.00075575  0.75086555  0.00379331  1
  Fe  Fe3  1  0.87313414  0.12579477  0.12635259  1
  Fe  Fe4  1  0.12693525  0.37630188  0.12344686  1
  Fe  Fe5  1  -0.00123898  -0.00158468  0.49795927  1
  Fe  Fe6  1  0.87502723  0.87381631  0.87425312  1
  Fe  Fe7  1  0.25011877  0.74997480  0.00121121  1
  Fe  Fe8  1  0.49729450  0.25083554  0.49900043  1
  Fe  Fe9  1  0.49867454  -0.00201130  0.00241873  1
  Fe  Fe10  1  0.74633169  0.24498404  0.25161137  1
  Fe  Fe11  1  0.74984102  0.50044712  0.74959548  1
  Fe  Fe12  1  0.24843364  0.00336311  0.74894106  1
  Fe  Fe13  1  0.00180107  0.24747639  0.75276365  1
  Fe  Fe14  1  0.62488087  0.87566690  0.62230260  1
  Fe  Fe15  1  0.75088961  0.00064233  0.49469200  1
  Fe  Fe16  1  0.49689904  0.00059592  0.49944744  1
  Fe  Fe17  1  0.62613823  0.87312845  0.87556433  1
  Fe  Fe18  1  0.00175288  0.00252959  0.75095140  1
  Fe  Fe19  1  0.12537844  0.12431807  0.12331773  1
  Fe  Fe20  1  0.74992522  0.74803609  0.74911491  1
  Fe  Fe21  1  0.25073317  0.24872106  0.50089219  1
  Fe  Fe22  1  0.25289094  0.25215199  0.00110414  1
  Fe  Fe23  1  0.87061666  0.87241561  0.13006460  1
  Fe  Fe24  1  0.37631584  0.87408357  0.87320780  1
  Fe  Fe25  1  0.87639990  0.37569604  0.87412492  1
  Fe  Fe26  1  0.49824486  0.25374932  0.00492891  1
  Fe  Fe27  1  0.62710427  0.37712075  0.12632784  1
  Fe  Fe28  1  0.00112338  0.74766310  0.74741908  1
  Fe  Fe29  1  0.00278517  0.25316388  0.25152540  1
  Fe  Fe30  1  0.50046031  0.75083146  0.00414265  1
  Fe  Fe31  1  0.12086538  0.62310230  0.37301225  1
  Fe  Fe32  1  0.75103701  0.24932952  0.49861492  1
  Fe  Fe33  1  -0.00050600  -0.00030214  0.24964336  1
  Fe  Fe34  1  0.75206252  0.50043389  -0.00017784  1
  Fe  Fe35  1  0.62445223  0.62542413  0.87794220  1
  Fe  Fe36  1  0.37449650  0.62426365  0.12499265  1
  Fe  Fe37  1  0.24984390  0.50055154  0.49777091  1
  Fe  Fe38  1  0.87385565  0.87529701  0.62441997  1
  Fe  Fe39  1  0.12425475  0.87463535  0.87524098  1
  Fe  Fe40  1  0.37577186  0.12520805  0.87545041  1
  Fe  Fe41  1  0.50105152  0.00514861  0.24838293  1
  Fe  Fe42  1  0.25089817  0.74896416  0.49849587  1
  Fe  Fe43  1  0.62385605  0.12427377  0.62227521  1
  Fe  Fe44  1  0.87525761  0.37742126  0.62479666  1
  Fe  Fe45  1  0.24712365  0.24804287  0.74983249  1
  Fe  Fe46  1  0.74929410  0.50626745  0.25494074  1
  Fe  Fe47  1  0.62571745  0.37520916  0.87610116  1
  Fe  Fe48  1  0.50111136  0.24873243  0.74971984  1
  Fe  Fe49  1  0.62437563  0.62317857  0.62099704  1
  Fe  Fe50  1  0.25300124  -0.00159762  0.00177069  1
  Fe  Fe51  1  -0.00179990  -0.00011620  0.00050368  1
  Fe  Fe52  1  0.12501627  0.12552406  0.37586492  1
  Fe  Fe53  1  0.62545799  0.37626828  0.62328351  1
  Fe  Fe54  1  0.49635729  0.49814687  0.49892805  1
  Fe  Fe55  1  0.37282247  0.37141340  0.36967521  1
  Fe  Fe56  1  0.49988323  0.50055801  0.75154575  1
  Fe  Fe57  1  0.00227573  0.75104054  0.49908554  1
  Fe  Fe58  1  -0.00025409  0.50077746  0.00281560  1
  Fe  Fe59  1  0.12618685  0.87662035  0.37428375  1
  Fe  Fe60  1  0.24818162  0.74758697  0.75040812  1
  Fe  Fe61  1  0.25332624  0.00205078  0.49935960  1
  Fe  Fe62  1  0.12440117  0.37789311  0.62657482  1
  Fe  Fe63  1  0.87675405  0.62229051  0.61992914  1
  Fe  Fe64  1  -0.00188709  0.24910188  -0.00120343  1
  Fe  Fe65  1  0.25178688  0.49971756  -0.00337700  1
  Fe  Fe66  1  0.37373108  0.62440286  0.62488575  1
  Fe  Fe67  1  0.87582275  0.62762172  0.12996336  1
  Fe  Fe68  1  0.50131461  0.74980648  0.74780467  1
  Fe  Fe69  1  0.37935780  0.87204578  0.37105615  1
  Fe  Fe70  1  0.12632563  0.87597846  0.62409026  1
  Fe  Fe71  1  0.74843054  0.00131255  0.75032720  1
  Fe  Fe72  1  0.62590707  0.12623653  0.87949544  1
  Fe  Fe73  1  0.24823896  0.50214732  0.75513049  1
  Fe  Fe74  1  0.75005461  0.24952994  0.75054260  1
  Fe  Fe75  1  0.75148377  -0.00105862  0.00106332  1
  Fe  Fe76  1  0.87157763  0.37383228  0.12864778  1
  Fe  Fe77  1  0.74782681  0.74848346  0.49462136  1
  Fe  Fe78  1  0.87655788  0.62597332  0.87598317  1
  Fe  Fe79  1  0.87317931  0.87234758  0.37044014  1
  Fe  Fe80  1  0.24838903  0.50046301  0.25005459  1
  Fe  Fe81  1  0.62585924  0.37518988  0.37543969  1
  Fe  Fe82  1  0.37370477  0.37508523  0.62808865  1
  Fe  Fe83  1  0.87701323  0.12477758  0.62355549  1
  Fe  Fe84  1  0.49699222  0.49741130  -0.00034757  1
  Fe  Fe85  1  0.62791917  0.87405238  0.13038206  1
  Fe  Fe86  1  0.37544136  0.87614096  0.62673927  1
  Fe  Fe87  1  0.25177446  0.00204636  0.24986123  1
  Fe  Fe88  1  0.12671526  0.87552195  0.12566398  1
  Fe  Fe89  1  0.00017785  0.25498375  0.49681664  1
  Co  Co90  1  0.62080805  0.87559383  0.37238354  1
  Co  Co91  1  0.00038775  0.49481176  0.49560732  1
  Co  Co92  1  0.12508820  0.62200640  0.62247028  1
  Co  Co93  1  0.12988503  0.37504093  0.37381696  1
  Co  Co94  1  0.37524217  0.62573190  0.37350743  1
  Co  Co95  1  0.49745508  0.75023205  0.50251287  1
  Co  Co96  1  0.37670639  0.12538854  0.62668426  1
  Co  Co97  1  0.24642900  0.24807543  0.24713856  1
  Co  Co98  1  0.37598836  0.87317265  0.12966485  1
  Co  Co99  1  0.12624820  0.62364847  0.12603796  1
  Co  Co100  1  0.74889450  0.00422612  0.25295382  1
  Co  Co101  1  0.62192657  0.12495712  0.37840204  1
  Co  Co102  1  0.87010764  0.37493366  0.37251460  1
  Co  Co103  1  0.75075657  0.50124475  0.49705440  1
  Co  Co104  1  0.12722377  0.12470182  0.87977372  1
  Co  Co105  1  0.37528910  0.37271493  0.87131763  1
  Co  Co106  1  0.37396492  0.37691816  0.13033474  1
  Co  Co107  1  0.12294732  0.37556338  0.87661828  1
  Co  Co108  1  0.50342510  0.74436108  0.24699749  1
  Co  Co109  1  0.12237591  0.62596714  0.87776081  1
  Co  Co110  1  0.88156691  0.62584121  0.37474765  1
  Co  Co111  1  0.62655307  0.12526134  0.12037918  1
  Co  Co112  1  0.50274955  0.00060645  0.75117274  1
  Co  Co113  1  0.62493516  0.62198792  0.12088116  1
  Co  Co114  1  0.87849240  0.12664664  0.37410483  1
  Co  Co115  1  0.00040355  0.49486954  0.24990409  1
  Co  Co116  1  0.00004150  0.50204147  0.74992718  1
  Co  Co117  1  0.87269985  0.12393222  0.87582207  1
  Co  Co118  1  0.37471206  0.12670130  0.12583459  1
  Co  Co119  1  0.75130914  0.25252061  -0.00002130  1
  Co  Co120  1  0.00352813  0.75291700  0.24865421  1
  Co  Co121  1  0.75027079  0.74981732  0.00160248  1
  Co  Co122  1  0.74493154  0.74382842  0.25418317  1
  Co  Co123  1  0.37746220  0.62801094  0.87629976  1
  Co  Co124  1  0.12196215  0.12483013  0.62026295  1
  Co  Co125  1  0.50427537  0.24935287  0.24735904  1
  Co  Co126  1  0.37503889  0.12892830  0.37168744  1
  Co  Co127  1  0.61867374  0.62463468  0.38048368  1
