# generated using pymatgen
data_Fe45Co19
_symmetry_space_group_name_H-M   'P 1'
_cell_length_a   11.41416324
_cell_length_b   11.41526125
_cell_length_c   11.41430744
_cell_angle_alpha   89.99090051
_cell_angle_beta   89.99952656
_cell_angle_gamma   89.99842755
_symmetry_Int_Tables_number   1
_chemical_formula_structural   Fe45Co19
_chemical_formula_sum   'Fe90 Co38'
_cell_volume   1487.23464877
_cell_formula_units_Z   2
loop_
 _symmetry_equiv_pos_site_id
 _symmetry_equiv_pos_as_xyz
  1  'x, y, z'
loop_
 _atom_site_type_symbol
 _atom_site_label
 _atom_site_symmetry_multiplicity
 _atom_site_fract_x
 _atom_site_fract_y
 _atom_site_fract_z
 _atom_site_occupancy
  Fe  Fe0  1  0.37739932  0.87372582  0.62596312  1
  Fe  Fe1  1  -0.00329139  0.49898183  0.24936393  1
  Fe  Fe2  1  0.37960087  0.37177985  0.37288185  1
  Fe  Fe3  1  0.00244085  0.74844600  0.74742477  1
  Fe  Fe4  1  -0.00005591  0.74877293  0.50115039  1
  Fe  Fe5  1  0.49774761  0.49961375  0.75255345  1
  Fe  Fe6  1  0.62406667  0.12412497  0.62421789  1
  Fe  Fe7  1  0.37625139  0.62522773  0.62358254  1
  Fe  Fe8  1  0.87297541  0.62441862  0.62485782  1
  Fe  Fe9  1  0.75113637  0.49972456  0.75242285  1
  Fe  Fe10  1  0.37566064  0.12496430  0.62608174  1
  Fe  Fe11  1  0.12403313  0.12607283  0.37681646  1
  Fe  Fe12  1  0.50219094  0.00302195  0.24990192  1
  Fe  Fe13  1  0.50218027  0.25054103  0.75032989  1
  Fe  Fe14  1  -0.00215016  0.00254256  0.49925467  1
  Fe  Fe15  1  0.37780515  0.87172813  0.37304220  1
  Fe  Fe16  1  0.49999159  0.25158745  0.00185820  1
  Fe  Fe17  1  0.74726313  0.24927434  0.49910602  1
  Fe  Fe18  1  0.12399680  0.37379309  0.37601584  1
  Fe  Fe19  1  0.62865419  0.62672983  0.37183689  1
  Fe  Fe20  1  0.24955493  0.24993361  0.50157616  1
  Fe  Fe21  1  0.38020724  0.12981959  0.37466415  1
  Fe  Fe22  1  0.49910798  0.00084910  0.75443000  1
  Fe  Fe23  1  0.50436064  0.74906250  0.74764801  1
  Fe  Fe24  1  0.62458120  0.87561639  0.87749062  1
  Fe  Fe25  1  0.12626316  0.62343227  0.87181593  1
  Fe  Fe26  1  0.87399177  0.12771862  0.12413995  1
  Fe  Fe27  1  -0.00090543  -0.00053742  0.75023387  1
  Fe  Fe28  1  0.37481100  0.37611851  0.62596725  1
  Fe  Fe29  1  0.74700431  -0.00014145  0.49693471  1
  Fe  Fe30  1  0.37686867  0.37842105  0.12697532  1
  Fe  Fe31  1  0.25220889  0.00106783  0.49868081  1
  Fe  Fe32  1  0.87204322  0.62880926  0.37315550  1
  Fe  Fe33  1  0.24885853  0.74923284  0.50037062  1
  Fe  Fe34  1  -0.00383552  0.49879601  0.00070182  1
  Fe  Fe35  1  0.62336596  0.87846209  0.12319483  1
  Fe  Fe36  1  0.74890423  0.74830082  0.00394534  1
  Fe  Fe37  1  0.87390966  0.12727996  0.62441815  1
  Fe  Fe38  1  -0.00095300  0.00136171  0.25049722  1
  Fe  Fe39  1  0.87516885  0.62630980  0.87538981  1
  Fe  Fe40  1  0.37271049  0.62915857  0.87289446  1
  Fe  Fe41  1  0.74616710  0.74861259  0.74711407  1
  Fe  Fe42  1  0.00155179  0.25259042  0.74474301  1
  Fe  Fe43  1  0.12462553  0.87701321  0.62344732  1
  Fe  Fe44  1  0.24964375  0.25114203  0.74959063  1
  Fe  Fe45  1  0.62351422  0.37846856  0.87773641  1
  Fe  Fe46  1  0.62637021  0.37749355  0.62506016  1
  Fe  Fe47  1  0.12647119  0.62257554  0.12679733  1
  Fe  Fe48  1  0.12590890  0.12412833  0.12273448  1
  Fe  Fe49  1  0.00060606  0.24850729  0.25040956  1
  Fe  Fe50  1  0.25050983  0.25085984  0.24928828  1
  Fe  Fe51  1  0.25248358  0.49993579  -0.00194903  1
  Fe  Fe52  1  0.87546458  0.37286291  0.87365438  1
  Fe  Fe53  1  0.12486721  0.37789111  0.87248141  1
  Fe  Fe54  1  0.37238707  0.62268272  0.13011248  1
  Fe  Fe55  1  0.12379967  0.37590308  0.12513929  1
  Fe  Fe56  1  0.00235290  0.74874740  0.00079052  1
  Fe  Fe57  1  0.87356107  0.37162729  0.37450229  1
  Fe  Fe58  1  0.87391335  0.87174506  0.87455257  1
  Fe  Fe59  1  0.87582998  0.87435540  0.12496273  1
  Fe  Fe60  1  0.25245071  -0.00119423  0.75134475  1
  Fe  Fe61  1  0.12787510  0.87224918  0.87531726  1
  Fe  Fe62  1  0.00164369  0.75041053  0.24957288  1
  Fe  Fe63  1  0.25190767  0.50027668  0.49748322  1
  Fe  Fe64  1  0.74962774  0.50034869  0.49723484  1
  Fe  Fe65  1  0.74880423  0.25299899  0.00099026  1
  Fe  Fe66  1  0.25632941  -0.00344420  -0.00260665  1
  Fe  Fe67  1  0.75006358  0.00177570  0.75264593  1
  Fe  Fe68  1  0.62535926  0.62247666  0.87900159  1
  Fe  Fe69  1  0.24995703  0.25232613  -0.00044990  1
  Fe  Fe70  1  -0.00172067  0.00018687  -0.00119541  1
  Fe  Fe71  1  0.49736523  0.74901096  0.00341322  1
  Fe  Fe72  1  0.12536626  0.12491312  0.87490081  1
  Fe  Fe73  1  0.12527835  0.62346866  0.37438967  1
  Fe  Fe74  1  0.50095496  0.50015209  0.49618449  1
  Fe  Fe75  1  0.50141672  -0.00113254  0.49849633  1
  Fe  Fe76  1  0.50647825  0.74975260  0.50160623  1
  Fe  Fe77  1  0.25184749  0.00076606  0.25245821  1
  Fe  Fe78  1  0.87538704  0.12847451  0.87587289  1
  Fe  Fe79  1  0.87052755  0.87226150  0.37457020  1
  Fe  Fe80  1  0.37593640  0.12509203  0.12377993  1
  Fe  Fe81  1  0.50217940  0.74662708  0.24819664  1
  Fe  Fe82  1  -0.00220513  0.49763318  0.50255810  1
  Fe  Fe83  1  0.87193241  0.87426508  0.62452559  1
  Fe  Fe84  1  0.12846855  0.87581068  0.12506058  1
  Fe  Fe85  1  0.62426529  0.12346210  0.88056364  1
  Fe  Fe86  1  0.62342896  0.38460012  0.12447083  1
  Fe  Fe87  1  0.74721389  0.00244608  0.25080270  1
  Fe  Fe88  1  0.12466486  0.87591556  0.37543288  1
  Fe  Fe89  1  0.74385514  0.25006308  0.24920525  1
  Co  Co90  1  0.12572003  0.12318753  0.62497604  1
  Co  Co91  1  0.25199873  0.74909943  0.00334643  1
  Co  Co92  1  0.37558847  0.12927646  0.87627631  1
  Co  Co93  1  0.12787747  0.37959040  0.62517977  1
  Co  Co94  1  0.62538513  0.87994593  0.62776245  1
  Co  Co95  1  0.62596786  0.87199642  0.37217716  1
  Co  Co96  1  0.24727967  0.74950077  0.74454906  1
  Co  Co97  1  0.50005606  0.50252399  0.25560025  1
  Co  Co98  1  0.62517343  0.12132549  0.11921486  1
  Co  Co99  1  0.00139546  0.25087044  -0.00082513  1
  Co  Co100  1  0.37598901  0.86818251  0.87136016  1
  Co  Co101  1  0.50454765  0.25018256  0.24377285  1
  Co  Co102  1  0.87646706  0.62644305  0.12595642  1
  Co  Co103  1  0.12522458  0.61965736  0.62498829  1
  Co  Co104  1  0.75284803  0.49946446  0.24958765  1
  Co  Co105  1  0.75495699  -0.00125753  -0.00101010  1
  Co  Co106  1  0.62490703  0.61798193  0.12321966  1
  Co  Co107  1  0.24771963  0.75020674  0.25201716  1
  Co  Co108  1  0.37515115  0.87500984  0.13046236  1
  Co  Co109  1  0.49377281  -0.00291075  -0.00168793  1
  Co  Co110  1  0.25487069  0.50123926  0.75066914  1
  Co  Co111  1  0.74801310  0.74983007  0.24339379  1
  Co  Co112  1  0.86931486  0.37380224  0.62410533  1
  Co  Co113  1  0.50037607  0.25255381  0.50489161  1
  Co  Co114  1  0.37500724  0.62842799  0.37550106  1
  Co  Co115  1  0.62013962  0.12876244  0.37742536  1
  Co  Co116  1  0.75668174  0.49953046  0.00046791  1
  Co  Co117  1  -0.00445625  0.49882899  0.74776779  1
  Co  Co118  1  0.87400730  0.12704477  0.37411742  1
  Co  Co119  1  0.74586533  0.24970192  0.75171451  1
  Co  Co120  1  0.25074826  0.49729529  0.25377741  1
  Co  Co121  1  0.74545531  0.75011514  0.50459581  1
  Co  Co122  1  0.49329786  0.50342977  -0.00238722  1
  Co  Co123  1  0.37554260  0.37221862  0.87513342  1
  Co  Co124  1  0.00085921  0.25101749  0.50309657  1
  Co  Co125  1  0.87522141  0.37087263  0.12715515  1
  Co  Co126  1  0.62499999  0.61795386  0.62622486  1
  Co  Co127  1  0.62321834  0.37381992  0.37464449  1
