# generated using pymatgen
data_Fe45Co19
_symmetry_space_group_name_H-M   'P 1'
_cell_length_a   11.41587788
_cell_length_b   11.41622432
_cell_length_c   11.41629529
_cell_angle_alpha   89.99978828
_cell_angle_beta   90.00633004
_cell_angle_gamma   89.99348164
_symmetry_Int_Tables_number   1
_chemical_formula_structural   Fe45Co19
_chemical_formula_sum   'Fe90 Co38'
_cell_volume   1487.84262332
_cell_formula_units_Z   2
loop_
 _symmetry_equiv_pos_site_id
 _symmetry_equiv_pos_as_xyz
  1  'x, y, z'
loop_
 _atom_site_type_symbol
 _atom_site_label
 _atom_site_symmetry_multiplicity
 _atom_site_fract_x
 _atom_site_fract_y
 _atom_site_fract_z
 _atom_site_occupancy
  Fe  Fe0  1  0.12880095  0.87604031  0.87874592  1
  Fe  Fe1  1  0.12325509  0.87779213  0.62518806  1
  Fe  Fe2  1  0.62492659  0.87436404  0.12329945  1
  Fe  Fe3  1  0.24997026  0.24886374  0.49826698  1
  Fe  Fe4  1  0.87786472  0.12646479  0.37349122  1
  Fe  Fe5  1  0.62463937  0.87771696  0.37482601  1
  Fe  Fe6  1  0.49834802  0.75071260  -0.00093739  1
  Fe  Fe7  1  0.00086606  0.49562600  0.25172290  1
  Fe  Fe8  1  0.37480399  0.87714388  0.37394075  1
  Fe  Fe9  1  0.87907514  0.12439056  0.62394647  1
  Fe  Fe10  1  0.50472152  0.25192817  0.25610031  1
  Fe  Fe11  1  0.62584449  0.37463769  0.12550567  1
  Fe  Fe12  1  -0.00143718  0.25146078  0.75037729  1
  Fe  Fe13  1  0.62634634  0.87605809  0.87561523  1
  Fe  Fe14  1  0.74871700  0.00391497  0.00122348  1
  Fe  Fe15  1  0.62521360  0.62472774  0.87290376  1
  Fe  Fe16  1  0.25007234  0.00092730  0.74987470  1
  Fe  Fe17  1  -0.00171591  0.75313077  0.24705416  1
  Fe  Fe18  1  0.87169827  0.37345243  0.12614512  1
  Fe  Fe19  1  0.87802259  0.12734234  0.12698508  1
  Fe  Fe20  1  0.12067555  0.12476367  0.37315553  1
  Fe  Fe21  1  0.37512419  0.62550252  0.62762994  1
  Fe  Fe22  1  0.87127104  0.37328316  0.37473128  1
  Fe  Fe23  1  0.62445935  0.62426346  0.37415226  1
  Fe  Fe24  1  0.87361251  0.87694784  0.87696225  1
  Fe  Fe25  1  0.75066484  0.74820665  0.24709404  1
  Fe  Fe26  1  0.87603499  0.87377186  0.62470833  1
  Fe  Fe27  1  0.62370275  0.62851776  0.62844765  1
  Fe  Fe28  1  0.24930179  0.50243212  0.00103789  1
  Fe  Fe29  1  0.00095130  0.75107313  0.75287542  1
  Fe  Fe30  1  0.24970016  0.50060501  0.50077385  1
  Fe  Fe31  1  0.00002932  0.49764314  0.49988362  1
  Fe  Fe32  1  0.50090155  0.49849515  0.49969096  1
  Fe  Fe33  1  0.37635119  0.12457438  0.87723807  1
  Fe  Fe34  1  0.74886393  0.50260394  0.50334289  1
  Fe  Fe35  1  0.24859776  0.24650032  0.00200332  1
  Fe  Fe36  1  0.62616999  0.87176338  0.62670932  1
  Fe  Fe37  1  0.12527878  0.12502459  0.87474610  1
  Fe  Fe38  1  0.62257081  0.37167918  0.62747067  1
  Fe  Fe39  1  0.12656947  0.37482916  0.62530708  1
  Fe  Fe40  1  0.12525061  0.62385702  0.37323948  1
  Fe  Fe41  1  0.62152323  0.12492965  0.12489708  1
  Fe  Fe42  1  0.25118675  0.74799831  0.24751676  1
  Fe  Fe43  1  0.50001332  0.75107767  0.24944899  1
  Fe  Fe44  1  0.49919536  -0.00119998  0.75155052  1
  Fe  Fe45  1  0.12741361  0.37591521  0.87321365  1
  Fe  Fe46  1  0.12741278  0.87736097  0.37275947  1
  Fe  Fe47  1  -0.00086338  0.74900896  0.00095431  1
  Fe  Fe48  1  0.12496405  0.62274887  0.62963802  1
  Fe  Fe49  1  0.74828358  0.50134545  0.00147956  1
  Fe  Fe50  1  0.37412562  0.87390782  0.62574225  1
  Fe  Fe51  1  0.87516316  0.62756049  0.62624962  1
  Fe  Fe52  1  0.24963041  0.74968036  0.50076629  1
  Fe  Fe53  1  0.12266197  0.12501576  0.62560383  1
  Fe  Fe54  1  0.87269588  0.37356666  0.62550495  1
  Fe  Fe55  1  0.87379210  0.87504883  0.37487339  1
  Fe  Fe56  1  0.61920670  0.12746549  0.62538113  1
  Fe  Fe57  1  0.75196984  0.74691711  0.00132439  1
  Fe  Fe58  1  0.87328459  0.12644550  0.87499740  1
  Fe  Fe59  1  0.37664401  0.37275264  0.12449609  1
  Fe  Fe60  1  0.24949329  0.24871656  0.24975873  1
  Fe  Fe61  1  0.74658036  0.24752749  0.49795585  1
  Fe  Fe62  1  0.00086273  0.00154161  0.00092659  1
  Fe  Fe63  1  0.12167212  0.62338678  0.12568823  1
  Fe  Fe64  1  0.49980904  0.75149274  0.49928605  1
  Fe  Fe65  1  0.25425958  0.00493996  0.24349895  1
  Fe  Fe66  1  -0.00100324  0.25192170  -0.00024031  1
  Fe  Fe67  1  0.86807306  0.37374027  0.87315369  1
  Fe  Fe68  1  0.50568558  0.25111545  -0.00643795  1
  Fe  Fe69  1  0.49708582  0.49451811  0.75276527  1
  Fe  Fe70  1  0.25444825  0.25226497  0.75048619  1
  Fe  Fe71  1  0.75015049  -0.00003676  0.50155565  1
  Fe  Fe72  1  0.37940511  0.12870510  0.62356487  1
  Fe  Fe73  1  0.74787961  0.50263850  0.24734728  1
  Fe  Fe74  1  0.37784100  0.62364546  0.12636151  1
  Fe  Fe75  1  0.75087658  0.00145737  0.74872642  1
  Fe  Fe76  1  0.87530046  0.62232043  0.87350792  1
  Fe  Fe77  1  0.74987770  0.00215218  0.24843879  1
  Fe  Fe78  1  0.12650134  0.37409559  0.12563708  1
  Fe  Fe79  1  0.38051830  0.12213117  0.37631448  1
  Fe  Fe80  1  0.37553351  0.62278453  0.37342428  1
  Fe  Fe81  1  0.87485776  0.62536446  0.37414030  1
  Fe  Fe82  1  0.37058579  0.87488807  0.87824287  1
  Fe  Fe83  1  0.37153448  0.62581280  0.87304655  1
  Fe  Fe84  1  0.00007768  0.49795369  -0.00231286  1
  Fe  Fe85  1  0.37349972  0.37786194  0.37454710  1
  Fe  Fe86  1  0.50152827  0.49858479  -0.00120930  1
  Fe  Fe87  1  0.12811959  0.87739935  0.12341668  1
  Fe  Fe88  1  0.25028684  0.00149974  0.50067882  1
  Fe  Fe89  1  0.00168352  0.75090112  0.49836500  1
  Co  Co90  1  0.24765547  0.75162039  0.74878829  1
  Co  Co91  1  0.37136133  0.37440176  0.88186901  1
  Co  Co92  1  0.63204056  0.37529076  0.87209778  1
  Co  Co93  1  0.25280818  0.00609682  0.00525366  1
  Co  Co94  1  0.00044741  0.25227527  0.49974856  1
  Co  Co95  1  0.74590287  0.24639278  0.25163226  1
  Co  Co96  1  0.49698565  0.25359023  0.75616610  1
  Co  Co97  1  0.49991050  -0.00420932  0.50390196  1
  Co  Co98  1  0.12553127  0.62353409  0.87264943  1
  Co  Co99  1  0.25002349  0.49961660  0.24705043  1
  Co  Co100  1  0.49824039  -0.00135957  0.24553839  1
  Co  Co101  1  0.62506573  0.12337381  0.87239304  1
  Co  Co102  1  0.74888796  0.50191433  0.74697521  1
  Co  Co103  1  0.74871584  0.74938182  0.49889099  1
  Co  Co104  1  0.38288586  0.13252173  0.12338435  1
  Co  Co105  1  0.12004545  0.12583426  0.12604110  1
  Co  Co106  1  0.62272033  0.62656364  0.12402525  1
  Co  Co107  1  0.00135393  0.25509757  0.24992112  1
  Co  Co108  1  0.75218874  0.75012206  0.75305700  1
  Co  Co109  1  0.24957117  0.74467147  0.00256640  1
  Co  Co110  1  0.37388618  0.87313058  0.12322805  1
  Co  Co111  1  0.87228765  0.87715248  0.12269764  1
  Co  Co112  1  -0.00228292  0.49674352  0.75038207  1
  Co  Co113  1  0.25417298  0.49622597  0.75021065  1
  Co  Co114  1  0.37633014  0.37185436  0.62071669  1
  Co  Co115  1  -0.00027927  -0.00121689  0.49772276  1
  Co  Co116  1  -0.00102962  -0.00329580  0.24847155  1
  Co  Co117  1  0.12794212  0.37519849  0.37649719  1
  Co  Co118  1  0.50264734  0.25370418  0.49288427  1
  Co  Co119  1  0.49815477  0.75224026  0.75270629  1
  Co  Co120  1  0.00006509  -0.00013069  0.75303182  1
  Co  Co121  1  0.74996118  0.24570910  0.74746281  1
  Co  Co122  1  0.74817400  0.24732537  0.00227285  1
  Co  Co123  1  0.87772879  0.62199694  0.12536188  1
  Co  Co124  1  0.50129706  0.49787673  0.24867393  1
  Co  Co125  1  0.62207898  0.11820358  0.37750986  1
  Co  Co126  1  0.49853978  -0.00126946  0.00041785  1
  Co  Co127  1  0.63054053  0.37991714  0.37529402  1
