# generated using pymatgen
data_Fe45Co19
_symmetry_space_group_name_H-M   'P 1'
_cell_length_a   11.41540774
_cell_length_b   11.41425489
_cell_length_c   11.41554916
_cell_angle_alpha   90.01023186
_cell_angle_beta   90.00518462
_cell_angle_gamma   89.99795073
_symmetry_Int_Tables_number   1
_chemical_formula_structural   Fe45Co19
_chemical_formula_sum   'Fe90 Co38'
_cell_volume   1487.42745947
_cell_formula_units_Z   2
loop_
 _symmetry_equiv_pos_site_id
 _symmetry_equiv_pos_as_xyz
  1  'x, y, z'
loop_
 _atom_site_type_symbol
 _atom_site_label
 _atom_site_symmetry_multiplicity
 _atom_site_fract_x
 _atom_site_fract_y
 _atom_site_fract_z
 _atom_site_occupancy
  Fe  Fe0  1  0.12359370  0.87461731  0.87623175  1
  Fe  Fe1  1  0.62611941  0.62175885  0.12792378  1
  Fe  Fe2  1  0.87655078  0.87581759  0.62392427  1
  Fe  Fe3  1  0.50074938  0.24878793  0.74980160  1
  Fe  Fe4  1  0.50259103  0.00277493  -0.00242219  1
  Fe  Fe5  1  0.12336258  0.62625232  0.87335797  1
  Fe  Fe6  1  0.12395756  0.87613528  0.37317531  1
  Fe  Fe7  1  0.87402123  0.62334805  0.87319123  1
  Fe  Fe8  1  0.62929275  0.87238442  0.37126255  1
  Fe  Fe9  1  0.49881574  0.75133049  0.75031990  1
  Fe  Fe10  1  -0.00480563  0.75212066  0.24727783  1
  Fe  Fe11  1  0.62250795  0.87741965  0.62698990  1
  Fe  Fe12  1  0.50088906  0.24740210  0.00027782  1
  Fe  Fe13  1  0.25245193  0.24780668  0.50277432  1
  Fe  Fe14  1  0.37415879  0.37896015  0.11943594  1
  Fe  Fe15  1  0.37374266  0.62229155  0.12564272  1
  Fe  Fe16  1  -0.00339707  -0.00051675  0.24927199  1
  Fe  Fe17  1  0.37457564  0.87522968  0.87795694  1
  Fe  Fe18  1  0.12662423  0.62097332  0.12607394  1
  Fe  Fe19  1  0.62542781  0.62653501  0.37136335  1
  Fe  Fe20  1  -0.00022575  0.49936552  0.50005083  1
  Fe  Fe21  1  0.62542216  0.62539767  0.62645168  1
  Fe  Fe22  1  0.74791680  0.25110245  0.50242173  1
  Fe  Fe23  1  0.50251128  -0.00106699  0.25131519  1
  Fe  Fe24  1  0.00006399  0.00520540  -0.00171165  1
  Fe  Fe25  1  0.24908185  0.74770518  0.00068146  1
  Fe  Fe26  1  0.24776123  0.00363848  0.00042006  1
  Fe  Fe27  1  0.50243058  0.74773345  0.00244626  1
  Fe  Fe28  1  0.25201410  0.75252085  0.74951037  1
  Fe  Fe29  1  0.74945088  0.49984241  0.49911881  1
  Fe  Fe30  1  0.87387901  0.61835146  0.12547009  1
  Fe  Fe31  1  0.12612802  0.12565316  0.37278811  1
  Fe  Fe32  1  0.74725779  0.25547726  0.24732874  1
  Fe  Fe33  1  0.37678951  0.37653882  0.62544668  1
  Fe  Fe34  1  -0.00035492  0.49478208  0.75190961  1
  Fe  Fe35  1  0.49881796  0.75137892  0.49855639  1
  Fe  Fe36  1  0.12301813  0.12917136  0.12552633  1
  Fe  Fe37  1  0.00150359  0.49353328  0.24755289  1
  Fe  Fe38  1  0.25072779  0.25215775  0.24694077  1
  Fe  Fe39  1  0.00027521  0.74890398  0.50003166  1
  Fe  Fe40  1  0.62607900  0.87500715  0.87527881  1
  Fe  Fe41  1  0.50132568  0.50143999  0.75282562  1
  Fe  Fe42  1  0.12501040  0.62376432  0.62748429  1
  Fe  Fe43  1  0.12703358  0.36694703  0.88112181  1
  Fe  Fe44  1  0.37487184  0.87680287  0.12400597  1
  Fe  Fe45  1  0.87367653  0.12654810  0.37361221  1
  Fe  Fe46  1  0.37593320  0.62498220  0.87562616  1
  Fe  Fe47  1  0.74988829  0.74685935  0.00180993  1
  Fe  Fe48  1  0.74897656  0.00040845  0.49952560  1
  Fe  Fe49  1  0.87348901  0.12820036  0.62873262  1
  Fe  Fe50  1  0.37756709  0.12290496  0.12662649  1
  Fe  Fe51  1  0.87261684  0.37401097  0.87730055  1
  Fe  Fe52  1  0.62469373  0.12189523  0.62866500  1
  Fe  Fe53  1  0.12643294  0.37273051  0.37588551  1
  Fe  Fe54  1  0.75140404  0.74958935  0.50009806  1
  Fe  Fe55  1  0.87450153  0.37364555  0.37621328  1
  Fe  Fe56  1  0.75123652  0.75097062  0.74958363  1
  Fe  Fe57  1  -0.00032387  0.00170663  0.75262500  1
  Fe  Fe58  1  0.87522657  0.62405609  0.37306653  1
  Fe  Fe59  1  0.37352852  0.87748655  0.37520252  1
  Fe  Fe60  1  0.62301192  0.37628021  0.87783584  1
  Fe  Fe61  1  0.87350898  0.12698252  0.12767525  1
  Fe  Fe62  1  0.12506824  0.62427004  0.37216850  1
  Fe  Fe63  1  0.74698273  0.25036824  0.00260448  1
  Fe  Fe64  1  0.49972048  0.49811952  0.25184858  1
  Fe  Fe65  1  0.25072634  0.74988396  0.49961264  1
  Fe  Fe66  1  0.12623287  0.12628941  0.62985335  1
  Fe  Fe67  1  0.37594498  0.11902647  0.62538319  1
  Fe  Fe68  1  0.37197573  0.12596809  0.87243678  1
  Fe  Fe69  1  0.50074504  0.25359616  0.24801766  1
  Fe  Fe70  1  0.62445713  0.12848455  0.37329263  1
  Fe  Fe71  1  -0.00134493  0.74709831  0.00172090  1
  Fe  Fe72  1  0.37445385  0.62435604  0.62471507  1
  Fe  Fe73  1  -0.00013782  0.24883937  0.50044614  1
  Fe  Fe74  1  0.25022196  0.50098618  0.49812192  1
  Fe  Fe75  1  0.62408739  0.37649674  0.62343951  1
  Fe  Fe76  1  0.62799081  0.87646164  0.12637682  1
  Fe  Fe77  1  0.87524250  0.87475286  0.87799173  1
  Fe  Fe78  1  0.25032368  0.49586130  0.75421114  1
  Fe  Fe79  1  0.74832285  0.00369612  0.00020813  1
  Fe  Fe80  1  0.25222142  0.74982128  0.25032993  1
  Fe  Fe81  1  0.12444015  0.37398413  0.62379419  1
  Fe  Fe82  1  0.00036361  0.00221386  0.49995375  1
  Fe  Fe83  1  0.37630304  0.37366183  0.37827149  1
  Fe  Fe84  1  0.87078792  0.12884060  0.87099130  1
  Fe  Fe85  1  0.87602406  0.62221915  0.62745483  1
  Fe  Fe86  1  0.50065874  0.50119005  0.49833634  1
  Fe  Fe87  1  0.12401912  0.87560113  0.12398503  1
  Fe  Fe88  1  0.12476347  0.87479824  0.62671719  1
  Fe  Fe89  1  0.37519605  0.12385033  0.37538040  1
  Co  Co90  1  0.24970999  -0.00295184  0.75172449  1
  Co  Co91  1  0.25310770  0.25291086  0.74736849  1
  Co  Co92  1  0.25041382  0.49602204  0.25125540  1
  Co  Co93  1  0.74923783  0.49760657  0.75001344  1
  Co  Co94  1  0.49940307  0.24712291  0.50381224  1
  Co  Co95  1  0.24844108  0.50156602  -0.00420972  1
  Co  Co96  1  -0.00205361  0.75088172  0.75003551  1
  Co  Co97  1  0.49930865  -0.00016515  0.75503852  1
  Co  Co98  1  0.37714705  0.87813673  0.62268569  1
  Co  Co99  1  -0.00049023  0.25284180  0.75063534  1
  Co  Co100  1  -0.00405975  0.24656228  -0.00050922  1
  Co  Co101  1  0.62411297  0.12488543  0.12693177  1
  Co  Co102  1  0.49816701  0.75120571  0.24784903  1
  Co  Co103  1  0.24910900  0.00144822  0.24749040  1
  Co  Co104  1  0.37639648  0.62416927  0.37493900  1
  Co  Co105  1  0.74652614  0.25539452  0.74864370  1
  Co  Co106  1  0.37812700  0.37364518  0.87744536  1
  Co  Co107  1  0.00150976  0.49991234  -0.00198722  1
  Co  Co108  1  0.74908489  0.50057608  -0.00145090  1
  Co  Co109  1  0.75535998  0.74970058  0.24681296  1
  Co  Co110  1  0.62264137  0.37277841  0.37863573  1
  Co  Co111  1  0.24734740  0.00033671  0.50020156  1
  Co  Co112  1  0.87359852  0.87838726  0.12031988  1
  Co  Co113  1  0.87528278  0.37446161  0.62264963  1
  Co  Co114  1  0.87532750  0.37555124  0.12222646  1
  Co  Co115  1  0.12800172  0.12961312  0.87292640  1
  Co  Co116  1  0.62287234  0.37836207  0.12127642  1
  Co  Co117  1  0.62822043  0.12609276  0.87255787  1
  Co  Co118  1  0.87466910  0.87562374  0.37728173  1
  Co  Co119  1  0.12556974  0.37255422  0.11953217  1
  Co  Co120  1  0.50040730  0.50458199  -0.00182573  1
  Co  Co121  1  0.00000207  0.25331557  0.24988881  1
  Co  Co122  1  0.75118703  0.00084729  0.25046545  1
  Co  Co123  1  0.74863644  0.49471685  0.25220363  1
  Co  Co124  1  0.25449633  0.24606944  0.00357270  1
  Co  Co125  1  0.75140137  -0.00307999  0.75024853  1
  Co  Co126  1  0.62659822  0.62613411  0.87332225  1
  Co  Co127  1  0.50400244  -0.00059403  0.49544096  1
