# generated using pymatgen
data_Fe45Co19
_symmetry_space_group_name_H-M   'P 1'
_cell_length_a   11.41567606
_cell_length_b   11.41607974
_cell_length_c   11.41489023
_cell_angle_alpha   90.00352007
_cell_angle_beta   89.99941197
_cell_angle_gamma   90.00336187
_symmetry_Int_Tables_number   1
_chemical_formula_structural   Fe45Co19
_chemical_formula_sum   'Fe90 Co38'
_cell_volume   1487.61437907
_cell_formula_units_Z   2
loop_
 _symmetry_equiv_pos_site_id
 _symmetry_equiv_pos_as_xyz
  1  'x, y, z'
loop_
 _atom_site_type_symbol
 _atom_site_label
 _atom_site_symmetry_multiplicity
 _atom_site_fract_x
 _atom_site_fract_y
 _atom_site_fract_z
 _atom_site_occupancy
  Fe  Fe0  1  0.50152186  0.25196439  0.49813482  1
  Fe  Fe1  1  0.12719672  0.12219211  0.87758953  1
  Fe  Fe2  1  0.12628164  0.37561679  0.62662185  1
  Fe  Fe3  1  0.12647118  0.37296738  0.12659607  1
  Fe  Fe4  1  0.49514962  -0.00240267  0.00109375  1
  Fe  Fe5  1  0.12497942  0.87794419  0.37620789  1
  Fe  Fe6  1  0.74769620  0.75113077  0.25105318  1
  Fe  Fe7  1  0.75193288  -0.00136271  0.50003798  1
  Fe  Fe8  1  0.00083632  0.74837870  0.75030885  1
  Fe  Fe9  1  0.74908825  0.25152681  0.49988822  1
  Fe  Fe10  1  0.12562177  0.62515630  0.12269949  1
  Fe  Fe11  1  0.75432716  0.00010830  0.00336074  1
  Fe  Fe12  1  0.87583351  0.37235238  0.12622525  1
  Fe  Fe13  1  -0.00035445  0.49949834  -0.00044499  1
  Fe  Fe14  1  0.00217155  0.74887814  0.25017234  1
  Fe  Fe15  1  0.49900046  0.25005261  -0.00272748  1
  Fe  Fe16  1  0.37318047  0.37144200  0.12917464  1
  Fe  Fe17  1  0.87464066  0.12482043  0.87530134  1
  Fe  Fe18  1  0.50185734  0.75030936  0.25298263  1
  Fe  Fe19  1  0.87643122  0.87510074  0.87454125  1
  Fe  Fe20  1  0.25318101  0.49744045  0.00012338  1
  Fe  Fe21  1  -0.00172513  0.49739712  0.50234469  1
  Fe  Fe22  1  -0.00065866  0.00089555  0.74952644  1
  Fe  Fe23  1  0.49967770  0.49763158  0.25274016  1
  Fe  Fe24  1  0.87362241  0.62521580  0.37578080  1
  Fe  Fe25  1  0.00043604  0.50042327  0.24865792  1
  Fe  Fe26  1  0.37388235  0.12876929  0.12668014  1
  Fe  Fe27  1  0.12766134  0.62229408  0.37816376  1
  Fe  Fe28  1  0.49917474  0.49752395  -0.00158165  1
  Fe  Fe29  1  0.12428706  0.12642276  0.12334821  1
  Fe  Fe30  1  0.87376749  0.37671255  0.87114114  1
  Fe  Fe31  1  0.74770882  0.24796876  0.75144752  1
  Fe  Fe32  1  0.62329388  0.87866600  0.12983201  1
  Fe  Fe33  1  0.87513746  0.62725484  0.12412831  1
  Fe  Fe34  1  0.62546987  0.87881064  0.87347084  1
  Fe  Fe35  1  0.12290096  0.87509635  0.12222108  1
  Fe  Fe36  1  0.87580174  0.12721063  0.62457639  1
  Fe  Fe37  1  0.62448874  0.12233475  0.37306551  1
  Fe  Fe38  1  0.74793489  0.24985298  -0.00156900  1
  Fe  Fe39  1  0.37643589  0.62702768  0.12538634  1
  Fe  Fe40  1  -0.00267746  -0.00039512  0.50194463  1
  Fe  Fe41  1  0.74816131  0.49954400  -0.00138841  1
  Fe  Fe42  1  0.50044809  0.75232910  0.49969362  1
  Fe  Fe43  1  0.50301052  0.50161106  0.75159601  1
  Fe  Fe44  1  0.37436141  0.87481140  0.37352772  1
  Fe  Fe45  1  0.62510402  0.12275250  0.62535544  1
  Fe  Fe46  1  0.74780173  0.74850256  0.74833567  1
  Fe  Fe47  1  0.00436288  0.25167436  0.49634789  1
  Fe  Fe48  1  0.87615081  0.12643365  0.37386557  1
  Fe  Fe49  1  0.37426866  0.87624482  0.62796818  1
  Fe  Fe50  1  0.50247955  0.75044109  0.74996595  1
  Fe  Fe51  1  0.49926447  0.75413283  -0.00094091  1
  Fe  Fe52  1  0.37220260  0.62415364  0.37612537  1
  Fe  Fe53  1  0.12516601  0.12541836  0.62358791  1
  Fe  Fe54  1  0.37399544  0.37211246  0.62574579  1
  Fe  Fe55  1  0.74828637  0.75118165  0.00137302  1
  Fe  Fe56  1  0.12723379  0.62404379  0.62306059  1
  Fe  Fe57  1  0.87530856  0.37381587  0.37412262  1
  Fe  Fe58  1  0.50220415  0.24658843  0.75269453  1
  Fe  Fe59  1  0.25092212  0.24803474  0.75062050  1
  Fe  Fe60  1  0.37603222  0.62592149  0.87552268  1
  Fe  Fe61  1  0.62365784  0.37454322  0.12480460  1
  Fe  Fe62  1  0.00058483  0.25082711  -0.00167241  1
  Fe  Fe63  1  0.25187981  0.00202469  0.50238190  1
  Fe  Fe64  1  0.87167019  0.62340881  0.62442409  1
  Fe  Fe65  1  0.12477769  0.87504894  0.62397355  1
  Fe  Fe66  1  0.24783979  0.74923234  0.25120425  1
  Fe  Fe67  1  0.12666559  0.62213850  0.87504615  1
  Fe  Fe68  1  0.49846752  0.00009639  0.50051035  1
  Fe  Fe69  1  0.12549351  0.87837688  0.87713396  1
  Fe  Fe70  1  0.62670091  0.62455633  0.37949501  1
  Fe  Fe71  1  -0.00131032  0.75035999  0.50065510  1
  Fe  Fe72  1  0.87475523  0.87411400  0.37414395  1
  Fe  Fe73  1  0.12725267  0.37702858  0.87286624  1
  Fe  Fe74  1  0.74762475  0.24894812  0.24967275  1
  Fe  Fe75  1  0.25221111  0.00094627  0.24752727  1
  Fe  Fe76  1  0.62382000  0.12274903  0.12575800  1
  Fe  Fe77  1  0.00037690  0.25017772  0.75070140  1
  Fe  Fe78  1  0.25173983  0.75291759  -0.00068277  1
  Fe  Fe79  1  0.24948248  0.74980394  0.74982151  1
  Fe  Fe80  1  0.62673383  0.87676032  0.62414342  1
  Fe  Fe81  1  -0.00456984  0.00116321  0.24538238  1
  Fe  Fe82  1  0.74893095  0.49964582  0.25095694  1
  Fe  Fe83  1  0.87427729  0.62416912  0.87524216  1
  Fe  Fe84  1  0.37367006  0.12075975  0.87282732  1
  Fe  Fe85  1  0.62717526  0.37667904  0.62620585  1
  Fe  Fe86  1  0.49960988  0.49616496  0.49817918  1
  Fe  Fe87  1  0.37454357  0.12951134  0.37609810  1
  Fe  Fe88  1  0.62299247  0.62410645  0.12396520  1
  Fe  Fe89  1  0.37517578  0.62513722  0.62364547  1
  Co  Co90  1  0.75175052  0.00186217  0.74888836  1
  Co  Co91  1  0.87529962  0.87457960  0.62720698  1
  Co  Co92  1  0.00412421  0.24995098  0.25340371  1
  Co  Co93  1  0.50253935  0.25027988  0.25106380  1
  Co  Co94  1  0.37548990  0.37477428  0.87181173  1
  Co  Co95  1  0.12714894  0.38156785  0.37370580  1
  Co  Co96  1  0.62661673  0.37405136  0.37389143  1
  Co  Co97  1  0.87563806  0.13201148  0.12544972  1
  Co  Co98  1  0.24797751  0.00164192  0.74615628  1
  Co  Co99  1  -0.00021679  0.50109920  0.74833580  1
  Co  Co100  1  0.25272117  0.49689555  0.50238148  1
  Co  Co101  1  0.62341032  0.62649140  0.87801604  1
  Co  Co102  1  0.75051000  0.75293765  0.50028803  1
  Co  Co103  1  0.74648979  0.50220600  0.75083361  1
  Co  Co104  1  0.25115914  0.50206000  0.24783747  1
  Co  Co105  1  0.00093665  0.74782064  -0.00260422  1
  Co  Co106  1  0.25379377  -0.00146333  0.00389553  1
  Co  Co107  1  0.50088227  0.00110781  0.74816236  1
  Co  Co108  1  -0.00395209  0.00217776  0.00197706  1
  Co  Co109  1  0.37151242  0.37216387  0.37311227  1
  Co  Co110  1  0.75426707  0.00087810  0.24849609  1
  Co  Co111  1  0.25254383  0.50129980  0.74885978  1
  Co  Co112  1  0.87390558  0.37240640  0.62680505  1
  Co  Co113  1  0.62487354  0.87853551  0.37447344  1
  Co  Co114  1  0.25080306  0.75211017  0.50013040  1
  Co  Co115  1  0.62511634  0.62411097  0.61977482  1
  Co  Co116  1  0.37575995  0.12859136  0.62428788  1
  Co  Co117  1  0.37289004  0.87734095  0.87034566  1
  Co  Co118  1  0.25117682  0.25055641  -0.00270130  1
  Co  Co119  1  0.49570164  0.00240714  0.25114752  1
  Co  Co120  1  0.24532133  0.24980702  0.49769338  1
  Co  Co121  1  0.24482425  0.24776828  0.25501547  1
  Co  Co122  1  0.62441147  0.12032399  0.87779469  1
  Co  Co123  1  0.87679652  0.86929693  0.12466645  1
  Co  Co124  1  0.37586717  0.87058352  0.12943896  1
  Co  Co125  1  0.62472014  0.37444767  0.87455418  1
  Co  Co126  1  0.75091998  0.49652706  0.49921640  1
  Co  Co127  1  0.12361061  0.11742088  0.37435129  1
