# generated using pymatgen
data_Fe45Co19
_symmetry_space_group_name_H-M   'P 1'
_cell_length_a   11.41382527
_cell_length_b   11.41467847
_cell_length_c   11.41539915
_cell_angle_alpha   89.99491883
_cell_angle_beta   89.99943551
_cell_angle_gamma   89.98998156
_symmetry_Int_Tables_number   1
_chemical_formula_structural   Fe45Co19
_chemical_formula_sum   'Fe90 Co38'
_cell_volume   1487.25691025
_cell_formula_units_Z   2
loop_
 _symmetry_equiv_pos_site_id
 _symmetry_equiv_pos_as_xyz
  1  'x, y, z'
loop_
 _atom_site_type_symbol
 _atom_site_label
 _atom_site_symmetry_multiplicity
 _atom_site_fract_x
 _atom_site_fract_y
 _atom_site_fract_z
 _atom_site_occupancy
  Fe  Fe0  1  0.24874095  -0.00251539  0.74793426  1
  Fe  Fe1  1  0.12333126  0.87428084  0.87142201  1
  Fe  Fe2  1  0.75337549  0.74993741  0.75106332  1
  Fe  Fe3  1  0.37247536  0.62675098  0.37635337  1
  Fe  Fe4  1  0.00227190  0.24796625  0.25446656  1
  Fe  Fe5  1  0.87659567  0.12424125  0.62226791  1
  Fe  Fe6  1  0.75132674  0.25090253  0.00075739  1
  Fe  Fe7  1  -0.00031146  0.24926522  0.74958101  1
  Fe  Fe8  1  0.24451778  -0.00044508  0.00004046  1
  Fe  Fe9  1  0.62461616  0.87297939  0.87467255  1
  Fe  Fe10  1  0.25085688  0.25099545  0.25285118  1
  Fe  Fe11  1  0.75332865  -0.00381630  0.00267389  1
  Fe  Fe12  1  0.25088094  -0.00462005  0.25150702  1
  Fe  Fe13  1  0.49597957  0.75296138  0.24831943  1
  Fe  Fe14  1  0.24717808  0.24887032  -0.00052466  1
  Fe  Fe15  1  0.75015704  -0.00120221  0.74928416  1
  Fe  Fe16  1  0.37296775  0.12147998  0.87504631  1
  Fe  Fe17  1  0.87868422  0.37957326  0.37565039  1
  Fe  Fe18  1  0.74816766  0.50023950  0.50052763  1
  Fe  Fe19  1  0.75109539  0.24798591  0.25163561  1
  Fe  Fe20  1  0.62582832  0.12475832  0.12587761  1
  Fe  Fe21  1  0.62298625  0.62608475  0.62671899  1
  Fe  Fe22  1  0.75147153  0.24948108  0.75170302  1
  Fe  Fe23  1  0.75114261  0.75131881  0.00154780  1
  Fe  Fe24  1  0.62473149  0.62754597  0.12534716  1
  Fe  Fe25  1  0.87572628  0.62601171  0.12569037  1
  Fe  Fe26  1  0.62550750  0.37778557  0.87478468  1
  Fe  Fe27  1  0.49986507  0.00054323  0.74808404  1
  Fe  Fe28  1  0.62317430  0.37535023  0.62671668  1
  Fe  Fe29  1  0.62444795  0.88005722  0.37063319  1
  Fe  Fe30  1  0.12570494  0.63176784  0.62021436  1
  Fe  Fe31  1  0.62398954  0.87177173  0.62717694  1
  Fe  Fe32  1  0.37355220  0.12518630  0.62326971  1
  Fe  Fe33  1  0.12331378  0.87126146  0.12861913  1
  Fe  Fe34  1  0.62336840  0.37554477  0.37343364  1
  Fe  Fe35  1  0.24807363  0.25185390  0.49639476  1
  Fe  Fe36  1  0.00497733  0.50552460  0.25034238  1
  Fe  Fe37  1  0.50029675  0.75176344  0.49716299  1
  Fe  Fe38  1  0.00473582  0.24797568  -0.00100535  1
  Fe  Fe39  1  0.12106833  0.86798852  0.62409780  1
  Fe  Fe40  1  0.87384316  0.62316295  0.87734577  1
  Fe  Fe41  1  0.74976733  0.50109965  0.74952521  1
  Fe  Fe42  1  0.87699668  0.87254820  0.62212965  1
  Fe  Fe43  1  0.49783944  0.24990404  0.00021131  1
  Fe  Fe44  1  -0.00106138  0.74665693  0.25815500  1
  Fe  Fe45  1  0.12594310  0.62602539  0.87541494  1
  Fe  Fe46  1  0.87749876  0.37584099  0.62284540  1
  Fe  Fe47  1  0.87594875  0.62688630  0.62117135  1
  Fe  Fe48  1  0.37635866  0.87157300  0.62620628  1
  Fe  Fe49  1  0.49747406  0.49961369  0.50210650  1
  Fe  Fe50  1  0.12381762  0.12530553  0.62224808  1
  Fe  Fe51  1  0.62565282  0.12286200  0.87653662  1
  Fe  Fe52  1  0.49981090  -0.00247036  0.00251400  1
  Fe  Fe53  1  0.62434761  0.62378888  0.37284575  1
  Fe  Fe54  1  0.12367288  0.37447515  0.62319761  1
  Fe  Fe55  1  0.24992190  0.24916756  0.75051181  1
  Fe  Fe56  1  0.87689180  0.37791727  0.87757149  1
  Fe  Fe57  1  0.74758144  -0.00083679  0.50000069  1
  Fe  Fe58  1  0.37313066  0.37828533  0.87510083  1
  Fe  Fe59  1  0.24909753  0.50194750  0.24802688  1
  Fe  Fe60  1  0.87789304  0.12106228  0.87693821  1
  Fe  Fe61  1  0.12451415  0.37291528  0.12772792  1
  Fe  Fe62  1  0.37630821  0.11990945  0.37702373  1
  Fe  Fe63  1  0.12490415  0.37706108  0.87301063  1
  Fe  Fe64  1  0.87902236  0.12309029  0.12313955  1
  Fe  Fe65  1  0.62545860  0.12677027  0.62374691  1
  Fe  Fe66  1  0.49726173  0.24833949  0.25023141  1
  Fe  Fe67  1  0.62368948  0.37412092  0.12553033  1
  Fe  Fe68  1  0.74936472  0.49984287  0.24730448  1
  Fe  Fe69  1  0.49439486  0.74516503  0.75643047  1
  Fe  Fe70  1  0.49656341  0.50002202  0.24847251  1
  Fe  Fe71  1  0.37115485  0.12363493  0.12426947  1
  Fe  Fe72  1  -0.00156020  0.75169212  -0.00165818  1
  Fe  Fe73  1  0.62667163  0.87448419  0.12847658  1
  Fe  Fe74  1  0.49858067  0.25009844  0.75120843  1
  Fe  Fe75  1  0.24835734  -0.00587368  0.50041003  1
  Fe  Fe76  1  -0.00006938  -0.00102488  0.74830147  1
  Fe  Fe77  1  0.25127437  0.49843436  0.50145021  1
  Fe  Fe78  1  0.74964991  0.75020400  0.49467287  1
  Fe  Fe79  1  0.00113028  -0.00045571  0.25178434  1
  Fe  Fe80  1  0.49885899  0.25051618  0.49840156  1
  Fe  Fe81  1  0.24511197  0.49946222  0.00405274  1
  Fe  Fe82  1  0.00128668  0.50392492  0.74847982  1
  Fe  Fe83  1  0.87849878  0.37632635  0.12472967  1
  Fe  Fe84  1  0.75044876  0.25081971  0.49751353  1
  Fe  Fe85  1  0.37321287  0.62730001  0.12226386  1
  Fe  Fe86  1  0.87720557  0.12187736  0.37840764  1
  Fe  Fe87  1  0.25163261  0.75311536  -0.00171126  1
  Fe  Fe88  1  0.50167764  0.50240651  -0.00109771  1
  Fe  Fe89  1  0.25277790  0.50409772  0.74563691  1
  Co  Co90  1  0.00275891  0.50405735  0.50034059  1
  Co  Co91  1  0.12478463  0.87213779  0.37396554  1
  Co  Co92  1  0.49684008  0.50317415  0.74960511  1
  Co  Co93  1  0.37449736  0.87882388  0.87516684  1
  Co  Co94  1  0.50106765  -0.00231623  0.50443357  1
  Co  Co95  1  0.87135463  0.61950895  0.37521116  1
  Co  Co96  1  0.37475708  0.37727073  0.37434893  1
  Co  Co97  1  0.87747000  0.87273714  0.13083189  1
  Co  Co98  1  0.25239139  0.74877905  0.75157835  1
  Co  Co99  1  -0.00411694  0.74891101  0.49171842  1
  Co  Co100  1  0.12385615  0.12312616  0.87161323  1
  Co  Co101  1  0.00305268  -0.00379406  0.49920294  1
  Co  Co102  1  0.37422552  0.37569859  0.12337917  1
  Co  Co103  1  0.62832231  0.62683146  0.87476031  1
  Co  Co104  1  0.75032494  0.74810253  0.25268529  1
  Co  Co105  1  0.37487856  0.37268049  0.62569368  1
  Co  Co106  1  0.75188989  0.00483177  0.24863748  1
  Co  Co107  1  0.37486671  0.62987239  0.62048081  1
  Co  Co108  1  0.49932136  0.75099583  -0.00021864  1
  Co  Co109  1  0.25198712  0.75677680  0.49769995  1
  Co  Co110  1  0.00377933  -0.00295819  0.00225209  1
  Co  Co111  1  0.74931785  0.50059065  0.00364431  1
  Co  Co112  1  0.00217599  0.25011388  0.49757278  1
  Co  Co113  1  0.37041924  0.62183401  0.88025254  1
  Co  Co114  1  0.87171662  0.87808076  0.37329358  1
  Co  Co115  1  0.87627686  0.87664131  0.87394397  1
  Co  Co116  1  0.12392949  0.37879268  0.37432049  1
  Co  Co117  1  0.12638150  0.12462988  0.12949119  1
  Co  Co118  1  0.12547230  0.63229245  0.12459748  1
  Co  Co119  1  0.37245180  0.87530915  0.12220215  1
  Co  Co120  1  0.00352892  0.50159405  0.00213393  1
  Co  Co121  1  0.12729870  0.12165724  0.37590906  1
  Co  Co122  1  0.49783572  0.00051735  0.24577579  1
  Co  Co123  1  0.37858504  0.87689345  0.37568805  1
  Co  Co124  1  0.25352909  0.75140021  0.25117906  1
  Co  Co125  1  -0.00155284  0.74692883  0.75176196  1
  Co  Co126  1  0.62221949  0.12269868  0.37502741  1
  Co  Co127  1  0.13209707  0.62627970  0.37866654  1
