# generated using pymatgen
data_Fe45Co19
_symmetry_space_group_name_H-M   'P 1'
_cell_length_a   11.41457436
_cell_length_b   11.41414990
_cell_length_c   11.41537175
_cell_angle_alpha   90.01179522
_cell_angle_beta   89.99772219
_cell_angle_gamma   89.98905075
_symmetry_Int_Tables_number   1
_chemical_formula_structural   Fe45Co19
_chemical_formula_sum   'Fe90 Co38'
_cell_volume   1487.28204586
_cell_formula_units_Z   2
loop_
 _symmetry_equiv_pos_site_id
 _symmetry_equiv_pos_as_xyz
  1  'x, y, z'
loop_
 _atom_site_type_symbol
 _atom_site_label
 _atom_site_symmetry_multiplicity
 _atom_site_fract_x
 _atom_site_fract_y
 _atom_site_fract_z
 _atom_site_occupancy
  Fe  Fe0  1  0.37630687  0.87232639  0.87500843  1
  Fe  Fe1  1  0.25024115  0.24925367  0.00128768  1
  Fe  Fe2  1  0.25316415  0.00002845  0.49569596  1
  Fe  Fe3  1  0.37626681  0.87358239  0.62387934  1
  Fe  Fe4  1  0.62672028  0.62261591  0.62443665  1
  Fe  Fe5  1  0.62408889  0.62324171  0.87627924  1
  Fe  Fe6  1  0.37437041  0.37410548  0.62334779  1
  Fe  Fe7  1  -0.00221828  0.00490340  0.24849329  1
  Fe  Fe8  1  -0.00454003  0.50364177  0.25060767  1
  Fe  Fe9  1  -0.00034183  0.50018158  0.74933381  1
  Fe  Fe10  1  -0.00344307  0.24990832  0.49944506  1
  Fe  Fe11  1  0.49899814  0.50012486  0.49930821  1
  Fe  Fe12  1  0.49917364  0.24946487  0.00202720  1
  Fe  Fe13  1  0.49953064  0.49799162  0.24885435  1
  Fe  Fe14  1  0.37647091  0.62906901  0.37414260  1
  Fe  Fe15  1  0.37604794  0.37259236  0.87502158  1
  Fe  Fe16  1  0.50005157  0.75066659  0.00352423  1
  Fe  Fe17  1  0.25484541  0.00067225  -0.00029537  1
  Fe  Fe18  1  0.75206688  0.49637112  0.49605007  1
  Fe  Fe19  1  0.12732356  0.87661912  0.12606278  1
  Fe  Fe20  1  0.74970532  -0.00059090  0.00024991  1
  Fe  Fe21  1  0.75028605  0.24766398  0.25176885  1
  Fe  Fe22  1  0.75029804  -0.00019772  0.75157110  1
  Fe  Fe23  1  -0.00029651  0.75103973  0.49882331  1
  Fe  Fe24  1  0.62599392  0.62665396  0.37453096  1
  Fe  Fe25  1  0.62618635  0.37548715  0.12463277  1
  Fe  Fe26  1  0.12482184  0.37319423  0.87463724  1
  Fe  Fe27  1  0.12387125  0.62509808  0.37521852  1
  Fe  Fe28  1  0.12629765  0.12549295  0.87581466  1
  Fe  Fe29  1  0.25182776  0.49826052  0.25196993  1
  Fe  Fe30  1  0.62335243  0.12317659  0.12546377  1
  Fe  Fe31  1  -0.00059840  0.75079405  0.75106332  1
  Fe  Fe32  1  0.00058263  0.75091647  0.00072940  1
  Fe  Fe33  1  0.62560134  0.12390834  0.37569873  1
  Fe  Fe34  1  0.25008779  0.50164525  0.75209747  1
  Fe  Fe35  1  0.62802973  0.62172933  0.12445279  1
  Fe  Fe36  1  0.12241366  0.37347222  0.37347781  1
  Fe  Fe37  1  0.74978452  0.75095769  0.75127426  1
  Fe  Fe38  1  0.87594292  0.12602792  0.87603317  1
  Fe  Fe39  1  0.62239725  0.87654119  0.87513396  1
  Fe  Fe40  1  0.12620829  0.37379289  0.12696732  1
  Fe  Fe41  1  0.87493952  0.37351864  0.12729511  1
  Fe  Fe42  1  0.25111610  0.24964250  0.49574742  1
  Fe  Fe43  1  0.75130476  0.74817840  0.24767085  1
  Fe  Fe44  1  0.37509835  0.62645034  0.62498280  1
  Fe  Fe45  1  -0.00223285  0.49964821  0.49889846  1
  Fe  Fe46  1  0.50159531  0.49790559  0.75009359  1
  Fe  Fe47  1  0.12484664  0.87681396  0.37376990  1
  Fe  Fe48  1  0.74611782  0.25308367  0.75096113  1
  Fe  Fe49  1  0.75242314  0.49662071  -0.00205259  1
  Fe  Fe50  1  0.25053258  0.50234901  -0.00253705  1
  Fe  Fe51  1  0.12532763  0.62592046  0.62563899  1
  Fe  Fe52  1  -0.00025465  0.00232252  0.00030659  1
  Fe  Fe53  1  0.25218264  0.00351752  0.25492401  1
  Fe  Fe54  1  0.50169465  -0.00497665  0.49524242  1
  Fe  Fe55  1  0.25118493  0.00177328  0.75033672  1
  Fe  Fe56  1  0.37423161  0.87276548  0.13016144  1
  Fe  Fe57  1  -0.00097803  0.00096231  0.50091440  1
  Fe  Fe58  1  0.62275730  0.37326348  0.37624943  1
  Fe  Fe59  1  0.49762956  0.49925113  0.00127007  1
  Fe  Fe60  1  0.37580773  0.12709702  0.12949919  1
  Fe  Fe61  1  0.50110261  0.74848233  0.74834532  1
  Fe  Fe62  1  0.25026597  0.49971305  0.49752270  1
  Fe  Fe63  1  0.24909861  0.75063577  0.49925798  1
  Fe  Fe64  1  0.12688478  0.12502745  0.62304904  1
  Fe  Fe65  1  0.00128968  0.24868274  0.74930498  1
  Fe  Fe66  1  0.87228377  0.62464668  0.62321832  1
  Fe  Fe67  1  0.87505144  0.87632724  0.12451803  1
  Fe  Fe68  1  0.37557505  0.12538939  0.62266945  1
  Fe  Fe69  1  0.87509841  0.87735713  0.62732521  1
  Fe  Fe70  1  0.87167742  0.37532854  0.62684430  1
  Fe  Fe71  1  0.50157058  0.25125785  0.74738772  1
  Fe  Fe72  1  0.62201193  0.12406396  0.87744572  1
  Fe  Fe73  1  0.37320983  0.62621738  0.12588845  1
  Fe  Fe74  1  0.87175962  0.12427813  0.62377079  1
  Fe  Fe75  1  0.49818192  0.00227854  0.75151058  1
  Fe  Fe76  1  0.12706797  0.37423691  0.62393904  1
  Fe  Fe77  1  0.87536231  0.62442006  0.87642849  1
  Fe  Fe78  1  0.12612984  0.87541537  0.87417635  1
  Fe  Fe79  1  0.12568270  0.87616827  0.62642940  1
  Fe  Fe80  1  0.62603501  0.12359163  0.62221442  1
  Fe  Fe81  1  0.12548181  0.62514200  0.12419557  1
  Fe  Fe82  1  0.74598886  0.75598617  0.50143363  1
  Fe  Fe83  1  0.75056914  0.25154366  -0.00169354  1
  Fe  Fe84  1  -0.00086420  0.49795664  -0.00000783  1
  Fe  Fe85  1  -0.00020125  0.24318571  0.24806976  1
  Fe  Fe86  1  -0.00165951  0.74834528  0.24965376  1
  Fe  Fe87  1  0.62376684  0.87811380  0.12789515  1
  Fe  Fe88  1  0.74970082  0.75191006  -0.00028571  1
  Fe  Fe89  1  0.87253038  0.87758636  0.37378546  1
  Co  Co90  1  0.50341318  0.74688119  0.24733118  1
  Co  Co91  1  0.12922087  0.12346625  0.12392529  1
  Co  Co92  1  0.37299988  0.37370643  0.12479739  1
  Co  Co93  1  0.25015322  0.74996137  0.74994364  1
  Co  Co94  1  0.25012296  0.24878882  0.74908847  1
  Co  Co95  1  0.24897312  0.24921775  0.25315810  1
  Co  Co96  1  0.87568529  0.87684390  0.87540637  1
  Co  Co97  1  0.50169573  0.24985125  0.50329915  1
  Co  Co98  1  0.75028871  0.49902667  0.25249922  1
  Co  Co99  1  0.87304813  0.62393466  0.12206815  1
  Co  Co100  1  0.37664504  0.12834392  0.87462688  1
  Co  Co101  1  0.50235770  0.25237082  0.24820397  1
  Co  Co102  1  0.38050702  0.12940638  0.37466622  1
  Co  Co103  1  0.87194472  0.12170646  0.37840146  1
  Co  Co104  1  0.49894506  -0.00006977  0.25237692  1
  Co  Co105  1  0.62632415  0.87445129  0.36839537  1
  Co  Co106  1  0.12257595  0.62634839  0.87483311  1
  Co  Co107  1  0.74881458  0.49828297  0.75307844  1
  Co  Co108  1  0.62131669  0.37506508  0.87788097  1
  Co  Co109  1  0.00128019  0.25004545  0.00202192  1
  Co  Co110  1  0.87198143  0.62816353  0.37784505  1
  Co  Co111  1  0.37790106  0.62673197  0.87493361  1
  Co  Co112  1  0.62635900  0.37731430  0.62177715  1
  Co  Co113  1  0.24986217  0.74940133  0.00008317  1
  Co  Co114  1  0.87731527  0.37310214  0.87330894  1
  Co  Co115  1  0.37610349  0.86906473  0.37270147  1
  Co  Co116  1  0.37766165  0.37251401  0.37545628  1
  Co  Co117  1  0.50390605  0.75215275  0.50077742  1
  Co  Co118  1  0.74662254  -0.00481096  0.50131270  1
  Co  Co119  1  0.75145192  0.00265813  0.24739749  1
  Co  Co120  1  0.87267910  0.12558112  0.12094964  1
  Co  Co121  1  0.62222640  0.87786337  0.63063709  1
  Co  Co122  1  0.00104163  0.00295091  0.74983321  1
  Co  Co123  1  0.12292256  0.12509726  0.37696563  1
  Co  Co124  1  0.49663062  -0.00039678  0.00256599  1
  Co  Co125  1  0.24592082  0.74832384  0.25054458  1
  Co  Co126  1  0.75105290  0.25239761  0.49834725  1
  Co  Co127  1  0.87815428  0.37244102  0.37077592  1
