# generated using pymatgen
data_Fe45Co19
_symmetry_space_group_name_H-M   'P 1'
_cell_length_a   11.41453540
_cell_length_b   11.41428347
_cell_length_c   11.41490427
_cell_angle_alpha   89.99358001
_cell_angle_beta   90.01661007
_cell_angle_gamma   89.99577128
_symmetry_Int_Tables_number   1
_chemical_formula_structural   Fe45Co19
_chemical_formula_sum   'Fe90 Co38'
_cell_volume   1487.23345042
_cell_formula_units_Z   2
loop_
 _symmetry_equiv_pos_site_id
 _symmetry_equiv_pos_as_xyz
  1  'x, y, z'
loop_
 _atom_site_type_symbol
 _atom_site_label
 _atom_site_symmetry_multiplicity
 _atom_site_fract_x
 _atom_site_fract_y
 _atom_site_fract_z
 _atom_site_occupancy
  Fe  Fe0  1  0.87670220  0.86912725  0.62600417  1
  Fe  Fe1  1  0.49995619  0.75050449  0.25130055  1
  Fe  Fe2  1  0.62222136  0.37513131  0.37580998  1
  Fe  Fe3  1  0.50360138  -0.00061773  0.24985620  1
  Fe  Fe4  1  0.00534077  0.24786187  0.25001571  1
  Fe  Fe5  1  0.25056865  0.75083343  -0.00059263  1
  Fe  Fe6  1  -0.00229021  0.24899825  0.00111519  1
  Fe  Fe7  1  0.12222657  0.88086733  0.37846678  1
  Fe  Fe8  1  0.24977914  0.75116390  0.49726520  1
  Fe  Fe9  1  0.37455148  0.62478389  0.62588277  1
  Fe  Fe10  1  0.12321399  0.37364246  0.87598363  1
  Fe  Fe11  1  0.12433425  0.62432635  0.87627342  1
  Fe  Fe12  1  0.87689805  0.87757895  0.37219833  1
  Fe  Fe13  1  0.75168613  0.00218168  0.49796678  1
  Fe  Fe14  1  0.37357736  0.62176642  0.37566061  1
  Fe  Fe15  1  0.50174986  0.75220710  0.75132396  1
  Fe  Fe16  1  0.37549214  0.37393570  0.62490437  1
  Fe  Fe17  1  0.49820460  0.74982559  0.49798110  1
  Fe  Fe18  1  0.12816951  0.37726099  0.37286005  1
  Fe  Fe19  1  -0.00439941  0.00109664  0.00535248  1
  Fe  Fe20  1  0.37434686  0.87623678  0.12695393  1
  Fe  Fe21  1  0.37562429  0.62448948  0.87339393  1
  Fe  Fe22  1  0.25449785  0.24758961  0.00142539  1
  Fe  Fe23  1  0.25092588  -0.00055910  0.74969413  1
  Fe  Fe24  1  0.25221921  0.00026694  0.00046483  1
  Fe  Fe25  1  -0.00043022  0.00063648  0.74802511  1
  Fe  Fe26  1  0.37526591  0.87444530  0.62524796  1
  Fe  Fe27  1  0.75290670  0.74720632  0.49834664  1
  Fe  Fe28  1  0.37468952  0.12494417  0.37373251  1
  Fe  Fe29  1  0.62596372  0.62318224  0.37360381  1
  Fe  Fe30  1  0.49938355  0.49954648  0.50165494  1
  Fe  Fe31  1  0.49775286  0.49852159  0.24751502  1
  Fe  Fe32  1  0.24981960  0.25067429  0.49837247  1
  Fe  Fe33  1  0.49627898  0.25229317  0.24777709  1
  Fe  Fe34  1  0.12604143  0.12312319  0.62177898  1
  Fe  Fe35  1  0.87508057  0.62658325  0.12722094  1
  Fe  Fe36  1  0.62454913  0.62220445  0.87532819  1
  Fe  Fe37  1  0.62316214  0.37758944  0.88018107  1
  Fe  Fe38  1  0.12529148  0.62044552  0.37288121  1
  Fe  Fe39  1  0.87280774  0.37064598  0.12477570  1
  Fe  Fe40  1  0.62745639  0.37457579  0.62402324  1
  Fe  Fe41  1  0.12360514  0.12415131  0.87733533  1
  Fe  Fe42  1  -0.00111813  0.24811620  0.49898202  1
  Fe  Fe43  1  0.25017199  0.50108166  0.00124637  1
  Fe  Fe44  1  -0.00218349  0.50090157  0.75183720  1
  Fe  Fe45  1  0.87675943  0.37577815  0.37289017  1
  Fe  Fe46  1  0.75319829  0.00194819  0.00462527  1
  Fe  Fe47  1  0.87205384  0.12819448  0.62697006  1
  Fe  Fe48  1  0.12203075  0.37491432  0.62479943  1
  Fe  Fe49  1  0.62466917  0.87620213  0.37721201  1
  Fe  Fe50  1  0.75278300  0.50080548  0.75223222  1
  Fe  Fe51  1  -0.00248207  0.49953041  0.00167307  1
  Fe  Fe52  1  0.74960803  0.24884523  0.49532664  1
  Fe  Fe53  1  0.00215283  0.75059570  0.25130200  1
  Fe  Fe54  1  0.49836756  0.00265792  0.50161984  1
  Fe  Fe55  1  0.62450311  0.37417494  0.12015690  1
  Fe  Fe56  1  0.12497431  0.87527029  0.12347393  1
  Fe  Fe57  1  0.62503746  0.87324538  0.12420631  1
  Fe  Fe58  1  0.74835834  0.75203290  0.25096039  1
  Fe  Fe59  1  0.74915408  0.49723884  0.24789449  1
  Fe  Fe60  1  0.75319501  0.50139330  0.49958753  1
  Fe  Fe61  1  0.37393267  0.62585373  0.12562646  1
  Fe  Fe62  1  0.74936692  -0.00138237  0.74955301  1
  Fe  Fe63  1  0.24852999  0.75272232  0.75178591  1
  Fe  Fe64  1  0.00098155  0.75024913  -0.00025744  1
  Fe  Fe65  1  0.12969099  0.37406888  0.12561618  1
  Fe  Fe66  1  0.87553668  0.12674950  0.87403065  1
  Fe  Fe67  1  0.25006904  0.49831721  0.74915617  1
  Fe  Fe68  1  0.87434746  0.87207781  0.87440399  1
  Fe  Fe69  1  0.49973927  0.74889156  0.00013151  1
  Fe  Fe70  1  0.62845530  0.12835792  0.12678840  1
  Fe  Fe71  1  0.50091497  0.24797703  0.50077442  1
  Fe  Fe72  1  0.12302015  0.62661827  0.62428154  1
  Fe  Fe73  1  0.74732281  0.25072482  0.75485714  1
  Fe  Fe74  1  0.24563820  0.00361680  0.24986232  1
  Fe  Fe75  1  -0.00255842  0.50289697  0.49918999  1
  Fe  Fe76  1  0.37764640  0.12307180  0.87286499  1
  Fe  Fe77  1  0.74869297  0.74789160  0.00035440  1
  Fe  Fe78  1  0.62445468  0.87821572  0.87602864  1
  Fe  Fe79  1  0.49992739  0.00192573  0.00199313  1
  Fe  Fe80  1  0.87484786  0.12342252  0.36768977  1
  Fe  Fe81  1  0.24797366  0.25032260  0.75098118  1
  Fe  Fe82  1  0.37827821  0.37601045  0.87750988  1
  Fe  Fe83  1  0.24862822  0.75061761  0.25142686  1
  Fe  Fe84  1  0.12233849  0.87579223  0.62098798  1
  Fe  Fe85  1  0.62573845  0.62443406  0.62537334  1
  Fe  Fe86  1  0.62544935  0.87616299  0.62297849  1
  Fe  Fe87  1  0.12430926  0.87771450  0.87672412  1
  Fe  Fe88  1  0.87527899  0.37310179  0.62678848  1
  Fe  Fe89  1  0.50369735  0.24832574  0.75076390  1
  Co  Co90  1  0.25509443  -0.00069098  0.50014246  1
  Co  Co91  1  -0.00038230  0.49738030  0.24635711  1
  Co  Co92  1  0.37514310  0.87819120  0.37196972  1
  Co  Co93  1  0.00305739  0.24707615  0.74912327  1
  Co  Co94  1  0.25064439  0.24756062  0.24999889  1
  Co  Co95  1  0.74521574  0.75033944  0.75112673  1
  Co  Co96  1  0.37721146  0.87648105  0.87621343  1
  Co  Co97  1  -0.00122137  0.74745351  0.49489429  1
  Co  Co98  1  0.24902460  0.49925219  0.50300333  1
  Co  Co99  1  0.62404567  0.12515326  0.37285670  1
  Co  Co100  1  0.50006990  0.49823146  0.74836309  1
  Co  Co101  1  0.74790242  -0.00335227  0.24775911  1
  Co  Co102  1  0.37318399  0.37586645  0.37676005  1
  Co  Co103  1  0.62646296  0.62508367  0.12782689  1
  Co  Co104  1  0.62522103  0.12049900  0.87555381  1
  Co  Co105  1  0.37507143  0.12090675  0.12751214  1
  Co  Co106  1  0.62824800  0.12505897  0.62471447  1
  Co  Co107  1  0.12416486  0.12205152  0.37943231  1
  Co  Co108  1  0.87377111  0.62305508  0.36909774  1
  Co  Co109  1  0.49906432  0.24565586  0.00089135  1
  Co  Co110  1  0.87579729  0.62862177  0.87505186  1
  Co  Co111  1  0.75002547  0.24839779  -0.00393958  1
  Co  Co112  1  0.49970382  0.50383042  0.00322826  1
  Co  Co113  1  0.50011873  0.00015198  0.74669470  1
  Co  Co114  1  0.75346194  0.50077062  0.00042795  1
  Co  Co115  1  0.87623300  0.62862499  0.62855995  1
  Co  Co116  1  0.87547896  0.87075098  0.12690002  1
  Co  Co117  1  0.25295965  0.49955053  0.24705258  1
  Co  Co118  1  0.87144959  0.13007417  0.13102390  1
  Co  Co119  1  0.00247085  0.00193381  0.24440073  1
  Co  Co120  1  0.00459574  0.75152832  0.75278609  1
  Co  Co121  1  0.87743373  0.37248422  0.87380401  1
  Co  Co122  1  0.74671131  0.25426486  0.25324458  1
  Co  Co123  1  -0.00635083  0.00265492  0.50269671  1
  Co  Co124  1  0.12539921  0.12662230  0.12047940  1
  Co  Co125  1  0.37383666  0.37617221  0.12138798  1
  Co  Co126  1  0.12404924  0.62529755  0.12540697  1
  Co  Co127  1  0.37332738  0.12807079  0.62657470  1
