# generated using pymatgen
data_Fe45Co19
_symmetry_space_group_name_H-M   'P 1'
_cell_length_a   11.41485661
_cell_length_b   11.41453672
_cell_length_c   11.41375331
_cell_angle_alpha   90.00080186
_cell_angle_beta   89.99299220
_cell_angle_gamma   89.99849797
_symmetry_Int_Tables_number   1
_chemical_formula_structural   Fe45Co19
_chemical_formula_sum   'Fe90 Co38'
_cell_volume   1487.15839841
_cell_formula_units_Z   2
loop_
 _symmetry_equiv_pos_site_id
 _symmetry_equiv_pos_as_xyz
  1  'x, y, z'
loop_
 _atom_site_type_symbol
 _atom_site_label
 _atom_site_symmetry_multiplicity
 _atom_site_fract_x
 _atom_site_fract_y
 _atom_site_fract_z
 _atom_site_occupancy
  Fe  Fe0  1  0.62111623  0.62398669  0.62233823  1
  Fe  Fe1  1  0.12497037  0.37191309  0.12617445  1
  Fe  Fe2  1  0.49849820  0.25021867  0.25011999  1
  Fe  Fe3  1  0.74976219  0.50123044  0.74779046  1
  Fe  Fe4  1  0.62486347  0.62880307  0.12486298  1
  Fe  Fe5  1  0.25458835  0.75197905  0.49903922  1
  Fe  Fe6  1  0.87860833  0.62315139  0.87775231  1
  Fe  Fe7  1  0.62512228  0.87448977  0.62572681  1
  Fe  Fe8  1  0.49999395  -0.00118571  0.49839590  1
  Fe  Fe9  1  0.87737743  0.37813716  0.87397096  1
  Fe  Fe10  1  0.00148042  -0.00085702  0.49864083  1
  Fe  Fe11  1  0.37478629  0.87595244  0.62649421  1
  Fe  Fe12  1  0.24626187  0.50519511  0.74728441  1
  Fe  Fe13  1  0.75104183  0.24980633  0.49990066  1
  Fe  Fe14  1  -0.00013809  0.75400337  0.49776051  1
  Fe  Fe15  1  0.00097097  0.50181683  0.24808581  1
  Fe  Fe16  1  0.62436273  0.12661327  0.87769802  1
  Fe  Fe17  1  0.37436617  0.87636190  0.12537887  1
  Fe  Fe18  1  0.12986590  0.87583562  0.37385066  1
  Fe  Fe19  1  0.37628644  0.12162293  0.87868647  1
  Fe  Fe20  1  -0.00031923  0.75161509  0.25148186  1
  Fe  Fe21  1  0.12316699  0.37303629  0.62657852  1
  Fe  Fe22  1  0.24952341  0.25036822  0.49925119  1
  Fe  Fe23  1  0.12357717  0.37683720  0.87474298  1
  Fe  Fe24  1  0.62613519  0.87409797  0.37393464  1
  Fe  Fe25  1  0.62757967  0.37536820  0.37467916  1
  Fe  Fe26  1  0.87410445  0.37606341  0.37333161  1
  Fe  Fe27  1  0.87465031  0.12212970  0.87825084  1
  Fe  Fe28  1  0.75036323  0.75048199  0.49847395  1
  Fe  Fe29  1  0.00160168  0.00089988  0.74958574  1
  Fe  Fe30  1  0.87554472  0.87522893  0.62656164  1
  Fe  Fe31  1  0.00041901  0.49769771  0.50042252  1
  Fe  Fe32  1  0.49907005  0.25267329  0.75043394  1
  Fe  Fe33  1  0.24911133  0.00389114  0.24483237  1
  Fe  Fe34  1  0.87533702  0.62785337  0.12281868  1
  Fe  Fe35  1  0.37258138  0.37782115  0.87253143  1
  Fe  Fe36  1  -0.00384775  0.25138051  0.00199659  1
  Fe  Fe37  1  0.74927303  0.74778487  0.75045219  1
  Fe  Fe38  1  0.37891685  0.62305167  0.62237166  1
  Fe  Fe39  1  0.74643044  -0.00311606  0.00135538  1
  Fe  Fe40  1  0.49576072  0.74984085  0.25439189  1
  Fe  Fe41  1  0.37551804  0.12539404  0.62461982  1
  Fe  Fe42  1  0.00404164  0.74655730  0.75061580  1
  Fe  Fe43  1  0.62436495  0.12594001  0.62480601  1
  Fe  Fe44  1  0.12326919  0.12619505  0.62400706  1
  Fe  Fe45  1  0.25278008  0.24846519  0.00180579  1
  Fe  Fe46  1  0.87601926  0.62427469  0.37669901  1
  Fe  Fe47  1  0.37460033  0.12342186  0.37505841  1
  Fe  Fe48  1  0.74695598  0.00138919  0.24904075  1
  Fe  Fe49  1  0.12722628  0.87294589  0.87292638  1
  Fe  Fe50  1  0.37529248  0.62572683  0.12452082  1
  Fe  Fe51  1  0.62205399  0.62401393  0.37906337  1
  Fe  Fe52  1  0.87682250  0.62564929  0.62313010  1
  Fe  Fe53  1  0.50233321  0.00039298  0.24849343  1
  Fe  Fe54  1  0.50101639  0.75273577  -0.00081683  1
  Fe  Fe55  1  0.87699193  0.12481758  0.62446501  1
  Fe  Fe56  1  0.50038838  0.50084307  0.25024358  1
  Fe  Fe57  1  0.87072144  0.87204052  0.12689346  1
  Fe  Fe58  1  0.00114548  -0.00106350  0.24813917  1
  Fe  Fe59  1  0.75052797  0.24879979  0.24649118  1
  Fe  Fe60  1  0.24931898  0.75120409  0.00035614  1
  Fe  Fe61  1  0.12378599  0.12457328  0.87901828  1
  Fe  Fe62  1  0.87689436  0.37388285  0.62634127  1
  Fe  Fe63  1  0.24878621  0.24732813  0.75155350  1
  Fe  Fe64  1  0.49963049  0.25368797  0.50101321  1
  Fe  Fe65  1  0.74975284  0.49881177  0.00308193  1
  Fe  Fe66  1  0.74974384  -0.00013909  0.49996999  1
  Fe  Fe67  1  0.12413801  0.62909800  0.12312088  1
  Fe  Fe68  1  0.37523668  0.62550688  0.87353969  1
  Fe  Fe69  1  0.37562256  0.37520127  0.12604407  1
  Fe  Fe70  1  0.87432144  0.87490495  0.87281680  1
  Fe  Fe71  1  0.00292926  -0.00438943  0.00409608  1
  Fe  Fe72  1  0.24864996  0.50036412  0.00217748  1
  Fe  Fe73  1  0.74924111  0.50284145  0.24899955  1
  Fe  Fe74  1  0.62219821  0.12908450  0.12037881  1
  Fe  Fe75  1  0.62256243  0.62385022  0.87444261  1
  Fe  Fe76  1  0.87422125  0.12318102  0.37422272  1
  Fe  Fe77  1  0.75221593  0.24778662  0.75162001  1
  Fe  Fe78  1  0.12788803  0.62573326  0.37708026  1
  Fe  Fe79  1  -0.00252227  0.24808011  0.24893553  1
  Fe  Fe80  1  0.50130927  0.00003772  0.75108241  1
  Fe  Fe81  1  0.62536653  0.37455539  0.87604341  1
  Fe  Fe82  1  0.49944735  0.49858267  0.00012393  1
  Fe  Fe83  1  0.24917415  0.50206615  0.24933723  1
  Fe  Fe84  1  0.24828564  0.00101564  0.74891643  1
  Fe  Fe85  1  0.37320313  0.87521890  0.87351946  1
  Fe  Fe86  1  0.12616250  0.12582136  0.37360274  1
  Fe  Fe87  1  0.62551677  0.87403296  0.87194790  1
  Fe  Fe88  1  0.12548931  0.37417205  0.37321990  1
  Fe  Fe89  1  0.37249268  0.37769256  0.37500866  1
  Co  Co90  1  0.49545765  0.25379690  -0.00218611  1
  Co  Co91  1  0.50336393  -0.00500789  0.00045197  1
  Co  Co92  1  -0.00108533  0.24725834  0.75319881  1
  Co  Co93  1  0.00330381  0.50373161  0.74759550  1
  Co  Co94  1  0.24756338  -0.00042805  0.00224180  1
  Co  Co95  1  0.49670720  0.75437828  0.49669400  1
  Co  Co96  1  0.50046561  0.75008937  0.74999182  1
  Co  Co97  1  0.62338963  0.37375862  0.12495637  1
  Co  Co98  1  0.87492513  0.37745807  0.12808634  1
  Co  Co99  1  -0.00028034  0.75384705  -0.00057392  1
  Co  Co100  1  0.37838139  0.12357524  0.12265474  1
  Co  Co101  1  0.62865641  0.37404752  0.62631917  1
  Co  Co102  1  0.87401861  0.12099514  0.12369988  1
  Co  Co103  1  0.25338984  0.24872061  0.24947823  1
  Co  Co104  1  0.37137587  0.88094599  0.37172858  1
  Co  Co105  1  0.25333884  0.74689642  0.25120088  1
  Co  Co106  1  0.00157721  0.49832706  0.00356627  1
  Co  Co107  1  0.24940578  0.00151303  0.50213757  1
  Co  Co108  1  0.62448321  0.12644947  0.37597222  1
  Co  Co109  1  0.75392559  0.25276896  0.00074724  1
  Co  Co110  1  -0.00020700  0.24983200  0.49681794  1
  Co  Co111  1  0.62703755  0.86922187  0.12869549  1
  Co  Co112  1  0.24973801  0.74620972  0.74710949  1
  Co  Co113  1  0.50067882  0.49301220  0.50155072  1
  Co  Co114  1  0.74950828  0.00187225  0.74986228  1
  Co  Co115  1  0.12519959  0.87420225  0.62494550  1
  Co  Co116  1  0.12393783  0.12873712  0.12409051  1
  Co  Co117  1  0.12407393  0.62770875  0.61856306  1
  Co  Co118  1  0.74922618  0.75002619  -0.00407603  1
  Co  Co119  1  0.37491808  0.61978550  0.37862257  1
  Co  Co120  1  0.12756840  0.87123305  0.12794226  1
  Co  Co121  1  0.12513332  0.62519993  0.87937800  1
  Co  Co122  1  0.37093234  0.37496060  0.62795287  1
  Co  Co123  1  0.75125927  0.50003387  0.50084671  1
  Co  Co124  1  0.87272655  0.87744374  0.37343463  1
  Co  Co125  1  0.24831736  0.49756076  0.50164730  1
  Co  Co126  1  0.50032706  0.49739442  0.74921099  1
  Co  Co127  1  0.75096393  0.74603739  0.25520059  1
