# generated using pymatgen
data_Fe45Co19
_symmetry_space_group_name_H-M   'P 1'
_cell_length_a   11.41461751
_cell_length_b   11.41603244
_cell_length_c   11.41487642
_cell_angle_alpha   89.99750506
_cell_angle_beta   89.99409348
_cell_angle_gamma   89.99567176
_symmetry_Int_Tables_number   1
_chemical_formula_structural   Fe45Co19
_chemical_formula_sum   'Fe90 Co38'
_cell_volume   1487.46846658
_cell_formula_units_Z   2
loop_
 _symmetry_equiv_pos_site_id
 _symmetry_equiv_pos_as_xyz
  1  'x, y, z'
loop_
 _atom_site_type_symbol
 _atom_site_label
 _atom_site_symmetry_multiplicity
 _atom_site_fract_x
 _atom_site_fract_y
 _atom_site_fract_z
 _atom_site_occupancy
  Fe  Fe0  1  0.37311647  0.62559495  0.12910400  1
  Fe  Fe1  1  0.24928479  0.25021857  0.25210935  1
  Fe  Fe2  1  0.75479722  0.24849558  -0.00290179  1
  Fe  Fe3  1  0.75472431  0.74833081  0.50456894  1
  Fe  Fe4  1  0.12364422  0.37390034  0.12694005  1
  Fe  Fe5  1  0.24932784  0.75005008  -0.00157338  1
  Fe  Fe6  1  0.49921669  0.24708154  0.50275627  1
  Fe  Fe7  1  -0.00180727  0.50211902  0.25051538  1
  Fe  Fe8  1  0.24628407  0.49852532  0.74880492  1
  Fe  Fe9  1  0.25098620  0.24842878  -0.00017374  1
  Fe  Fe10  1  -0.00326831  0.24801382  -0.00002346  1
  Fe  Fe11  1  0.75275190  0.25089763  0.25282675  1
  Fe  Fe12  1  0.25334064  0.75140446  0.49778155  1
  Fe  Fe13  1  0.75066357  -0.00223844  0.25114395  1
  Fe  Fe14  1  0.87524855  0.87470820  0.12363710  1
  Fe  Fe15  1  0.50396601  0.00042504  0.74681621  1
  Fe  Fe16  1  0.50092791  0.24959203  0.25043924  1
  Fe  Fe17  1  0.12102287  0.87459040  0.37920151  1
  Fe  Fe18  1  0.37842956  0.87527514  0.37365576  1
  Fe  Fe19  1  0.50019702  0.00321219  0.00028962  1
  Fe  Fe20  1  0.87639089  0.12181239  0.37294382  1
  Fe  Fe21  1  0.62589448  0.37357029  0.12281265  1
  Fe  Fe22  1  0.62645974  0.13039763  0.87040675  1
  Fe  Fe23  1  0.25034180  0.00232417  0.00090070  1
  Fe  Fe24  1  -0.00651610  0.74665090  0.50295318  1
  Fe  Fe25  1  0.50325816  0.49505548  0.74759429  1
  Fe  Fe26  1  0.87482570  0.37932890  0.62118057  1
  Fe  Fe27  1  -0.00066209  0.74782761  -0.00432165  1
  Fe  Fe28  1  0.62786829  0.12573767  0.12481946  1
  Fe  Fe29  1  0.50035600  0.50162363  -0.00029994  1
  Fe  Fe30  1  0.12373843  0.62724772  0.37499317  1
  Fe  Fe31  1  0.37173688  0.37381343  0.62419938  1
  Fe  Fe32  1  0.62711498  0.87386724  0.12366366  1
  Fe  Fe33  1  -0.00204660  0.24839885  0.50018633  1
  Fe  Fe34  1  0.62515311  0.87160415  0.37861822  1
  Fe  Fe35  1  0.12212559  0.37419223  0.37515879  1
  Fe  Fe36  1  0.37501940  0.62464876  0.37174075  1
  Fe  Fe37  1  0.50187495  0.50239409  0.50241954  1
  Fe  Fe38  1  0.12314662  0.12604182  0.87347573  1
  Fe  Fe39  1  -0.00033422  0.25002852  0.74726605  1
  Fe  Fe40  1  0.37574962  0.12551066  0.87136675  1
  Fe  Fe41  1  0.24368228  0.75161284  0.75233874  1
  Fe  Fe42  1  0.37330111  0.62477255  0.62645925  1
  Fe  Fe43  1  0.37399569  0.87498883  0.62480549  1
  Fe  Fe44  1  0.00572367  0.50135551  0.74535071  1
  Fe  Fe45  1  0.87043623  0.12186307  0.63158580  1
  Fe  Fe46  1  0.62821678  0.62660988  0.12496047  1
  Fe  Fe47  1  0.88021813  0.87846186  0.86868224  1
  Fe  Fe48  1  0.87676428  0.37699205  0.87310743  1
  Fe  Fe49  1  0.75118278  0.50086467  -0.00111659  1
  Fe  Fe50  1  0.00103135  0.00324783  0.50503957  1
  Fe  Fe51  1  0.62793416  0.37439157  0.37977853  1
  Fe  Fe52  1  -0.00102826  -0.00220600  0.24999261  1
  Fe  Fe53  1  0.75254184  0.00224001  -0.00422523  1
  Fe  Fe54  1  0.75586303  0.74956749  0.25200792  1
  Fe  Fe55  1  0.12433639  0.37433619  0.87492623  1
  Fe  Fe56  1  0.24783129  -0.00196733  0.25243114  1
  Fe  Fe57  1  0.50277708  0.00012888  0.24983811  1
  Fe  Fe58  1  0.50281133  0.49950986  0.25082149  1
  Fe  Fe59  1  0.62637213  0.62722706  0.37615742  1
  Fe  Fe60  1  0.87623576  0.62291715  0.86946376  1
  Fe  Fe61  1  0.75347329  0.74974352  -0.00410726  1
  Fe  Fe62  1  0.37543548  0.37375196  0.12586636  1
  Fe  Fe63  1  0.62537635  0.62488703  0.87210011  1
  Fe  Fe64  1  0.24659223  0.49977715  0.49955102  1
  Fe  Fe65  1  0.24761651  0.24874271  0.49790174  1
  Fe  Fe66  1  0.74511760  0.49536785  0.74682229  1
  Fe  Fe67  1  -0.00289184  0.00412619  -0.00059233  1
  Fe  Fe68  1  0.12281797  0.87296470  0.12380323  1
  Fe  Fe69  1  0.37089945  0.12552959  0.62612323  1
  Fe  Fe70  1  0.49864248  0.74876199  0.00033370  1
  Fe  Fe71  1  -0.00064420  0.50107303  0.00061027  1
  Fe  Fe72  1  0.12257530  0.12704777  0.12875949  1
  Fe  Fe73  1  0.50079798  0.00066306  0.50275136  1
  Fe  Fe74  1  0.37352191  0.12311694  0.37444765  1
  Fe  Fe75  1  0.12413443  0.62693884  0.12689185  1
  Fe  Fe76  1  0.87453779  0.37571761  0.12641015  1
  Fe  Fe77  1  0.37538054  0.37600975  0.37588236  1
  Fe  Fe78  1  0.37394206  0.62394510  0.87282717  1
  Fe  Fe79  1  0.49951005  0.75129187  0.74904217  1
  Fe  Fe80  1  0.62306479  0.87399806  0.87580710  1
  Fe  Fe81  1  0.24965771  0.49960377  0.00075854  1
  Fe  Fe82  1  0.74917404  -0.00094493  0.50259423  1
  Fe  Fe83  1  0.87300729  0.38136671  0.37856747  1
  Fe  Fe84  1  0.62646150  0.12599990  0.37769577  1
  Fe  Fe85  1  0.75161488  0.75303925  0.74713331  1
  Fe  Fe86  1  0.37678581  0.37306345  0.87520948  1
  Fe  Fe87  1  0.24352361  -0.00174213  0.74760616  1
  Fe  Fe88  1  0.37412766  0.87687483  0.87474302  1
  Fe  Fe89  1  0.37588304  0.87507080  0.12642268  1
  Co  Co90  1  0.24970799  -0.00144726  0.49961235  1
  Co  Co91  1  0.12614276  0.37127230  0.62334446  1
  Co  Co92  1  0.74618480  0.50569726  0.50368480  1
  Co  Co93  1  0.62709652  0.37016909  0.61720296  1
  Co  Co94  1  0.49629688  0.74806562  0.50065340  1
  Co  Co95  1  0.00800750  0.00020982  0.74595472  1
  Co  Co96  1  0.87579286  0.62611715  0.12393395  1
  Co  Co97  1  0.74434612  -0.00467584  0.75065203  1
  Co  Co98  1  0.50167770  0.74978982  0.24901483  1
  Co  Co99  1  0.12290380  0.87798794  0.87859138  1
  Co  Co100  1  0.62408350  0.87209090  0.62123861  1
  Co  Co101  1  0.24814308  0.75322288  0.25207335  1
  Co  Co102  1  0.75671394  0.24689428  0.49938500  1
  Co  Co103  1  0.49769996  0.24617110  0.00059335  1
  Co  Co104  1  0.50083744  0.25328391  0.74599195  1
  Co  Co105  1  0.75150118  0.25713047  0.74907953  1
  Co  Co106  1  0.87555625  0.62077391  0.62896123  1
  Co  Co107  1  0.37394372  0.12458349  0.12921034  1
  Co  Co108  1  0.62335331  0.62844516  0.62734212  1
  Co  Co109  1  0.24790035  0.49900490  0.25173305  1
  Co  Co110  1  0.87419340  0.61956268  0.37724332  1
  Co  Co111  1  0.62950010  0.12793772  0.62617262  1
  Co  Co112  1  0.87509856  0.12347460  0.86701132  1
  Co  Co113  1  0.74951870  0.50044230  0.24917267  1
  Co  Co114  1  0.12340042  0.87078475  0.61925343  1
  Co  Co115  1  0.12736657  0.62874050  0.62138049  1
  Co  Co116  1  0.62380335  0.37239415  0.87942817  1
  Co  Co117  1  0.24929975  0.25094024  0.75235987  1
  Co  Co118  1  -0.00397931  0.75066447  0.25264466  1
  Co  Co119  1  0.87594041  0.87777891  0.37869248  1
  Co  Co120  1  0.12320085  0.12412627  0.37439660  1
  Co  Co121  1  0.87796226  0.87810128  0.62826010  1
  Co  Co122  1  -0.00439988  0.25186858  0.25352914  1
  Co  Co123  1  0.87414208  0.12421562  0.12880829  1
  Co  Co124  1  0.12494395  0.62158089  0.87635822  1
  Co  Co125  1  0.00480261  0.50118751  0.50145610  1
  Co  Co126  1  0.12864782  0.12892847  0.62376018  1
  Co  Co127  1  0.00395607  0.74908223  0.74945514  1
