# generated using pymatgen
data_Fe45Co19
_symmetry_space_group_name_H-M   'P 1'
_cell_length_a   11.41486316
_cell_length_b   11.41563829
_cell_length_c   11.41378941
_cell_angle_alpha   90.00373726
_cell_angle_beta   90.00675149
_cell_angle_gamma   89.99807758
_symmetry_Int_Tables_number   1
_chemical_formula_structural   Fe45Co19
_chemical_formula_sum   'Fe90 Co38'
_cell_volume   1487.30747392
_cell_formula_units_Z   2
loop_
 _symmetry_equiv_pos_site_id
 _symmetry_equiv_pos_as_xyz
  1  'x, y, z'
loop_
 _atom_site_type_symbol
 _atom_site_label
 _atom_site_symmetry_multiplicity
 _atom_site_fract_x
 _atom_site_fract_y
 _atom_site_fract_z
 _atom_site_occupancy
  Fe  Fe0  1  0.25089400  0.24649169  0.25158934  1
  Fe  Fe1  1  0.12691747  0.62588894  0.87310975  1
  Fe  Fe2  1  0.24816100  0.25220051  0.74800652  1
  Fe  Fe3  1  0.00334372  0.50153056  0.74602295  1
  Fe  Fe4  1  0.62451087  0.87339671  0.87267158  1
  Fe  Fe5  1  0.00293146  -0.00152380  0.74852040  1
  Fe  Fe6  1  0.62609071  0.12774966  0.62556526  1
  Fe  Fe7  1  0.87617326  0.87404179  0.87425907  1
  Fe  Fe8  1  0.37513176  0.37418022  0.12917849  1
  Fe  Fe9  1  0.87647775  0.12432526  0.12450494  1
  Fe  Fe10  1  0.87836339  0.37530512  0.12713834  1
  Fe  Fe11  1  0.49829869  0.00210710  0.74841403  1
  Fe  Fe12  1  0.37261877  0.62547458  0.62174376  1
  Fe  Fe13  1  0.62583735  0.12493784  0.12774594  1
  Fe  Fe14  1  0.49875333  0.50271673  0.00091179  1
  Fe  Fe15  1  0.62310980  0.37471457  0.12685127  1
  Fe  Fe16  1  0.12144320  0.87242556  0.61826882  1
  Fe  Fe17  1  0.37248229  0.12385058  0.87519385  1
  Fe  Fe18  1  0.37878865  0.87313875  0.62132039  1
  Fe  Fe19  1  0.12196609  0.63230059  0.37998358  1
  Fe  Fe20  1  0.49683392  0.00413761  0.25230099  1
  Fe  Fe21  1  0.49903109  0.74738972  0.49551664  1
  Fe  Fe22  1  0.62848537  0.62520338  0.62282887  1
  Fe  Fe23  1  0.37513805  0.37243926  0.61805753  1
  Fe  Fe24  1  0.24899646  0.75166403  -0.00001356  1
  Fe  Fe25  1  0.24921287  0.49931232  0.74810440  1
  Fe  Fe26  1  0.75491462  -0.00540241  0.24983447  1
  Fe  Fe27  1  0.74898705  0.25161690  0.50079604  1
  Fe  Fe28  1  0.50055081  0.00042477  -0.00065613  1
  Fe  Fe29  1  0.24704908  0.50001886  0.49833075  1
  Fe  Fe30  1  0.37432253  0.87516842  0.87480379  1
  Fe  Fe31  1  0.74895890  -0.00087862  0.00014226  1
  Fe  Fe32  1  0.87531484  0.37939868  0.62236612  1
  Fe  Fe33  1  0.87530976  0.37723926  0.87345997  1
  Fe  Fe34  1  0.00379706  0.24754800  0.50056819  1
  Fe  Fe35  1  0.00194511  0.50165521  0.00165916  1
  Fe  Fe36  1  0.50237757  0.50051347  0.49753098  1
  Fe  Fe37  1  0.37423022  0.37528649  0.87503984  1
  Fe  Fe38  1  0.50178294  0.00423443  0.49938423  1
  Fe  Fe39  1  0.75210827  -0.00404214  0.49952220  1
  Fe  Fe40  1  0.75233308  0.74844882  0.74613361  1
  Fe  Fe41  1  0.62503881  0.37310797  0.87191593  1
  Fe  Fe42  1  0.87235220  0.12434953  0.37633724  1
  Fe  Fe43  1  0.12425595  0.37540838  0.37544283  1
  Fe  Fe44  1  0.24985708  -0.00271617  0.74552880  1
  Fe  Fe45  1  0.12134795  0.87576690  0.13145882  1
  Fe  Fe46  1  0.49860505  0.74796986  0.00052152  1
  Fe  Fe47  1  0.00174857  0.74882376  0.00132989  1
  Fe  Fe48  1  0.49918569  0.24914980  -0.00022507  1
  Fe  Fe49  1  0.24844546  0.50113087  0.25329733  1
  Fe  Fe50  1  -0.00184082  0.74756080  0.74440330  1
  Fe  Fe51  1  0.75039278  0.75092654  0.00240864  1
  Fe  Fe52  1  0.75108461  0.25044530  0.00021252  1
  Fe  Fe53  1  0.49706829  0.24520293  0.25594128  1
  Fe  Fe54  1  0.62232272  0.87297290  0.12749501  1
  Fe  Fe55  1  0.87577261  0.62472347  0.87338040  1
  Fe  Fe56  1  0.00190397  0.25073223  -0.00061663  1
  Fe  Fe57  1  0.50013372  0.50312979  0.25109291  1
  Fe  Fe58  1  0.12624502  0.12445981  0.87332614  1
  Fe  Fe59  1  0.87606074  0.12394041  0.87389354  1
  Fe  Fe60  1  0.62481939  0.62525898  0.87518431  1
  Fe  Fe61  1  0.62465028  0.37387724  0.37308893  1
  Fe  Fe62  1  0.74920725  0.49977268  0.00140852  1
  Fe  Fe63  1  0.63240771  0.62810446  0.37169165  1
  Fe  Fe64  1  0.37212400  0.12872110  0.61887624  1
  Fe  Fe65  1  0.87185149  0.62530345  0.12890975  1
  Fe  Fe66  1  0.37338562  0.62688220  0.12830617  1
  Fe  Fe67  1  0.12863787  0.11686081  0.37606284  1
  Fe  Fe68  1  0.25197737  0.75527438  0.25805670  1
  Fe  Fe69  1  0.49827115  0.74808730  0.75024675  1
  Fe  Fe70  1  0.00264025  -0.00071458  -0.00006867  1
  Fe  Fe71  1  0.62416191  0.37302932  0.62712789  1
  Fe  Fe72  1  0.75166977  0.25154619  0.24971142  1
  Fe  Fe73  1  0.00172633  0.25204839  0.74824447  1
  Fe  Fe74  1  0.24803723  -0.00137608  0.00361970  1
  Fe  Fe75  1  0.74849753  0.00030285  0.75008347  1
  Fe  Fe76  1  0.12684904  0.62704269  0.12821316  1
  Fe  Fe77  1  0.62435038  0.87345999  0.62447113  1
  Fe  Fe78  1  0.87543468  0.12384750  0.62524147  1
  Fe  Fe79  1  -0.00046105  0.50391343  0.25328654  1
  Fe  Fe80  1  0.37713884  0.87432808  0.12791394  1
  Fe  Fe81  1  0.25006132  0.75196169  0.74801545  1
  Fe  Fe82  1  0.00146231  0.24626541  0.25234644  1
  Fe  Fe83  1  0.87700310  0.37706668  0.37744692  1
  Fe  Fe84  1  0.49816213  0.50068352  0.74943151  1
  Fe  Fe85  1  0.24988818  0.50047708  0.00116776  1
  Fe  Fe86  1  0.24792758  0.25028836  0.00210086  1
  Fe  Fe87  1  0.62358527  0.87438386  0.37442442  1
  Fe  Fe88  1  0.62470321  0.12788481  0.87195966  1
  Fe  Fe89  1  0.12394435  0.37476855  0.12721821  1
  Co  Co90  1  -0.00345944  0.00239017  0.25151326  1
  Co  Co91  1  0.75430113  0.75671349  0.24998418  1
  Co  Co92  1  0.50374984  0.24772663  0.49528775  1
  Co  Co93  1  0.63160419  0.12246764  0.37366336  1
  Co  Co94  1  -0.00295693  0.74688261  0.25014314  1
  Co  Co95  1  0.87510592  0.87942948  0.62753874  1
  Co  Co96  1  0.86997673  0.62379561  0.37639248  1
  Co  Co97  1  -0.00224897  0.00280108  0.50038060  1
  Co  Co98  1  0.62709875  0.62645276  0.12811816  1
  Co  Co99  1  0.49748598  0.74761921  0.25367594  1
  Co  Co100  1  0.12974807  0.62839687  0.62172192  1
  Co  Co101  1  0.49557923  0.24946082  0.74874525  1
  Co  Co102  1  0.37182140  0.62616458  0.87403902  1
  Co  Co103  1  0.75421281  0.75486742  0.50124788  1
  Co  Co104  1  0.12305492  0.12423566  0.12619412  1
  Co  Co105  1  0.75159477  0.49627193  0.24996545  1
  Co  Co106  1  0.24399784  0.25133803  0.49717203  1
  Co  Co107  1  0.12591647  0.12409971  0.62475374  1
  Co  Co108  1  0.37409312  0.62153028  0.37619615  1
  Co  Co109  1  0.12503127  0.37686364  0.87590258  1
  Co  Co110  1  0.37568236  0.12547141  0.12383968  1
  Co  Co111  1  0.12449615  0.37575390  0.62227111  1
  Co  Co112  1  -0.00845635  0.74640139  0.50550971  1
  Co  Co113  1  0.74800942  0.50055357  0.75082654  1
  Co  Co114  1  0.75398745  0.25055059  0.74857005  1
  Co  Co115  1  0.37432778  0.37498978  0.37665243  1
  Co  Co116  1  0.25352379  0.75449035  0.49519899  1
  Co  Co117  1  0.11760588  0.87524180  0.37764208  1
  Co  Co118  1  0.37922085  0.88023140  0.37706936  1
  Co  Co119  1  0.86996404  0.61695569  0.62098977  1
  Co  Co120  1  0.87950340  0.87570757  0.12167164  1
  Co  Co121  1  0.24974097  -0.00648420  0.50270214  1
  Co  Co122  1  0.88305522  0.87307260  0.37658032  1
  Co  Co123  1  0.25223822  -0.00177749  0.24904230  1
  Co  Co124  1  0.74582859  0.49651372  0.49730439  1
  Co  Co125  1  0.36968707  0.12313698  0.38126480  1
  Co  Co126  1  0.12433872  0.87348618  0.87355806  1
  Co  Co127  1  0.00347129  0.50313234  0.49902838  1
