# generated using pymatgen
data_Fe45Co19
_symmetry_space_group_name_H-M   'P 1'
_cell_length_a   11.41458160
_cell_length_b   11.41530333
_cell_length_c   11.41487336
_cell_angle_alpha   90.00374991
_cell_angle_beta   90.00207708
_cell_angle_gamma   89.99428494
_symmetry_Int_Tables_number   1
_chemical_formula_structural   Fe45Co19
_chemical_formula_sum   'Fe90 Co38'
_cell_volume   1487.36838940
_cell_formula_units_Z   2
loop_
 _symmetry_equiv_pos_site_id
 _symmetry_equiv_pos_as_xyz
  1  'x, y, z'
loop_
 _atom_site_type_symbol
 _atom_site_label
 _atom_site_symmetry_multiplicity
 _atom_site_fract_x
 _atom_site_fract_y
 _atom_site_fract_z
 _atom_site_occupancy
  Fe  Fe0  1  0.62565727  0.37486409  0.62330928  1
  Fe  Fe1  1  0.37772528  0.87535193  0.87378627  1
  Fe  Fe2  1  0.25205203  0.74935003  0.74798048  1
  Fe  Fe3  1  0.87493055  0.87431562  0.87321207  1
  Fe  Fe4  1  0.12554573  0.87598593  0.12648189  1
  Fe  Fe5  1  0.50139991  0.00079917  0.00165655  1
  Fe  Fe6  1  0.50274013  0.75128877  -0.00145229  1
  Fe  Fe7  1  0.74499235  -0.00214868  0.74699676  1
  Fe  Fe8  1  0.75065970  0.49865756  0.49988160  1
  Fe  Fe9  1  0.87348673  0.12641447  0.12570040  1
  Fe  Fe10  1  0.87356185  0.87476050  0.12922666  1
  Fe  Fe11  1  0.25123353  0.49891759  0.75132459  1
  Fe  Fe12  1  0.74713964  0.75445787  0.49922360  1
  Fe  Fe13  1  0.25190112  0.75008677  0.50087921  1
  Fe  Fe14  1  0.87400096  0.37448978  0.62299247  1
  Fe  Fe15  1  0.24978188  0.75132868  0.25111914  1
  Fe  Fe16  1  0.38412275  0.87330515  0.62403979  1
  Fe  Fe17  1  0.62539433  0.62681360  0.62499965  1
  Fe  Fe18  1  0.74738250  0.75088106  0.00008175  1
  Fe  Fe19  1  0.87562432  0.62585360  0.12530675  1
  Fe  Fe20  1  0.25146949  0.00072393  0.50008898  1
  Fe  Fe21  1  0.37593864  0.12491620  0.62245538  1
  Fe  Fe22  1  0.49941450  0.49763705  0.25061385  1
  Fe  Fe23  1  -0.00109573  -0.00031171  0.74818539  1
  Fe  Fe24  1  0.87668011  0.37193054  0.37711102  1
  Fe  Fe25  1  0.12470313  0.87503890  0.87260870  1
  Fe  Fe26  1  0.12279328  0.62480563  0.62206407  1
  Fe  Fe27  1  0.00050225  0.00199136  0.25014369  1
  Fe  Fe28  1  0.75194986  0.49870134  -0.00266055  1
  Fe  Fe29  1  0.62502116  0.37700880  0.87371423  1
  Fe  Fe30  1  0.62550970  0.12379381  0.87500613  1
  Fe  Fe31  1  0.87148861  0.12318571  0.62333277  1
  Fe  Fe32  1  0.12945146  0.12592692  0.12668368  1
  Fe  Fe33  1  0.50041763  0.50192286  0.50020092  1
  Fe  Fe34  1  0.37423647  0.62459068  0.12524138  1
  Fe  Fe35  1  0.00020395  0.00068230  0.50147000  1
  Fe  Fe36  1  0.37936429  0.87735767  0.37695523  1
  Fe  Fe37  1  0.74344694  -0.00307110  0.50154898  1
  Fe  Fe38  1  0.74991580  0.74906449  0.74967420  1
  Fe  Fe39  1  0.37270775  0.62347747  0.37526420  1
  Fe  Fe40  1  0.49816613  0.00578716  0.24946495  1
  Fe  Fe41  1  0.12281145  0.37035998  0.37772033  1
  Fe  Fe42  1  0.24852231  0.49842395  0.49961937  1
  Fe  Fe43  1  -0.00076233  0.00028258  0.00063893  1
  Fe  Fe44  1  0.12400138  0.87607350  0.62555355  1
  Fe  Fe45  1  0.12352335  0.62544809  0.87453150  1
  Fe  Fe46  1  0.12610464  0.62413860  0.12579146  1
  Fe  Fe47  1  0.50033452  0.24807321  0.00209721  1
  Fe  Fe48  1  0.87853384  0.62740604  0.37796371  1
  Fe  Fe49  1  -0.00622371  0.50263421  0.74990797  1
  Fe  Fe50  1  0.25070198  0.74982431  -0.00014456  1
  Fe  Fe51  1  -0.00148627  0.49887427  -0.00241892  1
  Fe  Fe52  1  0.12563253  0.12337822  0.87204776  1
  Fe  Fe53  1  0.62518529  0.62334885  0.12518686  1
  Fe  Fe54  1  0.25052608  0.25150816  0.75036968  1
  Fe  Fe55  1  0.37476270  0.87684752  0.12670010  1
  Fe  Fe56  1  0.49870224  0.49914847  -0.00023674  1
  Fe  Fe57  1  0.50034035  0.24916232  0.74996574  1
  Fe  Fe58  1  0.12766431  0.12817228  0.37661699  1
  Fe  Fe59  1  0.74943554  0.25117721  -0.00072262  1
  Fe  Fe60  1  0.62533132  0.62378936  0.37424889  1
  Fe  Fe61  1  0.74984485  -0.00133031  0.00038869  1
  Fe  Fe62  1  0.62739859  0.87703219  0.13037464  1
  Fe  Fe63  1  0.75146513  0.49994508  0.25196834  1
  Fe  Fe64  1  0.37524990  0.12496310  0.87590526  1
  Fe  Fe65  1  0.62554066  0.37530802  0.12706162  1
  Fe  Fe66  1  -0.00085345  0.24796692  0.74758838  1
  Fe  Fe67  1  0.87515058  0.12674697  0.37691048  1
  Fe  Fe68  1  0.74923192  0.25140014  0.74901169  1
  Fe  Fe69  1  0.37631319  0.37579810  0.62441093  1
  Fe  Fe70  1  0.25366885  -0.00116461  0.74813078  1
  Fe  Fe71  1  0.37260760  0.37172680  0.12296583  1
  Fe  Fe72  1  0.62495929  0.12707103  0.37435805  1
  Fe  Fe73  1  0.12270293  0.37521478  0.62553589  1
  Fe  Fe74  1  0.87344118  0.12483649  0.87382873  1
  Fe  Fe75  1  0.25035917  -0.00006148  -0.00021654  1
  Fe  Fe76  1  0.50077037  0.50226874  0.74938942  1
  Fe  Fe77  1  0.12396322  0.87329276  0.37541209  1
  Fe  Fe78  1  0.37495842  0.62337429  0.87562241  1
  Fe  Fe79  1  0.74877382  0.25083470  0.25145931  1
  Fe  Fe80  1  0.24874481  0.49798257  0.25142815  1
  Fe  Fe81  1  0.87446169  0.87482895  0.37294145  1
  Fe  Fe82  1  0.00149723  0.24946388  -0.00145375  1
  Fe  Fe83  1  0.50069143  0.74850375  0.25134370  1
  Fe  Fe84  1  0.50122004  0.24851705  0.49894003  1
  Fe  Fe85  1  0.37685855  0.37222902  0.37649687  1
  Fe  Fe86  1  0.87527686  0.37370800  0.12579084  1
  Fe  Fe87  1  0.12686581  0.37409588  0.12304357  1
  Fe  Fe88  1  -0.00031182  0.75145463  -0.00000054  1
  Fe  Fe89  1  0.00130346  0.50025884  0.25278210  1
  Co  Co90  1  0.37447503  0.62397251  0.62352724  1
  Co  Co91  1  -0.00087886  0.74960670  0.74753836  1
  Co  Co92  1  0.87431157  0.87643509  0.62547232  1
  Co  Co93  1  0.00042139  0.24939207  0.24877906  1
  Co  Co94  1  0.62812682  0.12471813  0.12509345  1
  Co  Co95  1  0.87416405  0.62682665  0.62051499  1
  Co  Co96  1  0.12187931  0.37647088  0.87273118  1
  Co  Co97  1  0.62252197  0.87623194  0.37096191  1
  Co  Co98  1  0.87373371  0.62753200  0.87634638  1
  Co  Co99  1  0.75214950  0.50029371  0.74855651  1
  Co  Co100  1  0.00064039  0.74995146  0.24963446  1
  Co  Co101  1  0.62641641  0.62163521  0.87610593  1
  Co  Co102  1  0.24976042  0.25144247  0.50380984  1
  Co  Co103  1  0.62558856  0.12820064  0.62521794  1
  Co  Co104  1  0.75126781  0.00386695  0.25245640  1
  Co  Co105  1  0.37319184  0.12659276  0.37691530  1
  Co  Co106  1  0.25142286  0.25208679  0.25213437  1
  Co  Co107  1  0.49921182  0.74492712  0.75403377  1
  Co  Co108  1  0.25013880  -0.00113170  0.25307097  1
  Co  Co109  1  0.12752247  0.12303875  0.62605440  1
  Co  Co110  1  0.25077038  0.49967628  -0.00225445  1
  Co  Co111  1  0.36973301  0.12679385  0.12467200  1
  Co  Co112  1  0.50053855  0.24867247  0.24870707  1
  Co  Co113  1  0.24785762  0.25067131  -0.00554703  1
  Co  Co114  1  -0.00050752  0.75375038  0.50216795  1
  Co  Co115  1  0.62390443  0.37526136  0.37562095  1
  Co  Co116  1  0.74967984  0.74642959  0.25132102  1
  Co  Co117  1  0.87524796  0.37268259  0.87403958  1
  Co  Co118  1  0.62391581  0.87668721  0.87196477  1
  Co  Co119  1  0.12497890  0.62779113  0.37776050  1
  Co  Co120  1  0.50102786  0.00370426  0.74895916  1
  Co  Co121  1  0.00008798  0.24711893  0.50459405  1
  Co  Co122  1  0.37740605  0.37504227  0.87462467  1
  Co  Co123  1  0.50068525  0.74610309  0.49635709  1
  Co  Co124  1  0.50531582  0.00332017  0.50044212  1
  Co  Co125  1  -0.00014760  0.49839372  0.49881696  1
  Co  Co126  1  0.61709464  0.87068080  0.62717589  1
  Co  Co127  1  0.74893132  0.24985964  0.49885347  1
