# generated using pymatgen
data_Fe45Co19
_symmetry_space_group_name_H-M   'P 1'
_cell_length_a   11.41640928
_cell_length_b   11.41580440
_cell_length_c   11.41521446
_cell_angle_alpha   90.00633117
_cell_angle_beta   89.99759910
_cell_angle_gamma   90.00863054
_symmetry_Int_Tables_number   1
_chemical_formula_structural   Fe45Co19
_chemical_formula_sum   'Fe90 Co38'
_cell_volume   1487.71628065
_cell_formula_units_Z   2
loop_
 _symmetry_equiv_pos_site_id
 _symmetry_equiv_pos_as_xyz
  1  'x, y, z'
loop_
 _atom_site_type_symbol
 _atom_site_label
 _atom_site_symmetry_multiplicity
 _atom_site_fract_x
 _atom_site_fract_y
 _atom_site_fract_z
 _atom_site_occupancy
  Fe  Fe0  1  0.75017123  0.24959406  0.50191748  1
  Fe  Fe1  1  0.74985353  0.75367892  0.49938977  1
  Fe  Fe2  1  0.00023349  0.50104303  0.49977178  1
  Fe  Fe3  1  0.62553449  0.12485385  0.87652178  1
  Fe  Fe4  1  0.25213981  0.49836697  0.50089216  1
  Fe  Fe5  1  0.12297693  0.37659065  0.12477629  1
  Fe  Fe6  1  0.12694672  0.12354038  0.37551545  1
  Fe  Fe7  1  0.12311026  0.87682420  0.12585292  1
  Fe  Fe8  1  0.50312593  0.49947498  0.25081077  1
  Fe  Fe9  1  0.74814739  0.49893230  0.75295519  1
  Fe  Fe10  1  -0.00140582  0.74974521  0.49989803  1
  Fe  Fe11  1  0.74631191  0.75159680  0.75243842  1
  Fe  Fe12  1  0.12482641  0.87534927  0.87511403  1
  Fe  Fe13  1  0.50069795  0.49953101  0.75460384  1
  Fe  Fe14  1  0.49650721  0.25378255  0.49829670  1
  Fe  Fe15  1  0.74836111  0.49848541  0.49937215  1
  Fe  Fe16  1  0.87634834  0.87413621  0.12585149  1
  Fe  Fe17  1  0.87482913  0.87519678  0.87472061  1
  Fe  Fe18  1  0.62603791  0.62554806  0.37507328  1
  Fe  Fe19  1  0.25042743  -0.00120063  0.00083236  1
  Fe  Fe20  1  0.37705358  0.62441968  0.12311715  1
  Fe  Fe21  1  0.74910704  0.25073761  0.24952356  1
  Fe  Fe22  1  0.87208499  0.62389686  0.37280901  1
  Fe  Fe23  1  -0.00296018  0.74797604  0.25021470  1
  Fe  Fe24  1  0.37503158  0.62357907  0.37421269  1
  Fe  Fe25  1  0.25096900  0.24970962  0.24832097  1
  Fe  Fe26  1  0.50391000  0.74983366  -0.00217343  1
  Fe  Fe27  1  0.12692302  0.37379303  0.87497439  1
  Fe  Fe28  1  0.62591385  0.12518577  0.12435142  1
  Fe  Fe29  1  0.37579023  0.87269031  0.62929276  1
  Fe  Fe30  1  0.49883540  0.75109643  0.49907188  1
  Fe  Fe31  1  0.37515756  0.62591260  0.87711328  1
  Fe  Fe32  1  0.87637439  0.37889877  0.12656323  1
  Fe  Fe33  1  0.49984371  0.00111398  -0.00002380  1
  Fe  Fe34  1  0.25067050  0.24841731  0.74778086  1
  Fe  Fe35  1  0.87581534  0.87475344  0.62655538  1
  Fe  Fe36  1  0.24838807  0.00215743  0.74770181  1
  Fe  Fe37  1  0.37747577  0.37689818  0.12227737  1
  Fe  Fe38  1  -0.00049118  0.24796660  0.25101255  1
  Fe  Fe39  1  0.37359276  0.12509788  0.87551654  1
  Fe  Fe40  1  0.62411580  0.87492194  0.12689348  1
  Fe  Fe41  1  0.37450124  0.12283361  0.37453402  1
  Fe  Fe42  1  0.00140795  0.74891318  0.75048386  1
  Fe  Fe43  1  0.62019144  0.12299065  0.62242288  1
  Fe  Fe44  1  0.62189080  0.87643438  0.62763116  1
  Fe  Fe45  1  0.49823113  0.25015660  0.75249167  1
  Fe  Fe46  1  0.87417613  0.37328969  0.87284940  1
  Fe  Fe47  1  0.87616475  0.37537455  0.62620856  1
  Fe  Fe48  1  0.25012803  0.74886624  0.24793801  1
  Fe  Fe49  1  0.87150092  0.12120057  0.37421588  1
  Fe  Fe50  1  0.87216228  0.62585936  0.62532030  1
  Fe  Fe51  1  0.75080900  0.25136541  0.00069156  1
  Fe  Fe52  1  0.62939573  0.62537484  0.12297253  1
  Fe  Fe53  1  0.37699952  0.87407255  0.87362094  1
  Fe  Fe54  1  0.37495137  0.12358818  0.12578720  1
  Fe  Fe55  1  0.12674591  0.37489300  0.37406514  1
  Fe  Fe56  1  0.12435710  0.87451944  0.37335510  1
  Fe  Fe57  1  0.62246314  0.37576962  0.62463600  1
  Fe  Fe58  1  -0.00011565  0.24987237  -0.00133875  1
  Fe  Fe59  1  0.62297718  0.37468733  0.12113525  1
  Fe  Fe60  1  0.25325603  0.25215090  0.50162012  1
  Fe  Fe61  1  0.25140623  -0.00305469  0.50222716  1
  Fe  Fe62  1  0.24901825  0.50057527  0.24703598  1
  Fe  Fe63  1  0.62570571  0.12244627  0.37630990  1
  Fe  Fe64  1  0.25062406  0.25026654  0.00169565  1
  Fe  Fe65  1  0.87507378  0.12528161  0.87530024  1
  Fe  Fe66  1  0.12330222  0.37368393  0.62571561  1
  Fe  Fe67  1  0.00379079  0.00307243  0.75012156  1
  Fe  Fe68  1  0.87245066  0.62738394  0.87987411  1
  Fe  Fe69  1  0.37578830  0.62634577  0.62559602  1
  Fe  Fe70  1  0.12723815  0.62607672  0.37616499  1
  Fe  Fe71  1  0.25115566  0.50048245  0.75195821  1
  Fe  Fe72  1  0.12796910  0.62840746  0.62402889  1
  Fe  Fe73  1  0.24892389  0.75053945  0.00082250  1
  Fe  Fe74  1  0.74839419  0.24896671  0.74750536  1
  Fe  Fe75  1  0.12451770  0.62590422  0.87805625  1
  Fe  Fe76  1  0.74820201  0.00149321  0.74831323  1
  Fe  Fe77  1  0.37747742  0.87422421  0.12681568  1
  Fe  Fe78  1  0.87709819  0.12470326  0.62524503  1
  Fe  Fe79  1  0.37632661  0.87516399  0.36932211  1
  Fe  Fe80  1  0.12303816  0.12233510  0.12361578  1
  Fe  Fe81  1  0.12070247  0.62350502  0.12247635  1
  Fe  Fe82  1  0.87317694  0.37683899  0.37377392  1
  Fe  Fe83  1  0.62413266  0.62462904  0.62487281  1
  Fe  Fe84  1  0.62641601  0.87719343  0.37159075  1
  Fe  Fe85  1  0.75175391  -0.00121719  0.00180138  1
  Fe  Fe86  1  -0.00175603  0.25015655  0.49873889  1
  Fe  Fe87  1  0.49957265  0.24943542  0.25054567  1
  Fe  Fe88  1  -0.00027518  0.50173862  0.75105684  1
  Fe  Fe89  1  0.00018137  -0.00168956  0.50084122  1
  Co  Co90  1  0.74940655  -0.00171563  0.50339508  1
  Co  Co91  1  -0.00164144  0.00043074  -0.00091463  1
  Co  Co92  1  0.50246330  0.50141903  -0.00295831  1
  Co  Co93  1  0.00099049  0.24843434  0.75124042  1
  Co  Co94  1  0.49749060  -0.00407817  0.49891213  1
  Co  Co95  1  0.49961202  0.49975557  0.49843530  1
  Co  Co96  1  0.25403926  0.75288681  0.49787886  1
  Co  Co97  1  0.00016884  0.75155652  0.00054189  1
  Co  Co98  1  0.62417369  0.37131125  0.87676881  1
  Co  Co99  1  0.62531872  0.37302272  0.37658231  1
  Co  Co100  1  0.12654248  0.12550224  0.87832721  1
  Co  Co101  1  0.62846769  0.62547929  0.87694703  1
  Co  Co102  1  0.62482217  0.87858387  0.87538546  1
  Co  Co103  1  0.50113665  0.00292040  0.24882536  1
  Co  Co104  1  0.37379265  0.37405945  0.87828558  1
  Co  Co105  1  0.00132879  0.50125064  0.25256311  1
  Co  Co106  1  -0.00161161  0.00245035  0.24981156  1
  Co  Co107  1  0.25011307  -0.00013040  0.24865726  1
  Co  Co108  1  0.12543477  0.87165805  0.62547816  1
  Co  Co109  1  0.75105264  -0.00010355  0.24679150  1
  Co  Co110  1  0.12471744  0.12711700  0.62157965  1
  Co  Co111  1  0.87600409  0.12691130  0.12398723  1
  Co  Co112  1  -0.00105010  0.49795932  -0.00345003  1
  Co  Co113  1  0.24887466  0.50088042  0.00064109  1
  Co  Co114  1  0.49843742  0.24653262  -0.00055028  1
  Co  Co115  1  0.87492746  0.87691771  0.37477441  1
  Co  Co116  1  0.37410758  0.37744821  0.37081557  1
  Co  Co117  1  0.37626574  0.37699350  0.62728189  1
  Co  Co118  1  0.74904477  0.75334113  0.00098561  1
  Co  Co119  1  0.49896477  0.00232271  0.75188743  1
  Co  Co120  1  0.87385342  0.62203190  0.12308269  1
  Co  Co121  1  0.24938704  0.74896314  0.75309119  1
  Co  Co122  1  0.74702695  0.49839931  0.24954298  1
  Co  Co123  1  0.50310424  0.74813501  0.75252387  1
  Co  Co124  1  0.50123644  0.74751447  0.24997140  1
  Co  Co125  1  0.75237399  0.75057001  0.24959294  1
  Co  Co126  1  0.37728009  0.12457513  0.62324686  1
  Co  Co127  1  0.74996019  0.49746677  -0.00173182  1
