# generated using pymatgen
data_Fe45Co19
_symmetry_space_group_name_H-M   'P 1'
_cell_length_a   11.41492749
_cell_length_b   11.41567697
_cell_length_c   11.41435002
_cell_angle_alpha   89.99540873
_cell_angle_beta   89.98743909
_cell_angle_gamma   89.99913813
_symmetry_Int_Tables_number   1
_chemical_formula_structural   Fe45Co19
_chemical_formula_sum   'Fe90 Co38'
_cell_volume   1487.39392198
_cell_formula_units_Z   2
loop_
 _symmetry_equiv_pos_site_id
 _symmetry_equiv_pos_as_xyz
  1  'x, y, z'
loop_
 _atom_site_type_symbol
 _atom_site_label
 _atom_site_symmetry_multiplicity
 _atom_site_fract_x
 _atom_site_fract_y
 _atom_site_fract_z
 _atom_site_occupancy
  Fe  Fe0  1  0.74995633  0.75281874  0.49865724  1
  Fe  Fe1  1  0.12159564  0.62487452  0.87930522  1
  Fe  Fe2  1  0.25064119  0.50281896  0.24780506  1
  Fe  Fe3  1  0.62733682  0.62134199  0.87560128  1
  Fe  Fe4  1  0.12522092  0.12177369  0.62259073  1
  Fe  Fe5  1  0.25054736  0.00149039  0.24998623  1
  Fe  Fe6  1  0.12632730  0.87421328  0.87364914  1
  Fe  Fe7  1  0.24699847  0.74912679  0.00571916  1
  Fe  Fe8  1  0.24784020  0.24712219  0.74816386  1
  Fe  Fe9  1  0.37539164  0.62698641  0.87668537  1
  Fe  Fe10  1  0.50544231  0.74991802  0.24851489  1
  Fe  Fe11  1  0.50013431  0.49914432  0.25144396  1
  Fe  Fe12  1  0.62593413  0.62333972  0.12144299  1
  Fe  Fe13  1  -0.00029352  0.74504587  0.74874192  1
  Fe  Fe14  1  0.50418541  0.24959588  0.25125312  1
  Fe  Fe15  1  0.62567300  0.62401096  0.37764272  1
  Fe  Fe16  1  0.24869392  0.50346577  0.75069951  1
  Fe  Fe17  1  0.87224650  0.12584570  0.12403958  1
  Fe  Fe18  1  0.50150064  0.49966093  0.75065995  1
  Fe  Fe19  1  0.49770386  0.49767903  0.49710131  1
  Fe  Fe20  1  0.25142111  0.49999225  0.00119621  1
  Fe  Fe21  1  -0.00110799  0.49948232  0.25153932  1
  Fe  Fe22  1  0.00314398  0.74945277  0.24666814  1
  Fe  Fe23  1  0.62346422  0.12163935  0.62080240  1
  Fe  Fe24  1  0.87439891  0.12740888  0.62572645  1
  Fe  Fe25  1  0.24799652  0.24915282  0.24992436  1
  Fe  Fe26  1  0.50349021  0.25028452  0.75063423  1
  Fe  Fe27  1  0.00128023  0.25147056  0.50097706  1
  Fe  Fe28  1  0.12804461  0.37611279  0.37674293  1
  Fe  Fe29  1  0.25012399  0.74962090  0.50075567  1
  Fe  Fe30  1  0.74736208  0.24616817  0.25053494  1
  Fe  Fe31  1  0.37627610  0.12684556  0.37545306  1
  Fe  Fe32  1  0.37556786  0.37446014  0.12696427  1
  Fe  Fe33  1  0.25245352  -0.00065503  -0.00060839  1
  Fe  Fe34  1  0.87808980  0.62444307  0.12128383  1
  Fe  Fe35  1  0.24953831  0.25139010  0.00076831  1
  Fe  Fe36  1  0.37391723  0.62690494  0.37275802  1
  Fe  Fe37  1  0.62516722  0.87747536  0.87747460  1
  Fe  Fe38  1  0.75314139  0.49678773  0.50376935  1
  Fe  Fe39  1  0.25281426  0.00112182  0.50091241  1
  Fe  Fe40  1  0.37409447  0.37436493  0.87381979  1
  Fe  Fe41  1  0.87055029  0.87561607  0.13008245  1
  Fe  Fe42  1  0.75487170  0.49290376  -0.00380366  1
  Fe  Fe43  1  -0.00283914  0.49981851  0.50389590  1
  Fe  Fe44  1  0.12649331  0.87527838  0.62793424  1
  Fe  Fe45  1  0.12378621  0.37661964  0.12435117  1
  Fe  Fe46  1  -0.00292850  0.25427096  -0.00110642  1
  Fe  Fe47  1  0.87378757  0.37238109  0.37406424  1
  Fe  Fe48  1  -0.00366888  -0.00219979  -0.00079770  1
  Fe  Fe49  1  0.62670406  0.37480876  0.12533460  1
  Fe  Fe50  1  0.12382640  0.37852191  0.62748727  1
  Fe  Fe51  1  0.62714194  0.12447679  0.88161030  1
  Fe  Fe52  1  0.75118552  0.75128041  0.00015064  1
  Fe  Fe53  1  0.50137862  0.75178752  -0.00004827  1
  Fe  Fe54  1  0.75157286  0.50279083  0.24986040  1
  Fe  Fe55  1  0.49832841  -0.00033353  0.75309305  1
  Fe  Fe56  1  0.87563804  0.62788119  0.37624256  1
  Fe  Fe57  1  0.87572004  0.87269765  0.87237858  1
  Fe  Fe58  1  0.37665403  0.12572141  0.12564083  1
  Fe  Fe59  1  0.12397690  0.12411220  0.37654852  1
  Fe  Fe60  1  0.37556272  0.87385036  0.12575958  1
  Fe  Fe61  1  0.49966782  0.25432033  0.49724715  1
  Fe  Fe62  1  0.74827284  0.74808922  0.75080904  1
  Fe  Fe63  1  -0.00450422  -0.00188907  0.49854474  1
  Fe  Fe64  1  0.50120340  0.74999134  0.75146932  1
  Fe  Fe65  1  0.12299981  0.12351238  0.12288145  1
  Fe  Fe66  1  0.87405452  0.87422522  0.62674317  1
  Fe  Fe67  1  0.50106235  0.25114674  0.00053584  1
  Fe  Fe68  1  0.62656626  0.87711260  0.62457160  1
  Fe  Fe69  1  0.87290286  0.13044892  0.87301547  1
  Fe  Fe70  1  0.12524901  0.87582324  0.37316878  1
  Fe  Fe71  1  0.00133502  0.24963809  0.25003116  1
  Fe  Fe72  1  0.12574397  0.62480853  0.37603396  1
  Fe  Fe73  1  -0.00006640  0.75121327  0.50119550  1
  Fe  Fe74  1  0.74984427  0.00201125  0.75066836  1
  Fe  Fe75  1  0.37574436  0.12557198  0.87497177  1
  Fe  Fe76  1  0.74904565  0.25221320  0.50284842  1
  Fe  Fe77  1  -0.00336590  0.00217908  0.25168364  1
  Fe  Fe78  1  0.37509513  0.62546651  0.62511908  1
  Fe  Fe79  1  0.49890057  0.49829949  -0.00009201  1
  Fe  Fe80  1  0.62580935  0.62357865  0.62396528  1
  Fe  Fe81  1  -0.00022092  0.00203367  0.75103854  1
  Fe  Fe82  1  0.37205067  0.87485387  0.63075739  1
  Fe  Fe83  1  0.50649025  0.00156170  0.24789062  1
  Fe  Fe84  1  0.37391780  0.37427074  0.62500424  1
  Fe  Fe85  1  0.50035695  0.75168380  0.50090652  1
  Fe  Fe86  1  0.49812986  -0.00357933  0.49908598  1
  Fe  Fe87  1  -0.00503619  0.49291134  -0.00552086  1
  Fe  Fe88  1  0.12439639  0.12487767  0.87831684  1
  Fe  Fe89  1  0.37484342  0.87286769  0.37133025  1
  Co  Co90  1  0.62936029  0.37686596  0.37378248  1
  Co  Co91  1  0.00711006  0.24471665  0.74906911  1
  Co  Co92  1  0.75506679  -0.00239109  -0.00212312  1
  Co  Co93  1  0.87398091  0.87148235  0.37030851  1
  Co  Co94  1  0.62835778  0.87749561  0.12394417  1
  Co  Co95  1  0.62857855  0.12428343  0.11809970  1
  Co  Co96  1  0.12532138  0.62449224  0.62254208  1
  Co  Co97  1  0.37861621  0.62631630  0.12560956  1
  Co  Co98  1  0.49667385  -0.00142621  0.00037486  1
  Co  Co99  1  0.74739886  0.74481524  0.24889177  1
  Co  Co100  1  -0.00024863  0.75561279  0.00287274  1
  Co  Co101  1  0.12460651  0.88137154  0.12630585  1
  Co  Co102  1  0.37095666  0.37390845  0.37312980  1
  Co  Co103  1  0.11837287  0.61874253  0.12132962  1
  Co  Co104  1  0.24888379  0.24861815  0.50188566  1
  Co  Co105  1  0.75485242  -0.00193470  0.49717637  1
  Co  Co106  1  0.87532147  0.12929854  0.37735215  1
  Co  Co107  1  0.12543409  0.37561564  0.87215345  1
  Co  Co108  1  0.75137026  0.50031915  0.74859165  1
  Co  Co109  1  0.62692359  0.87489865  0.37430951  1
  Co  Co110  1  0.74077318  0.24825873  0.74725818  1
  Co  Co111  1  0.37902975  0.12624653  0.62451550  1
  Co  Co112  1  0.37171499  0.87186005  0.87485478  1
  Co  Co113  1  0.62478256  0.37616334  0.87538849  1
  Co  Co114  1  0.62234194  0.37781642  0.62432239  1
  Co  Co115  1  0.62381572  0.12416510  0.38133937  1
  Co  Co116  1  0.24857579  0.74500439  0.75031905  1
  Co  Co117  1  0.75350090  0.25661973  -0.00124562  1
  Co  Co118  1  0.25008399  0.00441778  0.75104561  1
  Co  Co119  1  0.74788237  0.00525925  0.25451374  1
  Co  Co120  1  0.24578637  0.74790379  0.24587671  1
  Co  Co121  1  0.87436737  0.62674742  0.87752131  1
  Co  Co122  1  0.87805400  0.37060610  0.63223576  1
  Co  Co123  1  -0.00276978  0.50729088  0.74934398  1
  Co  Co124  1  0.87139844  0.62799227  0.62365600  1
  Co  Co125  1  0.25143070  0.50129396  0.50066354  1
  Co  Co126  1  0.87475963  0.37410783  0.13074706  1
  Co  Co127  1  0.87554885  0.36942191  0.86133851  1
