# generated using pymatgen
data_Fe45Co19
_symmetry_space_group_name_H-M   'P 1'
_cell_length_a   11.41564140
_cell_length_b   11.41548217
_cell_length_c   11.41596034
_cell_angle_alpha   89.99644303
_cell_angle_beta   89.99834305
_cell_angle_gamma   89.99780206
_symmetry_Int_Tables_number   1
_chemical_formula_structural   Fe45Co19
_chemical_formula_sum   'Fe90 Co38'
_cell_volume   1487.67144731
_cell_formula_units_Z   2
loop_
 _symmetry_equiv_pos_site_id
 _symmetry_equiv_pos_as_xyz
  1  'x, y, z'
loop_
 _atom_site_type_symbol
 _atom_site_label
 _atom_site_symmetry_multiplicity
 _atom_site_fract_x
 _atom_site_fract_y
 _atom_site_fract_z
 _atom_site_occupancy
  Fe  Fe0  1  0.87310036  0.12411474  0.12236510  1
  Fe  Fe1  1  0.37686207  0.87519761  0.62323042  1
  Fe  Fe2  1  0.25079301  0.50194756  0.75094218  1
  Fe  Fe3  1  0.24855681  0.50463446  0.00045858  1
  Fe  Fe4  1  0.62794605  0.37083129  0.37588951  1
  Fe  Fe5  1  0.12722885  0.87007039  0.87284633  1
  Fe  Fe6  1  0.12688709  0.12713639  0.87603687  1
  Fe  Fe7  1  0.74849520  0.24872429  0.74816609  1
  Fe  Fe8  1  0.12802308  0.62962840  0.87234188  1
  Fe  Fe9  1  0.37573608  0.37683637  0.62538477  1
  Fe  Fe10  1  0.74716705  0.00286309  0.50191450  1
  Fe  Fe11  1  0.62267059  0.62723360  0.12641297  1
  Fe  Fe12  1  0.62687305  0.63112103  0.87434892  1
  Fe  Fe13  1  0.37680301  0.12288022  0.12327497  1
  Fe  Fe14  1  0.74921962  -0.00077781  0.24965494  1
  Fe  Fe15  1  0.87268960  0.12524321  0.87589303  1
  Fe  Fe16  1  0.12521549  0.37695533  0.62564236  1
  Fe  Fe17  1  -0.00098154  0.25019596  0.75095913  1
  Fe  Fe18  1  0.00092468  -0.00115079  -0.00222916  1
  Fe  Fe19  1  0.24835162  -0.00188732  0.00024651  1
  Fe  Fe20  1  0.12373620  0.12222577  0.62698478  1
  Fe  Fe21  1  0.50004314  0.74982679  0.75088407  1
  Fe  Fe22  1  0.74776155  -0.00576130  0.00164578  1
  Fe  Fe23  1  0.74754107  0.74837315  0.50400248  1
  Fe  Fe24  1  0.62253352  0.87571809  0.62528529  1
  Fe  Fe25  1  0.25167595  0.25006076  0.74987866  1
  Fe  Fe26  1  0.87783348  0.62060874  0.12509771  1
  Fe  Fe27  1  0.12486196  0.12549738  0.12490289  1
  Fe  Fe28  1  0.12484091  0.37389644  0.37391716  1
  Fe  Fe29  1  0.87098466  0.62886829  0.87370666  1
  Fe  Fe30  1  0.37845334  0.12453910  0.62417002  1
  Fe  Fe31  1  0.87444979  0.62290701  0.62491026  1
  Fe  Fe32  1  0.37702090  0.87348610  0.37529733  1
  Fe  Fe33  1  0.11987687  0.37889680  0.12210831  1
  Fe  Fe34  1  0.74845492  0.50111452  -0.00132224  1
  Fe  Fe35  1  0.37397862  0.37632403  0.87679519  1
  Fe  Fe36  1  0.25009455  0.50294350  0.24805250  1
  Fe  Fe37  1  0.25087538  -0.00128810  0.75036952  1
  Fe  Fe38  1  0.37575054  0.37583764  0.37322613  1
  Fe  Fe39  1  0.37758749  0.62356969  0.62431626  1
  Fe  Fe40  1  0.87284614  0.37402854  0.87873105  1
  Fe  Fe41  1  0.00200716  0.74983410  0.50297158  1
  Fe  Fe42  1  0.62469279  0.12517423  0.12571798  1
  Fe  Fe43  1  0.25007487  0.50077160  0.49927668  1
  Fe  Fe44  1  0.25208854  0.25203842  0.24571917  1
  Fe  Fe45  1  -0.00120598  -0.00047613  0.25085754  1
  Fe  Fe46  1  -0.00182418  0.74977592  0.24997652  1
  Fe  Fe47  1  0.62278431  0.12828339  0.37442632  1
  Fe  Fe48  1  0.62583518  0.37622895  0.62391513  1
  Fe  Fe49  1  0.75248023  0.49700566  0.25203469  1
  Fe  Fe50  1  0.87241911  0.37659020  0.62208294  1
  Fe  Fe51  1  0.62523446  0.12401949  0.87486612  1
  Fe  Fe52  1  0.37795830  0.37960158  0.12392798  1
  Fe  Fe53  1  -0.00046423  0.50068310  0.75286003  1
  Fe  Fe54  1  0.74951096  -0.00061935  0.74847875  1
  Fe  Fe55  1  0.50285916  -0.00579196  -0.00077367  1
  Fe  Fe56  1  0.12609393  0.87340838  0.37367530  1
  Fe  Fe57  1  0.24984081  0.00051807  0.49903988  1
  Fe  Fe58  1  0.50108906  0.50094506  0.75331135  1
  Fe  Fe59  1  0.50265992  0.50103190  0.49647271  1
  Fe  Fe60  1  0.87738911  0.87715143  0.62550912  1
  Fe  Fe61  1  0.00006190  0.50051234  0.49728557  1
  Fe  Fe62  1  0.62352688  0.87269484  0.37223932  1
  Fe  Fe63  1  0.25220407  0.00002289  0.25038471  1
  Fe  Fe64  1  0.12582714  0.62582924  0.37391633  1
  Fe  Fe65  1  0.87388898  0.12695450  0.37570835  1
  Fe  Fe66  1  0.12637905  0.37322753  0.87724265  1
  Fe  Fe67  1  0.25446803  0.74625278  0.24547400  1
  Fe  Fe68  1  0.50336937  0.50145984  -0.00349174  1
  Fe  Fe69  1  0.75303184  0.75115599  0.24626153  1
  Fe  Fe70  1  0.37452700  0.12587416  0.87784035  1
  Fe  Fe71  1  0.62397847  0.62838785  0.37261698  1
  Fe  Fe72  1  0.12472655  0.87326506  0.12618642  1
  Fe  Fe73  1  0.49925404  -0.00256447  0.75276408  1
  Fe  Fe74  1  -0.00102852  0.74839163  0.00063454  1
  Fe  Fe75  1  0.62648000  0.37392166  0.12547557  1
  Fe  Fe76  1  0.50117180  0.25131280  -0.00074831  1
  Fe  Fe77  1  0.37799085  0.12670810  0.37495398  1
  Fe  Fe78  1  0.00102388  0.00015902  0.49823307  1
  Fe  Fe79  1  -0.00081173  0.24955816  0.50176129  1
  Fe  Fe80  1  -0.00553506  0.25415356  0.24703163  1
  Fe  Fe81  1  0.87414604  0.62538494  0.37600695  1
  Fe  Fe82  1  0.50030831  0.25176426  0.75173746  1
  Fe  Fe83  1  0.87339709  0.87464210  0.37606878  1
  Fe  Fe84  1  0.12479762  0.12757974  0.37240990  1
  Fe  Fe85  1  0.24932858  0.74894819  0.50369164  1
  Fe  Fe86  1  0.37179265  0.86961340  0.87752228  1
  Fe  Fe87  1  0.25108969  0.24990783  0.50096437  1
  Fe  Fe88  1  0.74833946  0.50127329  0.75039956  1
  Fe  Fe89  1  0.87237199  0.87127015  0.87400699  1
  Co  Co90  1  0.75334879  0.25161670  0.24778476  1
  Co  Co91  1  0.62696155  0.37452450  0.87420292  1
  Co  Co92  1  0.61963950  0.12429790  0.62764325  1
  Co  Co93  1  0.87760881  0.87709077  0.12562803  1
  Co  Co94  1  0.49877915  0.25107750  0.24786531  1
  Co  Co95  1  0.12340871  0.87910605  0.62624487  1
  Co  Co96  1  0.74912999  0.24446311  0.50408696  1
  Co  Co97  1  0.25099416  0.74654796  0.00608195  1
  Co  Co98  1  0.87547838  0.37932036  0.11871803  1
  Co  Co99  1  0.37482182  0.62733691  0.87565411  1
  Co  Co100  1  -0.00303972  0.49722773  0.25527916  1
  Co  Co101  1  0.50164733  0.74857320  0.49995049  1
  Co  Co102  1  0.12001057  0.62378111  0.12755738  1
  Co  Co103  1  0.50021871  -0.00006333  0.25107577  1
  Co  Co104  1  0.37511409  0.62418219  0.37568634  1
  Co  Co105  1  0.38151218  0.62104474  0.12268663  1
  Co  Co106  1  0.75091823  0.75142373  0.00615722  1
  Co  Co107  1  0.87768806  0.12275738  0.62669009  1
  Co  Co108  1  0.25115545  0.25185428  0.00343480  1
  Co  Co109  1  0.62913795  0.87107298  0.87372001  1
  Co  Co110  1  0.25098687  0.74964207  0.74349016  1
  Co  Co111  1  0.62238060  0.62316476  0.62728597  1
  Co  Co112  1  -0.00007846  -0.00079273  0.75566790  1
  Co  Co113  1  0.50153117  -0.00080571  0.49747494  1
  Co  Co114  1  0.12445232  0.62100698  0.62536611  1
  Co  Co115  1  0.49496494  0.74962677  0.24861351  1
  Co  Co116  1  -0.00048167  0.74859045  0.74726560  1
  Co  Co117  1  0.00052329  0.50465124  -0.00720812  1
  Co  Co118  1  0.87109691  0.37331303  0.38092903  1
  Co  Co119  1  0.50112190  0.75215143  0.00005644  1
  Co  Co120  1  0.74955862  0.75022639  0.74377234  1
  Co  Co121  1  0.50323549  0.49931889  0.25323099  1
  Co  Co122  1  0.74769465  0.25026502  -0.00006046  1
  Co  Co123  1  0.49922459  0.25264509  0.50078225  1
  Co  Co124  1  0.74670046  0.50452363  0.49783110  1
  Co  Co125  1  0.62232201  0.87230845  0.12966222  1
  Co  Co126  1  -0.00082770  0.24814293  -0.00003531  1
  Co  Co127  1  0.37566803  0.87747910  0.12406318  1
