# generated using pymatgen
data_Fe45Co19
_symmetry_space_group_name_H-M   'P 1'
_cell_length_a   11.41608903
_cell_length_b   11.41618399
_cell_length_c   11.41450788
_cell_angle_alpha   89.99406819
_cell_angle_beta   90.00678475
_cell_angle_gamma   90.01122006
_symmetry_Int_Tables_number   1
_chemical_formula_structural   Fe45Co19
_chemical_formula_sum   'Fe90 Co38'
_cell_volume   1487.63190877
_cell_formula_units_Z   2
loop_
 _symmetry_equiv_pos_site_id
 _symmetry_equiv_pos_as_xyz
  1  'x, y, z'
loop_
 _atom_site_type_symbol
 _atom_site_label
 _atom_site_symmetry_multiplicity
 _atom_site_fract_x
 _atom_site_fract_y
 _atom_site_fract_z
 _atom_site_occupancy
  Fe  Fe0  1  0.62197093  0.87342952  0.62389048  1
  Fe  Fe1  1  0.49916670  0.00289300  0.49622265  1
  Fe  Fe2  1  0.75204211  0.50030172  0.74720217  1
  Fe  Fe3  1  0.25019250  0.25236107  0.25076942  1
  Fe  Fe4  1  0.12411955  0.62626847  0.12312613  1
  Fe  Fe5  1  0.49983836  0.74583348  0.49261591  1
  Fe  Fe6  1  0.00149914  0.74993889  0.49824093  1
  Fe  Fe7  1  0.87098436  0.12321586  0.37349108  1
  Fe  Fe8  1  0.12311866  0.87354776  0.12308593  1
  Fe  Fe9  1  0.49939916  0.75301681  0.75544923  1
  Fe  Fe10  1  0.12839816  0.62463898  0.37455892  1
  Fe  Fe11  1  0.37361576  0.12486880  0.87411290  1
  Fe  Fe12  1  0.12365953  0.37525901  0.87805360  1
  Fe  Fe13  1  0.87362243  0.62669865  0.87543947  1
  Fe  Fe14  1  0.50132928  0.24752376  -0.00100269  1
  Fe  Fe15  1  0.00214152  0.24809012  0.49813640  1
  Fe  Fe16  1  0.12867997  0.12225356  0.37298387  1
  Fe  Fe17  1  0.87436878  0.12488176  0.62410385  1
  Fe  Fe18  1  0.12618522  0.12013201  0.87188656  1
  Fe  Fe19  1  0.62432512  0.62704869  0.62742865  1
  Fe  Fe20  1  0.74907326  0.25091223  0.74867074  1
  Fe  Fe21  1  0.87728475  0.37431004  0.87721322  1
  Fe  Fe22  1  0.62019545  0.37412965  0.62401677  1
  Fe  Fe23  1  0.25199253  0.49844134  0.75138324  1
  Fe  Fe24  1  0.37544891  0.12573310  0.62545487  1
  Fe  Fe25  1  0.25048787  0.25120158  0.49733789  1
  Fe  Fe26  1  0.74921321  -0.00240366  0.74761763  1
  Fe  Fe27  1  0.25097912  -0.00409982  0.50164020  1
  Fe  Fe28  1  0.62500695  0.62478913  0.12802059  1
  Fe  Fe29  1  0.00059152  -0.00127088  0.49848232  1
  Fe  Fe30  1  0.12656896  0.62573943  0.62476310  1
  Fe  Fe31  1  0.25188516  0.49780510  0.24959936  1
  Fe  Fe32  1  0.37727298  0.62834862  0.12452530  1
  Fe  Fe33  1  0.00015710  0.24799016  0.75011004  1
  Fe  Fe34  1  0.74882123  0.74930760  0.49941956  1
  Fe  Fe35  1  0.49630282  0.49992361  0.75092335  1
  Fe  Fe36  1  0.37846194  0.37220611  0.62336440  1
  Fe  Fe37  1  0.37818602  0.37468326  0.12385494  1
  Fe  Fe38  1  0.25071970  0.25144549  0.75028656  1
  Fe  Fe39  1  0.12704049  0.62878278  0.87730491  1
  Fe  Fe40  1  0.87602058  0.87292786  0.62421174  1
  Fe  Fe41  1  0.87786911  0.37560820  0.37614950  1
  Fe  Fe42  1  0.00056864  0.50257521  0.75020862  1
  Fe  Fe43  1  0.87308795  0.12608929  0.12646904  1
  Fe  Fe44  1  0.12266869  0.37548119  0.12268722  1
  Fe  Fe45  1  0.25102361  -0.00405928  0.24795691  1
  Fe  Fe46  1  0.25064369  -0.00153939  0.00147278  1
  Fe  Fe47  1  0.75036936  0.50002650  0.00217567  1
  Fe  Fe48  1  0.37375453  0.62856005  0.62673460  1
  Fe  Fe49  1  0.49767627  -0.00265096  0.75269809  1
  Fe  Fe50  1  0.87824841  0.37604429  0.62404774  1
  Fe  Fe51  1  0.87276799  0.87479430  0.87571630  1
  Fe  Fe52  1  0.74940466  0.49698113  0.24816048  1
  Fe  Fe53  1  0.62370659  0.37588718  0.87476387  1
  Fe  Fe54  1  0.74757454  0.25171480  0.49959466  1
  Fe  Fe55  1  0.87818889  0.37437068  0.12205984  1
  Fe  Fe56  1  0.37580567  0.12485749  0.12620463  1
  Fe  Fe57  1  0.74812372  0.74988292  0.00079232  1
  Fe  Fe58  1  0.25180412  0.50190420  -0.00029768  1
  Fe  Fe59  1  0.49912906  0.50325866  -0.00128591  1
  Fe  Fe60  1  0.74996187  0.50147942  0.50307126  1
  Fe  Fe61  1  -0.00055380  0.74949468  0.25060865  1
  Fe  Fe62  1  0.25222164  0.75246044  0.24917772  1
  Fe  Fe63  1  0.25210734  0.49805780  0.49883320  1
  Fe  Fe64  1  0.62592292  0.12338955  0.87417942  1
  Fe  Fe65  1  0.25146911  0.75769368  0.75090027  1
  Fe  Fe66  1  0.74722218  0.75299522  0.25222850  1
  Fe  Fe67  1  0.61884904  0.37964907  0.37718652  1
  Fe  Fe68  1  0.74653718  0.25269296  0.24964776  1
  Fe  Fe69  1  0.50096870  0.24761892  0.25358433  1
  Fe  Fe70  1  0.87479659  0.87361896  0.12617302  1
  Fe  Fe71  1  0.62070431  0.87496967  0.12400409  1
  Fe  Fe72  1  0.74758094  0.00037121  0.00326188  1
  Fe  Fe73  1  0.62700374  0.62503822  0.87261386  1
  Fe  Fe74  1  0.74729243  0.25042170  0.00193544  1
  Fe  Fe75  1  0.00000645  0.50173716  0.24966505  1
  Fe  Fe76  1  0.87392218  0.12520903  0.87504623  1
  Fe  Fe77  1  0.24829105  0.24816034  0.00130294  1
  Fe  Fe78  1  0.25046134  0.75430056  0.49906105  1
  Fe  Fe79  1  0.74965811  -0.00245288  0.49991499  1
  Fe  Fe80  1  -0.00045987  -0.00067436  0.25053811  1
  Fe  Fe81  1  0.38111288  0.87241371  0.12242854  1
  Fe  Fe82  1  0.50186928  0.00139455  0.25250891  1
  Fe  Fe83  1  0.00010274  0.00073384  0.00046886  1
  Fe  Fe84  1  0.00251610  0.24810540  0.24940426  1
  Fe  Fe85  1  0.87277795  0.62445499  0.37463526  1
  Fe  Fe86  1  0.62341178  0.12578807  0.62549002  1
  Fe  Fe87  1  0.12655915  0.12067947  0.62762548  1
  Fe  Fe88  1  0.12336962  0.37584922  0.62352325  1
  Fe  Fe89  1  0.00012697  0.75199180  0.75094275  1
  Co  Co90  1  0.87433050  0.87520215  0.37491186  1
  Co  Co91  1  0.37944572  0.37663377  0.37546848  1
  Co  Co92  1  0.37046672  0.62436313  0.37363179  1
  Co  Co93  1  0.87671740  0.62710350  0.62469706  1
  Co  Co94  1  0.37186498  0.62773940  0.87399776  1
  Co  Co95  1  0.25640145  -0.00604411  0.74869370  1
  Co  Co96  1  0.49995093  0.24936803  0.75201777  1
  Co  Co97  1  0.12537832  0.87659913  0.87607574  1
  Co  Co98  1  0.74798060  -0.00314665  0.24756577  1
  Co  Co99  1  0.37540038  0.87382976  0.88192873  1
  Co  Co100  1  0.38081294  0.87292871  0.62097425  1
  Co  Co101  1  0.62834396  0.62052029  0.37311325  1
  Co  Co102  1  0.50089037  0.74820685  0.25468263  1
  Co  Co103  1  -0.00106059  0.50504616  0.00047217  1
  Co  Co104  1  0.50328998  0.74609511  -0.00305543  1
  Co  Co105  1  0.36994548  0.12276690  0.37337858  1
  Co  Co106  1  0.62414616  0.87696752  0.37615055  1
  Co  Co107  1  0.00120742  0.50297481  0.49869336  1
  Co  Co108  1  0.12405014  0.37574622  0.37414642  1
  Co  Co109  1  -0.00201162  0.75030903  0.00068201  1
  Co  Co110  1  0.49746440  0.50400583  0.24976884  1
  Co  Co111  1  0.12566278  0.87495276  0.37308195  1
  Co  Co112  1  0.12259934  0.87689791  0.62665718  1
  Co  Co113  1  0.00257192  0.24499936  0.00003924  1
  Co  Co114  1  0.50038588  0.00312898  -0.00126508  1
  Co  Co115  1  0.87193675  0.62621929  0.12731750  1
  Co  Co116  1  0.61994300  0.37611277  0.12459888  1
  Co  Co117  1  0.49704709  0.50639562  0.50274785  1
  Co  Co118  1  0.12653158  0.12276888  0.12719956  1
  Co  Co119  1  0.25024166  0.75116035  0.00253672  1
  Co  Co120  1  0.37608225  0.87559707  0.37427347  1
  Co  Co121  1  0.62645787  0.87660682  0.87677025  1
  Co  Co122  1  0.37504244  0.37359564  0.87780240  1
  Co  Co123  1  0.63069481  0.12294650  0.37408348  1
  Co  Co124  1  -0.00384044  -0.00114335  0.75044949  1
  Co  Co125  1  0.50025827  0.24484676  0.49563046  1
  Co  Co126  1  0.62498328  0.12505576  0.12657241  1
  Co  Co127  1  0.74979273  0.75210982  0.74924246  1
