# generated using pymatgen
data_Fe45Co19
_symmetry_space_group_name_H-M   'P 1'
_cell_length_a   11.41502190
_cell_length_b   11.41487681
_cell_length_c   11.41471298
_cell_angle_alpha   90.00773059
_cell_angle_beta   90.00259793
_cell_angle_gamma   89.99547676
_symmetry_Int_Tables_number   1
_chemical_formula_structural   Fe45Co19
_chemical_formula_sum   'Fe90 Co38'
_cell_volume   1487.34928029
_cell_formula_units_Z   2
loop_
 _symmetry_equiv_pos_site_id
 _symmetry_equiv_pos_as_xyz
  1  'x, y, z'
loop_
 _atom_site_type_symbol
 _atom_site_label
 _atom_site_symmetry_multiplicity
 _atom_site_fract_x
 _atom_site_fract_y
 _atom_site_fract_z
 _atom_site_occupancy
  Fe  Fe0  1  0.24949571  0.00154552  0.25075699  1
  Fe  Fe1  1  0.87493654  0.62640784  0.12608953  1
  Fe  Fe2  1  0.87354299  0.62445713  0.62418127  1
  Fe  Fe3  1  0.12503027  0.87594373  0.62522094  1
  Fe  Fe4  1  0.62592386  0.62472690  0.87716471  1
  Fe  Fe5  1  0.50187208  0.00187761  0.24739145  1
  Fe  Fe6  1  0.87400008  0.12567404  0.37423135  1
  Fe  Fe7  1  0.74822688  0.75105571  0.74688118  1
  Fe  Fe8  1  0.12407861  0.62370769  0.37619922  1
  Fe  Fe9  1  0.00020802  -0.00156340  0.00112919  1
  Fe  Fe10  1  0.87434016  0.87362652  0.37224362  1
  Fe  Fe11  1  0.62432914  0.87387353  0.87486143  1
  Fe  Fe12  1  0.75042398  0.50069197  0.25283357  1
  Fe  Fe13  1  0.87570631  0.62500047  0.87418845  1
  Fe  Fe14  1  0.12515498  0.87538486  0.37485494  1
  Fe  Fe15  1  0.50206217  0.74675922  0.74770924  1
  Fe  Fe16  1  0.62476887  0.37584957  0.12562776  1
  Fe  Fe17  1  0.74624099  0.25085586  0.75053703  1
  Fe  Fe18  1  -0.00344403  0.49889189  0.25260160  1
  Fe  Fe19  1  0.74683267  0.25154906  0.49985426  1
  Fe  Fe20  1  0.75045197  0.25188778  0.00164030  1
  Fe  Fe21  1  0.25098289  0.25453830  -0.00257063  1
  Fe  Fe22  1  0.25169860  0.74997165  0.50047345  1
  Fe  Fe23  1  0.00130385  0.25178044  0.25134647  1
  Fe  Fe24  1  0.12489775  0.62212219  0.12277224  1
  Fe  Fe25  1  0.00109762  0.25128881  0.74873662  1
  Fe  Fe26  1  0.12698712  0.37666551  0.62752708  1
  Fe  Fe27  1  0.00072529  0.74786330  0.74941287  1
  Fe  Fe28  1  0.25170109  0.00024570  -0.00132731  1
  Fe  Fe29  1  0.24891440  0.74862696  -0.00017456  1
  Fe  Fe30  1  0.87371363  0.87479191  0.87380515  1
  Fe  Fe31  1  -0.00050303  0.00120296  0.74941186  1
  Fe  Fe32  1  0.12547270  0.12527474  0.12320061  1
  Fe  Fe33  1  0.00020618  0.25082143  0.50017950  1
  Fe  Fe34  1  0.00115217  0.75005154  0.00117239  1
  Fe  Fe35  1  0.25222150  0.25285502  0.50025446  1
  Fe  Fe36  1  0.62254110  0.12753112  0.87948996  1
  Fe  Fe37  1  0.74768311  0.49946927  0.74919222  1
  Fe  Fe38  1  0.75173406  0.49982698  0.00092295  1
  Fe  Fe39  1  0.49846919  0.49671136  -0.00188706  1
  Fe  Fe40  1  0.50082450  0.74967650  0.00147299  1
  Fe  Fe41  1  0.37789901  0.62052638  0.62529683  1
  Fe  Fe42  1  0.74924098  0.75288340  0.50247503  1
  Fe  Fe43  1  0.87360445  0.87380593  0.12613813  1
  Fe  Fe44  1  0.50182356  0.00425129  0.74845992  1
  Fe  Fe45  1  0.25141158  0.00237426  0.74988112  1
  Fe  Fe46  1  0.62462515  0.87586071  0.37574488  1
  Fe  Fe47  1  0.25153831  0.50049764  0.25306254  1
  Fe  Fe48  1  0.87628126  0.37584752  0.87406869  1
  Fe  Fe49  1  0.37389907  0.12607672  0.37756243  1
  Fe  Fe50  1  0.37695116  0.12621640  0.12179022  1
  Fe  Fe51  1  0.74864719  0.00034679  0.00088783  1
  Fe  Fe52  1  0.37635646  0.87455929  0.37462401  1
  Fe  Fe53  1  0.24945801  0.74855920  0.25057959  1
  Fe  Fe54  1  0.87276221  0.37432020  0.62513302  1
  Fe  Fe55  1  0.00143659  0.00001163  0.24959491  1
  Fe  Fe56  1  -0.00270749  0.49817755  0.49928260  1
  Fe  Fe57  1  0.37515490  0.37528601  0.12845910  1
  Fe  Fe58  1  0.12391032  0.12684259  0.87626985  1
  Fe  Fe59  1  0.37579185  0.62375505  0.12473887  1
  Fe  Fe60  1  0.24953500  0.74594580  0.74909331  1
  Fe  Fe61  1  -0.00055685  0.25362646  0.00027381  1
  Fe  Fe62  1  0.24800997  0.24974092  0.25182455  1
  Fe  Fe63  1  0.12739686  0.12335895  0.62225020  1
  Fe  Fe64  1  0.87048111  0.12324518  0.62635488  1
  Fe  Fe65  1  0.37595664  0.87637013  0.62636736  1
  Fe  Fe66  1  0.62652120  0.12429030  0.37660282  1
  Fe  Fe67  1  0.37535267  0.37399553  0.86586290  1
  Fe  Fe68  1  0.87469861  0.12507742  0.87435123  1
  Fe  Fe69  1  0.50116454  0.50212828  0.25364926  1
  Fe  Fe70  1  0.50002835  0.00296892  0.50269059  1
  Fe  Fe71  1  0.74719755  0.74723261  0.25017232  1
  Fe  Fe72  1  0.12615650  0.87421503  0.87415409  1
  Fe  Fe73  1  -0.00259792  0.00013076  0.49951314  1
  Fe  Fe74  1  0.12501591  0.37771731  0.12382128  1
  Fe  Fe75  1  0.37428601  0.87502480  0.12494352  1
  Fe  Fe76  1  0.12455434  0.62316366  0.62403524  1
  Fe  Fe77  1  0.50054282  0.74933708  0.50159791  1
  Fe  Fe78  1  0.87493199  0.12531981  0.12522061  1
  Fe  Fe79  1  0.62574007  0.87473547  0.12378399  1
  Fe  Fe80  1  0.50117366  0.24831489  0.25049283  1
  Fe  Fe81  1  0.74932539  0.24940497  0.24866403  1
  Fe  Fe82  1  0.50142432  0.74736726  0.24960342  1
  Fe  Fe83  1  0.49993589  0.49528789  0.49702172  1
  Fe  Fe84  1  0.37644798  0.87426696  0.87375410  1
  Fe  Fe85  1  0.74884841  0.49832696  0.49739265  1
  Fe  Fe86  1  0.37821593  0.12842282  0.87517927  1
  Fe  Fe87  1  0.25359161  0.49727772  0.49896196  1
  Fe  Fe88  1  -0.00172056  0.75027360  0.50007979  1
  Fe  Fe89  1  0.37482243  0.62449527  0.87460408  1
  Co  Co90  1  0.50018022  -0.00237648  0.00095410  1
  Co  Co91  1  0.62313073  0.87718171  0.62577152  1
  Co  Co92  1  0.24801682  0.50343330  0.75065712  1
  Co  Co93  1  0.75194833  -0.00334872  0.49923500  1
  Co  Co94  1  0.74794718  0.00122789  0.24834264  1
  Co  Co95  1  0.74991770  0.74915548  0.00076744  1
  Co  Co96  1  0.62626114  0.37472939  0.87627020  1
  Co  Co97  1  0.87432138  0.37231670  0.37578881  1
  Co  Co98  1  -0.00412855  0.49944588  0.00060021  1
  Co  Co99  1  0.12463353  0.37619777  0.37553492  1
  Co  Co100  1  0.37576887  0.62648392  0.37588021  1
  Co  Co101  1  0.62509956  0.62251235  0.62204937  1
  Co  Co102  1  0.37670285  0.37566078  0.63068810  1
  Co  Co103  1  0.50075972  0.25027801  0.50235673  1
  Co  Co104  1  0.24653608  0.24802154  0.75012636  1
  Co  Co105  1  0.62504776  0.37310177  0.37270327  1
  Co  Co106  1  0.12548292  0.12513103  0.37732946  1
  Co  Co107  1  0.62306539  0.12817545  0.12094947  1
  Co  Co108  1  0.37298873  0.12802830  0.62420732  1
  Co  Co109  1  0.87359507  0.37439003  0.12635710  1
  Co  Co110  1  0.50571456  0.24693385  0.74557962  1
  Co  Co111  1  0.62990693  0.12401006  0.62286830  1
  Co  Co112  1  0.62311576  0.37709921  0.62516932  1
  Co  Co113  1  0.12265392  0.37790558  0.87408596  1
  Co  Co114  1  0.87392964  0.62718784  0.37620273  1
  Co  Co115  1  -0.00123779  0.49995391  0.74748200  1
  Co  Co116  1  0.12292200  0.62187621  0.87774081  1
  Co  Co117  1  0.37598398  0.37215202  0.37272052  1
  Co  Co118  1  0.74694719  -0.00002580  0.75273757  1
  Co  Co119  1  0.12738513  0.87600203  0.12493448  1
  Co  Co120  1  0.25402566  0.49706195  -0.00234115  1
  Co  Co121  1  0.62513323  0.62592979  0.37805506  1
  Co  Co122  1  0.87564836  0.87653873  0.62793947  1
  Co  Co123  1  0.50470649  0.50151806  0.75252087  1
  Co  Co124  1  0.25178253  -0.00250807  0.49953192  1
  Co  Co125  1  0.49744997  0.25710236  0.00010806  1
  Co  Co126  1  0.00211081  0.74894973  0.24893519  1
  Co  Co127  1  0.62397519  0.62178593  0.12318419  1
