# generated using pymatgen
data_Fe45Co19
_symmetry_space_group_name_H-M   'P 1'
_cell_length_a   11.41574109
_cell_length_b   11.41450606
_cell_length_c   11.41474158
_cell_angle_alpha   89.99453565
_cell_angle_beta   89.99774492
_cell_angle_gamma   90.01151389
_symmetry_Int_Tables_number   1
_chemical_formula_structural   Fe45Co19
_chemical_formula_sum   'Fe90 Co38'
_cell_volume   1487.39838665
_cell_formula_units_Z   2
loop_
 _symmetry_equiv_pos_site_id
 _symmetry_equiv_pos_as_xyz
  1  'x, y, z'
loop_
 _atom_site_type_symbol
 _atom_site_label
 _atom_site_symmetry_multiplicity
 _atom_site_fract_x
 _atom_site_fract_y
 _atom_site_fract_z
 _atom_site_occupancy
  Fe  Fe0  1  0.50072658  0.75324424  0.24588686  1
  Fe  Fe1  1  -0.00061127  0.75044888  0.25120947  1
  Fe  Fe2  1  0.87366012  0.87546854  0.62506193  1
  Fe  Fe3  1  0.74962624  0.74961139  0.25366483  1
  Fe  Fe4  1  0.25107043  0.50380829  0.49045599  1
  Fe  Fe5  1  0.12744625  0.87169988  0.62178624  1
  Fe  Fe6  1  0.12692663  0.87370317  0.37735892  1
  Fe  Fe7  1  0.12801038  0.87530935  0.12519074  1
  Fe  Fe8  1  0.62726768  0.12782209  0.12538862  1
  Fe  Fe9  1  0.49820678  -0.00344215  0.00589524  1
  Fe  Fe10  1  0.49785708  0.25280332  0.00386988  1
  Fe  Fe11  1  0.13083155  0.12825150  0.61905521  1
  Fe  Fe12  1  0.49400212  0.24902898  0.50136052  1
  Fe  Fe13  1  0.00166479  0.24614919  0.25495086  1
  Fe  Fe14  1  0.62257030  0.12562184  0.87626709  1
  Fe  Fe15  1  0.75124589  0.50011147  0.25374382  1
  Fe  Fe16  1  0.87284939  0.12577026  0.62387841  1
  Fe  Fe17  1  0.62150701  0.62314362  0.87571180  1
  Fe  Fe18  1  0.37558658  0.12389151  0.87559054  1
  Fe  Fe19  1  0.49642799  0.74708989  0.50260890  1
  Fe  Fe20  1  0.37524500  0.87471970  0.87495201  1
  Fe  Fe21  1  0.25061421  0.74900952  -0.00094692  1
  Fe  Fe22  1  0.37602732  0.87929994  0.36999425  1
  Fe  Fe23  1  0.62302549  0.87355514  0.87488513  1
  Fe  Fe24  1  0.62186384  0.62330859  0.37659230  1
  Fe  Fe25  1  0.49762864  0.24834021  0.24787003  1
  Fe  Fe26  1  0.87400130  0.62333937  0.62051899  1
  Fe  Fe27  1  0.62277709  0.12596855  0.37517516  1
  Fe  Fe28  1  0.87573196  0.12624815  0.87394544  1
  Fe  Fe29  1  0.37319165  0.38073095  0.62535575  1
  Fe  Fe30  1  0.12809818  0.37616128  0.13061639  1
  Fe  Fe31  1  0.00200200  0.50116087  0.74619856  1
  Fe  Fe32  1  0.12392333  0.37475888  0.87493029  1
  Fe  Fe33  1  0.37270862  0.62143805  0.12505341  1
  Fe  Fe34  1  0.00502082  0.00286908  0.25182723  1
  Fe  Fe35  1  0.74641345  -0.00066963  0.74891427  1
  Fe  Fe36  1  0.62199561  0.37532630  0.37569064  1
  Fe  Fe37  1  0.50212128  0.00126922  0.74645687  1
  Fe  Fe38  1  0.62134140  0.87488607  0.37660649  1
  Fe  Fe39  1  0.49857210  0.00278696  0.50364683  1
  Fe  Fe40  1  0.49767703  0.75100093  0.00391124  1
  Fe  Fe41  1  0.75146204  0.74862661  -0.00252558  1
  Fe  Fe42  1  0.25253931  0.74744072  0.75073017  1
  Fe  Fe43  1  0.87542484  0.62562607  0.12602548  1
  Fe  Fe44  1  0.87355912  0.37285689  0.12757461  1
  Fe  Fe45  1  0.24980028  0.24443991  0.25201650  1
  Fe  Fe46  1  0.25175024  0.25179480  0.75020946  1
  Fe  Fe47  1  0.87510491  0.87709809  0.37484264  1
  Fe  Fe48  1  0.25183491  0.25051760  0.00172606  1
  Fe  Fe49  1  0.75054543  0.49974799  -0.00034551  1
  Fe  Fe50  1  0.12790138  0.37387044  0.61863061  1
  Fe  Fe51  1  0.12605603  0.12662544  0.87663089  1
  Fe  Fe52  1  0.62345716  0.37644432  0.87584638  1
  Fe  Fe53  1  0.62667436  0.62499204  0.12624907  1
  Fe  Fe54  1  0.74812534  0.25087866  0.75090170  1
  Fe  Fe55  1  0.49853502  0.74435749  0.74680351  1
  Fe  Fe56  1  -0.00113628  0.74857320  0.74752272  1
  Fe  Fe57  1  0.00082915  0.00067787  0.50043600  1
  Fe  Fe58  1  0.00284605  0.00188482  0.74743487  1
  Fe  Fe59  1  0.87676232  0.37586234  0.87360242  1
  Fe  Fe60  1  0.49913150  0.49855062  0.24714852  1
  Fe  Fe61  1  0.12175722  0.62576131  0.87622947  1
  Fe  Fe62  1  0.87747473  0.87378433  0.87440185  1
  Fe  Fe63  1  -0.00043555  0.25156353  0.00104121  1
  Fe  Fe64  1  0.37472137  0.37552149  0.37000724  1
  Fe  Fe65  1  0.74856514  0.74785428  0.74894708  1
  Fe  Fe66  1  0.74667367  -0.00008714  0.50123953  1
  Fe  Fe67  1  0.12327330  0.87376553  0.87550405  1
  Fe  Fe68  1  0.87951218  0.37737763  0.37542438  1
  Fe  Fe69  1  0.87422450  0.87448240  0.12574636  1
  Fe  Fe70  1  0.75160134  0.25109261  0.49673465  1
  Fe  Fe71  1  0.62364524  0.37741827  0.62215948  1
  Fe  Fe72  1  0.12553276  0.62316979  0.12817091  1
  Fe  Fe73  1  0.00125426  -0.00018641  0.00137104  1
  Fe  Fe74  1  0.87618441  0.37566431  0.62333443  1
  Fe  Fe75  1  0.25072725  0.74681167  0.25396528  1
  Fe  Fe76  1  0.24864079  -0.00053572  0.74997406  1
  Fe  Fe77  1  0.74603708  -0.00071042  0.25050459  1
  Fe  Fe78  1  0.74930538  0.50111036  0.74951989  1
  Fe  Fe79  1  0.87379942  0.12679883  0.12797718  1
  Fe  Fe80  1  0.24901363  0.50260276  0.75306209  1
  Fe  Fe81  1  0.74929143  0.74923282  0.49857223  1
  Fe  Fe82  1  0.37580607  0.38073735  0.87784102  1
  Fe  Fe83  1  0.12842105  0.62802542  0.61845694  1
  Fe  Fe84  1  0.37438552  0.87495998  0.62604767  1
  Fe  Fe85  1  0.00090211  0.49937496  0.00260904  1
  Fe  Fe86  1  0.62867258  0.37326208  0.12663752  1
  Fe  Fe87  1  0.00214594  0.24973166  0.74621256  1
  Fe  Fe88  1  0.49824253  0.25221304  0.74820606  1
  Fe  Fe89  1  0.75058881  0.00059750  -0.00000020  1
  Co  Co90  1  0.25318267  -0.00355971  0.50044541  1
  Co  Co91  1  -0.00328702  0.24887161  0.49835984  1
  Co  Co92  1  0.00134276  0.74960723  0.00272307  1
  Co  Co93  1  0.12898842  0.12672549  0.38357642  1
  Co  Co94  1  0.37147045  0.12470215  0.62757226  1
  Co  Co95  1  0.75034574  0.25040632  -0.00233723  1
  Co  Co96  1  0.50478582  -0.00134892  0.24429983  1
  Co  Co97  1  0.75055658  0.25130926  0.25572951  1
  Co  Co98  1  0.49575894  0.49891763  0.49767209  1
  Co  Co99  1  0.24983356  0.50385778  0.25725105  1
  Co  Co100  1  0.00323480  0.49990123  0.49988386  1
  Co  Co101  1  0.11927728  0.62785336  0.37589059  1
  Co  Co102  1  0.12482183  0.37242613  0.37498651  1
  Co  Co103  1  0.37742758  0.62238068  0.87881384  1
  Co  Co104  1  0.37163609  0.62052795  0.62402229  1
  Co  Co105  1  0.87785897  0.62493803  0.37626954  1
  Co  Co106  1  0.62559741  0.12997866  0.62365756  1
  Co  Co107  1  0.87843872  0.62364911  0.87512780  1
  Co  Co108  1  0.62493103  0.62111493  0.62113961  1
  Co  Co109  1  0.62354581  0.87202505  0.62433182  1
  Co  Co110  1  0.37398771  0.12193333  0.12663714  1
  Co  Co111  1  -0.00072368  0.50021254  0.25026669  1
  Co  Co112  1  -0.00245497  0.75275162  0.49957563  1
  Co  Co113  1  0.25818438  0.25276100  0.49697524  1
  Co  Co114  1  0.36932273  0.37785049  0.12772002  1
  Co  Co115  1  0.50170992  0.49792480  0.00551221  1
  Co  Co116  1  0.38230013  0.62674488  0.37068154  1
  Co  Co117  1  0.12502211  0.12670700  0.12185507  1
  Co  Co118  1  0.75054408  0.49800693  0.49599859  1
  Co  Co119  1  0.24408367  0.00443355  0.25128308  1
  Co  Co120  1  0.63022597  0.87210498  0.12346428  1
  Co  Co121  1  0.25597040  0.74932810  0.49501736  1
  Co  Co122  1  0.87363706  0.12105165  0.37437869  1
  Co  Co123  1  0.36807526  0.87618758  0.12952251  1
  Co  Co124  1  0.24995945  -0.00061274  -0.00128327  1
  Co  Co125  1  0.24613557  0.49981202  -0.00044228  1
  Co  Co126  1  0.49979137  0.50134359  0.74880570  1
  Co  Co127  1  0.37646127  0.11987116  0.37212774  1
