# generated using pymatgen
data_Fe45Co19
_symmetry_space_group_name_H-M   'P 1'
_cell_length_a   11.41501152
_cell_length_b   11.41520820
_cell_length_c   11.41385877
_cell_angle_alpha   90.00562041
_cell_angle_beta   89.99550650
_cell_angle_gamma   89.99949768
_symmetry_Int_Tables_number   1
_chemical_formula_structural   Fe45Co19
_chemical_formula_sum   'Fe90 Co38'
_cell_volume   1487.27980842
_cell_formula_units_Z   2
loop_
 _symmetry_equiv_pos_site_id
 _symmetry_equiv_pos_as_xyz
  1  'x, y, z'
loop_
 _atom_site_type_symbol
 _atom_site_label
 _atom_site_symmetry_multiplicity
 _atom_site_fract_x
 _atom_site_fract_y
 _atom_site_fract_z
 _atom_site_occupancy
  Fe  Fe0  1  0.12443861  0.12339937  0.37683190  1
  Fe  Fe1  1  0.12717060  0.12664076  0.87625465  1
  Fe  Fe2  1  -0.00032546  0.24798836  0.74911422  1
  Fe  Fe3  1  0.62513116  0.87442538  0.37515758  1
  Fe  Fe4  1  0.24965713  0.24912392  0.25167077  1
  Fe  Fe5  1  0.74958235  0.25127076  0.74831079  1
  Fe  Fe6  1  0.87517814  0.87508340  0.37341727  1
  Fe  Fe7  1  0.74788636  0.49987228  0.49927721  1
  Fe  Fe8  1  0.25191754  0.00157252  0.50101397  1
  Fe  Fe9  1  0.50123224  0.50032796  0.75023023  1
  Fe  Fe10  1  0.49796058  0.50043314  0.00034269  1
  Fe  Fe11  1  0.24841142  0.75152338  0.25171466  1
  Fe  Fe12  1  0.25025041  0.50094145  0.49898641  1
  Fe  Fe13  1  -0.00140250  0.25039155  -0.00112743  1
  Fe  Fe14  1  0.37648403  0.62443818  0.62440596  1
  Fe  Fe15  1  0.87196101  0.12353144  0.12328001  1
  Fe  Fe16  1  0.00078433  0.50236733  0.25050177  1
  Fe  Fe17  1  0.49862523  0.74936967  -0.00004630  1
  Fe  Fe18  1  0.50105652  0.00230252  0.50251606  1
  Fe  Fe19  1  0.62914844  0.12583184  0.38007289  1
  Fe  Fe20  1  0.62602916  0.37615383  0.12697438  1
  Fe  Fe21  1  0.50270637  0.00103385  0.25051513  1
  Fe  Fe22  1  0.00045184  0.00034310  0.75018165  1
  Fe  Fe23  1  0.00130998  0.74963592  0.49981496  1
  Fe  Fe24  1  0.74926709  0.75015738  0.24883420  1
  Fe  Fe25  1  0.50111523  0.50140522  0.25156594  1
  Fe  Fe26  1  0.75045231  0.25059933  0.25003602  1
  Fe  Fe27  1  0.37350721  0.37237242  0.87488388  1
  Fe  Fe28  1  0.62728882  0.87497587  0.12176182  1
  Fe  Fe29  1  0.37581943  0.87544997  0.37566177  1
  Fe  Fe30  1  0.50105847  0.24698569  0.74836609  1
  Fe  Fe31  1  0.50280215  0.50142652  0.49823998  1
  Fe  Fe32  1  0.12548500  0.62788090  0.12434490  1
  Fe  Fe33  1  0.00345594  0.50227971  0.75108053  1
  Fe  Fe34  1  0.87415275  0.87408735  0.62895812  1
  Fe  Fe35  1  0.87505631  0.37704288  0.12570959  1
  Fe  Fe36  1  0.37607620  0.62780132  0.37377191  1
  Fe  Fe37  1  0.12518408  0.12478689  0.12317822  1
  Fe  Fe38  1  0.37736717  0.87547811  0.62633468  1
  Fe  Fe39  1  0.62435634  0.62565157  0.12587926  1
  Fe  Fe40  1  0.37620892  0.87466438  0.12552211  1
  Fe  Fe41  1  0.12408472  0.37361262  0.12469201  1
  Fe  Fe42  1  0.74589115  -0.00132876  0.75102992  1
  Fe  Fe43  1  0.74974924  0.50144763  -0.00121397  1
  Fe  Fe44  1  0.12559275  0.62544234  0.62307040  1
  Fe  Fe45  1  0.87627923  0.37839818  0.62669685  1
  Fe  Fe46  1  0.74624513  0.74904853  0.75418065  1
  Fe  Fe47  1  0.37548931  0.37355064  0.62240125  1
  Fe  Fe48  1  0.87337750  0.87563648  0.12472200  1
  Fe  Fe49  1  0.12221593  0.87390843  0.12488589  1
  Fe  Fe50  1  0.12259843  0.37610928  0.37717940  1
  Fe  Fe51  1  0.50221291  0.74786365  0.75069344  1
  Fe  Fe52  1  -0.00100762  -0.00052557  0.25004993  1
  Fe  Fe53  1  0.25027883  0.75022950  0.74812598  1
  Fe  Fe54  1  0.00271246  0.50072155  -0.00359759  1
  Fe  Fe55  1  0.87183147  0.12305225  0.37741981  1
  Fe  Fe56  1  0.24971813  0.24879397  0.74764531  1
  Fe  Fe57  1  -0.00263823  -0.00081890  -0.00207070  1
  Fe  Fe58  1  0.49979548  0.24926733  -0.00031761  1
  Fe  Fe59  1  0.62895972  0.12395944  0.12105656  1
  Fe  Fe60  1  0.62532466  0.37479129  0.87586507  1
  Fe  Fe61  1  0.87528274  0.37772998  0.37409321  1
  Fe  Fe62  1  0.87476060  0.62503612  0.37459138  1
  Fe  Fe63  1  0.12433373  0.87173042  0.87460673  1
  Fe  Fe64  1  0.87262543  0.62463441  0.62829632  1
  Fe  Fe65  1  0.37413470  0.12466654  0.12445400  1
  Fe  Fe66  1  0.87520343  0.62516660  0.12525179  1
  Fe  Fe67  1  0.25179482  -0.00258747  -0.00239121  1
  Fe  Fe68  1  0.49936942  0.00101622  -0.00375059  1
  Fe  Fe69  1  0.25125664  -0.00001567  0.75084001  1
  Fe  Fe70  1  0.24878286  0.50040291  0.75114231  1
  Fe  Fe71  1  0.37555783  0.37443217  0.12618690  1
  Fe  Fe72  1  0.25022050  0.50044272  0.25052526  1
  Fe  Fe73  1  -0.00403441  0.74964131  -0.00413426  1
  Fe  Fe74  1  -0.00289411  -0.00059465  0.50227447  1
  Fe  Fe75  1  0.12538727  0.87556872  0.62319032  1
  Fe  Fe76  1  0.50161472  0.74926680  0.50130219  1
  Fe  Fe77  1  0.37724394  0.37195713  0.37641388  1
  Fe  Fe78  1  0.24956781  -0.00076270  0.25031010  1
  Fe  Fe79  1  -0.00119474  0.24841877  0.25005119  1
  Fe  Fe80  1  0.62381724  0.37387779  0.62208290  1
  Fe  Fe81  1  -0.00243883  0.24814477  0.50272995  1
  Fe  Fe82  1  0.24923364  0.49985527  -0.00100023  1
  Fe  Fe83  1  0.87490202  0.37780513  0.87371594  1
  Fe  Fe84  1  0.87140162  0.12470909  0.87472417  1
  Fe  Fe85  1  0.50166849  0.24753197  0.25169300  1
  Fe  Fe86  1  0.12431541  0.37461892  0.62338291  1
  Fe  Fe87  1  0.74781163  0.75092874  0.50149196  1
  Fe  Fe88  1  0.37356944  0.62666040  0.87570010  1
  Fe  Fe89  1  0.50261922  0.00383081  0.75139392  1
  Co  Co90  1  0.12566848  0.37188933  0.87391958  1
  Co  Co91  1  0.00185112  0.74905102  0.74833422  1
  Co  Co92  1  0.25096053  0.25147397  0.00203129  1
  Co  Co93  1  0.12486152  0.12358861  0.62435989  1
  Co  Co94  1  0.62293208  0.87354857  0.87713670  1
  Co  Co95  1  0.74589638  0.49834346  0.74930315  1
  Co  Co96  1  0.37725546  0.87309182  0.87229296  1
  Co  Co97  1  0.25072127  0.74969928  0.50024623  1
  Co  Co98  1  0.62938982  0.12592600  0.62205755  1
  Co  Co99  1  0.87110802  0.12183071  0.62634953  1
  Co  Co100  1  0.12456349  0.62447038  0.37543521  1
  Co  Co101  1  0.62497572  0.62761636  0.37361728  1
  Co  Co102  1  0.37512184  0.12405993  0.37458844  1
  Co  Co103  1  0.24940486  0.24942369  0.49979496  1
  Co  Co104  1  0.75050695  -0.00569963  0.50233626  1
  Co  Co105  1  0.12640856  0.62899056  0.87529694  1
  Co  Co106  1  0.37457807  0.12496872  0.62564730  1
  Co  Co107  1  0.62357631  0.62322668  0.87601206  1
  Co  Co108  1  0.62804395  0.12737165  0.87709954  1
  Co  Co109  1  0.74856282  -0.00031293  0.25049578  1
  Co  Co110  1  0.37406101  0.62589108  0.12634025  1
  Co  Co111  1  0.75451797  0.25446277  0.50159120  1
  Co  Co112  1  0.75090905  -0.00306559  -0.00347877  1
  Co  Co113  1  0.87477332  0.62208123  0.87021099  1
  Co  Co114  1  0.62322019  0.87406792  0.62714126  1
  Co  Co115  1  0.62540264  0.37322317  0.37473578  1
  Co  Co116  1  0.12443344  0.87709481  0.37705647  1
  Co  Co117  1  0.75217405  0.74776256  -0.00238688  1
  Co  Co118  1  0.37360281  0.12683179  0.87514339  1
  Co  Co119  1  -0.00131241  0.50296439  0.50186862  1
  Co  Co120  1  0.50035422  0.75263221  0.24893996  1
  Co  Co121  1  0.87473866  0.87487282  0.87147485  1
  Co  Co122  1  0.75143861  0.25419409  0.00070027  1
  Co  Co123  1  0.62573244  0.62453673  0.62559924  1
  Co  Co124  1  0.74946074  0.50132009  0.25045154  1
  Co  Co125  1  0.00030149  0.75045797  0.25175157  1
  Co  Co126  1  0.49896976  0.24738869  0.50057243  1
  Co  Co127  1  0.25191152  0.75240457  0.00070939  1
