# generated using pymatgen
data_Fe45Co19
_symmetry_space_group_name_H-M   'P 1'
_cell_length_a   11.41514039
_cell_length_b   11.41528550
_cell_length_c   11.41574416
_cell_angle_alpha   89.99776383
_cell_angle_beta   90.00495458
_cell_angle_gamma   90.00321773
_symmetry_Int_Tables_number   1
_chemical_formula_structural   Fe45Co19
_chemical_formula_sum   'Fe90 Co38'
_cell_volume   1487.55235320
_cell_formula_units_Z   2
loop_
 _symmetry_equiv_pos_site_id
 _symmetry_equiv_pos_as_xyz
  1  'x, y, z'
loop_
 _atom_site_type_symbol
 _atom_site_label
 _atom_site_symmetry_multiplicity
 _atom_site_fract_x
 _atom_site_fract_y
 _atom_site_fract_z
 _atom_site_occupancy
  Fe  Fe0  1  0.37424396  0.37418425  0.37482890  1
  Fe  Fe1  1  0.37349982  0.37626049  0.62617363  1
  Fe  Fe2  1  0.75038800  0.25107667  0.50161976  1
  Fe  Fe3  1  0.87556597  0.12591699  0.12293634  1
  Fe  Fe4  1  0.87708617  0.62446246  0.87506559  1
  Fe  Fe5  1  0.75018363  -0.00151131  -0.00163312  1
  Fe  Fe6  1  0.24588874  0.75064906  0.00078446  1
  Fe  Fe7  1  0.37582892  0.37498799  0.12563771  1
  Fe  Fe8  1  0.75044736  0.50016771  0.49997904  1
  Fe  Fe9  1  0.37250402  0.62609210  0.87677442  1
  Fe  Fe10  1  0.75055280  0.75379934  0.50238724  1
  Fe  Fe11  1  0.62578349  0.37672002  0.62779875  1
  Fe  Fe12  1  0.25071603  0.74633268  0.24670802  1
  Fe  Fe13  1  0.00302408  -0.00208606  0.00087546  1
  Fe  Fe14  1  0.87788885  0.62348664  0.62325261  1
  Fe  Fe15  1  0.62616367  0.87555088  0.12441812  1
  Fe  Fe16  1  0.62235929  0.62483481  0.62228524  1
  Fe  Fe17  1  0.37374849  0.12308625  0.62463884  1
  Fe  Fe18  1  0.62474267  0.62623949  0.87646244  1
  Fe  Fe19  1  0.62441480  0.37517406  0.37448761  1
  Fe  Fe20  1  0.75119317  0.74921934  0.24793120  1
  Fe  Fe21  1  0.12650885  0.87551313  0.62723653  1
  Fe  Fe22  1  0.37181487  0.87636160  0.12617826  1
  Fe  Fe23  1  0.49916833  0.49829217  -0.00267749  1
  Fe  Fe24  1  0.87525911  0.12663099  0.87529941  1
  Fe  Fe25  1  0.00075291  -0.00011701  0.74985283  1
  Fe  Fe26  1  0.37810979  0.62773831  0.37646506  1
  Fe  Fe27  1  0.00280345  -0.00217762  0.50000645  1
  Fe  Fe28  1  0.24754718  0.50298920  0.75145790  1
  Fe  Fe29  1  -0.00143177  0.74769879  0.24823641  1
  Fe  Fe30  1  0.37027633  0.87270448  0.87244946  1
  Fe  Fe31  1  0.75094559  0.00135504  0.25035116  1
  Fe  Fe32  1  0.49970988  0.25161507  0.50123260  1
  Fe  Fe33  1  0.12468556  0.37478448  0.87292221  1
  Fe  Fe34  1  0.37253212  0.12429999  0.37653746  1
  Fe  Fe35  1  0.62556391  0.62356684  0.12338657  1
  Fe  Fe36  1  0.49800006  0.00031150  0.24909693  1
  Fe  Fe37  1  0.75138897  0.24835815  0.25028392  1
  Fe  Fe38  1  0.12706681  0.12655780  0.37583560  1
  Fe  Fe39  1  0.74970975  0.75021778  0.74856367  1
  Fe  Fe40  1  0.49902812  -0.00172805  -0.00238368  1
  Fe  Fe41  1  0.49792284  0.24824108  0.25029857  1
  Fe  Fe42  1  0.75279470  0.25390774  -0.00142763  1
  Fe  Fe43  1  0.37562376  0.62361471  0.62419080  1
  Fe  Fe44  1  0.00391406  0.74763892  0.75132733  1
  Fe  Fe45  1  0.00248079  0.75245731  0.00166718  1
  Fe  Fe46  1  0.87530624  0.87490918  0.37396448  1
  Fe  Fe47  1  0.24777820  0.00158990  0.75079375  1
  Fe  Fe48  1  0.75363419  0.49670756  -0.00171746  1
  Fe  Fe49  1  0.49865327  0.75080127  0.00215569  1
  Fe  Fe50  1  0.24834250  0.49836220  0.00125412  1
  Fe  Fe51  1  0.62399084  0.12588305  0.12245178  1
  Fe  Fe52  1  0.12457003  0.12513537  0.87582491  1
  Fe  Fe53  1  0.49994592  0.75104784  0.74825859  1
  Fe  Fe54  1  0.87537593  0.12429663  0.37883701  1
  Fe  Fe55  1  0.00109071  0.24988690  0.74875039  1
  Fe  Fe56  1  0.62548301  0.12151178  0.62331821  1
  Fe  Fe57  1  0.12609742  0.12559115  0.12512928  1
  Fe  Fe58  1  0.24788635  0.49843111  0.49694544  1
  Fe  Fe59  1  0.00041551  0.00105939  0.24902565  1
  Fe  Fe60  1  0.87675522  0.87410649  0.87436203  1
  Fe  Fe61  1  0.24879162  0.25043666  0.00225369  1
  Fe  Fe62  1  0.50181567  -0.00117889  0.75346873  1
  Fe  Fe63  1  0.75214983  0.75072680  0.00101247  1
  Fe  Fe64  1  0.24706446  0.25147241  0.50171438  1
  Fe  Fe65  1  0.87521224  0.12270076  0.62319724  1
  Fe  Fe66  1  -0.00177519  0.49618276  -0.00123647  1
  Fe  Fe67  1  0.75217100  0.50176976  0.25039631  1
  Fe  Fe68  1  0.87610696  0.37885432  0.62911839  1
  Fe  Fe69  1  0.49916825  0.50297694  0.25038564  1
  Fe  Fe70  1  0.87696696  0.37430308  0.37398306  1
  Fe  Fe71  1  0.49552586  -0.00541117  0.49981146  1
  Fe  Fe72  1  0.12443168  0.62281798  0.62076960  1
  Fe  Fe73  1  0.50131616  0.25022173  0.75152889  1
  Fe  Fe74  1  0.00265256  0.25328782  0.50206146  1
  Fe  Fe75  1  0.62504419  0.12371371  0.37802425  1
  Fe  Fe76  1  0.62226438  0.62803694  0.37745986  1
  Fe  Fe77  1  0.12092898  0.37372967  0.13079250  1
  Fe  Fe78  1  0.50029527  0.25250580  -0.00306637  1
  Fe  Fe79  1  0.62504121  0.37542375  0.12593824  1
  Fe  Fe80  1  0.24944687  0.50196328  0.25118423  1
  Fe  Fe81  1  0.24828581  0.24924743  0.74832451  1
  Fe  Fe82  1  0.62306578  0.87369730  0.37507604  1
  Fe  Fe83  1  0.74970247  -0.00142499  0.75066375  1
  Fe  Fe84  1  0.49946952  0.49957617  0.75269880  1
  Fe  Fe85  1  0.00009213  0.75112836  0.49901694  1
  Fe  Fe86  1  0.25387218  0.75376185  0.50238841  1
  Fe  Fe87  1  0.12846181  0.87388019  0.37140914  1
  Fe  Fe88  1  -0.00107184  0.50532568  0.25503468  1
  Fe  Fe89  1  0.37385874  0.12627859  0.87651035  1
  Co  Co90  1  0.87286778  0.62764453  0.37819259  1
  Co  Co91  1  0.12378386  0.37219874  0.37051278  1
  Co  Co92  1  0.00052179  0.25172746  -0.00139073  1
  Co  Co93  1  0.74954211  0.50585503  0.75049934  1
  Co  Co94  1  0.12506870  0.12302892  0.62435253  1
  Co  Co95  1  0.87838535  0.37461176  0.12949915  1
  Co  Co96  1  0.37658207  0.12484238  0.12123361  1
  Co  Co97  1  0.12523474  0.37915044  0.62631505  1
  Co  Co98  1  0.49988971  0.49770996  0.49921670  1
  Co  Co99  1  0.37292742  0.87308864  0.36957303  1
  Co  Co100  1  0.62637300  0.12604654  0.87688736  1
  Co  Co101  1  0.12630657  0.87486488  0.12837111  1
  Co  Co102  1  0.37379982  0.62349825  0.12208236  1
  Co  Co103  1  0.00324313  0.50300705  0.75155518  1
  Co  Co104  1  0.24581871  0.74495767  0.74908630  1
  Co  Co105  1  0.12230507  0.62323781  0.12397331  1
  Co  Co106  1  0.37181257  0.87758619  0.63192812  1
  Co  Co107  1  0.37148469  0.37438398  0.87381759  1
  Co  Co108  1  0.62841014  0.37525688  0.87179791  1
  Co  Co109  1  0.00130021  0.49869694  0.49603565  1
  Co  Co110  1  0.50004699  0.74899605  0.24540907  1
  Co  Co111  1  0.75184915  -0.00369370  0.49952536  1
  Co  Co112  1  0.12627733  0.87571966  0.87265147  1
  Co  Co113  1  0.25286515  0.24825402  0.24835653  1
  Co  Co114  1  0.87491334  0.37435810  0.86837555  1
  Co  Co115  1  0.62616427  0.87218538  0.87549949  1
  Co  Co116  1  0.87605115  0.62453767  0.12299860  1
  Co  Co117  1  0.49565128  0.75524075  0.50321490  1
  Co  Co118  1  0.87545248  0.87599076  0.12546357  1
  Co  Co119  1  0.24915499  -0.00316112  0.49989469  1
  Co  Co120  1  0.12473127  0.62330305  0.87999257  1
  Co  Co121  1  0.25078525  0.00373275  0.24937152  1
  Co  Co122  1  0.87795669  0.87493468  0.62664100  1
  Co  Co123  1  -0.00193862  0.24466447  0.25110106  1
  Co  Co124  1  0.24849325  -0.00004728  -0.00058161  1
  Co  Co125  1  0.74976487  0.24624007  0.74804301  1
  Co  Co126  1  0.12724452  0.62895305  0.37676522  1
  Co  Co127  1  0.62479839  0.87759679  0.62466520  1
