# generated using pymatgen
data_Fe45Co19
_symmetry_space_group_name_H-M   'P 1'
_cell_length_a   11.41529400
_cell_length_b   11.41458489
_cell_length_c   11.41672407
_cell_angle_alpha   90.00157998
_cell_angle_beta   90.00507282
_cell_angle_gamma   90.00609270
_symmetry_Int_Tables_number   1
_chemical_formula_structural   Fe45Co19
_chemical_formula_sum   'Fe90 Co38'
_cell_volume   1487.60874828
_cell_formula_units_Z   2
loop_
 _symmetry_equiv_pos_site_id
 _symmetry_equiv_pos_as_xyz
  1  'x, y, z'
loop_
 _atom_site_type_symbol
 _atom_site_label
 _atom_site_symmetry_multiplicity
 _atom_site_fract_x
 _atom_site_fract_y
 _atom_site_fract_z
 _atom_site_occupancy
  Fe  Fe0  1  0.62463431  0.12602093  0.37510847  1
  Fe  Fe1  1  0.62414316  0.87047378  0.12779083  1
  Fe  Fe2  1  0.62503920  0.12636130  0.62326170  1
  Fe  Fe3  1  -0.00145229  0.74659655  0.50055087  1
  Fe  Fe4  1  0.62512271  0.12454202  0.87577728  1
  Fe  Fe5  1  0.12463761  0.37351369  0.12662785  1
  Fe  Fe6  1  0.12726122  0.62408810  0.62402173  1
  Fe  Fe7  1  0.37620585  0.12478158  0.87553507  1
  Fe  Fe8  1  0.74784228  0.75060539  0.74760504  1
  Fe  Fe9  1  0.75085723  0.49954959  0.74768592  1
  Fe  Fe10  1  0.87361289  0.62385006  0.87554614  1
  Fe  Fe11  1  0.87728177  0.12414068  0.87679225  1
  Fe  Fe12  1  0.49996092  -0.00102011  0.00038812  1
  Fe  Fe13  1  0.50202701  -0.00069229  0.49998823  1
  Fe  Fe14  1  0.50072723  0.50457128  0.25513891  1
  Fe  Fe15  1  0.74957916  -0.00238238  -0.00000293  1
  Fe  Fe16  1  0.37521398  0.12596873  0.12645418  1
  Fe  Fe17  1  0.25112672  0.49456204  0.50079580  1
  Fe  Fe18  1  0.87483307  0.87692834  0.62232820  1
  Fe  Fe19  1  0.62673753  0.37527816  0.12826230  1
  Fe  Fe20  1  0.25023660  0.00188826  0.74756893  1
  Fe  Fe21  1  0.37532817  0.37588216  0.12807414  1
  Fe  Fe22  1  0.62511366  0.62986110  0.12528567  1
  Fe  Fe23  1  0.74743210  -0.00015472  0.74610682  1
  Fe  Fe24  1  0.37752538  0.87447254  0.87169705  1
  Fe  Fe25  1  0.24931756  0.00180290  0.25009757  1
  Fe  Fe26  1  0.24768746  0.25439276  0.49772492  1
  Fe  Fe27  1  0.12292913  0.37601543  0.87357986  1
  Fe  Fe28  1  0.25090776  0.49967346  0.00027625  1
  Fe  Fe29  1  0.50039132  0.25101911  0.25152930  1
  Fe  Fe30  1  0.24815124  -0.00106936  0.50080910  1
  Fe  Fe31  1  0.37685986  0.87259691  0.12781278  1
  Fe  Fe32  1  0.12650369  0.62690898  0.12343390  1
  Fe  Fe33  1  0.24890479  -0.00059751  0.00159244  1
  Fe  Fe34  1  0.12149589  0.12322149  0.87695592  1
  Fe  Fe35  1  0.49824174  0.50074262  0.74559338  1
  Fe  Fe36  1  0.75042542  0.50367642  0.25056701  1
  Fe  Fe37  1  0.00327059  0.25341847  0.50165606  1
  Fe  Fe38  1  0.87713279  0.12304521  0.37754478  1
  Fe  Fe39  1  0.62841300  0.87015323  0.37598869  1
  Fe  Fe40  1  0.12454635  0.62181225  0.37774739  1
  Fe  Fe41  1  0.37560418  0.37442115  0.87439424  1
  Fe  Fe42  1  0.87302769  0.62581541  0.12334200  1
  Fe  Fe43  1  0.62377071  0.62532078  0.62055697  1
  Fe  Fe44  1  -0.00179245  0.49901039  0.74581789  1
  Fe  Fe45  1  0.12454391  0.87422159  0.37430804  1
  Fe  Fe46  1  0.24803457  0.24937114  0.74944781  1
  Fe  Fe47  1  0.12289249  0.62378340  0.87573351  1
  Fe  Fe48  1  0.50127985  0.25192859  0.00090489  1
  Fe  Fe49  1  0.37622359  0.62578767  0.87578542  1
  Fe  Fe50  1  0.50181979  0.25676273  0.49879553  1
  Fe  Fe51  1  0.87822717  0.12349871  0.12337752  1
  Fe  Fe52  1  0.75074549  0.00042320  0.25234989  1
  Fe  Fe53  1  0.87878810  0.37992346  0.37397898  1
  Fe  Fe54  1  0.50079142  0.50105551  0.00143972  1
  Fe  Fe55  1  0.87499565  0.87546045  0.87289663  1
  Fe  Fe56  1  0.87649860  0.12295296  0.62152704  1
  Fe  Fe57  1  0.25247513  0.74965311  -0.00077271  1
  Fe  Fe58  1  0.25084274  0.74782962  0.74875993  1
  Fe  Fe59  1  0.25325737  0.74792846  0.25357152  1
  Fe  Fe60  1  -0.00128322  0.75107957  -0.00101997  1
  Fe  Fe61  1  0.37709128  0.87325281  0.62526938  1
  Fe  Fe62  1  0.12304686  0.87544961  0.62553966  1
  Fe  Fe63  1  -0.00280993  0.49689280  0.00228127  1
  Fe  Fe64  1  0.50135508  -0.00144876  0.25234601  1
  Fe  Fe65  1  0.87506918  0.87494802  0.12616649  1
  Fe  Fe66  1  0.12407211  0.87428195  0.12696521  1
  Fe  Fe67  1  0.87349351  0.87477328  0.37769252  1
  Fe  Fe68  1  0.62158058  0.87395892  0.87282973  1
  Fe  Fe69  1  0.62615233  0.62541914  0.87658895  1
  Fe  Fe70  1  0.37519917  0.12789553  0.62276477  1
  Fe  Fe71  1  -0.00057271  0.74874773  0.74860528  1
  Fe  Fe72  1  0.74939018  0.25213236  0.49798635  1
  Fe  Fe73  1  0.75098999  0.25026121  0.74888075  1
  Fe  Fe74  1  0.75170691  0.24932289  0.25240220  1
  Fe  Fe75  1  0.49633801  0.74758719  0.49586552  1
  Fe  Fe76  1  0.24845969  0.49900186  0.25062560  1
  Fe  Fe77  1  0.00109579  0.24999131  0.24970188  1
  Fe  Fe78  1  0.12485526  0.12443134  0.37435300  1
  Fe  Fe79  1  0.62648829  0.37657434  0.87391545  1
  Fe  Fe80  1  0.75197389  0.50148783  0.49965246  1
  Fe  Fe81  1  0.75253688  0.25440677  0.00022752  1
  Fe  Fe82  1  0.50148661  0.25057341  0.74935703  1
  Fe  Fe83  1  -0.00021103  0.25056914  0.74737886  1
  Fe  Fe84  1  0.12456676  0.87488495  0.87302236  1
  Fe  Fe85  1  0.25249889  0.50082344  0.74957717  1
  Fe  Fe86  1  0.24831244  0.24974211  0.00161714  1
  Fe  Fe87  1  0.62646703  0.12542675  0.12531499  1
  Fe  Fe88  1  0.37506658  0.12629974  0.37551012  1
  Fe  Fe89  1  -0.00187181  0.74731658  0.25179456  1
  Co  Co90  1  0.00273228  -0.00119461  0.49859246  1
  Co  Co91  1  0.12139828  0.12383404  0.12479387  1
  Co  Co92  1  0.74970293  0.75148009  -0.00167073  1
  Co  Co93  1  0.75452115  0.74660103  0.50150477  1
  Co  Co94  1  0.49954129  0.49738546  0.49914767  1
  Co  Co95  1  -0.00043985  0.00112657  0.74856607  1
  Co  Co96  1  0.49591275  0.74749267  0.25603093  1
  Co  Co97  1  0.49821862  0.74914074  -0.00016177  1
  Co  Co98  1  0.37432841  0.37257657  0.62670569  1
  Co  Co99  1  0.37556105  0.37527239  0.37194867  1
  Co  Co100  1  -0.00113606  0.25475657  0.00092972  1
  Co  Co101  1  0.24857376  0.75288700  0.49975308  1
  Co  Co102  1  0.12025577  0.37899008  0.37369903  1
  Co  Co103  1  0.87731377  0.62144492  0.37444418  1
  Co  Co104  1  0.12653466  0.37688968  0.62750448  1
  Co  Co105  1  0.24815793  0.24991335  0.25110105  1
  Co  Co106  1  0.00155198  0.50385923  0.24536908  1
  Co  Co107  1  0.12468306  0.12459576  0.62351306  1
  Co  Co108  1  0.37006985  0.62127118  0.37840692  1
  Co  Co109  1  0.37313234  0.62550269  0.61996496  1
  Co  Co110  1  0.00098721  -0.00410408  -0.00037745  1
  Co  Co111  1  0.62767060  0.37615957  0.62508868  1
  Co  Co112  1  -0.00124308  0.50144159  0.50523875  1
  Co  Co113  1  0.87328607  0.37560868  0.13037063  1
  Co  Co114  1  0.87380931  0.62555071  0.62763794  1
  Co  Co115  1  0.87454662  0.37666917  0.87169799  1
  Co  Co116  1  0.50050166  0.74539852  0.74849755  1
  Co  Co117  1  0.75354529  0.74815840  0.25121079  1
  Co  Co118  1  0.74998629  0.49835809  0.00212849  1
  Co  Co119  1  -0.00076363  -0.00087553  0.25259864  1
  Co  Co120  1  0.62790602  0.37727470  0.37350837  1
  Co  Co121  1  0.62750515  0.62760583  0.37730132  1
  Co  Co122  1  0.50064369  0.00289573  0.74718298  1
  Co  Co123  1  0.37446361  0.62426999  0.12690942  1
  Co  Co124  1  0.87306697  0.37359121  0.62295546  1
  Co  Co125  1  0.62268743  0.87134618  0.62154841  1
  Co  Co126  1  0.37336606  0.87781983  0.37594842  1
  Co  Co127  1  0.74664408  0.00127477  0.49968547  1
