# generated using pymatgen
data_Fe45Co19
_symmetry_space_group_name_H-M   'P 1'
_cell_length_a   11.41527173
_cell_length_b   11.41401381
_cell_length_c   11.41573609
_cell_angle_alpha   89.99305268
_cell_angle_beta   90.00899758
_cell_angle_gamma   90.00655962
_symmetry_Int_Tables_number   1
_chemical_formula_structural   Fe45Co19
_chemical_formula_sum   'Fe90 Co38'
_cell_volume   1487.40266900
_cell_formula_units_Z   2
loop_
 _symmetry_equiv_pos_site_id
 _symmetry_equiv_pos_as_xyz
  1  'x, y, z'
loop_
 _atom_site_type_symbol
 _atom_site_label
 _atom_site_symmetry_multiplicity
 _atom_site_fract_x
 _atom_site_fract_y
 _atom_site_fract_z
 _atom_site_occupancy
  Fe  Fe0  1  0.87292238  0.87587170  0.12922790  1
  Fe  Fe1  1  0.49733954  -0.00245654  0.49804171  1
  Fe  Fe2  1  0.12851477  0.87341936  0.87464214  1
  Fe  Fe3  1  0.12729344  0.37685251  0.12578934  1
  Fe  Fe4  1  0.00000553  0.49981569  0.25035813  1
  Fe  Fe5  1  0.87371601  0.37240324  0.87262882  1
  Fe  Fe6  1  0.62395071  0.62526071  0.62248964  1
  Fe  Fe7  1  0.12580184  0.37539339  0.37381354  1
  Fe  Fe8  1  0.62509603  0.37286567  0.62561191  1
  Fe  Fe9  1  0.62509430  0.37428294  0.37330210  1
  Fe  Fe10  1  0.87661079  0.62378295  0.87598638  1
  Fe  Fe11  1  0.37581595  0.12642533  0.37467049  1
  Fe  Fe12  1  0.50226969  0.75165871  0.74980236  1
  Fe  Fe13  1  0.74868598  0.00734555  0.75457062  1
  Fe  Fe14  1  0.25122700  0.25227350  -0.00007142  1
  Fe  Fe15  1  0.12534808  0.12512453  0.87816439  1
  Fe  Fe16  1  0.12348638  0.12291617  0.37733977  1
  Fe  Fe17  1  0.00003042  0.75014039  0.00138618  1
  Fe  Fe18  1  -0.00070714  -0.00166795  0.00060356  1
  Fe  Fe19  1  0.24960048  0.74891695  0.25022752  1
  Fe  Fe20  1  0.62785876  0.87809944  0.62392068  1
  Fe  Fe21  1  0.50109198  0.50105238  0.24905480  1
  Fe  Fe22  1  0.37788019  0.12413861  0.87620921  1
  Fe  Fe23  1  0.62521268  0.87639204  0.87697269  1
  Fe  Fe24  1  0.25148717  0.49985301  0.00112604  1
  Fe  Fe25  1  0.24980103  0.74894715  0.50266834  1
  Fe  Fe26  1  0.62743629  0.37239326  0.87581022  1
  Fe  Fe27  1  0.62351502  0.12301025  0.11888670  1
  Fe  Fe28  1  0.37593987  0.62590702  0.37528900  1
  Fe  Fe29  1  0.25185417  0.25052063  0.50075967  1
  Fe  Fe30  1  0.25411860  -0.00291456  -0.00038055  1
  Fe  Fe31  1  0.24928117  0.24893831  0.24885852  1
  Fe  Fe32  1  -0.00184121  0.49771898  0.50076134  1
  Fe  Fe33  1  0.00160629  0.74905430  0.74906002  1
  Fe  Fe34  1  0.87491162  0.87518361  0.87431145  1
  Fe  Fe35  1  0.74737193  0.24674061  0.24794790  1
  Fe  Fe36  1  0.50326822  0.24833940  0.74992264  1
  Fe  Fe37  1  0.87254045  0.62318015  0.37198576  1
  Fe  Fe38  1  0.00083165  0.75133020  0.25100131  1
  Fe  Fe39  1  -0.00284133  0.75278214  0.49837018  1
  Fe  Fe40  1  0.87314687  0.87741046  0.62736019  1
  Fe  Fe41  1  0.62557568  0.87457296  0.12700642  1
  Fe  Fe42  1  0.25252938  0.49918075  0.50190561  1
  Fe  Fe43  1  0.75162501  0.74980915  0.00209010  1
  Fe  Fe44  1  0.24893667  0.00136421  0.25058720  1
  Fe  Fe45  1  0.49931723  -0.00178151  0.25066681  1
  Fe  Fe46  1  0.49630028  0.75464038  0.00065780  1
  Fe  Fe47  1  0.75058790  0.49842957  0.49984503  1
  Fe  Fe48  1  0.50031100  0.50069012  0.74986078  1
  Fe  Fe49  1  0.74945604  0.75056432  0.49664414  1
  Fe  Fe50  1  0.74910655  0.50127172  0.74991252  1
  Fe  Fe51  1  0.37601770  0.37296885  0.37098402  1
  Fe  Fe52  1  0.50271639  0.75350689  0.49564457  1
  Fe  Fe53  1  0.87538921  0.62549228  0.62521123  1
  Fe  Fe54  1  0.37778632  0.12715988  0.62411578  1
  Fe  Fe55  1  0.87564364  0.12344645  0.12289736  1
  Fe  Fe56  1  0.50218263  0.00070075  0.75241172  1
  Fe  Fe57  1  0.75170600  0.50090194  0.00297007  1
  Fe  Fe58  1  0.25097246  0.00163026  0.74927826  1
  Fe  Fe59  1  0.12451726  0.62410307  0.87580692  1
  Fe  Fe60  1  0.62314892  0.37591800  0.12433419  1
  Fe  Fe61  1  0.37659962  0.62705320  0.12661484  1
  Fe  Fe62  1  0.12638117  0.87856105  0.37737992  1
  Fe  Fe63  1  0.00284920  0.24640191  0.24809322  1
  Fe  Fe64  1  0.75023756  0.24724250  0.50072846  1
  Fe  Fe65  1  0.49740738  0.25274448  0.00115635  1
  Fe  Fe66  1  -0.00129108  0.00291090  0.75184998  1
  Fe  Fe67  1  0.49806236  0.49646744  0.50132709  1
  Fe  Fe68  1  0.12352695  0.62315247  0.12486636  1
  Fe  Fe69  1  0.12497944  0.62294124  0.37657542  1
  Fe  Fe70  1  0.25071088  0.50481054  0.74576598  1
  Fe  Fe71  1  0.37522196  0.12449315  0.12450509  1
  Fe  Fe72  1  0.87230764  0.87938646  0.36960793  1
  Fe  Fe73  1  0.37226203  0.37390698  0.87076615  1
  Fe  Fe74  1  -0.00137047  0.24927653  0.49980546  1
  Fe  Fe75  1  0.49708006  0.49884909  -0.00098969  1
  Fe  Fe76  1  0.62449189  0.62577610  0.87834522  1
  Fe  Fe77  1  0.75361896  0.00404227  0.49914852  1
  Fe  Fe78  1  0.37379968  0.62968850  0.87313475  1
  Fe  Fe79  1  0.12257874  0.12410088  0.62331451  1
  Fe  Fe80  1  0.12555834  0.37385021  0.62848683  1
  Fe  Fe81  1  0.62252263  0.12553327  0.37706386  1
  Fe  Fe82  1  0.00273830  0.25339177  -0.00133362  1
  Fe  Fe83  1  0.87596693  0.37548528  0.12728256  1
  Fe  Fe84  1  0.12722356  0.87615528  0.12467741  1
  Fe  Fe85  1  0.37409814  0.87357383  0.62636984  1
  Fe  Fe86  1  0.12425595  0.87707308  0.62325470  1
  Fe  Fe87  1  0.87464084  0.37096371  0.62864604  1
  Fe  Fe88  1  0.74852849  0.74872717  0.75117454  1
  Fe  Fe89  1  0.87329029  0.37263798  0.37172074  1
  Co  Co90  1  -0.00442988  -0.00098899  0.49908961  1
  Co  Co91  1  0.00183337  0.24788695  0.75335513  1
  Co  Co92  1  0.62907077  0.87957808  0.37409985  1
  Co  Co93  1  -0.00077470  0.49965626  0.74979707  1
  Co  Co94  1  0.62461936  0.62065927  0.37698935  1
  Co  Co95  1  0.87722591  0.62590875  0.12711987  1
  Co  Co96  1  0.74587378  0.74635799  0.25114986  1
  Co  Co97  1  0.25106237  0.50057270  0.25010133  1
  Co  Co98  1  0.24949052  0.24442305  0.74985953  1
  Co  Co99  1  0.37418755  0.37213082  0.62946548  1
  Co  Co100  1  0.75117000  -0.00289987  -0.00144351  1
  Co  Co101  1  0.24667250  0.74780493  0.74595878  1
  Co  Co102  1  0.74793486  0.50068960  0.24658015  1
  Co  Co103  1  0.37201112  0.87302189  0.87117500  1
  Co  Co104  1  0.50263080  0.75152363  0.25406587  1
  Co  Co105  1  0.12729516  0.12438388  0.12080269  1
  Co  Co106  1  0.62353306  0.12652905  0.88250618  1
  Co  Co107  1  0.74704398  0.00570599  0.24874530  1
  Co  Co108  1  0.12919880  0.37679475  0.87169351  1
  Co  Co109  1  0.62248926  0.12368240  0.62101604  1
  Co  Co110  1  0.49717401  -0.00527879  0.00002364  1
  Co  Co111  1  0.37468418  0.37464087  0.12791945  1
  Co  Co112  1  0.37113134  0.87427100  0.37393365  1
  Co  Co113  1  0.00387589  0.00142028  0.24854365  1
  Co  Co114  1  0.75071679  0.25237901  0.00325594  1
  Co  Co115  1  0.50226805  0.24798617  0.24733380  1
  Co  Co116  1  0.62164939  0.62646517  0.12157359  1
  Co  Co117  1  0.25026440  0.74969353  0.00161204  1
  Co  Co118  1  0.38035831  0.62823754  0.62357296  1
  Co  Co119  1  -0.00033142  0.49696368  -0.00055931  1
  Co  Co120  1  0.87732050  0.12523624  0.37136001  1
  Co  Co121  1  0.12033499  0.62416607  0.62108153  1
  Co  Co122  1  0.25329102  0.00172369  0.50145077  1
  Co  Co123  1  0.74645176  0.24423147  0.74927706  1
  Co  Co124  1  0.87486756  0.12798158  0.88028335  1
  Co  Co125  1  0.49844948  0.25303000  0.50025438  1
  Co  Co126  1  0.37333716  0.87450945  0.12944229  1
  Co  Co127  1  0.87734071  0.12645246  0.62686387  1
