# generated using pymatgen
data_Fe45Co19
_symmetry_space_group_name_H-M   'P 1'
_cell_length_a   11.41667513
_cell_length_b   11.41512205
_cell_length_c   11.41581875
_cell_angle_alpha   90.00739229
_cell_angle_beta   90.00309399
_cell_angle_gamma   89.99860657
_symmetry_Int_Tables_number   1
_chemical_formula_structural   Fe45Co19
_chemical_formula_sum   'Fe90 Co38'
_cell_volume   1487.74076379
_cell_formula_units_Z   2
loop_
 _symmetry_equiv_pos_site_id
 _symmetry_equiv_pos_as_xyz
  1  'x, y, z'
loop_
 _atom_site_type_symbol
 _atom_site_label
 _atom_site_symmetry_multiplicity
 _atom_site_fract_x
 _atom_site_fract_y
 _atom_site_fract_z
 _atom_site_occupancy
  Fe  Fe0  1  0.75203574  0.00064750  0.00045408  1
  Fe  Fe1  1  0.00202821  0.75008465  0.25178987  1
  Fe  Fe2  1  0.62431561  0.12379835  0.62585329  1
  Fe  Fe3  1  0.87321693  0.37454235  0.12453722  1
  Fe  Fe4  1  0.12361455  0.37349357  0.37536595  1
  Fe  Fe5  1  0.50249183  0.25201429  0.74975678  1
  Fe  Fe6  1  0.62199143  0.62788803  0.87653472  1
  Fe  Fe7  1  0.74834309  -0.00270509  0.74902116  1
  Fe  Fe8  1  0.12644628  0.87613836  0.12339603  1
  Fe  Fe9  1  0.37649398  0.12596585  0.62799443  1
  Fe  Fe10  1  0.24866932  0.75022657  0.49457852  1
  Fe  Fe11  1  0.87395462  0.37480140  0.37460042  1
  Fe  Fe12  1  0.62722150  0.87717849  0.37718090  1
  Fe  Fe13  1  0.37699353  0.12586189  0.37306528  1
  Fe  Fe14  1  0.24655941  0.74794983  0.25460357  1
  Fe  Fe15  1  -0.00365692  0.24923675  -0.00383426  1
  Fe  Fe16  1  -0.00127413  0.74829837  0.00087817  1
  Fe  Fe17  1  0.37594980  0.62556681  0.62477345  1
  Fe  Fe18  1  0.62515677  0.12460280  0.12417076  1
  Fe  Fe19  1  0.74949884  0.74763378  0.49968619  1
  Fe  Fe20  1  0.62823184  0.37625963  0.37432742  1
  Fe  Fe21  1  0.12234062  0.12645338  0.63006963  1
  Fe  Fe22  1  0.87402059  0.87309122  0.62487117  1
  Fe  Fe23  1  0.37702980  0.62889990  0.87541054  1
  Fe  Fe24  1  0.75157094  0.24883742  0.50285042  1
  Fe  Fe25  1  0.12440621  0.37676595  0.87520829  1
  Fe  Fe26  1  0.12739233  0.37449523  0.12283172  1
  Fe  Fe27  1  0.87356803  0.38022024  0.87092119  1
  Fe  Fe28  1  0.50061185  0.75033049  0.25087623  1
  Fe  Fe29  1  0.62692572  0.37804617  0.62748332  1
  Fe  Fe30  1  0.37466281  0.37435905  0.37213640  1
  Fe  Fe31  1  -0.00139869  0.00074891  0.50244529  1
  Fe  Fe32  1  0.74919404  0.24881856  0.24782054  1
  Fe  Fe33  1  0.62329170  0.62433792  0.62523372  1
  Fe  Fe34  1  0.50151962  0.49993467  0.49801014  1
  Fe  Fe35  1  0.00004296  0.49764968  0.24825500  1
  Fe  Fe36  1  0.62763992  0.87353715  0.12146700  1
  Fe  Fe37  1  0.87383217  0.62202777  0.37404566  1
  Fe  Fe38  1  -0.00190871  0.00195057  -0.00177974  1
  Fe  Fe39  1  0.24965724  0.00157984  0.49875209  1
  Fe  Fe40  1  0.37232902  0.62502524  0.12558253  1
  Fe  Fe41  1  0.37683335  0.12687088  0.12579959  1
  Fe  Fe42  1  0.87525712  0.12595521  0.37240129  1
  Fe  Fe43  1  0.36996258  0.87299827  0.12311721  1
  Fe  Fe44  1  0.62696622  0.37845172  0.87468297  1
  Fe  Fe45  1  0.87335856  0.87342427  0.87560104  1
  Fe  Fe46  1  0.25126303  0.00161245  0.75468256  1
  Fe  Fe47  1  0.62421802  0.12329414  0.87481704  1
  Fe  Fe48  1  0.37320987  0.37376982  0.12741546  1
  Fe  Fe49  1  0.49716313  -0.00450735  -0.00221428  1
  Fe  Fe50  1  0.00198339  0.75089306  0.74981490  1
  Fe  Fe51  1  0.24783736  0.74834834  0.75182368  1
  Fe  Fe52  1  0.87725501  0.12595234  0.63159580  1
  Fe  Fe53  1  0.24918354  0.00093292  0.25018907  1
  Fe  Fe54  1  0.12730624  0.87672248  0.87830405  1
  Fe  Fe55  1  0.37255392  0.87359234  0.62518076  1
  Fe  Fe56  1  0.37479167  0.37526430  0.62597695  1
  Fe  Fe57  1  0.74894238  0.74791920  0.75080317  1
  Fe  Fe58  1  0.74994629  0.75021955  0.24979230  1
  Fe  Fe59  1  0.12636457  0.87597842  0.62375692  1
  Fe  Fe60  1  0.62649484  0.62561573  0.12455899  1
  Fe  Fe61  1  0.49977801  -0.00191981  0.50058274  1
  Fe  Fe62  1  0.50055706  -0.00744405  0.75225989  1
  Fe  Fe63  1  0.37596884  0.37340636  0.87366360  1
  Fe  Fe64  1  0.87255406  0.37600457  0.62972226  1
  Fe  Fe65  1  -0.00279201  0.49896656  0.50332838  1
  Fe  Fe66  1  0.24948481  0.24834166  0.49994153  1
  Fe  Fe67  1  0.49733081  0.50068026  0.00027775  1
  Fe  Fe68  1  0.62683011  0.12346242  0.37461448  1
  Fe  Fe69  1  0.12519643  0.37293234  0.62632177  1
  Fe  Fe70  1  -0.00134356  0.00042697  0.24842351  1
  Fe  Fe71  1  0.50137773  0.50034636  0.25010505  1
  Fe  Fe72  1  0.87462530  0.87415644  0.12463906  1
  Fe  Fe73  1  0.25066675  0.50072668  0.75126038  1
  Fe  Fe74  1  0.50124202  0.25110570  0.49941110  1
  Fe  Fe75  1  0.12443403  0.62125372  0.12359298  1
  Fe  Fe76  1  0.12125386  0.12655660  0.37455461  1
  Fe  Fe77  1  0.50022530  0.75089564  0.49919392  1
  Fe  Fe78  1  0.25009681  0.50066251  0.49732914  1
  Fe  Fe79  1  0.50109217  -0.00241809  0.24886700  1
  Fe  Fe80  1  0.12429708  0.62524436  0.62211579  1
  Fe  Fe81  1  0.50121509  0.25132684  0.00019045  1
  Fe  Fe82  1  0.87389322  0.87759757  0.37544776  1
  Fe  Fe83  1  0.12297672  0.12657362  0.12324408  1
  Fe  Fe84  1  0.25085492  0.24656294  -0.00355491  1
  Fe  Fe85  1  0.12144456  0.62087203  0.87758981  1
  Fe  Fe86  1  0.62683388  0.37634294  0.12313303  1
  Fe  Fe87  1  0.75219790  0.24772958  -0.00336996  1
  Fe  Fe88  1  0.75407738  0.50651567  -0.00025415  1
  Fe  Fe89  1  0.00066661  0.75123939  0.49802703  1
  Co  Co90  1  0.25350115  0.49982233  -0.00222984  1
  Co  Co91  1  -0.00077658  0.25361460  0.75343869  1
  Co  Co92  1  0.00016855  -0.00573179  0.75057442  1
  Co  Co93  1  0.25175894  0.00498013  -0.00179771  1
  Co  Co94  1  0.74780927  0.24907001  0.75120086  1
  Co  Co95  1  -0.00030197  0.25213563  0.24753554  1
  Co  Co96  1  0.25007303  0.25018897  0.75135089  1
  Co  Co97  1  0.75071799  0.50008874  0.50277293  1
  Co  Co98  1  0.12093990  0.62149468  0.37691918  1
  Co  Co99  1  0.87463746  0.12220616  0.87076951  1
  Co  Co100  1  -0.00373741  0.49901376  0.00236744  1
  Co  Co101  1  0.12132068  0.12485737  0.87291873  1
  Co  Co102  1  0.87504354  0.12593808  0.12508154  1
  Co  Co103  1  0.37158200  0.87049555  0.87691866  1
  Co  Co104  1  0.87637230  0.62737922  0.62495827  1
  Co  Co105  1  0.50145150  0.75444198  0.74868018  1
  Co  Co106  1  0.49870898  0.75156903  0.00251469  1
  Co  Co107  1  0.24659284  0.74654620  -0.00039523  1
  Co  Co108  1  0.62801954  0.87175808  0.87913134  1
  Co  Co109  1  0.87713332  0.62592354  0.12918459  1
  Co  Co110  1  0.38039010  0.12685828  0.87316804  1
  Co  Co111  1  0.37475022  0.87510515  0.37463125  1
  Co  Co112  1  0.24809510  0.24835219  0.25095925  1
  Co  Co113  1  0.37695034  0.62452929  0.37485876  1
  Co  Co114  1  0.75332423  0.00361302  0.50271965  1
  Co  Co115  1  0.00196652  0.50103182  0.74592583  1
  Co  Co116  1  0.49868554  0.50053553  0.75151967  1
  Co  Co117  1  0.88028489  0.62466992  0.87227441  1
  Co  Co118  1  0.12386119  0.87916448  0.37534917  1
  Co  Co119  1  0.24818324  0.50088009  0.25164556  1
  Co  Co120  1  -0.00245474  0.25017114  0.50299670  1
  Co  Co121  1  0.75457413  0.74518551  0.00040269  1
  Co  Co122  1  0.62758770  0.87477080  0.62154702  1
  Co  Co123  1  0.74996852  -0.00054969  0.24750868  1
  Co  Co124  1  0.50361177  0.25097766  0.24988347  1
  Co  Co125  1  0.62693031  0.62430879  0.37441029  1
  Co  Co126  1  0.75017156  0.49985167  0.24780655  1
  Co  Co127  1  0.74916695  0.50670268  0.75051566  1
