# generated using pymatgen
data_Fe45Co19
_symmetry_space_group_name_H-M   'P 1'
_cell_length_a   11.41444733
_cell_length_b   11.41426510
_cell_length_c   11.41569905
_cell_angle_alpha   89.99069017
_cell_angle_beta   90.00201412
_cell_angle_gamma   90.00012052
_symmetry_Int_Tables_number   1
_chemical_formula_structural   Fe45Co19
_chemical_formula_sum   'Fe90 Co38'
_cell_volume   1487.32318618
_cell_formula_units_Z   2
loop_
 _symmetry_equiv_pos_site_id
 _symmetry_equiv_pos_as_xyz
  1  'x, y, z'
loop_
 _atom_site_type_symbol
 _atom_site_label
 _atom_site_symmetry_multiplicity
 _atom_site_fract_x
 _atom_site_fract_y
 _atom_site_fract_z
 _atom_site_occupancy
  Fe  Fe0  1  0.49612954  0.75111275  0.49971696  1
  Fe  Fe1  1  0.24998183  0.49656350  0.50249973  1
  Fe  Fe2  1  0.49713047  0.74935686  0.74922354  1
  Fe  Fe3  1  0.88067416  0.87896445  0.62836638  1
  Fe  Fe4  1  0.00254108  -0.00066982  -0.00457997  1
  Fe  Fe5  1  0.75086931  0.25229601  0.74973518  1
  Fe  Fe6  1  0.62578133  0.37544531  0.87552529  1
  Fe  Fe7  1  0.37083530  0.62273011  0.87509734  1
  Fe  Fe8  1  0.87917560  0.62141607  0.12655496  1
  Fe  Fe9  1  0.50028350  0.50141514  -0.00152337  1
  Fe  Fe10  1  0.12379834  0.62502965  0.62309750  1
  Fe  Fe11  1  0.62780903  0.37362751  0.37569240  1
  Fe  Fe12  1  0.00256990  0.00399494  0.25362278  1
  Fe  Fe13  1  0.49763672  0.49994062  0.49911140  1
  Fe  Fe14  1  0.12480972  0.87608182  0.37674277  1
  Fe  Fe15  1  0.62197586  0.87585762  0.62507137  1
  Fe  Fe16  1  0.37497659  0.87666900  0.12739553  1
  Fe  Fe17  1  0.24758748  0.49729500  0.74619129  1
  Fe  Fe18  1  0.24761452  0.25090949  0.00306555  1
  Fe  Fe19  1  0.74756469  -0.00305290  -0.00141875  1
  Fe  Fe20  1  0.49898239  0.24854607  0.49911487  1
  Fe  Fe21  1  0.24676958  0.25014230  0.74367477  1
  Fe  Fe22  1  0.87147205  0.62474692  0.87206105  1
  Fe  Fe23  1  0.75168145  0.75017749  0.24901985  1
  Fe  Fe24  1  0.37024572  0.36976521  0.37487547  1
  Fe  Fe25  1  0.50151510  0.00141744  0.75308076  1
  Fe  Fe26  1  0.12386190  0.36639745  0.37777267  1
  Fe  Fe27  1  0.62770732  0.62537363  0.37614793  1
  Fe  Fe28  1  0.49950967  0.50076505  0.74991378  1
  Fe  Fe29  1  0.37038482  0.12489758  0.87508297  1
  Fe  Fe30  1  0.87245487  0.12195028  0.87241870  1
  Fe  Fe31  1  0.12397826  0.87590948  0.12398480  1
  Fe  Fe32  1  -0.00044676  0.49931003  0.49643946  1
  Fe  Fe33  1  0.00009227  0.74976790  0.25193398  1
  Fe  Fe34  1  0.87690307  0.62374074  0.62687888  1
  Fe  Fe35  1  0.75442991  0.49697821  0.24970045  1
  Fe  Fe36  1  0.37138643  0.62380408  0.37455347  1
  Fe  Fe37  1  0.12874760  0.62391353  0.87563630  1
  Fe  Fe38  1  0.24462357  0.49652574  0.24742411  1
  Fe  Fe39  1  0.37567251  0.37536001  0.12477464  1
  Fe  Fe40  1  0.62509393  0.62390280  0.12608596  1
  Fe  Fe41  1  0.75316854  -0.00075000  0.50073601  1
  Fe  Fe42  1  0.00152075  0.24811191  0.75058167  1
  Fe  Fe43  1  0.49978972  0.49877893  0.25229597  1
  Fe  Fe44  1  0.87698959  0.87699407  0.12487634  1
  Fe  Fe45  1  0.87726843  0.12752204  0.37715994  1
  Fe  Fe46  1  0.12925192  0.12373779  0.87661672  1
  Fe  Fe47  1  0.62883729  0.62686145  0.87218959  1
  Fe  Fe48  1  0.49954667  0.75095943  0.00027947  1
  Fe  Fe49  1  0.87956286  0.37680384  0.62716078  1
  Fe  Fe50  1  0.25222151  -0.00036066  0.49969906  1
  Fe  Fe51  1  0.62556090  0.12543252  0.12339493  1
  Fe  Fe52  1  0.62660969  0.37495695  0.12418473  1
  Fe  Fe53  1  0.50026900  0.24970545  0.25053708  1
  Fe  Fe54  1  0.24887102  0.75062975  0.24952963  1
  Fe  Fe55  1  0.50022739  0.24838430  0.75179991  1
  Fe  Fe56  1  0.87833089  0.37878874  0.87623879  1
  Fe  Fe57  1  0.00233958  0.75172569  0.75233970  1
  Fe  Fe58  1  0.12538360  0.62539844  0.37506443  1
  Fe  Fe59  1  0.49944794  0.74986521  0.25115077  1
  Fe  Fe60  1  0.62694219  0.12631454  0.37584415  1
  Fe  Fe61  1  0.37296540  0.62266924  0.12592833  1
  Fe  Fe62  1  0.74868912  -0.00347564  0.75199566  1
  Fe  Fe63  1  0.37073808  0.37455070  0.87409506  1
  Fe  Fe64  1  -0.00193140  0.75220752  0.49770757  1
  Fe  Fe65  1  0.75250953  0.25145522  -0.00024582  1
  Fe  Fe66  1  0.37773416  0.12284415  0.62442547  1
  Fe  Fe67  1  0.11877505  0.12031454  0.62059487  1
  Fe  Fe68  1  0.62555967  0.62586593  0.62566398  1
  Fe  Fe69  1  0.62636432  0.12440634  0.62588683  1
  Fe  Fe70  1  0.25002116  0.75055252  0.00252389  1
  Fe  Fe71  1  0.37516381  0.12540343  0.12533473  1
  Fe  Fe72  1  0.24858288  0.75293366  0.74577101  1
  Fe  Fe73  1  0.75199737  0.49934658  0.50151142  1
  Fe  Fe74  1  0.62254732  0.37455432  0.62515549  1
  Fe  Fe75  1  0.75131453  0.00178670  0.24976774  1
  Fe  Fe76  1  0.37073142  0.87778236  0.87272131  1
  Fe  Fe77  1  0.25197286  0.75331517  0.50245807  1
  Fe  Fe78  1  0.00124768  0.74919838  -0.00223143  1
  Fe  Fe79  1  0.50031509  0.24908452  -0.00141232  1
  Fe  Fe80  1  0.11535561  0.37302693  0.12124669  1
  Fe  Fe81  1  0.74951777  0.75165985  0.00152036  1
  Fe  Fe82  1  0.62657346  0.87505899  0.37410621  1
  Fe  Fe83  1  0.75400901  0.24956454  0.50378704  1
  Fe  Fe84  1  0.50115142  -0.00055404  -0.00173948  1
  Fe  Fe85  1  0.75382895  0.75218730  0.50146103  1
  Fe  Fe86  1  0.49975459  0.00191579  0.25330674  1
  Fe  Fe87  1  0.87874155  0.12528152  0.12188573  1
  Fe  Fe88  1  0.75526988  0.25111563  0.24752817  1
  Fe  Fe89  1  0.24728610  0.00531785  0.25090077  1
  Co  Co90  1  0.37364942  0.87555416  0.37330324  1
  Co  Co91  1  0.37300272  0.62331315  0.62456327  1
  Co  Co92  1  0.62470585  0.87630493  0.12750930  1
  Co  Co93  1  0.87447033  0.87537497  0.37120032  1
  Co  Co94  1  0.00214525  0.50551011  -0.00451076  1
  Co  Co95  1  -0.00066423  0.24615555  -0.00697271  1
  Co  Co96  1  0.12282743  0.62609612  0.12694827  1
  Co  Co97  1  0.37690026  0.87860932  0.62737109  1
  Co  Co98  1  0.87572984  0.37264672  0.37644862  1
  Co  Co99  1  0.87550787  0.87458956  0.87575138  1
  Co  Co100  1  0.37079430  0.13003879  0.37477900  1
  Co  Co101  1  -0.00117937  0.24753746  0.25104521  1
  Co  Co102  1  0.37839646  0.37448969  0.62654677  1
  Co  Co103  1  0.00434251  -0.00079784  0.75573960  1
  Co  Co104  1  0.00177368  0.49767773  0.25460290  1
  Co  Co105  1  0.62837956  0.12628808  0.87556498  1
  Co  Co106  1  0.12132330  0.87668883  0.62253300  1
  Co  Co107  1  0.25024100  0.00032201  0.00402209  1
  Co  Co108  1  0.12644433  0.37411058  0.87464963  1
  Co  Co109  1  0.87597815  0.12111993  0.62987533  1
  Co  Co110  1  -0.00420732  0.24885662  0.50407883  1
  Co  Co111  1  0.24619122  0.49818466  0.00403122  1
  Co  Co112  1  0.75052782  0.50089045  0.00031547  1
  Co  Co113  1  0.62425624  0.87163316  0.87364100  1
  Co  Co114  1  0.12978191  0.87553742  0.87676085  1
  Co  Co115  1  0.12607900  0.13028233  0.38060369  1
  Co  Co116  1  0.00267549  0.50221361  0.75305507  1
  Co  Co117  1  -0.00372109  -0.00067231  0.49502885  1
  Co  Co118  1  0.24542877  0.24841286  0.24337646  1
  Co  Co119  1  0.12015912  0.12518589  0.12150999  1
  Co  Co120  1  0.11960421  0.37665353  0.62387664  1
  Co  Co121  1  0.74937358  0.49777405  0.74794094  1
  Co  Co122  1  0.49931386  0.00101836  0.49604365  1
  Co  Co123  1  0.75264136  0.75373972  0.74648601  1
  Co  Co124  1  0.87457869  0.62495527  0.37451392  1
  Co  Co125  1  0.25086181  0.24965115  0.50893940  1
  Co  Co126  1  0.88167096  0.37559274  0.12083077  1
  Co  Co127  1  0.24627923  0.00085517  0.74489919  1
