# generated using pymatgen
data_Fe45Co19
_symmetry_space_group_name_H-M   'P 1'
_cell_length_a   11.41519132
_cell_length_b   11.41439990
_cell_length_c   11.41483396
_cell_angle_alpha   89.99584687
_cell_angle_beta   90.00830465
_cell_angle_gamma   90.00137863
_symmetry_Int_Tables_number   1
_chemical_formula_structural   Fe45Co19
_chemical_formula_sum   'Fe90 Co38'
_cell_volume   1487.32497678
_cell_formula_units_Z   2
loop_
 _symmetry_equiv_pos_site_id
 _symmetry_equiv_pos_as_xyz
  1  'x, y, z'
loop_
 _atom_site_type_symbol
 _atom_site_label
 _atom_site_symmetry_multiplicity
 _atom_site_fract_x
 _atom_site_fract_y
 _atom_site_fract_z
 _atom_site_occupancy
  Fe  Fe0  1  0.62475079  0.62388965  0.12620303  1
  Fe  Fe1  1  0.37512539  0.87509976  0.37648859  1
  Fe  Fe2  1  0.62937052  0.37431609  0.12364068  1
  Fe  Fe3  1  0.12142955  0.37640232  0.12373384  1
  Fe  Fe4  1  0.24576753  0.50007467  -0.00269667  1
  Fe  Fe5  1  0.62558106  0.37441390  0.37302477  1
  Fe  Fe6  1  0.87602220  0.37546150  0.37663710  1
  Fe  Fe7  1  0.12526146  0.87496419  0.62563526  1
  Fe  Fe8  1  0.37433885  0.87494024  0.62284762  1
  Fe  Fe9  1  0.12371301  0.62461464  0.13015112  1
  Fe  Fe10  1  -0.00025725  -0.00142253  0.75020227  1
  Fe  Fe11  1  0.87443124  0.87804376  0.12198704  1
  Fe  Fe12  1  0.25176335  0.74742193  0.74792988  1
  Fe  Fe13  1  0.50145527  0.25306736  0.75239376  1
  Fe  Fe14  1  0.62867812  0.87604357  0.62273158  1
  Fe  Fe15  1  0.62495713  0.62130683  0.62689749  1
  Fe  Fe16  1  0.87722201  0.37671219  0.88297381  1
  Fe  Fe17  1  0.11850642  0.62686979  0.37146193  1
  Fe  Fe18  1  0.37486765  0.12623093  0.62505756  1
  Fe  Fe19  1  0.87462361  0.12540537  0.37106646  1
  Fe  Fe20  1  0.62705055  0.12674866  0.62675129  1
  Fe  Fe21  1  0.75188778  0.74929086  0.25026278  1
  Fe  Fe22  1  0.24609102  0.25157490  -0.00069437  1
  Fe  Fe23  1  0.75062180  0.74758747  0.00068414  1
  Fe  Fe24  1  0.62540753  0.62404856  0.87618702  1
  Fe  Fe25  1  0.24721007  0.00304858  0.49847318  1
  Fe  Fe26  1  0.87613014  0.87365127  0.87589499  1
  Fe  Fe27  1  0.37523071  0.62180229  0.87562269  1
  Fe  Fe28  1  0.24923937  0.25318724  0.75111187  1
  Fe  Fe29  1  0.62625974  0.87501421  0.87790650  1
  Fe  Fe30  1  0.12384368  0.12888264  0.62355964  1
  Fe  Fe31  1  -0.00004094  0.00170398  0.49977619  1
  Fe  Fe32  1  0.12121764  0.62032689  0.62797619  1
  Fe  Fe33  1  0.37245040  0.87584098  0.12388499  1
  Fe  Fe34  1  0.49949220  0.49759213  0.24811498  1
  Fe  Fe35  1  0.12065592  0.12788400  0.87512207  1
  Fe  Fe36  1  0.50002602  0.49654283  0.75366625  1
  Fe  Fe37  1  0.62608040  0.12594415  0.87702625  1
  Fe  Fe38  1  0.24910216  0.24995221  0.24926083  1
  Fe  Fe39  1  0.12280593  0.37589580  0.62436107  1
  Fe  Fe40  1  0.87812506  0.62229981  0.12516889  1
  Fe  Fe41  1  0.24868203  0.00098356  0.75068118  1
  Fe  Fe42  1  0.62710109  0.12875412  0.36900150  1
  Fe  Fe43  1  0.37344810  0.62235592  0.12470485  1
  Fe  Fe44  1  0.12366287  0.37107695  0.37662198  1
  Fe  Fe45  1  0.24854502  0.00145665  0.25223413  1
  Fe  Fe46  1  0.62807779  0.87303606  0.37724026  1
  Fe  Fe47  1  0.50270544  0.00259675  0.49935449  1
  Fe  Fe48  1  0.37450035  0.37663695  0.62457823  1
  Fe  Fe49  1  0.50201621  0.00061101  0.24774388  1
  Fe  Fe50  1  0.49981540  0.75015026  0.74916944  1
  Fe  Fe51  1  0.12389465  0.87187801  0.37501302  1
  Fe  Fe52  1  0.37441828  0.37500086  0.37507064  1
  Fe  Fe53  1  0.50271874  0.74662303  0.50053435  1
  Fe  Fe54  1  0.50146412  0.25129023  0.00107029  1
  Fe  Fe55  1  -0.00512795  0.74972875  0.74504283  1
  Fe  Fe56  1  0.00010850  -0.00533961  0.25223280  1
  Fe  Fe57  1  0.62833519  0.37648993  0.62521689  1
  Fe  Fe58  1  0.75418595  0.50067285  0.25060532  1
  Fe  Fe59  1  0.37466881  0.12638126  0.87625535  1
  Fe  Fe60  1  0.37398362  0.87474520  0.87516682  1
  Fe  Fe61  1  0.87413643  0.12438120  0.62657918  1
  Fe  Fe62  1  0.37242420  0.37634238  0.12332095  1
  Fe  Fe63  1  0.87439920  0.37852922  0.62123390  1
  Fe  Fe64  1  0.75071722  -0.00066830  0.75214395  1
  Fe  Fe65  1  0.87302229  0.87057260  0.38190976  1
  Fe  Fe66  1  0.37702488  0.62287451  0.37517380  1
  Fe  Fe67  1  -0.00358757  0.25314349  0.24691905  1
  Fe  Fe68  1  0.50101473  0.25153717  0.50017335  1
  Fe  Fe69  1  0.12172618  0.62417161  0.87033166  1
  Fe  Fe70  1  0.24511374  -0.00202375  -0.00248922  1
  Fe  Fe71  1  0.75320632  0.74821566  0.74708038  1
  Fe  Fe72  1  0.37526539  0.12498512  0.12360663  1
  Fe  Fe73  1  0.75140011  0.24784580  0.49918218  1
  Fe  Fe74  1  0.24768105  0.50103559  0.49943223  1
  Fe  Fe75  1  0.75452505  0.50127347  0.75538490  1
  Fe  Fe76  1  0.24649027  0.75006216  -0.00073101  1
  Fe  Fe77  1  0.49980474  0.75119862  0.24838389  1
  Fe  Fe78  1  0.37526761  0.12765153  0.37430225  1
  Fe  Fe79  1  -0.00246158  0.25450006  0.74958029  1
  Fe  Fe80  1  0.24812411  0.74660940  0.50116473  1
  Fe  Fe81  1  0.49922555  0.74917810  0.00053220  1
  Fe  Fe82  1  0.25122737  0.74937790  0.25070502  1
  Fe  Fe83  1  0.00345658  0.75153505  0.00216811  1
  Fe  Fe84  1  0.12055061  0.12223755  0.12646291  1
  Fe  Fe85  1  0.75273056  0.25241457  0.75246228  1
  Fe  Fe86  1  0.75607989  0.24391625  0.00390071  1
  Fe  Fe87  1  0.62660044  0.87788147  0.12182167  1
  Fe  Fe88  1  0.74961357  0.50519390  0.49544126  1
  Fe  Fe89  1  0.50061639  -0.00023928  0.75138856  1
  Co  Co90  1  0.87180269  0.87791928  0.62110211  1
  Co  Co91  1  -0.00309846  0.24648308  0.00376191  1
  Co  Co92  1  0.24761439  0.49876862  0.25212323  1
  Co  Co93  1  -0.00421799  0.24895117  0.50117835  1
  Co  Co94  1  0.87970541  0.62882377  0.37433590  1
  Co  Co95  1  0.00111055  -0.00174004  -0.00192977  1
  Co  Co96  1  0.62338547  0.62456887  0.37044946  1
  Co  Co97  1  0.25095687  0.24994806  0.50002508  1
  Co  Co98  1  0.87579154  0.61960868  0.62177403  1
  Co  Co99  1  0.74862368  0.74285995  0.50275764  1
  Co  Co100  1  0.62802221  0.12537454  0.12703838  1
  Co  Co101  1  0.37331851  0.37512850  0.87735687  1
  Co  Co102  1  0.87766174  0.62792660  0.87844189  1
  Co  Co103  1  0.75574797  0.25442635  0.24678458  1
  Co  Co104  1  0.87617943  0.38051091  0.11896302  1
  Co  Co105  1  0.37711695  0.62284119  0.62436281  1
  Co  Co106  1  0.12779035  0.87577627  0.12781552  1
  Co  Co107  1  0.50179013  0.49817239  0.00073779  1
  Co  Co108  1  0.12338301  0.87168516  0.87040682  1
  Co  Co109  1  0.50148110  0.49863740  0.49933393  1
  Co  Co110  1  0.74975712  0.50423934  0.00021724  1
  Co  Co111  1  0.00417246  0.50379314  -0.00052921  1
  Co  Co112  1  0.63061582  0.37390349  0.87907614  1
  Co  Co113  1  0.00174729  0.50012805  0.49684926  1
  Co  Co114  1  -0.00180205  0.49629171  0.25179871  1
  Co  Co115  1  0.49861141  0.25197421  0.24731958  1
  Co  Co116  1  0.74995351  0.00555590  0.49830564  1
  Co  Co117  1  -0.00328589  0.75420820  0.24652518  1
  Co  Co118  1  0.12165410  0.12923328  0.37324887  1
  Co  Co119  1  0.87672214  0.11873728  0.13083953  1
  Co  Co120  1  0.50028253  0.00058948  0.00043158  1
  Co  Co121  1  -0.00576728  0.49746894  0.75270235  1
  Co  Co122  1  0.00074376  0.74909447  0.50575369  1
  Co  Co123  1  0.74937993  -0.00468175  0.25163549  1
  Co  Co124  1  0.12131545  0.37440537  0.87516905  1
  Co  Co125  1  0.75328630  0.00402082  -0.00220323  1
  Co  Co126  1  0.25065134  0.49794211  0.75033399  1
  Co  Co127  1  0.87870186  0.12488782  0.87211820  1
