# generated using pymatgen
data_Fe45Co19
_symmetry_space_group_name_H-M   'P 1'
_cell_length_a   11.41657019
_cell_length_b   11.41472606
_cell_length_c   11.41550446
_cell_angle_alpha   90.00752277
_cell_angle_beta   90.00950159
_cell_angle_gamma   89.99058851
_symmetry_Int_Tables_number   1
_chemical_formula_structural   Fe45Co19
_chemical_formula_sum   'Fe90 Co38'
_cell_volume   1487.63448498
_cell_formula_units_Z   2
loop_
 _symmetry_equiv_pos_site_id
 _symmetry_equiv_pos_as_xyz
  1  'x, y, z'
loop_
 _atom_site_type_symbol
 _atom_site_label
 _atom_site_symmetry_multiplicity
 _atom_site_fract_x
 _atom_site_fract_y
 _atom_site_fract_z
 _atom_site_occupancy
  Fe  Fe0  1  0.87342902  0.62900936  0.37561035  1
  Fe  Fe1  1  0.50003762  0.24907611  0.24997703  1
  Fe  Fe2  1  0.12516003  0.12219201  0.87469437  1
  Fe  Fe3  1  0.37660960  0.62748049  0.37547450  1
  Fe  Fe4  1  0.87540221  0.62704449  0.62507865  1
  Fe  Fe5  1  0.87543222  0.12439152  0.12720108  1
  Fe  Fe6  1  0.62270903  0.62582320  0.12563842  1
  Fe  Fe7  1  0.75094083  0.24873068  0.50164229  1
  Fe  Fe8  1  0.50249218  0.24395899  -0.00247324  1
  Fe  Fe9  1  0.75003736  0.00014337  0.24966542  1
  Fe  Fe10  1  0.74786630  0.50361492  0.49880192  1
  Fe  Fe11  1  0.00093113  0.75246500  0.25284523  1
  Fe  Fe12  1  0.62672540  0.88115804  0.87680875  1
  Fe  Fe13  1  0.50050088  0.75160730  -0.00111222  1
  Fe  Fe14  1  0.12327235  0.12303248  0.62450428  1
  Fe  Fe15  1  0.62539980  0.87555037  0.62318282  1
  Fe  Fe16  1  0.00119354  0.24823158  -0.00068444  1
  Fe  Fe17  1  0.37668939  0.37462329  0.12258943  1
  Fe  Fe18  1  0.50231666  0.50315308  0.50066869  1
  Fe  Fe19  1  0.25059304  0.24714392  0.50128234  1
  Fe  Fe20  1  0.37437973  0.37420311  0.37508320  1
  Fe  Fe21  1  0.62767162  0.12491225  0.62920820  1
  Fe  Fe22  1  0.24985751  0.24890946  0.74805576  1
  Fe  Fe23  1  0.25008534  0.49728184  0.75275825  1
  Fe  Fe24  1  0.49953566  0.24754633  0.49933087  1
  Fe  Fe25  1  0.49734271  -0.00030836  0.74975900  1
  Fe  Fe26  1  0.24766458  0.49791723  -0.00124729  1
  Fe  Fe27  1  0.12616031  0.37298723  0.37221612  1
  Fe  Fe28  1  0.62523267  0.87386913  0.37788916  1
  Fe  Fe29  1  0.37315273  0.62648339  0.87593224  1
  Fe  Fe30  1  0.00083430  0.50068793  0.49788597  1
  Fe  Fe31  1  0.74805109  0.75171784  0.24856260  1
  Fe  Fe32  1  0.24578412  0.75235022  -0.00075543  1
  Fe  Fe33  1  0.24736155  0.24964606  0.00367013  1
  Fe  Fe34  1  0.37273332  0.87561142  0.87596394  1
  Fe  Fe35  1  0.25211193  0.75581130  0.25073287  1
  Fe  Fe36  1  0.87712915  0.87564538  0.12696484  1
  Fe  Fe37  1  0.25037250  0.49889395  0.24926690  1
  Fe  Fe38  1  0.87592167  0.37295216  0.37390088  1
  Fe  Fe39  1  0.50189254  0.24988383  0.75290930  1
  Fe  Fe40  1  0.24884890  0.50036177  0.50009609  1
  Fe  Fe41  1  0.12266628  0.87751782  0.12562729  1
  Fe  Fe42  1  0.75070165  0.49945711  0.24935100  1
  Fe  Fe43  1  0.74936805  0.24549010  -0.00367419  1
  Fe  Fe44  1  0.87576783  0.87335101  0.61954855  1
  Fe  Fe45  1  0.12361427  0.37362877  0.62576325  1
  Fe  Fe46  1  0.12457504  0.62533789  0.62610751  1
  Fe  Fe47  1  0.12576371  0.62712504  0.37470092  1
  Fe  Fe48  1  0.49807962  0.49739608  0.75392978  1
  Fe  Fe49  1  0.12384405  0.62550313  0.12617110  1
  Fe  Fe50  1  -0.00181317  0.00006219  0.00096831  1
  Fe  Fe51  1  0.87720364  0.62780675  0.87696018  1
  Fe  Fe52  1  0.62633902  0.37465716  0.62651204  1
  Fe  Fe53  1  0.50068340  0.75264103  0.75012576  1
  Fe  Fe54  1  0.87794581  0.37479670  0.12432945  1
  Fe  Fe55  1  0.62309530  0.37407479  0.12121511  1
  Fe  Fe56  1  0.12600217  0.87695988  0.62037606  1
  Fe  Fe57  1  0.37509042  0.62620999  0.62655538  1
  Fe  Fe58  1  0.24652454  0.75303642  0.75036471  1
  Fe  Fe59  1  -0.00454952  0.24810398  0.75187261  1
  Fe  Fe60  1  0.74813961  0.25107418  0.24750024  1
  Fe  Fe61  1  0.00229125  0.75270967  0.75169539  1
  Fe  Fe62  1  0.87780741  0.62647757  0.12465436  1
  Fe  Fe63  1  0.62683491  0.12513062  0.37308029  1
  Fe  Fe64  1  0.75151353  0.49811927  0.75291390  1
  Fe  Fe65  1  0.37618856  0.37375164  0.62400885  1
  Fe  Fe66  1  0.62463616  0.37533301  0.37530810  1
  Fe  Fe67  1  0.00033440  0.49875977  0.75260801  1
  Fe  Fe68  1  0.49842869  0.00319586  0.49990581  1
  Fe  Fe69  1  0.49957588  0.49948967  0.24820325  1
  Fe  Fe70  1  0.37105836  0.12266126  0.37131301  1
  Fe  Fe71  1  0.75278635  0.00199132  0.49957471  1
  Fe  Fe72  1  0.00398381  0.24660852  0.24886877  1
  Fe  Fe73  1  0.49750122  0.75545445  0.25069431  1
  Fe  Fe74  1  0.00017080  0.24712565  0.49749594  1
  Fe  Fe75  1  0.25113226  -0.00110104  0.00026459  1
  Fe  Fe76  1  -0.00120699  -0.00119764  0.74979755  1
  Fe  Fe77  1  0.62459569  0.62475312  0.87465629  1
  Fe  Fe78  1  0.87496331  0.37459807  0.62432001  1
  Fe  Fe79  1  0.74983083  0.50058073  0.00056340  1
  Fe  Fe80  1  0.87496132  0.87632261  0.87732726  1
  Fe  Fe81  1  0.00326535  0.49937261  -0.00137339  1
  Fe  Fe82  1  0.37233802  0.12425364  0.87204099  1
  Fe  Fe83  1  0.62119178  0.88016479  0.12216694  1
  Fe  Fe84  1  0.74985699  0.75212287  0.00119460  1
  Fe  Fe85  1  0.37536128  0.12007848  0.12894881  1
  Fe  Fe86  1  0.37456080  0.62750203  0.12291389  1
  Fe  Fe87  1  0.37303402  0.87482924  0.62065377  1
  Fe  Fe88  1  0.74973739  0.75284637  0.74983603  1
  Fe  Fe89  1  -0.00135384  0.00193882  0.49176923  1
  Co  Co90  1  -0.00006855  0.00053225  0.25492179  1
  Co  Co91  1  0.12568917  0.11987565  0.12511892  1
  Co  Co92  1  0.62466120  0.62383613  0.63162363  1
  Co  Co93  1  0.12468388  0.87959074  0.87606173  1
  Co  Co94  1  0.75362230  0.25025520  0.75232306  1
  Co  Co95  1  0.87371643  0.11990990  0.87439851  1
  Co  Co96  1  0.37704964  0.87719731  0.12186853  1
  Co  Co97  1  0.75482827  -0.00289154  0.74594593  1
  Co  Co98  1  0.25032369  -0.00052207  0.74805237  1
  Co  Co99  1  0.62349532  0.12240220  0.12659425  1
  Co  Co100  1  0.87192014  0.12776263  0.37185868  1
  Co  Co101  1  0.24970207  0.74721097  0.50091485  1
  Co  Co102  1  0.37623822  0.12578864  0.62707848  1
  Co  Co103  1  0.24876720  -0.00643987  0.24903055  1
  Co  Co104  1  0.00164440  0.75200200  -0.00037835  1
  Co  Co105  1  0.87615883  0.12411242  0.62374425  1
  Co  Co106  1  0.50026898  -0.00255784  0.25312815  1
  Co  Co107  1  0.12532043  0.37115248  0.87324629  1
  Co  Co108  1  0.49902051  0.50186901  -0.00049294  1
  Co  Co109  1  0.50196767  0.74693938  0.50215954  1
  Co  Co110  1  0.13113796  0.12526018  0.37158546  1
  Co  Co111  1  0.00184038  0.74946184  0.49929592  1
  Co  Co112  1  0.75198220  0.00144273  0.00419099  1
  Co  Co113  1  0.62949773  0.11828539  0.87039864  1
  Co  Co114  1  0.87154291  0.87195957  0.37565585  1
  Co  Co115  1  0.74574949  0.74582555  0.50248673  1
  Co  Co116  1  0.24985615  0.25147213  0.24513987  1
  Co  Co117  1  0.62535691  0.37515564  0.87706044  1
  Co  Co118  1  0.37393743  0.87633785  0.38121617  1
  Co  Co119  1  -0.00109037  0.50164110  0.25283748  1
  Co  Co120  1  0.87608235  0.37555975  0.87760851  1
  Co  Co121  1  0.62315612  0.62681496  0.36994684  1
  Co  Co122  1  0.12461853  0.62540016  0.87425777  1
  Co  Co123  1  0.12870080  0.87558711  0.37827238  1
  Co  Co124  1  0.25062862  0.00495423  0.50179427  1
  Co  Co125  1  0.37384247  0.37153016  0.87800280  1
  Co  Co126  1  0.12218916  0.37729715  0.12723371  1
  Co  Co127  1  0.49767757  0.00409226  -0.00347102  1
