# generated using pymatgen
data_Fe45Co19
_symmetry_space_group_name_H-M   'P 1'
_cell_length_a   11.41595433
_cell_length_b   11.41552210
_cell_length_c   11.41683174
_cell_angle_alpha   90.00900651
_cell_angle_beta   90.00140381
_cell_angle_gamma   90.01460124
_symmetry_Int_Tables_number   1
_chemical_formula_structural   Fe45Co19
_chemical_formula_sum   'Fe90 Co38'
_cell_volume   1487.83093043
_cell_formula_units_Z   2
loop_
 _symmetry_equiv_pos_site_id
 _symmetry_equiv_pos_as_xyz
  1  'x, y, z'
loop_
 _atom_site_type_symbol
 _atom_site_label
 _atom_site_symmetry_multiplicity
 _atom_site_fract_x
 _atom_site_fract_y
 _atom_site_fract_z
 _atom_site_occupancy
  Fe  Fe0  1  -0.00006391  0.49890144  0.74897280  1
  Fe  Fe1  1  0.00086999  0.75012204  0.50067156  1
  Fe  Fe2  1  0.50107541  -0.00340416  0.24986620  1
  Fe  Fe3  1  0.75469488  0.00237278  0.00005518  1
  Fe  Fe4  1  -0.00015768  -0.00149814  0.25089282  1
  Fe  Fe5  1  0.24913882  0.25349064  0.24827895  1
  Fe  Fe6  1  0.87449796  0.87478154  0.12421575  1
  Fe  Fe7  1  0.87293250  0.62421028  0.87379907  1
  Fe  Fe8  1  0.12513643  0.87138855  0.62845055  1
  Fe  Fe9  1  0.62583540  0.12237980  0.12518720  1
  Fe  Fe10  1  -0.00126634  0.50059784  0.49805226  1
  Fe  Fe11  1  0.12360630  0.37320439  0.87624317  1
  Fe  Fe12  1  0.25277978  0.24931954  0.00155072  1
  Fe  Fe13  1  0.87449467  0.37437683  0.87305406  1
  Fe  Fe14  1  0.49971586  0.00125712  0.49711031  1
  Fe  Fe15  1  0.74812143  0.75169686  0.24964037  1
  Fe  Fe16  1  0.00126089  -0.00014231  0.49969160  1
  Fe  Fe17  1  0.62328800  0.37748359  0.87555011  1
  Fe  Fe18  1  0.49967439  0.24886397  0.50144756  1
  Fe  Fe19  1  0.74830748  0.00111203  0.49777527  1
  Fe  Fe20  1  0.49790227  0.24696978  0.00021411  1
  Fe  Fe21  1  0.87395315  0.37502184  0.62416878  1
  Fe  Fe22  1  0.87372785  0.87182984  0.37804166  1
  Fe  Fe23  1  0.50024679  0.74961624  0.75126023  1
  Fe  Fe24  1  0.74712384  0.00055782  0.75032233  1
  Fe  Fe25  1  0.37501210  0.62574271  0.87502650  1
  Fe  Fe26  1  0.12507947  0.62693418  0.87243662  1
  Fe  Fe27  1  0.74773499  0.24818330  0.50093779  1
  Fe  Fe28  1  0.74961319  0.25220919  0.24853528  1
  Fe  Fe29  1  0.49742432  0.00189757  0.00190820  1
  Fe  Fe30  1  0.12437542  0.87608622  0.12200018  1
  Fe  Fe31  1  0.24987495  -0.00225648  0.24978202  1
  Fe  Fe32  1  0.74727903  -0.00225611  0.25306462  1
  Fe  Fe33  1  0.12822998  0.62600241  0.62687491  1
  Fe  Fe34  1  0.62021755  0.37840252  0.62593930  1
  Fe  Fe35  1  0.00081842  0.24995879  0.50041832  1
  Fe  Fe36  1  0.75175671  0.49817402  0.25030146  1
  Fe  Fe37  1  0.62487795  0.62664486  0.37576672  1
  Fe  Fe38  1  -0.00102370  0.74943212  -0.00096464  1
  Fe  Fe39  1  0.12548432  0.12499059  0.37421221  1
  Fe  Fe40  1  0.37271546  0.87071627  0.37344103  1
  Fe  Fe41  1  -0.00369299  0.24682587  0.00122797  1
  Fe  Fe42  1  0.24758718  -0.00028888  0.75311667  1
  Fe  Fe43  1  0.75051136  0.75147758  0.74809975  1
  Fe  Fe44  1  0.12485974  0.62186819  0.12521416  1
  Fe  Fe45  1  0.25110226  0.49824026  0.00001150  1
  Fe  Fe46  1  0.87437161  0.62405271  0.12576193  1
  Fe  Fe47  1  0.62374481  0.37509846  0.37663754  1
  Fe  Fe48  1  0.37512436  0.87423177  0.62677109  1
  Fe  Fe49  1  0.75253742  0.24910308  0.00106965  1
  Fe  Fe50  1  0.00117835  0.25352278  0.25105472  1
  Fe  Fe51  1  0.12487573  0.12605160  0.62679113  1
  Fe  Fe52  1  0.37380204  0.62446605  0.12650942  1
  Fe  Fe53  1  0.12828564  0.62557988  0.37484870  1
  Fe  Fe54  1  0.62511241  0.87515134  0.62179029  1
  Fe  Fe55  1  0.37852835  0.37415014  0.87400260  1
  Fe  Fe56  1  0.24900575  -0.00149777  0.50008560  1
  Fe  Fe57  1  0.12719239  0.37725731  0.62269576  1
  Fe  Fe58  1  0.37623445  0.12480439  0.62833788  1
  Fe  Fe59  1  0.62547159  0.87553492  0.87882516  1
  Fe  Fe60  1  0.50165995  0.75272714  0.24612111  1
  Fe  Fe61  1  0.87665851  0.87527407  0.87389413  1
  Fe  Fe62  1  0.50257974  0.00257347  0.75165618  1
  Fe  Fe63  1  0.25097300  0.49569865  0.25041860  1
  Fe  Fe64  1  0.87430673  0.12739244  0.37365490  1
  Fe  Fe65  1  0.50096342  0.74906098  0.00182432  1
  Fe  Fe66  1  -0.00185340  0.49997222  -0.00102998  1
  Fe  Fe67  1  0.62773756  0.62384450  0.12222590  1
  Fe  Fe68  1  0.49984818  0.25048390  0.24716083  1
  Fe  Fe69  1  0.12369451  0.12516129  0.12443259  1
  Fe  Fe70  1  0.25356704  0.49971362  0.75011075  1
  Fe  Fe71  1  0.37522159  0.12628653  0.37241626  1
  Fe  Fe72  1  0.62797715  0.62359531  0.87523501  1
  Fe  Fe73  1  0.24943718  0.75003246  0.00070100  1
  Fe  Fe74  1  0.25824836  0.50081455  0.49854734  1
  Fe  Fe75  1  0.74987172  0.50154078  0.49876156  1
  Fe  Fe76  1  0.62357845  0.37764483  0.12130119  1
  Fe  Fe77  1  0.37494159  0.87542940  0.87596356  1
  Fe  Fe78  1  -0.00054534  0.49643492  0.25293168  1
  Fe  Fe79  1  0.74573424  0.24874842  0.74962286  1
  Fe  Fe80  1  0.49891847  0.49951762  0.25110258  1
  Fe  Fe81  1  0.24881879  0.00196172  -0.00201456  1
  Fe  Fe82  1  0.25189479  0.24978153  0.50043722  1
  Fe  Fe83  1  0.49757215  0.74761981  0.50005933  1
  Fe  Fe84  1  0.24989703  0.25051540  0.74998556  1
  Fe  Fe85  1  0.00277080  0.00051478  0.75302700  1
  Fe  Fe86  1  0.62270628  0.62313690  0.62560952  1
  Fe  Fe87  1  0.87471369  0.62506796  0.62531145  1
  Fe  Fe88  1  0.87465587  0.12416870  0.62782640  1
  Fe  Fe89  1  0.00225424  0.75038291  0.25078826  1
  Co  Co90  1  0.75016865  0.49945152  0.74897238  1
  Co  Co91  1  0.24967890  0.75107927  0.50147598  1
  Co  Co92  1  0.37710029  0.37727725  0.12358453  1
  Co  Co93  1  0.49754444  0.50256443  0.75146380  1
  Co  Co94  1  0.87699852  0.37698521  0.12490659  1
  Co  Co95  1  0.62385354  0.12234972  0.62349978  1
  Co  Co96  1  0.37856534  0.37357838  0.62755947  1
  Co  Co97  1  0.37476603  0.12433437  0.87215603  1
  Co  Co98  1  0.49955055  0.50312308  -0.00063948  1
  Co  Co99  1  0.49596347  0.50206986  0.49771976  1
  Co  Co100  1  0.62336176  0.12718653  0.37290290  1
  Co  Co101  1  0.37491606  0.62700457  0.62670911  1
  Co  Co102  1  0.87356038  0.37377186  0.37723697  1
  Co  Co103  1  0.37390131  0.62947796  0.36973322  1
  Co  Co104  1  0.25286537  0.75054313  0.75162443  1
  Co  Co105  1  0.37670373  0.37185353  0.37430051  1
  Co  Co106  1  0.75162295  0.74962491  -0.00074770  1
  Co  Co107  1  0.00146361  0.25277041  0.74688217  1
  Co  Co108  1  0.87446028  0.12422816  0.12996393  1
  Co  Co109  1  0.62439920  0.87117247  0.37914425  1
  Co  Co110  1  0.62564966  0.12379176  0.87941947  1
  Co  Co111  1  0.87432819  0.62695782  0.37385306  1
  Co  Co112  1  0.37428773  0.12376343  0.12769121  1
  Co  Co113  1  0.24638959  0.75192003  0.24687003  1
  Co  Co114  1  0.12330189  0.37524266  0.12162915  1
  Co  Co115  1  -0.00282006  0.74861247  0.74976415  1
  Co  Co116  1  -0.00164689  0.00189293  -0.00096828  1
  Co  Co117  1  0.12557782  0.87460013  0.37527660  1
  Co  Co118  1  0.87500058  0.87801694  0.62478448  1
  Co  Co119  1  0.75072218  0.74787209  0.50317567  1
  Co  Co120  1  0.12431022  0.87175782  0.87562891  1
  Co  Co121  1  0.12398491  0.12922369  0.87610310  1
  Co  Co122  1  0.62696672  0.87736013  0.11988686  1
  Co  Co123  1  0.75186146  0.49856358  0.00035747  1
  Co  Co124  1  0.87562038  0.12603317  0.86963471  1
  Co  Co125  1  0.12675589  0.37620433  0.37893694  1
  Co  Co126  1  0.50377176  0.24689618  0.75111589  1
  Co  Co127  1  0.37349252  0.87474542  0.12326479  1
