# generated using pymatgen
data_Fe45Co19
_symmetry_space_group_name_H-M   'P 1'
_cell_length_a   11.41467473
_cell_length_b   11.41511476
_cell_length_c   11.41552749
_cell_angle_alpha   89.99112997
_cell_angle_beta   89.98875968
_cell_angle_gamma   90.00305183
_symmetry_Int_Tables_number   1
_chemical_formula_structural   Fe45Co19
_chemical_formula_sum   'Fe90 Co38'
_cell_volume   1487.44115173
_cell_formula_units_Z   2
loop_
 _symmetry_equiv_pos_site_id
 _symmetry_equiv_pos_as_xyz
  1  'x, y, z'
loop_
 _atom_site_type_symbol
 _atom_site_label
 _atom_site_symmetry_multiplicity
 _atom_site_fract_x
 _atom_site_fract_y
 _atom_site_fract_z
 _atom_site_occupancy
  Fe  Fe0  1  0.24830549  0.24821322  -0.00332715  1
  Fe  Fe1  1  0.62589126  0.37700922  0.87620857  1
  Fe  Fe2  1  0.12896229  0.87133311  0.12282088  1
  Fe  Fe3  1  0.62514788  0.12231632  0.37519051  1
  Fe  Fe4  1  0.12380858  0.62183575  0.62831272  1
  Fe  Fe5  1  0.24839139  0.50357098  -0.00024778  1
  Fe  Fe6  1  0.86961218  0.87090886  0.12665775  1
  Fe  Fe7  1  0.49740328  0.49890427  0.24783375  1
  Fe  Fe8  1  0.12595949  0.12359504  0.37466867  1
  Fe  Fe9  1  0.49695442  0.25262725  0.25036221  1
  Fe  Fe10  1  0.00112879  0.24941370  0.25131111  1
  Fe  Fe11  1  0.62278161  0.62903971  0.62514917  1
  Fe  Fe12  1  0.00225734  0.50063661  0.00087132  1
  Fe  Fe13  1  0.12849085  0.37383514  0.12618998  1
  Fe  Fe14  1  0.37243176  0.87299097  0.37534787  1
  Fe  Fe15  1  0.87367971  0.87197434  0.62336540  1
  Fe  Fe16  1  0.62671375  0.37425949  0.12381556  1
  Fe  Fe17  1  0.49854135  0.49898927  0.50113696  1
  Fe  Fe18  1  0.24868560  0.24691280  0.75054064  1
  Fe  Fe19  1  0.62280377  0.12492434  0.62637944  1
  Fe  Fe20  1  0.37470729  0.12517162  0.37576449  1
  Fe  Fe21  1  0.25238376  -0.00125010  0.50278600  1
  Fe  Fe22  1  0.12420552  0.62588031  0.37439258  1
  Fe  Fe23  1  0.12570847  0.87511604  0.62608386  1
  Fe  Fe24  1  0.75067694  0.74836374  0.49360551  1
  Fe  Fe25  1  0.87654263  0.62469827  0.87741147  1
  Fe  Fe26  1  0.24883299  0.25077434  0.50164507  1
  Fe  Fe27  1  0.87471290  0.62749714  0.12322963  1
  Fe  Fe28  1  0.12670612  0.38111315  0.86962248  1
  Fe  Fe29  1  0.75093441  0.50346540  0.24940443  1
  Fe  Fe30  1  0.62634656  0.37451619  0.62631853  1
  Fe  Fe31  1  0.87412449  0.37488424  0.87617518  1
  Fe  Fe32  1  0.62473122  0.37741608  0.37374656  1
  Fe  Fe33  1  0.87462230  0.37347109  0.62554712  1
  Fe  Fe34  1  0.75093412  0.00158721  0.00050769  1
  Fe  Fe35  1  0.24879700  0.74915877  0.75224136  1
  Fe  Fe36  1  0.37250398  0.37358681  0.62571114  1
  Fe  Fe37  1  0.37535962  0.62808415  0.37715746  1
  Fe  Fe38  1  0.75036109  0.24652135  0.75448157  1
  Fe  Fe39  1  0.74898845  0.24862702  0.49901194  1
  Fe  Fe40  1  0.87699931  0.12785998  0.12236958  1
  Fe  Fe41  1  0.25164992  0.00209388  0.74707009  1
  Fe  Fe42  1  0.49883815  0.25051594  -0.00244217  1
  Fe  Fe43  1  0.12096821  0.11616442  0.87699153  1
  Fe  Fe44  1  0.87892605  0.87804434  0.87507901  1
  Fe  Fe45  1  0.25229465  0.49945543  0.25075298  1
  Fe  Fe46  1  0.37296923  0.87087675  0.12380124  1
  Fe  Fe47  1  0.49725348  -0.00036054  0.00144854  1
  Fe  Fe48  1  -0.00142430  -0.00180882  0.50261504  1
  Fe  Fe49  1  0.62501681  0.87203165  0.62652396  1
  Fe  Fe50  1  0.00175077  0.25127590  0.50071033  1
  Fe  Fe51  1  0.74992368  0.24830877  0.25049054  1
  Fe  Fe52  1  0.00216027  0.24879262  0.74982331  1
  Fe  Fe53  1  0.00088855  -0.00055727  0.24610311  1
  Fe  Fe54  1  0.49806642  0.25041345  0.75310602  1
  Fe  Fe55  1  0.74880135  0.74860999  0.75472657  1
  Fe  Fe56  1  0.62384752  0.12543459  0.12353107  1
  Fe  Fe57  1  0.87417699  0.37684076  0.37515300  1
  Fe  Fe58  1  0.75204084  0.00178045  0.75022082  1
  Fe  Fe59  1  0.49911859  -0.00349503  0.50207024  1
  Fe  Fe60  1  0.12753199  0.37546497  0.37545563  1
  Fe  Fe61  1  0.49657098  -0.00132513  0.74847588  1
  Fe  Fe62  1  0.00178352  0.75076545  0.75112884  1
  Fe  Fe63  1  0.37079713  0.87588784  0.87590460  1
  Fe  Fe64  1  0.37230967  0.12812592  0.12457576  1
  Fe  Fe65  1  0.00162947  0.49831913  0.50250632  1
  Fe  Fe66  1  0.12426223  0.87481957  0.37600707  1
  Fe  Fe67  1  0.50048012  0.25113343  0.49929511  1
  Fe  Fe68  1  0.37228260  0.62840543  0.12498387  1
  Fe  Fe69  1  0.87392943  0.12052664  0.37524359  1
  Fe  Fe70  1  0.37814117  0.63185175  0.62283948  1
  Fe  Fe71  1  0.74942473  0.50174462  0.49977901  1
  Fe  Fe72  1  0.00549492  0.75060694  -0.00230638  1
  Fe  Fe73  1  0.75074627  0.50211688  0.75118111  1
  Fe  Fe74  1  0.87602433  0.12601147  0.62498072  1
  Fe  Fe75  1  0.87577186  0.62648786  0.62336946  1
  Fe  Fe76  1  0.24989225  0.00021253  0.24713579  1
  Fe  Fe77  1  0.49947750  0.49970571  0.00079154  1
  Fe  Fe78  1  0.62795588  0.62913539  0.12238760  1
  Fe  Fe79  1  0.49936468  -0.00145009  0.24757418  1
  Fe  Fe80  1  0.87356151  0.37332713  0.12350233  1
  Fe  Fe81  1  0.00072073  0.49891695  0.24768378  1
  Fe  Fe82  1  0.63017088  0.87865945  0.37180025  1
  Fe  Fe83  1  0.49903943  0.50042814  0.74979397  1
  Fe  Fe84  1  0.37588134  0.62468021  0.87512069  1
  Fe  Fe85  1  0.62422567  0.87767281  0.87566704  1
  Fe  Fe86  1  -0.00098781  0.75103657  0.25166627  1
  Fe  Fe87  1  0.50103100  0.75094202  -0.00270682  1
  Fe  Fe88  1  0.00263683  0.25101053  -0.00157583  1
  Fe  Fe89  1  0.50273887  0.75142081  0.25119721  1
  Co  Co90  1  0.12568893  0.62643787  0.12829703  1
  Co  Co91  1  0.62400253  0.62268617  0.87605717  1
  Co  Co92  1  0.37457889  0.12315653  0.87522141  1
  Co  Co93  1  0.12564804  0.12765895  0.12493341  1
  Co  Co94  1  0.87399901  0.87894056  0.37430844  1
  Co  Co95  1  0.24646238  0.74954561  0.50161059  1
  Co  Co96  1  0.37509568  0.87023483  0.62616793  1
  Co  Co97  1  0.12588426  0.88106451  0.87458833  1
  Co  Co98  1  0.74935735  0.00016116  0.50467903  1
  Co  Co99  1  0.25648412  0.50355115  0.74753880  1
  Co  Co100  1  0.75045549  0.00283538  0.24411246  1
  Co  Co101  1  0.50001684  0.75114423  0.75550948  1
  Co  Co102  1  0.25145129  0.25069424  0.25156534  1
  Co  Co103  1  0.12450584  0.12370699  0.62289566  1
  Co  Co104  1  0.62720482  0.87207338  0.12421377  1
  Co  Co105  1  0.12657777  0.37815968  0.62893376  1
  Co  Co106  1  0.00130984  0.75071667  0.50062368  1
  Co  Co107  1  0.62205949  0.12185124  0.87462428  1
  Co  Co108  1  0.12303490  0.62093789  0.87056264  1
  Co  Co109  1  0.25067864  0.50269674  0.50097809  1
  Co  Co110  1  -0.00624875  0.49950859  0.74953320  1
  Co  Co111  1  -0.00188113  -0.00105794  0.74464723  1
  Co  Co112  1  0.24635519  0.74697293  -0.00495353  1
  Co  Co113  1  0.37298765  0.37617326  0.87550688  1
  Co  Co114  1  0.25077660  0.00042324  0.00451423  1
  Co  Co115  1  0.74944623  0.75184367  -0.00606594  1
  Co  Co116  1  0.75018765  0.74549065  0.25612423  1
  Co  Co117  1  0.75108766  0.50007223  0.00026127  1
  Co  Co118  1  0.88105844  0.12162213  0.87703009  1
  Co  Co119  1  0.37131832  0.37388387  0.12120757  1
  Co  Co120  1  0.74931303  0.24714779  -0.00289442  1
  Co  Co121  1  0.50286193  0.75592068  0.49564356  1
  Co  Co122  1  0.37447785  0.37513651  0.37739687  1
  Co  Co123  1  0.88097966  0.62263139  0.37527195  1
  Co  Co124  1  0.37692170  0.12709465  0.62399464  1
  Co  Co125  1  0.24915565  0.75074868  0.25154976  1
  Co  Co126  1  0.62025685  0.62165419  0.37539695  1
  Co  Co127  1  -0.00083699  -0.00441173  0.00737960  1
