# generated using pymatgen
data_Fe45Co19
_symmetry_space_group_name_H-M   'P 1'
_cell_length_a   11.41532935
_cell_length_b   11.41514546
_cell_length_c   11.41458939
_cell_angle_alpha   90.00671572
_cell_angle_beta   89.99255929
_cell_angle_gamma   89.99186291
_symmetry_Int_Tables_number   1
_chemical_formula_structural   Fe45Co19
_chemical_formula_sum   'Fe90 Co38'
_cell_volume   1487.40822489
_cell_formula_units_Z   2
loop_
 _symmetry_equiv_pos_site_id
 _symmetry_equiv_pos_as_xyz
  1  'x, y, z'
loop_
 _atom_site_type_symbol
 _atom_site_label
 _atom_site_symmetry_multiplicity
 _atom_site_fract_x
 _atom_site_fract_y
 _atom_site_fract_z
 _atom_site_occupancy
  Fe  Fe0  1  0.12719087  0.37415009  0.12420684  1
  Fe  Fe1  1  0.38086524  0.87180455  0.37460369  1
  Fe  Fe2  1  0.12613383  0.62392236  0.12423815  1
  Fe  Fe3  1  0.62498051  0.12419796  0.87355695  1
  Fe  Fe4  1  0.87252068  0.62460035  0.37658610  1
  Fe  Fe5  1  0.75170001  -0.00017510  -0.00370908  1
  Fe  Fe6  1  -0.00015076  0.00078527  0.74656965  1
  Fe  Fe7  1  0.00109036  0.24965529  0.25059568  1
  Fe  Fe8  1  0.74717813  0.75180465  0.50309388  1
  Fe  Fe9  1  0.87686260  0.87245025  0.86869644  1
  Fe  Fe10  1  0.25093279  0.75049322  0.49924485  1
  Fe  Fe11  1  0.87927699  0.12530837  0.37947138  1
  Fe  Fe12  1  0.62756095  0.12325057  0.12507815  1
  Fe  Fe13  1  0.12735789  0.37364403  0.37467070  1
  Fe  Fe14  1  0.12111205  0.87526675  0.37455877  1
  Fe  Fe15  1  0.74987747  0.75135418  -0.00257164  1
  Fe  Fe16  1  0.87691939  0.87609849  0.37749374  1
  Fe  Fe17  1  0.37609098  0.87421436  0.87410747  1
  Fe  Fe18  1  0.37582467  0.37214543  0.12077705  1
  Fe  Fe19  1  0.74993614  0.24941339  0.25276560  1
  Fe  Fe20  1  0.37563526  0.12690826  0.87596074  1
  Fe  Fe21  1  0.74631245  0.49796158  0.49826907  1
  Fe  Fe22  1  -0.00050180  0.74811789  0.50498659  1
  Fe  Fe23  1  0.49872289  0.50153928  0.24959400  1
  Fe  Fe24  1  0.00230474  0.75140321  -0.00061301  1
  Fe  Fe25  1  0.62721800  0.62386917  0.12443863  1
  Fe  Fe26  1  0.12572971  0.12543877  0.12590789  1
  Fe  Fe27  1  0.62412174  0.37622379  0.12439226  1
  Fe  Fe28  1  0.37517426  0.37394316  0.62425716  1
  Fe  Fe29  1  0.62493070  0.62483613  0.87424958  1
  Fe  Fe30  1  0.12292022  0.37552787  0.87446728  1
  Fe  Fe31  1  0.87180583  0.37759026  0.62498313  1
  Fe  Fe32  1  0.50043286  -0.00043214  -0.00008061  1
  Fe  Fe33  1  0.37255482  0.62603932  0.62620871  1
  Fe  Fe34  1  0.24784205  -0.00195510  -0.00143374  1
  Fe  Fe35  1  0.12698233  0.12663958  0.62124011  1
  Fe  Fe36  1  0.37407779  0.12436960  0.12526404  1
  Fe  Fe37  1  0.25473201  0.24671251  0.49413559  1
  Fe  Fe38  1  0.75126346  0.49762590  -0.00326173  1
  Fe  Fe39  1  0.49462446  0.50156039  0.75353389  1
  Fe  Fe40  1  0.49773986  0.00107005  0.50382629  1
  Fe  Fe41  1  0.12897818  0.37684971  0.62484325  1
  Fe  Fe42  1  0.50101447  0.75139508  0.00181646  1
  Fe  Fe43  1  0.12617961  0.62532538  0.37568695  1
  Fe  Fe44  1  0.62097763  0.37489675  0.87451629  1
  Fe  Fe45  1  0.87234711  0.62440706  0.12496294  1
  Fe  Fe46  1  0.75014193  -0.00158003  0.25291875  1
  Fe  Fe47  1  0.62197914  0.62825556  0.37395275  1
  Fe  Fe48  1  0.12549061  0.62429945  0.87297283  1
  Fe  Fe49  1  0.49923442  0.24775547  0.74739767  1
  Fe  Fe50  1  0.37477645  0.62704114  0.12416136  1
  Fe  Fe51  1  0.62497561  0.87741755  0.62914809  1
  Fe  Fe52  1  -0.00264152  0.49949048  -0.00055820  1
  Fe  Fe53  1  -0.00268649  0.50417930  0.74834690  1
  Fe  Fe54  1  0.25289417  0.49982244  0.25075617  1
  Fe  Fe55  1  0.12283118  0.12534883  0.87533014  1
  Fe  Fe56  1  0.00136670  0.50065498  0.50074783  1
  Fe  Fe57  1  0.25074923  0.00114496  0.75052030  1
  Fe  Fe58  1  0.37576193  0.87453965  0.62769516  1
  Fe  Fe59  1  0.25405576  0.49830103  -0.00475152  1
  Fe  Fe60  1  0.87574759  0.12661146  0.62250815  1
  Fe  Fe61  1  0.00087418  -0.00220380  0.00035778  1
  Fe  Fe62  1  0.00106722  0.25117791  0.74699825  1
  Fe  Fe63  1  0.74701523  0.75293890  0.25155059  1
  Fe  Fe64  1  0.12454379  0.87369154  0.62718797  1
  Fe  Fe65  1  0.87346717  0.37497891  0.12589327  1
  Fe  Fe66  1  -0.00054048  0.74844824  0.24925850  1
  Fe  Fe67  1  0.50351155  -0.00543435  0.24673906  1
  Fe  Fe68  1  0.75078797  -0.00049698  0.50144079  1
  Fe  Fe69  1  0.62645609  0.62131778  0.62886768  1
  Fe  Fe70  1  -0.00012540  0.50055898  0.25084591  1
  Fe  Fe71  1  0.74899579  0.25161833  -0.00128572  1
  Fe  Fe72  1  0.62173434  0.37257084  0.37732579  1
  Fe  Fe73  1  0.62499907  0.87639397  0.87104841  1
  Fe  Fe74  1  0.62274799  0.12474281  0.37702238  1
  Fe  Fe75  1  0.74859041  0.25180891  0.74845855  1
  Fe  Fe76  1  0.24794110  -0.00107170  0.25234967  1
  Fe  Fe77  1  0.87456421  0.87519147  0.12566733  1
  Fe  Fe78  1  0.49819218  0.50230789  0.49985048  1
  Fe  Fe79  1  0.87391611  0.37505398  0.37594164  1
  Fe  Fe80  1  0.87428234  0.12534387  0.12369964  1
  Fe  Fe81  1  0.62454239  0.12559755  0.62434587  1
  Fe  Fe82  1  0.24675194  0.75336516  -0.00047261  1
  Fe  Fe83  1  0.25064617  0.00007356  0.49798924  1
  Fe  Fe84  1  0.25076740  0.75086250  0.25035933  1
  Fe  Fe85  1  0.25203447  0.50196391  0.49776806  1
  Fe  Fe86  1  0.87676310  0.12843820  0.87465607  1
  Fe  Fe87  1  0.25059259  0.25106172  0.75269175  1
  Fe  Fe88  1  0.49762074  0.24999643  0.25031761  1
  Fe  Fe89  1  0.24908021  0.74872496  0.75065739  1
  Co  Co90  1  0.87487842  0.62772296  0.87637029  1
  Co  Co91  1  0.37289147  0.87565576  0.12413540  1
  Co  Co92  1  0.62976419  0.87682977  0.12116204  1
  Co  Co93  1  0.62141204  0.87514207  0.37935263  1
  Co  Co94  1  0.37923200  0.36906795  0.87752972  1
  Co  Co95  1  0.37653031  0.37730825  0.37669278  1
  Co  Co96  1  0.12415562  0.87553934  0.12790885  1
  Co  Co97  1  0.12147152  0.12513853  0.37706859  1
  Co  Co98  1  0.00100548  0.25086434  0.00229234  1
  Co  Co99  1  0.87383906  0.87455108  0.62778639  1
  Co  Co100  1  0.12312719  0.87499345  0.86961978  1
  Co  Co101  1  -0.00099161  0.00170619  0.24875066  1
  Co  Co102  1  0.50055420  0.74867629  0.74880000  1
  Co  Co103  1  -0.00033396  0.74434104  0.74551975  1
  Co  Co104  1  0.25517776  0.49866034  0.75467764  1
  Co  Co105  1  0.37361649  0.63101516  0.87642726  1
  Co  Co106  1  0.00079722  0.25474407  0.50118562  1
  Co  Co107  1  0.37928727  0.11940956  0.37097140  1
  Co  Co108  1  0.50114589  0.74843472  0.50619985  1
  Co  Co109  1  0.49677480  0.24705115  0.50005595  1
  Co  Co110  1  0.25224239  0.24940273  0.25209223  1
  Co  Co111  1  0.74806480  0.49933792  0.25236665  1
  Co  Co112  1  0.49788496  0.00250716  0.74990953  1
  Co  Co113  1  0.87725467  0.37194665  0.87331946  1
  Co  Co114  1  0.37201252  0.12617694  0.62621817  1
  Co  Co115  1  0.37733639  0.62900816  0.37388220  1
  Co  Co116  1  0.50295703  0.24579392  0.00207674  1
  Co  Co117  1  0.00200645  -0.00251093  0.50414370  1
  Co  Co118  1  0.75211887  0.00312608  0.74956316  1
  Co  Co119  1  0.49799595  0.50316670  -0.00158382  1
  Co  Co120  1  0.24771492  0.24925692  -0.00178689  1
  Co  Co121  1  0.75127236  0.49875907  0.75487449  1
  Co  Co122  1  0.86952267  0.62193816  0.62235534  1
  Co  Co123  1  0.74872690  0.25100851  0.50123915  1
  Co  Co124  1  0.74996961  0.74792069  0.74820573  1
  Co  Co125  1  0.62153890  0.37713443  0.62568958  1
  Co  Co126  1  0.13000313  0.62268132  0.62552805  1
  Co  Co127  1  0.50316410  0.75194193  0.24453645  1
