# generated using pymatgen
data_Fe45Co19
_symmetry_space_group_name_H-M   'P 1'
_cell_length_a   11.41569865
_cell_length_b   11.41572279
_cell_length_c   11.41501998
_cell_angle_alpha   89.99637266
_cell_angle_beta   90.00268877
_cell_angle_gamma   90.00058305
_symmetry_Int_Tables_number   1
_chemical_formula_structural   Fe45Co19
_chemical_formula_sum   'Fe90 Co38'
_cell_volume   1487.58771947
_cell_formula_units_Z   2
loop_
 _symmetry_equiv_pos_site_id
 _symmetry_equiv_pos_as_xyz
  1  'x, y, z'
loop_
 _atom_site_type_symbol
 _atom_site_label
 _atom_site_symmetry_multiplicity
 _atom_site_fract_x
 _atom_site_fract_y
 _atom_site_fract_z
 _atom_site_occupancy
  Fe  Fe0  1  0.37330618  0.12916382  0.87561370  1
  Fe  Fe1  1  0.49995180  0.49998436  0.74922247  1
  Fe  Fe2  1  0.12482018  0.37288037  0.13114941  1
  Fe  Fe3  1  0.62557153  0.62223861  0.12554607  1
  Fe  Fe4  1  0.37541604  0.62478246  0.37387649  1
  Fe  Fe5  1  0.00203604  0.24951914  0.74760989  1
  Fe  Fe6  1  0.50029125  0.74968411  0.74969165  1
  Fe  Fe7  1  0.12101132  0.87356833  0.87977714  1
  Fe  Fe8  1  0.49761453  0.24758000  0.24911691  1
  Fe  Fe9  1  0.87706418  0.87486731  0.37543653  1
  Fe  Fe10  1  0.37525222  0.87639518  0.12392859  1
  Fe  Fe11  1  0.62428466  0.37347413  0.62392529  1
  Fe  Fe12  1  0.12554252  0.12681937  0.87592892  1
  Fe  Fe13  1  0.49983328  0.00172465  -0.00111835  1
  Fe  Fe14  1  -0.00080787  0.00092452  0.75025229  1
  Fe  Fe15  1  0.87584897  0.87323581  0.87868034  1
  Fe  Fe16  1  0.75063029  0.49981459  0.75049054  1
  Fe  Fe17  1  0.75319841  0.75047256  0.50142849  1
  Fe  Fe18  1  0.62365686  0.12385688  0.12514151  1
  Fe  Fe19  1  0.74960316  0.75225076  0.24970982  1
  Fe  Fe20  1  0.49396396  0.24535440  0.50613582  1
  Fe  Fe21  1  0.50330648  0.74996654  -0.00060029  1
  Fe  Fe22  1  0.75032133  0.00104883  0.50020833  1
  Fe  Fe23  1  0.62273604  0.37187779  0.37470469  1
  Fe  Fe24  1  0.37545158  0.87835198  0.37709322  1
  Fe  Fe25  1  0.13070001  0.12460951  0.62642587  1
  Fe  Fe26  1  0.00305794  0.00137334  0.50030383  1
  Fe  Fe27  1  0.24945825  0.49925579  0.49708567  1
  Fe  Fe28  1  0.12429819  0.62526374  0.87611110  1
  Fe  Fe29  1  0.25146247  0.75173276  0.24992714  1
  Fe  Fe30  1  0.62546330  0.87614918  0.87282471  1
  Fe  Fe31  1  0.87335923  0.37363495  0.12891739  1
  Fe  Fe32  1  0.49650696  0.00345804  0.74529573  1
  Fe  Fe33  1  0.62163576  0.12469408  0.37800547  1
  Fe  Fe34  1  0.62552656  0.87679834  0.62444662  1
  Fe  Fe35  1  0.24759309  0.00141049  0.00174302  1
  Fe  Fe36  1  0.37621849  0.62396825  0.12573701  1
  Fe  Fe37  1  0.24924698  0.49831318  0.00086650  1
  Fe  Fe38  1  -0.00133809  0.50026474  0.75083764  1
  Fe  Fe39  1  0.37392496  0.62538462  0.62398428  1
  Fe  Fe40  1  0.87617760  0.12671910  0.87553915  1
  Fe  Fe41  1  0.87629279  0.12429645  0.37472061  1
  Fe  Fe42  1  -0.00119823  0.50015794  0.00189974  1
  Fe  Fe43  1  0.62447444  0.12624520  0.87263887  1
  Fe  Fe44  1  0.00219726  -0.00012118  0.24573959  1
  Fe  Fe45  1  -0.00261796  0.74975073  0.74781791  1
  Fe  Fe46  1  0.13060148  0.12619132  0.37072380  1
  Fe  Fe47  1  0.62508696  0.62623283  0.37424069  1
  Fe  Fe48  1  0.12576961  0.37594575  0.62252913  1
  Fe  Fe49  1  0.49992124  0.50016374  0.49896105  1
  Fe  Fe50  1  0.75192950  0.49989704  0.49604854  1
  Fe  Fe51  1  0.49856332  0.00037839  0.25255820  1
  Fe  Fe52  1  0.62660925  0.37549698  0.12841702  1
  Fe  Fe53  1  0.87037486  0.62384625  0.12426333  1
  Fe  Fe54  1  0.12405033  0.62411610  0.62481513  1
  Fe  Fe55  1  0.12426826  0.37432721  0.87595668  1
  Fe  Fe56  1  0.87091426  0.62683865  0.87655700  1
  Fe  Fe57  1  0.00094473  0.24924357  0.00287612  1
  Fe  Fe58  1  0.87596011  0.37271903  0.87540533  1
  Fe  Fe59  1  0.12357943  0.62432420  0.37279936  1
  Fe  Fe60  1  0.75167666  0.24886984  0.49884855  1
  Fe  Fe61  1  0.50230438  0.49888490  -0.00058802  1
  Fe  Fe62  1  0.24996550  0.49853100  0.75025957  1
  Fe  Fe63  1  0.12753260  0.62540680  0.12539281  1
  Fe  Fe64  1  0.62314512  0.37230682  0.87325348  1
  Fe  Fe65  1  -0.00158907  0.50100194  0.49654166  1
  Fe  Fe66  1  0.12437201  0.87474283  0.37244481  1
  Fe  Fe67  1  0.25116181  0.75015541  -0.00055472  1
  Fe  Fe68  1  0.74935646  0.00079926  0.25219139  1
  Fe  Fe69  1  0.37543761  0.37447616  0.12491168  1
  Fe  Fe70  1  0.74803410  0.24958012  0.00122925  1
  Fe  Fe71  1  0.25035213  0.75190632  0.75096049  1
  Fe  Fe72  1  0.37626727  0.87511569  0.87530703  1
  Fe  Fe73  1  0.50048135  0.75171032  0.25114194  1
  Fe  Fe74  1  0.12582669  0.87614980  0.62584279  1
  Fe  Fe75  1  0.37615569  0.37217184  0.87502424  1
  Fe  Fe76  1  0.75399227  0.00046349  0.74759004  1
  Fe  Fe77  1  0.87682622  0.37317108  0.37075806  1
  Fe  Fe78  1  0.62663797  0.62441937  0.62491912  1
  Fe  Fe79  1  0.37458708  0.37494449  0.37491037  1
  Fe  Fe80  1  0.87511338  0.12522593  0.12625260  1
  Fe  Fe81  1  0.62454957  0.87783732  0.12625483  1
  Fe  Fe82  1  0.24825383  0.75138229  0.49949212  1
  Fe  Fe83  1  0.75125225  -0.00016156  0.00006171  1
  Fe  Fe84  1  0.37572629  0.62370419  0.87556648  1
  Fe  Fe85  1  -0.00075892  0.75018176  0.24671154  1
  Fe  Fe86  1  0.49972433  0.75250287  0.50058341  1
  Fe  Fe87  1  0.87655677  0.37385048  0.62395776  1
  Fe  Fe88  1  0.00336666  0.24867135  0.49774084  1
  Fe  Fe89  1  0.75064824  0.24912191  0.74760396  1
  Co  Co90  1  0.50040047  0.49942467  0.25166824  1
  Co  Co91  1  0.00189354  0.75034794  0.50142197  1
  Co  Co92  1  0.62861053  0.12512423  0.62448393  1
  Co  Co93  1  0.87694442  0.12640651  0.62347730  1
  Co  Co94  1  0.74568207  0.75317136  0.00155975  1
  Co  Co95  1  0.87745653  0.87752745  0.62173530  1
  Co  Co96  1  0.25515571  0.24929014  0.25067891  1
  Co  Co97  1  0.49901827  0.00169777  0.50440715  1
  Co  Co98  1  -0.00170508  0.74676698  0.00321836  1
  Co  Co99  1  0.75031984  0.49985952  0.25492259  1
  Co  Co100  1  0.12563233  0.87353871  0.12258515  1
  Co  Co101  1  0.62652355  0.62476332  0.87513024  1
  Co  Co102  1  0.62573367  0.87588926  0.37722835  1
  Co  Co103  1  0.75070721  0.75180848  0.74794134  1
  Co  Co104  1  0.87644743  0.62902878  0.37479134  1
  Co  Co105  1  0.25086171  -0.00104255  0.24687826  1
  Co  Co106  1  0.36422188  0.12167196  0.62573508  1
  Co  Co107  1  0.12629337  0.12752221  0.12716580  1
  Co  Co108  1  0.74949590  0.49608714  -0.00129229  1
  Co  Co109  1  0.12426288  0.37598854  0.37079826  1
  Co  Co110  1  0.24843719  0.25076698  0.00171576  1
  Co  Co111  1  0.49720957  0.24686205  0.74457693  1
  Co  Co112  1  0.24798980  -0.00223258  0.49749339  1
  Co  Co113  1  -0.00168444  0.50288718  0.24879746  1
  Co  Co114  1  0.37262936  0.87541004  0.62415658  1
  Co  Co115  1  0.37330985  0.37760833  0.62444624  1
  Co  Co116  1  0.87474761  0.87666965  0.12462788  1
  Co  Co117  1  0.37345212  0.12114166  0.37676896  1
  Co  Co118  1  0.74803779  0.24654905  0.25161565  1
  Co  Co119  1  -0.00012560  0.24713427  0.25155662  1
  Co  Co120  1  0.24899566  -0.00351544  0.75612960  1
  Co  Co121  1  0.24973880  0.25395934  0.74964059  1
  Co  Co122  1  0.37554312  0.12414785  0.12285719  1
  Co  Co123  1  0.25132797  0.49961444  0.25053844  1
  Co  Co124  1  0.87521408  0.62280295  0.62459827  1
  Co  Co125  1  0.25014295  0.25249491  0.49756859  1
  Co  Co126  1  0.50272144  0.24984743  0.00129329  1
  Co  Co127  1  0.00048196  0.00293862  0.00250501  1
