# generated using pymatgen
data_Fe45Co19
_symmetry_space_group_name_H-M   'P 1'
_cell_length_a   11.41501403
_cell_length_b   11.41534755
_cell_length_c   11.41597735
_cell_angle_alpha   89.99705874
_cell_angle_beta   89.99275381
_cell_angle_gamma   90.00669426
_symmetry_Int_Tables_number   1
_chemical_formula_structural   Fe45Co19
_chemical_formula_sum   'Fe90 Co38'
_cell_volume   1487.57434370
_cell_formula_units_Z   2
loop_
 _symmetry_equiv_pos_site_id
 _symmetry_equiv_pos_as_xyz
  1  'x, y, z'
loop_
 _atom_site_type_symbol
 _atom_site_label
 _atom_site_symmetry_multiplicity
 _atom_site_fract_x
 _atom_site_fract_y
 _atom_site_fract_z
 _atom_site_occupancy
  Fe  Fe0  1  0.24896447  0.24581255  0.00199783  1
  Fe  Fe1  1  0.62458730  0.87232234  0.12135550  1
  Fe  Fe2  1  0.75238419  0.75305173  0.24868915  1
  Fe  Fe3  1  0.49876818  -0.00067342  -0.00151630  1
  Fe  Fe4  1  -0.00223922  0.50120075  0.00373573  1
  Fe  Fe5  1  0.75077159  0.24744530  -0.00045250  1
  Fe  Fe6  1  0.12507452  0.12445767  0.62630693  1
  Fe  Fe7  1  0.87430714  0.37654976  0.87592810  1
  Fe  Fe8  1  0.74866024  -0.00174629  0.74832615  1
  Fe  Fe9  1  0.37614601  0.12368792  0.62703966  1
  Fe  Fe10  1  0.62513034  0.87299867  0.87752307  1
  Fe  Fe11  1  0.62490773  0.12330762  0.87351745  1
  Fe  Fe12  1  0.49998543  -0.00399074  0.25001887  1
  Fe  Fe13  1  0.75214799  0.00117313  0.00028949  1
  Fe  Fe14  1  0.49971444  0.50132987  0.00092588  1
  Fe  Fe15  1  0.25019042  0.24833850  0.49853419  1
  Fe  Fe16  1  0.12600161  0.37515012  0.37562858  1
  Fe  Fe17  1  0.50067497  0.25288707  0.75151629  1
  Fe  Fe18  1  0.37397730  0.12145971  0.87156382  1
  Fe  Fe19  1  -0.00126149  0.50048691  0.50093178  1
  Fe  Fe20  1  0.24839412  0.50181410  0.75163161  1
  Fe  Fe21  1  0.12437046  0.37321655  0.12335426  1
  Fe  Fe22  1  0.49830406  0.75119081  0.75312366  1
  Fe  Fe23  1  0.62630172  0.37457725  0.12334288  1
  Fe  Fe24  1  0.12476981  0.62758276  0.62572177  1
  Fe  Fe25  1  0.75004833  0.25218629  0.74994031  1
  Fe  Fe26  1  0.74812150  0.24802779  0.49970528  1
  Fe  Fe27  1  0.37489602  0.62565042  0.37227571  1
  Fe  Fe28  1  0.62658698  0.38074798  0.87394072  1
  Fe  Fe29  1  0.50199737  0.25175327  0.49693534  1
  Fe  Fe30  1  -0.00167652  0.74996724  0.00083041  1
  Fe  Fe31  1  0.87324368  0.37627445  0.37663245  1
  Fe  Fe32  1  0.62541631  0.87141468  0.62474826  1
  Fe  Fe33  1  -0.00187303  -0.00447073  0.24969183  1
  Fe  Fe34  1  0.24900264  0.25032661  0.75011054  1
  Fe  Fe35  1  0.62269793  0.63000333  0.12546807  1
  Fe  Fe36  1  0.87572609  0.87300588  0.62439224  1
  Fe  Fe37  1  0.75174476  0.50499563  0.50328890  1
  Fe  Fe38  1  -0.00210965  0.25174604  0.24897067  1
  Fe  Fe39  1  0.74982687  0.24990449  0.25017403  1
  Fe  Fe40  1  0.50061572  -0.00090994  0.50125341  1
  Fe  Fe41  1  0.00164796  0.75145851  0.49772442  1
  Fe  Fe42  1  -0.00251788  0.49986169  0.74773678  1
  Fe  Fe43  1  0.00333089  0.75137538  0.75169212  1
  Fe  Fe44  1  0.12466712  0.37620944  0.87749720  1
  Fe  Fe45  1  0.12867434  0.87740723  0.87718594  1
  Fe  Fe46  1  0.87402965  0.87450265  0.87702585  1
  Fe  Fe47  1  0.62443601  0.12428241  0.12635195  1
  Fe  Fe48  1  0.75040130  -0.00289524  0.24968151  1
  Fe  Fe49  1  0.50041992  0.74785951  0.49836641  1
  Fe  Fe50  1  0.37439113  0.37602667  0.62306888  1
  Fe  Fe51  1  0.62617902  0.87488739  0.37683313  1
  Fe  Fe52  1  0.37525457  0.87301635  0.12199088  1
  Fe  Fe53  1  -0.00008542  -0.00065463  0.50119941  1
  Fe  Fe54  1  0.50228169  0.49901462  0.25142664  1
  Fe  Fe55  1  0.12776014  0.12326791  0.37057331  1
  Fe  Fe56  1  0.50057084  0.24871304  -0.00167483  1
  Fe  Fe57  1  0.62609757  0.37995338  0.62629284  1
  Fe  Fe58  1  0.12508907  0.37497434  0.62420761  1
  Fe  Fe59  1  0.24801882  0.75250520  0.24999801  1
  Fe  Fe60  1  -0.00200726  0.24322150  0.00043887  1
  Fe  Fe61  1  0.12309338  0.62514012  0.37158905  1
  Fe  Fe62  1  0.12773911  0.87622211  0.37877962  1
  Fe  Fe63  1  0.37388586  0.12420205  0.37248692  1
  Fe  Fe64  1  0.87281884  0.12178743  0.37499977  1
  Fe  Fe65  1  0.00008058  0.24879079  0.49916841  1
  Fe  Fe66  1  0.37535601  0.37455215  0.12463201  1
  Fe  Fe67  1  0.37604076  0.62698487  0.12709128  1
  Fe  Fe68  1  0.75218859  0.50067918  0.24752415  1
  Fe  Fe69  1  0.50245037  0.25304922  0.25317630  1
  Fe  Fe70  1  0.37481860  0.62629255  0.62559697  1
  Fe  Fe71  1  0.00187990  -0.00087321  0.75148689  1
  Fe  Fe72  1  0.87868388  0.62703514  0.37032058  1
  Fe  Fe73  1  -0.00070426  0.25030431  0.75135365  1
  Fe  Fe74  1  0.25038496  0.74701507  -0.00202462  1
  Fe  Fe75  1  0.37270035  0.37590248  0.87744170  1
  Fe  Fe76  1  0.37270474  0.87429031  0.37727341  1
  Fe  Fe77  1  0.37495529  0.62424299  0.87561951  1
  Fe  Fe78  1  0.24911415  0.50237007  0.49920895  1
  Fe  Fe79  1  0.12260737  0.62518653  0.12665553  1
  Fe  Fe80  1  0.50226583  0.50187494  0.49733235  1
  Fe  Fe81  1  0.75247371  0.50659835  0.00108326  1
  Fe  Fe82  1  0.37028377  0.87396830  0.62630457  1
  Fe  Fe83  1  0.75019846  0.74443671  0.75270059  1
  Fe  Fe84  1  0.12459515  0.87911831  0.12064053  1
  Fe  Fe85  1  0.75051922  0.74751652  0.50005650  1
  Fe  Fe86  1  0.24864433  0.49744210  0.24832280  1
  Fe  Fe87  1  0.87472992  0.12476371  0.62675073  1
  Fe  Fe88  1  0.37422391  0.12467440  0.12865317  1
  Fe  Fe89  1  0.62355558  0.12435542  0.62575946  1
  Co  Co90  1  0.49561163  0.49881564  0.75078191  1
  Co  Co91  1  0.12697352  0.87301428  0.62339138  1
  Co  Co92  1  0.50024179  0.75335050  0.25222803  1
  Co  Co93  1  0.62704762  0.62649307  0.37221202  1
  Co  Co94  1  0.24963745  0.25357515  0.24898596  1
  Co  Co95  1  0.87478869  0.37216233  0.62310360  1
  Co  Co96  1  0.25004177  0.50221826  0.00172874  1
  Co  Co97  1  0.25082822  -0.00504858  0.24885391  1
  Co  Co98  1  -0.00016178  0.49486071  0.24839878  1
  Co  Co99  1  0.62224075  0.62239576  0.87305207  1
  Co  Co100  1  0.12716820  0.12439225  0.87411750  1
  Co  Co101  1  0.87944573  0.62909830  0.12929011  1
  Co  Co102  1  0.87495680  0.12257236  0.12738254  1
  Co  Co103  1  0.87544006  0.87538171  0.12045132  1
  Co  Co104  1  0.24679657  -0.00109787  0.74766294  1
  Co  Co105  1  0.62202841  0.62456108  0.62836151  1
  Co  Co106  1  0.74934123  -0.00042406  0.50308837  1
  Co  Co107  1  0.87974261  0.62518066  0.87520956  1
  Co  Co108  1  0.37419686  0.37681358  0.37590922  1
  Co  Co109  1  0.12161774  0.62294819  0.87664826  1
  Co  Co110  1  0.24920525  0.74779205  0.49847587  1
  Co  Co111  1  0.62458874  0.12157601  0.37387164  1
  Co  Co112  1  0.87410969  0.87462354  0.37839943  1
  Co  Co113  1  0.49829068  0.74967469  -0.00361581  1
  Co  Co114  1  -0.00221938  0.00435407  -0.00327835  1
  Co  Co115  1  0.50216915  -0.00343860  0.74943418  1
  Co  Co116  1  0.37129920  0.87762305  0.87434362  1
  Co  Co117  1  0.12378230  0.12228158  0.12902456  1
  Co  Co118  1  0.87206650  0.12409740  0.87151896  1
  Co  Co119  1  0.87342094  0.37293488  0.12219044  1
  Co  Co120  1  0.24982858  0.00279188  0.50146614  1
  Co  Co121  1  0.24864119  0.74750532  0.75331345  1
  Co  Co122  1  0.00258238  0.75758110  0.24992552  1
  Co  Co123  1  0.75572849  0.50413697  0.74759617  1
  Co  Co124  1  0.75152248  0.74509231  -0.00077735  1
  Co  Co125  1  0.87966067  0.63091826  0.62504174  1
  Co  Co126  1  0.62915350  0.37814171  0.37602390  1
  Co  Co127  1  0.25195958  0.00388607  0.00119521  1
