# generated using pymatgen
data_Fe45Co19
_symmetry_space_group_name_H-M   'P 1'
_cell_length_a   11.41508849
_cell_length_b   11.41647354
_cell_length_c   11.41746904
_cell_angle_alpha   89.99680842
_cell_angle_beta   90.00203342
_cell_angle_gamma   90.00885099
_symmetry_Int_Tables_number   1
_chemical_formula_structural   Fe45Co19
_chemical_formula_sum   'Fe90 Co38'
_cell_volume   1487.92517962
_cell_formula_units_Z   2
loop_
 _symmetry_equiv_pos_site_id
 _symmetry_equiv_pos_as_xyz
  1  'x, y, z'
loop_
 _atom_site_type_symbol
 _atom_site_label
 _atom_site_symmetry_multiplicity
 _atom_site_fract_x
 _atom_site_fract_y
 _atom_site_fract_z
 _atom_site_occupancy
  Fe  Fe0  1  0.12516334  0.62573611  0.87616647  1
  Fe  Fe1  1  0.37455644  0.87490967  0.37612254  1
  Fe  Fe2  1  -0.00096134  0.25275671  0.25157300  1
  Fe  Fe3  1  0.49739488  0.24907642  0.49827600  1
  Fe  Fe4  1  0.49961306  0.50261096  0.49981621  1
  Fe  Fe5  1  0.74939749  -0.00189284  0.25132809  1
  Fe  Fe6  1  0.74739225  0.49979663  0.75263768  1
  Fe  Fe7  1  0.87823992  0.87620835  0.87436074  1
  Fe  Fe8  1  0.00292486  0.25216551  0.74977244  1
  Fe  Fe9  1  0.24881490  0.49855816  0.25069010  1
  Fe  Fe10  1  0.12509702  0.62551561  0.12363862  1
  Fe  Fe11  1  0.62448759  0.12541173  0.62424048  1
  Fe  Fe12  1  0.24978597  0.74881772  0.49992681  1
  Fe  Fe13  1  0.62675039  0.37471105  0.12265772  1
  Fe  Fe14  1  0.24870140  -0.00194974  0.25176360  1
  Fe  Fe15  1  0.12801407  0.62185199  0.62619799  1
  Fe  Fe16  1  0.75416415  0.00160052  0.50075200  1
  Fe  Fe17  1  0.75200447  0.24845368  0.49883486  1
  Fe  Fe18  1  -0.00555598  -0.00000553  0.50195345  1
  Fe  Fe19  1  0.75407232  0.50059363  -0.00285688  1
  Fe  Fe20  1  0.50233512  0.74929921  0.74953863  1
  Fe  Fe21  1  0.62556645  0.62435272  0.12326772  1
  Fe  Fe22  1  0.37259811  0.37652684  0.62383615  1
  Fe  Fe23  1  0.62502116  0.37662299  0.37475962  1
  Fe  Fe24  1  0.62354071  0.87606535  0.12078675  1
  Fe  Fe25  1  0.37430677  0.37444875  0.12560897  1
  Fe  Fe26  1  0.87542529  0.12536769  0.12780432  1
  Fe  Fe27  1  -0.00292407  0.25071965  0.49930577  1
  Fe  Fe28  1  0.37398866  0.87505856  0.62488356  1
  Fe  Fe29  1  0.50075005  0.49992927  0.75099799  1
  Fe  Fe30  1  0.75107017  0.00197104  0.00015824  1
  Fe  Fe31  1  0.12322934  0.87503679  0.37757016  1
  Fe  Fe32  1  0.75076624  0.25292376  0.25057187  1
  Fe  Fe33  1  0.62389159  0.12460600  0.87535869  1
  Fe  Fe34  1  0.74888696  0.74937900  0.25023274  1
  Fe  Fe35  1  0.50178710  0.49894106  0.24934111  1
  Fe  Fe36  1  0.25302125  0.00335330  0.00039241  1
  Fe  Fe37  1  0.37423020  0.37238853  0.87646601  1
  Fe  Fe38  1  0.75117337  0.74709600  0.49983015  1
  Fe  Fe39  1  0.49952185  0.00190356  0.74978497  1
  Fe  Fe40  1  0.12422829  0.12296056  0.37611319  1
  Fe  Fe41  1  0.62498586  0.87299179  0.37788321  1
  Fe  Fe42  1  0.00098589  0.75141381  0.24897161  1
  Fe  Fe43  1  0.12502989  0.12684692  0.87774136  1
  Fe  Fe44  1  0.12421988  0.87653506  0.87800681  1
  Fe  Fe45  1  0.87519535  0.62454652  0.62954070  1
  Fe  Fe46  1  0.12493714  0.87620128  0.62232766  1
  Fe  Fe47  1  0.62251037  0.87602865  0.87802623  1
  Fe  Fe48  1  0.37503326  0.87527046  0.12332982  1
  Fe  Fe49  1  0.49997767  0.24971618  0.74836538  1
  Fe  Fe50  1  -0.00022987  -0.00161059  0.24909079  1
  Fe  Fe51  1  0.87801722  0.12324711  0.87174111  1
  Fe  Fe52  1  0.87470958  0.37512145  0.62504847  1
  Fe  Fe53  1  0.00451496  0.49504467  0.75157298  1
  Fe  Fe54  1  0.87681855  0.62343608  0.12455978  1
  Fe  Fe55  1  0.75178193  0.74792513  -0.00286597  1
  Fe  Fe56  1  0.37272751  0.62715504  0.12587698  1
  Fe  Fe57  1  0.12525227  0.12462315  0.62300387  1
  Fe  Fe58  1  0.12539479  0.12743822  0.12373445  1
  Fe  Fe59  1  0.37627727  0.87421803  0.87646453  1
  Fe  Fe60  1  0.49724975  0.00224414  0.49967177  1
  Fe  Fe61  1  0.62299310  0.12496163  0.37171455  1
  Fe  Fe62  1  0.25308334  0.24862481  0.49764577  1
  Fe  Fe63  1  0.87558080  0.62335918  0.37172218  1
  Fe  Fe64  1  -0.00041213  0.49694870  0.24936538  1
  Fe  Fe65  1  0.75086544  0.00009640  0.74747949  1
  Fe  Fe66  1  0.24986384  0.50004306  -0.00137803  1
  Fe  Fe67  1  0.62367528  0.37384295  0.87749428  1
  Fe  Fe68  1  0.25034689  0.25233949  0.25219904  1
  Fe  Fe69  1  0.37263083  0.62469105  0.62816406  1
  Fe  Fe70  1  0.12482196  0.62417437  0.37432197  1
  Fe  Fe71  1  0.37344638  0.62734666  0.87371546  1
  Fe  Fe72  1  0.74764757  0.74919458  0.75229812  1
  Fe  Fe73  1  0.24826741  0.25277562  0.74893166  1
  Fe  Fe74  1  0.12623492  0.87340475  0.12273394  1
  Fe  Fe75  1  0.12489416  0.37804371  0.37974764  1
  Fe  Fe76  1  0.50106751  0.75172429  0.24908460  1
  Fe  Fe77  1  0.87532190  0.87456463  0.12428353  1
  Fe  Fe78  1  -0.00188860  0.74775153  0.50057946  1
  Fe  Fe79  1  0.62480708  0.37563564  0.62394176  1
  Fe  Fe80  1  0.12338287  0.37341491  0.11962443  1
  Fe  Fe81  1  0.74981582  0.50258980  0.49898533  1
  Fe  Fe82  1  0.00231256  0.75212336  0.75013326  1
  Fe  Fe83  1  0.75310992  0.24847907  -0.00056997  1
  Fe  Fe84  1  0.74900449  0.25014833  0.74985900  1
  Fe  Fe85  1  0.62549560  0.87411289  0.62289154  1
  Fe  Fe86  1  0.49748107  0.24369033  0.00392102  1
  Fe  Fe87  1  0.49832671  0.50180912  -0.00036442  1
  Fe  Fe88  1  0.37517845  0.62562625  0.37262875  1
  Fe  Fe89  1  0.24879421  0.00000467  0.74912329  1
  Co  Co90  1  0.49750556  0.00550872  0.00055183  1
  Co  Co91  1  -0.00206801  0.50186490  0.50149328  1
  Co  Co92  1  0.37587131  0.37679526  0.37465931  1
  Co  Co93  1  0.62326751  0.62402212  0.87674091  1
  Co  Co94  1  0.12740244  0.37624077  0.61922427  1
  Co  Co95  1  0.00204765  -0.00003515  0.74796204  1
  Co  Co96  1  0.87584418  0.12724639  0.62765150  1
  Co  Co97  1  0.12691672  0.37081379  0.88194928  1
  Co  Co98  1  0.37350414  0.12669994  0.87119596  1
  Co  Co99  1  0.87537742  0.87362120  0.37446009  1
  Co  Co100  1  0.74893786  0.49959561  0.24947786  1
  Co  Co101  1  -0.00038977  0.75039113  0.00065752  1
  Co  Co102  1  0.25197771  0.00090446  0.49987715  1
  Co  Co103  1  -0.00053201  0.49895165  -0.00199599  1
  Co  Co104  1  0.87509935  0.37457277  0.87255445  1
  Co  Co105  1  0.87441443  0.37778530  0.37600046  1
  Co  Co106  1  0.37362958  0.12563371  0.62648390  1
  Co  Co107  1  0.62511776  0.62488786  0.62607873  1
  Co  Co108  1  0.24807150  0.75302108  0.74999085  1
  Co  Co109  1  0.25505518  0.24726995  0.00308676  1
  Co  Co110  1  0.24904861  0.75123712  0.25132917  1
  Co  Co111  1  0.50218663  -0.00417659  0.24962033  1
  Co  Co112  1  0.87887364  0.62512553  0.87182716  1
  Co  Co113  1  -0.00026722  0.00141217  0.00269760  1
  Co  Co114  1  0.87592455  0.12385385  0.37161606  1
  Co  Co115  1  -0.00492337  0.24909183  -0.00045671  1
  Co  Co116  1  0.37587822  0.12396634  0.36935036  1
  Co  Co117  1  0.49800034  0.74796440  0.50161646  1
  Co  Co118  1  0.24946897  0.74969205  -0.00049237  1
  Co  Co119  1  0.25239075  0.50279368  0.49823746  1
  Co  Co120  1  0.62689139  0.12458791  0.12778196  1
  Co  Co121  1  0.50095890  0.25327754  0.24859079  1
  Co  Co122  1  0.49959492  0.74806615  0.00079082  1
  Co  Co123  1  0.24812240  0.49570657  0.75358050  1
  Co  Co124  1  0.87505669  0.37583290  0.12494007  1
  Co  Co125  1  0.87402879  0.87230482  0.62674875  1
  Co  Co126  1  0.37448418  0.12365607  0.13383277  1
  Co  Co127  1  0.62322064  0.62602435  0.37345905  1
