# generated using pymatgen
data_Fe45Co19
_symmetry_space_group_name_H-M   'P 1'
_cell_length_a   11.40756308
_cell_length_b   11.40841048
_cell_length_c   11.40714277
_cell_angle_alpha   90.00195681
_cell_angle_beta   89.99635058
_cell_angle_gamma   90.01027971
_symmetry_Int_Tables_number   1
_chemical_formula_structural   Fe45Co19
_chemical_formula_sum   'Fe90 Co38'
_cell_volume   1484.55019607
_cell_formula_units_Z   2
loop_
 _symmetry_equiv_pos_site_id
 _symmetry_equiv_pos_as_xyz
  1  'x, y, z'
loop_
 _atom_site_type_symbol
 _atom_site_label
 _atom_site_symmetry_multiplicity
 _atom_site_fract_x
 _atom_site_fract_y
 _atom_site_fract_z
 _atom_site_occupancy
  Fe  Fe0  1  0.12271263  0.62594575  0.62360111  1
  Fe  Fe1  1  0.87799378  0.12323310  0.12300749  1
  Fe  Fe2  1  0.62440069  0.12639967  0.62518904  1
  Fe  Fe3  1  0.87228562  0.37679564  0.12496065  1
  Fe  Fe4  1  0.13113969  0.37508546  0.87835047  1
  Fe  Fe5  1  0.49558609  0.25090348  -0.00309004  1
  Fe  Fe6  1  0.25415330  0.74545547  -0.00264224  1
  Fe  Fe7  1  0.87544248  0.62266926  0.12766375  1
  Fe  Fe8  1  0.49975748  0.49967080  -0.00447764  1
  Fe  Fe9  1  0.50078913  0.25328368  0.75348644  1
  Fe  Fe10  1  0.49723601  0.75246531  0.49633824  1
  Fe  Fe11  1  0.24891588  0.00313615  0.50182390  1
  Fe  Fe12  1  -0.00214351  0.25276834  0.25319248  1
  Fe  Fe13  1  0.37237181  0.87677674  0.62683993  1
  Fe  Fe14  1  0.00226029  0.75044224  0.75196151  1
  Fe  Fe15  1  0.49714425  0.75018358  0.75452965  1
  Fe  Fe16  1  0.86899619  0.87994024  0.37257340  1
  Fe  Fe17  1  0.62450001  0.87345598  0.12168127  1
  Fe  Fe18  1  0.50165211  0.25047753  0.25090561  1
  Fe  Fe19  1  0.25313345  0.74879391  0.49827785  1
  Fe  Fe20  1  0.37698996  0.62298321  0.62704006  1
  Fe  Fe21  1  0.87252090  0.62136512  0.37229220  1
  Fe  Fe22  1  0.12655905  0.37367450  0.12411511  1
  Fe  Fe23  1  0.37502280  0.12205459  0.37236812  1
  Fe  Fe24  1  0.74950371  0.74955348  0.75089030  1
  Fe  Fe25  1  0.75018164  -0.00061986  0.75110672  1
  Fe  Fe26  1  0.74929692  0.24790132  0.24867281  1
  Fe  Fe27  1  0.12821833  0.87551809  0.37501816  1
  Fe  Fe28  1  0.87478178  0.87760618  0.12516622  1
  Fe  Fe29  1  0.62852351  0.37439199  0.37870636  1
  Fe  Fe30  1  0.00217844  0.00036735  0.75089916  1
  Fe  Fe31  1  0.75316271  0.74968775  -0.00034107  1
  Fe  Fe32  1  0.87611849  0.62358827  0.62574629  1
  Fe  Fe33  1  0.49944195  0.75299427  0.25325031  1
  Fe  Fe34  1  0.12700498  0.87347017  0.12477410  1
  Fe  Fe35  1  0.25035390  0.74717919  0.75167199  1
  Fe  Fe36  1  0.25179700  0.24845128  0.24924182  1
  Fe  Fe37  1  -0.00089504  0.75108632  -0.00200808  1
  Fe  Fe38  1  0.12266518  0.62604978  0.12568451  1
  Fe  Fe39  1  0.12581701  0.87564774  0.62498971  1
  Fe  Fe40  1  0.37413388  0.87823565  0.12533266  1
  Fe  Fe41  1  0.50292305  -0.00187826  0.25041529  1
  Fe  Fe42  1  0.62592961  0.62612669  0.37490011  1
  Fe  Fe43  1  0.50337651  0.49809453  0.25005244  1
  Fe  Fe44  1  0.74371853  0.50156067  0.74834456  1
  Fe  Fe45  1  0.50616084  0.49795101  0.75251028  1
  Fe  Fe46  1  0.87072552  0.37589114  0.87655107  1
  Fe  Fe47  1  0.25110345  0.00342463  0.00123545  1
  Fe  Fe48  1  0.50115505  -0.00236101  0.49914267  1
  Fe  Fe49  1  0.62979712  0.12156881  0.37686101  1
  Fe  Fe50  1  0.87742317  0.12427833  0.87781436  1
  Fe  Fe51  1  0.62444280  0.87347467  0.87886768  1
  Fe  Fe52  1  0.87888821  0.12808194  0.62564232  1
  Fe  Fe53  1  0.87563458  0.62355843  0.87375832  1
  Fe  Fe54  1  0.87601296  0.87447077  0.62709731  1
  Fe  Fe55  1  0.37675941  0.37555414  0.62755311  1
  Fe  Fe56  1  0.12476263  0.12943374  0.37790216  1
  Fe  Fe57  1  0.37639628  0.12385344  0.62703937  1
  Fe  Fe58  1  0.24925029  0.50057389  0.24887953  1
  Fe  Fe59  1  0.12267250  0.12733173  0.87659891  1
  Fe  Fe60  1  0.75082561  0.74948502  0.50008407  1
  Fe  Fe61  1  -0.00206008  0.75113756  0.49729355  1
  Fe  Fe62  1  0.50004048  -0.00267541  0.75276323  1
  Fe  Fe63  1  0.12486686  0.62329028  0.37427513  1
  Fe  Fe64  1  -0.00116784  0.00128041  0.49909315  1
  Fe  Fe65  1  0.37397356  0.37643617  0.37522452  1
  Fe  Fe66  1  0.00084266  0.49912934  -0.00006853  1
  Fe  Fe67  1  0.12235797  0.12803961  0.12297815  1
  Fe  Fe68  1  0.24990311  0.49941058  0.50178664  1
  Fe  Fe69  1  0.87255347  0.37450194  0.62403044  1
  Fe  Fe70  1  0.00284708  0.00005744  0.25092094  1
  Fe  Fe71  1  0.49899914  0.24919629  0.49914194  1
  Fe  Fe72  1  0.12346641  0.36787076  0.62027720  1
  Fe  Fe73  1  0.62536611  0.12523473  0.87736037  1
  Fe  Fe74  1  0.62246046  0.12511343  0.12074467  1
  Fe  Fe75  1  0.74934948  0.25001913  0.75058490  1
  Fe  Fe76  1  0.62707723  0.37407716  0.11958651  1
  Fe  Fe77  1  0.62411473  0.62663345  0.12241301  1
  Fe  Fe78  1  0.00343981  0.49666533  0.75061322  1
  Fe  Fe79  1  0.62482945  0.87316481  0.62432075  1
  Fe  Fe80  1  0.37434616  0.37403122  0.12255167  1
  Fe  Fe81  1  0.25356262  0.74868994  0.25261432  1
  Fe  Fe82  1  0.00054255  0.49687282  0.49710275  1
  Fe  Fe83  1  0.50365070  0.50018434  0.50221199  1
  Fe  Fe84  1  0.37481059  0.12414427  0.87463885  1
  Fe  Fe85  1  0.37816435  0.62386073  0.12630274  1
  Fe  Fe86  1  0.24926040  0.24835963  0.74889927  1
  Fe  Fe87  1  0.12737021  0.87558702  0.87579623  1
  Fe  Fe88  1  -0.00187284  0.75085668  0.25195175  1
  Fe  Fe89  1  0.86960690  0.37771459  0.37409211  1
  Co  Co90  1  0.37197291  0.87790497  0.87545070  1
  Co  Co91  1  0.75019651  -0.00076392  -0.00069852  1
  Co  Co92  1  0.75218378  0.24719765  0.50054465  1
  Co  Co93  1  0.24623275  0.00343382  0.24809588  1
  Co  Co94  1  0.87178797  0.12103081  0.37220173  1
  Co  Co95  1  0.74504669  0.50032154  0.24797838  1
  Co  Co96  1  0.37386731  0.61811272  0.87097545  1
  Co  Co97  1  0.74682342  0.00167904  0.24380299  1
  Co  Co98  1  0.00052219  0.25375254  0.75388285  1
  Co  Co99  1  0.75134933  0.00039798  0.50634880  1
  Co  Co100  1  0.12936359  0.37255264  0.37540622  1
  Co  Co101  1  0.24510472  0.49973431  0.74469353  1
  Co  Co102  1  0.24738478  0.00377229  0.74979384  1
  Co  Co103  1  0.11998557  0.12946840  0.62263071  1
  Co  Co104  1  0.36961610  0.37861480  0.87354420  1
  Co  Co105  1  0.74985259  0.50375687  -0.00053299  1
  Co  Co106  1  -0.00143590  0.25519673  -0.00075369  1
  Co  Co107  1  0.62899879  0.37254474  0.87872149  1
  Co  Co108  1  0.62497714  0.62864077  0.87761538  1
  Co  Co109  1  0.37202891  0.88052182  0.37317042  1
  Co  Co110  1  0.63034769  0.87677187  0.37615085  1
  Co  Co111  1  0.12417721  0.62324370  0.87562636  1
  Co  Co112  1  0.62227886  0.63009055  0.62502192  1
  Co  Co113  1  0.49787069  0.00052306  -0.00117924  1
  Co  Co114  1  0.25044564  0.50415749  0.00412964  1
  Co  Co115  1  -0.00606214  0.25194662  0.49434730  1
  Co  Co116  1  0.74687972  0.50299482  0.50369691  1
  Co  Co117  1  0.25564960  0.24841213  0.50154356  1
  Co  Co118  1  0.00162551  -0.00321016  -0.00028884  1
  Co  Co119  1  0.00248301  0.49733647  0.25073106  1
  Co  Co120  1  0.74934583  0.74939521  0.24830141  1
  Co  Co121  1  0.75225478  0.24640474  0.00123936  1
  Co  Co122  1  0.37674897  0.62026232  0.37474671  1
  Co  Co123  1  0.62561736  0.36983640  0.62307205  1
  Co  Co124  1  0.49388134  0.74930180  -0.00193958  1
  Co  Co125  1  0.37906669  0.12444611  0.12795459  1
  Co  Co126  1  0.87590199  0.87538252  0.87364598  1
  Co  Co127  1  0.25326377  0.24640658  0.00078607  1
