# generated using pymatgen
data_Fe45Co19
_symmetry_space_group_name_H-M   'P 1'
_cell_length_a   11.41587719
_cell_length_b   11.41390410
_cell_length_c   11.41415571
_cell_angle_alpha   90.00493875
_cell_angle_beta   89.99761928
_cell_angle_gamma   90.00091428
_symmetry_Int_Tables_number   1
_chemical_formula_structural   Fe45Co19
_chemical_formula_sum   'Fe90 Co38'
_cell_volume   1487.26137142
_cell_formula_units_Z   2
loop_
 _symmetry_equiv_pos_site_id
 _symmetry_equiv_pos_as_xyz
  1  'x, y, z'
loop_
 _atom_site_type_symbol
 _atom_site_label
 _atom_site_symmetry_multiplicity
 _atom_site_fract_x
 _atom_site_fract_y
 _atom_site_fract_z
 _atom_site_occupancy
  Fe  Fe0  1  0.74982782  0.75268086  0.25096240  1
  Fe  Fe1  1  0.75201532  0.24816419  0.74936514  1
  Fe  Fe2  1  0.49870000  0.74809991  0.25485815  1
  Fe  Fe3  1  0.37400579  0.87891057  0.12616996  1
  Fe  Fe4  1  0.24910011  0.00027399  0.50245400  1
  Fe  Fe5  1  0.24907669  0.50188101  0.74956051  1
  Fe  Fe6  1  0.25144135  0.75105304  0.25158841  1
  Fe  Fe7  1  0.62586278  0.12379776  0.12334248  1
  Fe  Fe8  1  0.37498716  0.62469151  0.87621153  1
  Fe  Fe9  1  0.49902539  0.75060706  0.00088025  1
  Fe  Fe10  1  0.74710427  0.74681432  0.75139310  1
  Fe  Fe11  1  0.50000072  0.00058176  -0.00084292  1
  Fe  Fe12  1  0.00020029  0.75281162  0.25341696  1
  Fe  Fe13  1  0.12403837  0.62711799  0.62428624  1
  Fe  Fe14  1  0.49962671  0.25020633  0.00056528  1
  Fe  Fe15  1  0.74999191  0.49700123  0.49654839  1
  Fe  Fe16  1  0.75119908  0.24835587  0.25345671  1
  Fe  Fe17  1  0.50124815  0.50122939  0.49547360  1
  Fe  Fe18  1  0.37458539  0.12693433  0.62151340  1
  Fe  Fe19  1  0.75103872  0.00048346  0.25193836  1
  Fe  Fe20  1  0.49699914  0.00364582  0.25130323  1
  Fe  Fe21  1  0.49808924  0.24728225  0.24987110  1
  Fe  Fe22  1  0.37399237  0.87470323  0.62597999  1
  Fe  Fe23  1  0.62347236  0.87564345  0.87420338  1
  Fe  Fe24  1  0.75126934  0.24759502  -0.00072661  1
  Fe  Fe25  1  0.37328438  0.37420212  0.87329090  1
  Fe  Fe26  1  0.87853043  0.12390776  0.62383817  1
  Fe  Fe27  1  0.50230914  0.50139902  0.74893349  1
  Fe  Fe28  1  0.00048551  0.50007372  -0.00037763  1
  Fe  Fe29  1  0.00245161  0.75332971  -0.00154794  1
  Fe  Fe30  1  0.12700351  0.12138735  0.12244205  1
  Fe  Fe31  1  0.87681805  0.87945265  0.12583121  1
  Fe  Fe32  1  0.24842178  0.24780581  0.74654713  1
  Fe  Fe33  1  0.62590151  0.37393934  0.62318164  1
  Fe  Fe34  1  0.62349928  0.87489396  0.62438673  1
  Fe  Fe35  1  0.37350724  0.37478112  0.12748078  1
  Fe  Fe36  1  0.87434492  0.87576830  0.87414723  1
  Fe  Fe37  1  0.87565067  0.62697144  0.37590208  1
  Fe  Fe38  1  0.25129084  0.24467366  0.25106216  1
  Fe  Fe39  1  0.74934047  0.50256363  0.75109013  1
  Fe  Fe40  1  0.24969639  0.75212150  -0.00070999  1
  Fe  Fe41  1  0.87484320  0.37449302  0.62417613  1
  Fe  Fe42  1  0.74965665  0.74998345  0.00052320  1
  Fe  Fe43  1  0.12923835  0.87703170  0.86794985  1
  Fe  Fe44  1  0.87670471  0.37410462  0.87510585  1
  Fe  Fe45  1  0.62539284  0.37474924  0.12642241  1
  Fe  Fe46  1  0.87709204  0.62616997  0.12552079  1
  Fe  Fe47  1  0.75123306  0.50290727  -0.00094310  1
  Fe  Fe48  1  0.74870142  0.49791514  0.25327116  1
  Fe  Fe49  1  0.00102371  0.49881003  0.49758510  1
  Fe  Fe50  1  -0.00056949  0.50090627  0.75008241  1
  Fe  Fe51  1  0.12618549  0.62691211  0.37522571  1
  Fe  Fe52  1  0.00184065  0.49932511  0.25201759  1
  Fe  Fe53  1  0.87724988  0.12312407  0.37783273  1
  Fe  Fe54  1  0.37288706  0.87590295  0.87119328  1
  Fe  Fe55  1  0.62358184  0.87695872  0.12667714  1
  Fe  Fe56  1  0.12451684  0.37296628  0.87448414  1
  Fe  Fe57  1  0.12296370  0.12456327  0.87505071  1
  Fe  Fe58  1  0.37570094  0.87827481  0.37716033  1
  Fe  Fe59  1  0.62396504  0.62491440  0.12699457  1
  Fe  Fe60  1  0.12640205  0.87932816  0.12979249  1
  Fe  Fe61  1  0.62467662  0.12667265  0.62382219  1
  Fe  Fe62  1  0.74755441  0.75321684  0.49714857  1
  Fe  Fe63  1  0.75033409  0.00160816  0.75021076  1
  Fe  Fe64  1  0.12557938  0.12351844  0.37888979  1
  Fe  Fe65  1  0.74899744  -0.00141178  0.50057534  1
  Fe  Fe66  1  0.24839299  0.49998985  0.00080989  1
  Fe  Fe67  1  0.00035326  0.75122181  0.74786281  1
  Fe  Fe68  1  0.37569345  0.62347283  0.62151422  1
  Fe  Fe69  1  0.24790560  0.49665707  0.49828658  1
  Fe  Fe70  1  0.49951184  0.49917893  0.00141278  1
  Fe  Fe71  1  0.87511392  0.37333472  0.12681945  1
  Fe  Fe72  1  0.12508116  0.62679843  0.12515916  1
  Fe  Fe73  1  -0.00073362  0.24575684  0.24892158  1
  Fe  Fe74  1  0.37285846  0.37507613  0.37270655  1
  Fe  Fe75  1  0.00029281  0.25272970  0.49994816  1
  Fe  Fe76  1  0.87438647  0.62761810  0.62259487  1
  Fe  Fe77  1  0.24942375  0.75158021  0.50005647  1
  Fe  Fe78  1  0.12565188  0.37294509  0.12663431  1
  Fe  Fe79  1  0.37390590  0.62325432  0.12777325  1
  Fe  Fe80  1  0.62539695  0.37430944  0.87465644  1
  Fe  Fe81  1  0.49721795  0.25142715  0.50038246  1
  Fe  Fe82  1  0.37376768  0.12566001  0.87777096  1
  Fe  Fe83  1  0.00138317  -0.00944635  0.50296314  1
  Fe  Fe84  1  0.87901279  0.12307440  0.87724856  1
  Fe  Fe85  1  0.12484140  0.37261539  0.62518928  1
  Fe  Fe86  1  0.49892732  0.00236303  0.74872414  1
  Fe  Fe87  1  0.62292766  0.12505817  0.37845319  1
  Fe  Fe88  1  0.49924960  0.24985547  0.74885805  1
  Fe  Fe89  1  0.50034180  0.74669937  0.74745062  1
  Co  Co90  1  0.24949008  -0.00280387  -0.00174952  1
  Co  Co91  1  0.12765393  0.87673210  0.37245407  1
  Co  Co92  1  0.13038297  0.87404496  0.63000950  1
  Co  Co93  1  -0.00037578  0.24995340  0.74869306  1
  Co  Co94  1  0.24692256  0.50020194  0.24930694  1
  Co  Co95  1  0.62364099  0.12535837  0.87512837  1
  Co  Co96  1  0.87769228  0.37312413  0.37341984  1
  Co  Co97  1  -0.00002239  0.00219748  0.25127831  1
  Co  Co98  1  0.12131440  0.12527411  0.62129762  1
  Co  Co99  1  0.74925196  -0.00098392  -0.00152172  1
  Co  Co100  1  0.62322717  0.37045045  0.37603938  1
  Co  Co101  1  0.24913830  0.25088908  0.00001795  1
  Co  Co102  1  0.12539860  0.37131314  0.37239332  1
  Co  Co103  1  0.12429784  0.62589789  0.87484329  1
  Co  Co104  1  0.49962871  0.74910689  0.49813908  1
  Co  Co105  1  -0.00058368  -0.00248708  0.74721749  1
  Co  Co106  1  0.87503572  0.87550511  0.37430902  1
  Co  Co107  1  0.62281427  0.62538934  0.87785394  1
  Co  Co108  1  0.49964699  -0.00006171  0.50328339  1
  Co  Co109  1  0.37501494  0.12460492  0.38023311  1
  Co  Co110  1  0.25144999  0.00739430  0.74689316  1
  Co  Co111  1  0.75266560  0.24943296  0.49981525  1
  Co  Co112  1  0.00270082  0.75495271  0.50034885  1
  Co  Co113  1  0.62809067  0.62672514  0.37397770  1
  Co  Co114  1  0.37496980  0.37684704  0.62525891  1
  Co  Co115  1  0.62641568  0.62438338  0.62113503  1
  Co  Co116  1  0.62190052  0.87825734  0.37455989  1
  Co  Co117  1  0.37349554  0.12363204  0.12024755  1
  Co  Co118  1  0.25272148  0.74430232  0.74920369  1
  Co  Co119  1  0.00271801  -0.00276822  -0.00102308  1
  Co  Co120  1  0.25292710  0.00376149  0.25224179  1
  Co  Co121  1  0.87114679  0.87218494  0.62638221  1
  Co  Co122  1  -0.00024821  0.24985260  0.00258916  1
  Co  Co123  1  0.87740891  0.62712723  0.87506688  1
  Co  Co124  1  0.25047308  0.25202227  0.50090757  1
  Co  Co125  1  0.37041202  0.62319582  0.37535230  1
  Co  Co126  1  0.87371965  0.12218175  0.12324972  1
  Co  Co127  1  0.50137241  0.50079606  0.25290972  1
