# generated using pymatgen
data_Fe45Co19
_symmetry_space_group_name_H-M   'P 1'
_cell_length_a   11.41433763
_cell_length_b   11.41439277
_cell_length_c   11.41422911
_cell_angle_alpha   90.00407704
_cell_angle_beta   90.00368019
_cell_angle_gamma   89.99940363
_symmetry_Int_Tables_number   1
_chemical_formula_structural   Fe45Co19
_chemical_formula_sum   'Fe90 Co38'
_cell_volume   1487.13402661
_cell_formula_units_Z   2
loop_
 _symmetry_equiv_pos_site_id
 _symmetry_equiv_pos_as_xyz
  1  'x, y, z'
loop_
 _atom_site_type_symbol
 _atom_site_label
 _atom_site_symmetry_multiplicity
 _atom_site_fract_x
 _atom_site_fract_y
 _atom_site_fract_z
 _atom_site_occupancy
  Fe  Fe0  1  0.63042031  0.62464269  0.37169333  1
  Fe  Fe1  1  0.25202160  0.25740843  0.74622662  1
  Fe  Fe2  1  0.74886441  0.00157536  0.50118984  1
  Fe  Fe3  1  0.49875715  0.74858242  0.49949392  1
  Fe  Fe4  1  0.74730388  0.49790095  0.00194125  1
  Fe  Fe5  1  0.12391688  0.62315078  0.87525114  1
  Fe  Fe6  1  0.37607505  0.87479889  0.62423106  1
  Fe  Fe7  1  0.87386205  0.62277999  0.87685717  1
  Fe  Fe8  1  0.12286050  0.62387441  0.12709260  1
  Fe  Fe9  1  0.74915463  -0.00380268  0.24791032  1
  Fe  Fe10  1  0.62672807  0.12841490  0.12335296  1
  Fe  Fe11  1  0.37460958  0.62090804  0.37374239  1
  Fe  Fe12  1  0.50149559  0.74603764  -0.00001001  1
  Fe  Fe13  1  -0.00064156  0.74982395  0.75081004  1
  Fe  Fe14  1  0.50246121  0.49640256  0.25090650  1
  Fe  Fe15  1  0.62306883  0.12874925  0.62396629  1
  Fe  Fe16  1  0.50280291  0.49713099  0.49759005  1
  Fe  Fe17  1  0.12449145  0.37451447  0.12599396  1
  Fe  Fe18  1  0.24863920  0.75011400  0.00201815  1
  Fe  Fe19  1  0.12589037  0.12995046  0.87302190  1
  Fe  Fe20  1  0.74774289  -0.00045467  0.74932566  1
  Fe  Fe21  1  0.50165709  0.49919109  0.75243814  1
  Fe  Fe22  1  0.63068933  0.37290794  0.37859356  1
  Fe  Fe23  1  0.75066015  0.75060254  0.74834715  1
  Fe  Fe24  1  0.62550980  0.12920963  0.87594968  1
  Fe  Fe25  1  0.12440312  0.12829207  0.62628766  1
  Fe  Fe26  1  0.87632682  0.37659253  0.12470586  1
  Fe  Fe27  1  0.37387462  0.61951699  0.62600775  1
  Fe  Fe28  1  0.87456481  0.87681134  0.87708377  1
  Fe  Fe29  1  0.87497846  0.12476026  0.37449793  1
  Fe  Fe30  1  0.24943072  0.00178335  0.50012540  1
  Fe  Fe31  1  0.12464848  0.87426992  0.62351545  1
  Fe  Fe32  1  0.37452465  0.62274697  0.87438797  1
  Fe  Fe33  1  0.75103484  0.25170299  0.74986784  1
  Fe  Fe34  1  -0.00024073  -0.00054065  0.25017196  1
  Fe  Fe35  1  0.12935618  0.37176848  0.37211399  1
  Fe  Fe36  1  0.62088945  0.37228350  0.87996561  1
  Fe  Fe37  1  0.50078526  0.00019846  0.25134986  1
  Fe  Fe38  1  0.25093123  -0.00132105  0.25073203  1
  Fe  Fe39  1  0.12625661  0.12573151  0.12660009  1
  Fe  Fe40  1  0.25172456  0.75059962  0.25029549  1
  Fe  Fe41  1  0.00114390  0.00055879  0.75025991  1
  Fe  Fe42  1  0.62523711  0.12821444  0.37560901  1
  Fe  Fe43  1  -0.00010085  0.25025636  0.49821365  1
  Fe  Fe44  1  -0.00053306  0.74906660  0.00204812  1
  Fe  Fe45  1  0.37397023  0.12647378  0.87230649  1
  Fe  Fe46  1  0.49914557  0.25207928  0.25142137  1
  Fe  Fe47  1  0.87442926  0.37540465  0.62186346  1
  Fe  Fe48  1  0.87309636  0.12308859  0.12318187  1
  Fe  Fe49  1  0.12597176  0.87425286  0.87549893  1
  Fe  Fe50  1  0.87670630  0.12524461  0.62564103  1
  Fe  Fe51  1  -0.00173187  0.74899485  0.49832125  1
  Fe  Fe52  1  -0.00107335  0.24959697  0.00095837  1
  Fe  Fe53  1  0.25281513  0.25028445  0.00137442  1
  Fe  Fe54  1  0.49722873  0.25404970  0.74589421  1
  Fe  Fe55  1  0.37387314  0.12853814  0.37663763  1
  Fe  Fe56  1  0.00367202  0.00041508  -0.00017935  1
  Fe  Fe57  1  0.49948557  0.75065641  0.25139211  1
  Fe  Fe58  1  0.87645816  0.87724389  0.62274351  1
  Fe  Fe59  1  0.00048742  0.49947634  0.49569232  1
  Fe  Fe60  1  0.12404384  0.87473064  0.37494068  1
  Fe  Fe61  1  0.37464781  0.12245263  0.12571652  1
  Fe  Fe62  1  -0.00355695  0.49825750  0.25157740  1
  Fe  Fe63  1  0.62385697  0.62554410  0.62701609  1
  Fe  Fe64  1  0.37580600  0.87646980  0.12373968  1
  Fe  Fe65  1  0.12560014  0.62161618  0.62549364  1
  Fe  Fe66  1  0.50154253  -0.00137773  0.74867075  1
  Fe  Fe67  1  0.24888494  0.49848612  -0.00046919  1
  Fe  Fe68  1  0.75143420  0.74841022  0.50032824  1
  Fe  Fe69  1  0.74966621  0.75134564  0.00317502  1
  Fe  Fe70  1  0.00245517  0.49708522  0.75198946  1
  Fe  Fe71  1  0.87399612  0.12457507  0.87601416  1
  Fe  Fe72  1  0.12724774  0.12861960  0.37268622  1
  Fe  Fe73  1  0.50212759  0.00261274  -0.00101749  1
  Fe  Fe74  1  0.25137940  0.74708593  0.49875751  1
  Fe  Fe75  1  0.37557327  0.87481845  0.87627474  1
  Fe  Fe76  1  0.87714953  0.37561055  0.87621726  1
  Fe  Fe77  1  0.49969548  0.00123534  0.50024635  1
  Fe  Fe78  1  0.75243094  0.25247094  0.24852100  1
  Fe  Fe79  1  0.62560530  0.87405586  0.37545028  1
  Fe  Fe80  1  0.37854392  0.37694886  0.12360297  1
  Fe  Fe81  1  0.62401740  0.87196227  0.87435490  1
  Fe  Fe82  1  -0.00647008  0.75150381  0.24923149  1
  Fe  Fe83  1  0.12454062  0.62519577  0.37171969  1
  Fe  Fe84  1  0.74741931  0.49805713  0.74985560  1
  Fe  Fe85  1  0.25047261  0.74805354  0.74924363  1
  Fe  Fe86  1  0.62831605  0.62471751  0.12897641  1
  Fe  Fe87  1  0.87719028  0.62226258  0.62560816  1
  Fe  Fe88  1  0.24933919  -0.00031057  0.74973284  1
  Fe  Fe89  1  0.37539656  0.62303846  0.12660286  1
  Co  Co90  1  0.74893014  0.50352373  0.50300667  1
  Co  Co91  1  0.75368635  0.75482961  0.24929262  1
  Co  Co92  1  0.00275801  0.00325098  0.49965773  1
  Co  Co93  1  0.87091741  0.37533502  0.37854323  1
  Co  Co94  1  0.12343875  0.37148940  0.87736346  1
  Co  Co95  1  0.37587278  0.12434143  0.62584781  1
  Co  Co96  1  0.12386396  0.37715758  0.62292491  1
  Co  Co97  1  0.50244505  0.50481165  0.00087175  1
  Co  Co98  1  0.87088699  0.62283130  0.37308005  1
  Co  Co99  1  0.37519625  0.87598491  0.37598590  1
  Co  Co100  1  0.24699080  0.50094942  0.49638811  1
  Co  Co101  1  0.62240046  0.37211431  0.12248850  1
  Co  Co102  1  0.49695302  0.25331827  0.50008372  1
  Co  Co103  1  0.25052357  0.50009683  0.24853940  1
  Co  Co104  1  0.87636402  0.87846985  0.12163381  1
  Co  Co105  1  0.24884622  0.00124377  -0.00106281  1
  Co  Co106  1  -0.00320406  0.25079368  0.25001344  1
  Co  Co107  1  0.12521520  0.87492364  0.12704375  1
  Co  Co108  1  0.62629768  0.37315632  0.62284314  1
  Co  Co109  1  0.49816645  0.74847449  0.75018154  1
  Co  Co110  1  0.25164969  0.25077605  0.50371371  1
  Co  Co111  1  0.37846432  0.37536235  0.87800487  1
  Co  Co112  1  0.87459319  0.87795598  0.37803018  1
  Co  Co113  1  0.87289773  0.62243426  0.12507680  1
  Co  Co114  1  0.75207703  0.24625571  0.50177444  1
  Co  Co115  1  0.62059428  0.87400814  0.12567857  1
  Co  Co116  1  -0.00232132  0.25222939  0.74881648  1
  Co  Co117  1  0.62794189  0.62587654  0.87406669  1
  Co  Co118  1  0.37143253  0.37482456  0.37527640  1
  Co  Co119  1  0.62394724  0.87287485  0.62290517  1
  Co  Co120  1  0.74475391  -0.00104375  -0.00064814  1
  Co  Co121  1  0.25407836  0.25057338  0.24579753  1
  Co  Co122  1  0.37398626  0.38272572  0.62236655  1
  Co  Co123  1  0.75063250  0.49464124  0.24821779  1
  Co  Co124  1  0.00097546  0.49970498  0.00060425  1
  Co  Co125  1  0.49594900  0.24543045  0.00253291  1
  Co  Co126  1  0.75304316  0.25271114  -0.00005330  1
  Co  Co127  1  0.24759168  0.49652257  0.75433483  1
