# generated using pymatgen
data_Fe45Co19
_symmetry_space_group_name_H-M   'P 1'
_cell_length_a   11.41557628
_cell_length_b   11.41573901
_cell_length_c   11.41578185
_cell_angle_alpha   90.00269080
_cell_angle_beta   89.99677467
_cell_angle_gamma   89.99491355
_symmetry_Int_Tables_number   1
_chemical_formula_structural   Fe45Co19
_chemical_formula_sum   'Fe90 Co38'
_cell_volume   1487.67316644
_cell_formula_units_Z   2
loop_
 _symmetry_equiv_pos_site_id
 _symmetry_equiv_pos_as_xyz
  1  'x, y, z'
loop_
 _atom_site_type_symbol
 _atom_site_label
 _atom_site_symmetry_multiplicity
 _atom_site_fract_x
 _atom_site_fract_y
 _atom_site_fract_z
 _atom_site_occupancy
  Fe  Fe0  1  0.50124850  0.49798903  0.74786111  1
  Fe  Fe1  1  0.75284798  0.00269304  0.49765483  1
  Fe  Fe2  1  0.87627484  0.12505893  0.12637627  1
  Fe  Fe3  1  0.49963593  -0.00225827  0.49959865  1
  Fe  Fe4  1  0.87717890  0.87441446  0.37320825  1
  Fe  Fe5  1  0.24996838  0.24728769  0.74727477  1
  Fe  Fe6  1  0.75231988  0.50192049  0.49664459  1
  Fe  Fe7  1  0.62758298  0.37452067  0.12652106  1
  Fe  Fe8  1  0.62640451  0.37301499  0.37390065  1
  Fe  Fe9  1  0.87320846  0.87553360  0.62626070  1
  Fe  Fe10  1  0.00124536  0.49782799  0.00147962  1
  Fe  Fe11  1  0.49676947  0.25274067  0.00352787  1
  Fe  Fe12  1  0.87744585  0.62521987  0.62386692  1
  Fe  Fe13  1  0.87276256  0.37463337  0.12751437  1
  Fe  Fe14  1  0.12056217  0.12816319  0.37596103  1
  Fe  Fe15  1  0.37454721  0.62259926  0.62460953  1
  Fe  Fe16  1  0.74983519  0.74852651  0.00028375  1
  Fe  Fe17  1  0.13083106  0.37676542  0.12671052  1
  Fe  Fe18  1  -0.00216707  0.00028770  0.50160622  1
  Fe  Fe19  1  0.62578703  0.87461513  0.87542083  1
  Fe  Fe20  1  0.87285611  0.37420775  0.87329447  1
  Fe  Fe21  1  0.75141397  0.00107782  -0.00211587  1
  Fe  Fe22  1  0.75135337  0.74654896  0.25191070  1
  Fe  Fe23  1  0.37145457  0.87689722  0.62557149  1
  Fe  Fe24  1  0.75146797  0.00132898  0.75179839  1
  Fe  Fe25  1  0.75012026  0.24854773  -0.00003066  1
  Fe  Fe26  1  0.24875559  0.00230742  -0.00294231  1
  Fe  Fe27  1  0.62616013  0.87661594  0.62476491  1
  Fe  Fe28  1  0.37246298  0.37634907  0.87322183  1
  Fe  Fe29  1  0.12601794  0.87557820  0.37404059  1
  Fe  Fe30  1  0.00280809  0.75322526  0.00144218  1
  Fe  Fe31  1  0.25213516  0.00129088  0.25121714  1
  Fe  Fe32  1  0.62094023  0.12793478  0.37368915  1
  Fe  Fe33  1  0.62235623  0.12495961  0.12584811  1
  Fe  Fe34  1  0.12835448  0.37679451  0.62311586  1
  Fe  Fe35  1  0.87502992  0.87413531  0.12554035  1
  Fe  Fe36  1  0.62163111  0.87118585  0.37473598  1
  Fe  Fe37  1  0.00274220  -0.00190474  0.24782819  1
  Fe  Fe38  1  0.37512741  0.12765513  0.87557898  1
  Fe  Fe39  1  -0.00120883  0.49684601  0.49927468  1
  Fe  Fe40  1  0.36822109  0.37641105  0.12668782  1
  Fe  Fe41  1  0.74983655  0.74758986  0.75084674  1
  Fe  Fe42  1  0.49830699  -0.00145901  -0.00082824  1
  Fe  Fe43  1  0.49748856  0.74891559  0.00281287  1
  Fe  Fe44  1  0.75286966  0.50405562  0.25283605  1
  Fe  Fe45  1  0.00214794  -0.00352272  -0.00392759  1
  Fe  Fe46  1  0.49673810  0.49950859  0.00138916  1
  Fe  Fe47  1  0.75472827  0.24610101  0.49664336  1
  Fe  Fe48  1  0.62962575  0.37449700  0.62483414  1
  Fe  Fe49  1  0.37716301  0.12942650  0.37790715  1
  Fe  Fe50  1  0.37037100  0.87203657  0.87327339  1
  Fe  Fe51  1  0.49954466  0.49744864  0.50008493  1
  Fe  Fe52  1  0.24980175  0.50149336  0.49591843  1
  Fe  Fe53  1  0.49801260  0.49782832  0.25114022  1
  Fe  Fe54  1  0.49895556  0.25178148  0.74547080  1
  Fe  Fe55  1  0.62479401  0.12467996  0.62398765  1
  Fe  Fe56  1  0.87195136  0.37229664  0.62718831  1
  Fe  Fe57  1  0.00219816  0.75322284  0.50095089  1
  Fe  Fe58  1  0.00358196  0.75175395  0.74995270  1
  Fe  Fe59  1  0.87818159  0.62483870  0.87630916  1
  Fe  Fe60  1  0.37879769  0.62905088  0.37424902  1
  Fe  Fe61  1  0.12364448  0.37039241  0.37515183  1
  Fe  Fe62  1  0.25185252  0.75188055  0.24899949  1
  Fe  Fe63  1  0.24745497  0.50594883  0.75239319  1
  Fe  Fe64  1  0.00065312  0.49892070  0.74945513  1
  Fe  Fe65  1  -0.00080432  0.50080348  0.25076179  1
  Fe  Fe66  1  0.49790865  -0.00039496  0.75045424  1
  Fe  Fe67  1  0.62281961  0.62398806  0.12773318  1
  Fe  Fe68  1  0.24946563  0.00349239  0.49983695  1
  Fe  Fe69  1  0.62585504  0.37501279  0.87477954  1
  Fe  Fe70  1  0.87978002  0.12720333  0.87150762  1
  Fe  Fe71  1  0.11989253  0.12443425  0.62814893  1
  Fe  Fe72  1  0.74976741  0.00101389  0.25180097  1
  Fe  Fe73  1  0.62510696  0.87584282  0.12484956  1
  Fe  Fe74  1  0.62509030  0.62361005  0.62324018  1
  Fe  Fe75  1  0.49880082  0.75078361  0.74746353  1
  Fe  Fe76  1  0.12673078  0.12547184  0.12298796  1
  Fe  Fe77  1  0.12226793  0.62727474  0.37532483  1
  Fe  Fe78  1  0.12908181  0.87709960  0.62866199  1
  Fe  Fe79  1  0.37336981  0.36921788  0.37704215  1
  Fe  Fe80  1  0.49564442  -0.00331472  0.24946362  1
  Fe  Fe81  1  0.62244886  0.62365127  0.87497984  1
  Fe  Fe82  1  0.12653187  0.62269565  0.12660093  1
  Fe  Fe83  1  0.62224054  0.12650501  0.87583095  1
  Fe  Fe84  1  0.12814488  0.37475033  0.87616093  1
  Fe  Fe85  1  0.25001086  0.74924091  0.50169696  1
  Fe  Fe86  1  0.25046217  0.74448468  -0.00027681  1
  Fe  Fe87  1  0.75029961  0.50146584  -0.00084865  1
  Fe  Fe88  1  0.74899533  0.74843826  0.49769829  1
  Fe  Fe89  1  0.00216519  0.25221160  0.00093253  1
  Co  Co90  1  0.37793365  0.12401078  0.62182341  1
  Co  Co91  1  0.74987721  0.24710867  0.25061693  1
  Co  Co92  1  0.87681132  0.37277539  0.37151238  1
  Co  Co93  1  0.12296348  0.62244789  0.62096747  1
  Co  Co94  1  0.00169001  0.75008832  0.24819909  1
  Co  Co95  1  0.25012498  0.24990360  0.00039360  1
  Co  Co96  1  0.37467555  0.12373788  0.12383146  1
  Co  Co97  1  0.11998075  0.62461015  0.87742740  1
  Co  Co98  1  0.36892757  0.37833251  0.62504200  1
  Co  Co99  1  0.00353217  0.25587534  0.74949854  1
  Co  Co100  1  0.87780049  0.12527522  0.62972633  1
  Co  Co101  1  0.25101469  0.00538686  0.75063886  1
  Co  Co102  1  0.37864277  0.62413022  0.87304412  1
  Co  Co103  1  0.24793441  0.74352765  0.74828240  1
  Co  Co104  1  0.74728886  0.24732261  0.75174808  1
  Co  Co105  1  0.37403276  0.87385773  0.37902346  1
  Co  Co106  1  0.87323415  0.87267046  0.87547310  1
  Co  Co107  1  0.75054642  0.50293396  0.75118147  1
  Co  Co108  1  0.37326776  0.62135660  0.12838820  1
  Co  Co109  1  0.24955028  0.24656851  0.25068822  1
  Co  Co110  1  0.88023123  0.62663774  0.37776626  1
  Co  Co111  1  0.61963599  0.62562510  0.37445174  1
  Co  Co112  1  0.88095482  0.12502623  0.37091797  1
  Co  Co113  1  0.12252170  0.12663820  0.87361797  1
  Co  Co114  1  0.25101988  0.50373514  -0.00328065  1
  Co  Co115  1  0.50096061  0.25443300  0.50475902  1
  Co  Co116  1  0.37142009  0.87722137  0.12082572  1
  Co  Co117  1  0.24993600  0.50033352  0.25713136  1
  Co  Co118  1  -0.00266346  0.25068395  0.50318201  1
  Co  Co119  1  0.00228613  0.25125621  0.24521502  1
  Co  Co120  1  0.49776636  0.25222655  0.24632448  1
  Co  Co121  1  0.24751700  0.24724503  0.50289863  1
  Co  Co122  1  0.49648563  0.75379296  0.24560267  1
  Co  Co123  1  0.00013494  -0.00576893  0.75321978  1
  Co  Co124  1  0.13148605  0.87347095  0.87301203  1
  Co  Co125  1  0.87698147  0.62551442  0.12304932  1
  Co  Co126  1  0.12878110  0.87577634  0.12442667  1
  Co  Co127  1  0.49944906  0.75101654  0.50474917  1
