# generated using pymatgen
data_Fe45Co19
_symmetry_space_group_name_H-M   'P 1'
_cell_length_a   11.41591463
_cell_length_b   11.41661803
_cell_length_c   11.41591457
_cell_angle_alpha   90.00450279
_cell_angle_beta   89.98933732
_cell_angle_gamma   89.99635901
_symmetry_Int_Tables_number   1
_chemical_formula_structural   Fe45Co19
_chemical_formula_sum   'Fe90 Co38'
_cell_volume   1487.84908993
_cell_formula_units_Z   2
loop_
 _symmetry_equiv_pos_site_id
 _symmetry_equiv_pos_as_xyz
  1  'x, y, z'
loop_
 _atom_site_type_symbol
 _atom_site_label
 _atom_site_symmetry_multiplicity
 _atom_site_fract_x
 _atom_site_fract_y
 _atom_site_fract_z
 _atom_site_occupancy
  Fe  Fe0  1  0.37663929  0.87460865  0.87224355  1
  Fe  Fe1  1  0.00237867  0.49848133  0.24782799  1
  Fe  Fe2  1  0.74815109  -0.00078846  0.25405826  1
  Fe  Fe3  1  0.00123863  0.24855757  0.74921652  1
  Fe  Fe4  1  0.50201135  0.25007577  0.25093181  1
  Fe  Fe5  1  0.74770526  0.25025856  0.25220122  1
  Fe  Fe6  1  -0.00157401  0.24873575  0.50089139  1
  Fe  Fe7  1  0.12496346  0.62554504  0.87330499  1
  Fe  Fe8  1  0.87704587  0.37476659  0.87487344  1
  Fe  Fe9  1  0.37417610  0.37040615  0.62715646  1
  Fe  Fe10  1  0.62009116  0.12314428  0.87788352  1
  Fe  Fe11  1  0.87630518  0.62560507  0.37469939  1
  Fe  Fe12  1  0.62756861  0.12546295  0.61933692  1
  Fe  Fe13  1  0.25190434  0.50061463  -0.00170874  1
  Fe  Fe14  1  0.24966809  0.49757704  0.75176005  1
  Fe  Fe15  1  0.37116595  0.62686333  0.62781371  1
  Fe  Fe16  1  0.12720650  0.87571730  0.12435372  1
  Fe  Fe17  1  0.74861161  0.24846820  0.75052708  1
  Fe  Fe18  1  0.24681961  0.49669762  0.25112574  1
  Fe  Fe19  1  0.49796285  0.49986279  0.50013783  1
  Fe  Fe20  1  0.49831039  0.00297080  0.74702762  1
  Fe  Fe21  1  0.87404978  0.62683947  0.12360300  1
  Fe  Fe22  1  0.00304427  0.75195947  0.25163799  1
  Fe  Fe23  1  0.87851221  0.12286976  0.87545556  1
  Fe  Fe24  1  0.62400550  0.62388302  0.87647888  1
  Fe  Fe25  1  0.87181165  0.12499904  0.37712688  1
  Fe  Fe26  1  -0.00038656  0.00066386  0.24879094  1
  Fe  Fe27  1  0.37320483  0.87405214  0.37606862  1
  Fe  Fe28  1  0.00145952  0.24907705  0.24939692  1
  Fe  Fe29  1  0.49925056  -0.00044411  0.49926791  1
  Fe  Fe30  1  0.00025108  0.75202276  0.00058233  1
  Fe  Fe31  1  0.49806571  0.74899277  0.50132295  1
  Fe  Fe32  1  0.75100653  0.49829592  0.49884961  1
  Fe  Fe33  1  0.37318638  0.62453170  0.37268115  1
  Fe  Fe34  1  0.00050717  0.74710321  0.74518331  1
  Fe  Fe35  1  0.62208838  0.37511298  0.87781499  1
  Fe  Fe36  1  0.12588671  0.37445848  0.62496714  1
  Fe  Fe37  1  0.37304751  0.87390440  0.12506713  1
  Fe  Fe38  1  0.62499513  0.62604172  0.37644065  1
  Fe  Fe39  1  0.12343516  0.87676952  0.87440384  1
  Fe  Fe40  1  0.50128199  0.75168373  0.24957356  1
  Fe  Fe41  1  0.25065852  0.24686299  -0.00252905  1
  Fe  Fe42  1  -0.00275507  0.00026360  0.50273070  1
  Fe  Fe43  1  0.50021001  0.25183087  0.49795665  1
  Fe  Fe44  1  0.25164509  0.00110701  -0.00347822  1
  Fe  Fe45  1  0.12857472  0.12666246  0.62342010  1
  Fe  Fe46  1  0.37258140  0.62784615  0.12498263  1
  Fe  Fe47  1  0.74891531  0.75005216  0.75087276  1
  Fe  Fe48  1  0.62515115  0.87506447  0.62554285  1
  Fe  Fe49  1  0.75088277  0.00212895  0.74838756  1
  Fe  Fe50  1  0.74988037  0.50005735  0.24987457  1
  Fe  Fe51  1  0.87585695  0.62441680  0.87422748  1
  Fe  Fe52  1  0.37569691  0.62852360  0.87328381  1
  Fe  Fe53  1  0.00105263  0.00177046  0.74602475  1
  Fe  Fe54  1  0.49958814  0.49998192  0.74977775  1
  Fe  Fe55  1  0.12580244  0.12303737  0.37787249  1
  Fe  Fe56  1  0.87512124  0.37514062  0.62712615  1
  Fe  Fe57  1  0.87701606  0.87427827  0.37729337  1
  Fe  Fe58  1  0.50161979  -0.00214724  0.25254415  1
  Fe  Fe59  1  0.75003899  0.49862117  0.75224384  1
  Fe  Fe60  1  0.62575414  0.62444300  0.62488324  1
  Fe  Fe61  1  0.24915753  -0.00175207  0.25289905  1
  Fe  Fe62  1  0.37422302  0.12594557  0.37626368  1
  Fe  Fe63  1  0.12364271  0.37362309  0.87589722  1
  Fe  Fe64  1  0.12677652  0.87221635  0.62149516  1
  Fe  Fe65  1  0.24687057  0.25197770  0.25360601  1
  Fe  Fe66  1  0.62599274  0.62500424  0.12107577  1
  Fe  Fe67  1  0.62519481  0.37819435  0.12256784  1
  Fe  Fe68  1  0.87571559  0.87672523  0.87377089  1
  Fe  Fe69  1  -0.00040830  0.49999041  0.00116830  1
  Fe  Fe70  1  0.37860909  0.36930656  0.87364483  1
  Fe  Fe71  1  0.37380343  0.37437191  0.12507914  1
  Fe  Fe72  1  0.50277992  0.75395403  -0.00106284  1
  Fe  Fe73  1  0.75259149  0.75197409  0.50174216  1
  Fe  Fe74  1  0.74853817  0.75064995  0.24998357  1
  Fe  Fe75  1  0.50065419  0.50031379  0.24914989  1
  Fe  Fe76  1  0.74952421  0.24730965  0.00015247  1
  Fe  Fe77  1  0.62524284  0.37527512  0.62399032  1
  Fe  Fe78  1  0.62423288  0.12033005  0.12432834  1
  Fe  Fe79  1  0.12582973  0.12369751  0.12372043  1
  Fe  Fe80  1  0.25171104  0.00427659  0.74964717  1
  Fe  Fe81  1  0.87148482  0.87655514  0.12333528  1
  Fe  Fe82  1  0.87734864  0.37582193  0.37468657  1
  Fe  Fe83  1  0.00064730  0.50524073  0.50372703  1
  Fe  Fe84  1  0.37308294  0.87331163  0.62518171  1
  Fe  Fe85  1  0.37538993  0.12386129  0.12532248  1
  Fe  Fe86  1  -0.00014003  0.24669271  0.00200930  1
  Fe  Fe87  1  0.12758528  0.62673065  0.12530519  1
  Fe  Fe88  1  0.87462051  0.37342318  0.12456155  1
  Fe  Fe89  1  0.25000761  0.49817099  0.49800998  1
  Co  Co90  1  0.13122625  0.62564620  0.62678763  1
  Co  Co91  1  0.24765393  0.75308078  0.25379341  1
  Co  Co92  1  0.62792689  0.87757672  0.12518327  1
  Co  Co93  1  0.25048823  0.25203375  0.49711945  1
  Co  Co94  1  0.62514867  0.87904283  0.87133214  1
  Co  Co95  1  0.50156596  0.74941705  0.74911627  1
  Co  Co96  1  -0.00085801  -0.00081652  0.00389012  1
  Co  Co97  1  0.50455507  0.24785056  0.74633273  1
  Co  Co98  1  0.37445742  0.12931852  0.62282161  1
  Co  Co99  1  0.24928208  0.74884116  0.49609971  1
  Co  Co100  1  0.12480359  0.62428885  0.37353825  1
  Co  Co101  1  0.24867711  0.75257035  0.75126388  1
  Co  Co102  1  0.24805256  0.24681847  0.75243578  1
  Co  Co103  1  0.75049352  0.00043502  -0.00250810  1
  Co  Co104  1  0.49580191  0.50064485  -0.00050406  1
  Co  Co105  1  0.87112176  0.62379714  0.62711390  1
  Co  Co106  1  0.38010067  0.12751558  0.87410925  1
  Co  Co107  1  0.75127983  0.25404929  0.49888181  1
  Co  Co108  1  0.25214715  0.00018722  0.50143801  1
  Co  Co109  1  0.49745087  -0.00346141  0.00049079  1
  Co  Co110  1  0.00134172  0.50113907  0.74826814  1
  Co  Co111  1  0.50066014  0.24958872  0.00487735  1
  Co  Co112  1  0.37696135  0.37510936  0.37248613  1
  Co  Co113  1  -0.00033170  0.74639785  0.50251350  1
  Co  Co114  1  0.62625944  0.12444124  0.37879838  1
  Co  Co115  1  0.12084661  0.37595806  0.37840804  1
  Co  Co116  1  0.87539101  0.87491304  0.62747334  1
  Co  Co117  1  0.75307022  0.49978907  -0.00074514  1
  Co  Co118  1  0.87250879  0.12654162  0.62479511  1
  Co  Co119  1  0.87263941  0.12438307  0.12627342  1
  Co  Co120  1  0.12585074  0.37341669  0.12145786  1
  Co  Co121  1  0.62459493  0.87251339  0.37732870  1
  Co  Co122  1  0.62330789  0.37739835  0.37485410  1
  Co  Co123  1  0.75184639  -0.00392583  0.50041071  1
  Co  Co124  1  0.24919466  0.75156470  -0.00251449  1
  Co  Co125  1  0.74909556  0.75179288  -0.00293645  1
  Co  Co126  1  0.12171937  0.12285776  0.87594689  1
  Co  Co127  1  0.12261377  0.87770237  0.37889668  1
