# generated using pymatgen
data_Fe45Co19
_symmetry_space_group_name_H-M   'P 1'
_cell_length_a   11.41490705
_cell_length_b   11.41598089
_cell_length_c   11.41568879
_cell_angle_alpha   89.99610871
_cell_angle_beta   90.01762217
_cell_angle_gamma   90.00295489
_symmetry_Int_Tables_number   1
_chemical_formula_structural   Fe45Co19
_chemical_formula_sum   'Fe90 Co38'
_cell_volume   1487.60528088
_cell_formula_units_Z   2
loop_
 _symmetry_equiv_pos_site_id
 _symmetry_equiv_pos_as_xyz
  1  'x, y, z'
loop_
 _atom_site_type_symbol
 _atom_site_label
 _atom_site_symmetry_multiplicity
 _atom_site_fract_x
 _atom_site_fract_y
 _atom_site_fract_z
 _atom_site_occupancy
  Fe  Fe0  1  0.62464051  0.62322612  0.37114159  1
  Fe  Fe1  1  0.87624907  0.37639350  0.12461641  1
  Fe  Fe2  1  0.37374192  0.37465145  0.87723372  1
  Fe  Fe3  1  0.49973825  0.25000302  0.00056726  1
  Fe  Fe4  1  0.62398334  0.12436678  0.13020991  1
  Fe  Fe5  1  0.87495722  0.37574497  0.87730380  1
  Fe  Fe6  1  0.62326903  0.12587410  0.87163476  1
  Fe  Fe7  1  0.87599067  0.37494401  0.62254051  1
  Fe  Fe8  1  0.00143683  0.25061423  0.00054376  1
  Fe  Fe9  1  0.12489963  0.62474487  0.12520551  1
  Fe  Fe10  1  0.87441375  0.37436566  0.37616573  1
  Fe  Fe11  1  0.62490265  0.87497605  0.37388172  1
  Fe  Fe12  1  0.74940495  0.49762399  0.25027869  1
  Fe  Fe13  1  0.12312075  0.12185007  0.12429408  1
  Fe  Fe14  1  0.87041114  0.87444755  0.87451770  1
  Fe  Fe15  1  0.87314117  0.62554430  0.37411689  1
  Fe  Fe16  1  0.62305431  0.37581683  0.12878276  1
  Fe  Fe17  1  0.74850406  0.00061278  0.00209940  1
  Fe  Fe18  1  0.25294716  0.49941588  0.25149827  1
  Fe  Fe19  1  0.12920197  0.62991884  0.37742279  1
  Fe  Fe20  1  0.49979377  -0.00007058  -0.00272508  1
  Fe  Fe21  1  0.49479772  0.25366009  0.25312245  1
  Fe  Fe22  1  0.25038622  0.24867276  0.00157228  1
  Fe  Fe23  1  0.12484674  0.12508287  0.62654632  1
  Fe  Fe24  1  0.87442058  0.62403265  0.12582865  1
  Fe  Fe25  1  -0.00181489  -0.00126181  0.75088714  1
  Fe  Fe26  1  0.62819338  0.87330234  0.87358888  1
  Fe  Fe27  1  0.50454944  0.74782073  0.00005960  1
  Fe  Fe28  1  0.49963132  0.74897578  0.24852012  1
  Fe  Fe29  1  0.50174084  0.50189015  -0.00107515  1
  Fe  Fe30  1  0.74768365  0.49996889  0.49992659  1
  Fe  Fe31  1  0.62245199  0.37760089  0.62581883  1
  Fe  Fe32  1  0.25077565  0.25266302  0.74759508  1
  Fe  Fe33  1  0.25147789  -0.00024282  -0.00167090  1
  Fe  Fe34  1  0.00092530  0.49711036  0.75027797  1
  Fe  Fe35  1  0.24855693  0.50167631  -0.00030697  1
  Fe  Fe36  1  0.50019898  0.00064084  0.49843317  1
  Fe  Fe37  1  0.37779177  0.12373581  0.62615371  1
  Fe  Fe38  1  0.74813440  0.75273000  0.24647475  1
  Fe  Fe39  1  0.13009409  0.37310238  0.37818520  1
  Fe  Fe40  1  0.87488939  0.12520074  0.87683352  1
  Fe  Fe41  1  0.74843198  0.24922916  0.00337727  1
  Fe  Fe42  1  0.37621898  0.12559468  0.87303108  1
  Fe  Fe43  1  0.37557188  0.37821796  0.61985894  1
  Fe  Fe44  1  0.12646267  0.87278189  0.87600820  1
  Fe  Fe45  1  0.25161655  -0.00041922  0.50153847  1
  Fe  Fe46  1  -0.00120169  0.74903261  0.00051668  1
  Fe  Fe47  1  0.25105477  -0.00137617  0.24883403  1
  Fe  Fe48  1  0.74668179  0.24970909  0.49694719  1
  Fe  Fe49  1  0.25238211  -0.00256311  0.75048677  1
  Fe  Fe50  1  0.12861169  0.12536517  0.37502608  1
  Fe  Fe51  1  0.62277926  0.12442354  0.62761148  1
  Fe  Fe52  1  0.37362136  0.87183574  0.37602262  1
  Fe  Fe53  1  0.00009020  -0.00016405  0.49769138  1
  Fe  Fe54  1  0.00191860  0.24850589  0.49916498  1
  Fe  Fe55  1  0.12506132  0.37676381  0.12400999  1
  Fe  Fe56  1  0.87412953  0.87472946  0.37574382  1
  Fe  Fe57  1  0.62309366  0.62115762  0.62991870  1
  Fe  Fe58  1  -0.00190298  0.24818985  0.24968783  1
  Fe  Fe59  1  0.37492044  0.62659062  0.87376799  1
  Fe  Fe60  1  0.62667295  0.87687093  0.62665932  1
  Fe  Fe61  1  0.50144165  0.75096442  0.75162369  1
  Fe  Fe62  1  0.37530688  0.62499157  0.12565458  1
  Fe  Fe63  1  0.74924933  0.74817723  0.50255442  1
  Fe  Fe64  1  0.37768888  0.87423154  0.62586761  1
  Fe  Fe65  1  0.74767770  0.50143287  0.00021306  1
  Fe  Fe66  1  0.74974652  0.25087586  0.74948530  1
  Fe  Fe67  1  0.12298308  0.87208395  0.62294434  1
  Fe  Fe68  1  0.24841342  0.49985495  0.74622687  1
  Fe  Fe69  1  0.25134396  0.74983802  0.74790966  1
  Fe  Fe70  1  -0.00397659  0.75193686  0.74849176  1
  Fe  Fe71  1  0.87082782  0.62576910  0.87573177  1
  Fe  Fe72  1  0.74835885  0.00207731  0.49785506  1
  Fe  Fe73  1  0.12381013  0.62525591  0.87366254  1
  Fe  Fe74  1  0.25429577  0.25004513  0.24861282  1
  Fe  Fe75  1  0.12582899  0.12574491  0.87362159  1
  Fe  Fe76  1  0.12790668  0.87160701  0.37739188  1
  Fe  Fe77  1  0.49726563  -0.00134239  0.25131164  1
  Fe  Fe78  1  0.87675865  0.62353247  0.62423882  1
  Fe  Fe79  1  0.50014155  0.74661486  0.50041662  1
  Fe  Fe80  1  0.87491550  0.12453372  0.62403400  1
  Fe  Fe81  1  0.49995723  0.24933229  0.49666158  1
  Fe  Fe82  1  0.00212643  0.50032945  0.25278193  1
  Fe  Fe83  1  0.37535254  0.87344336  0.12112757  1
  Fe  Fe84  1  0.62452317  0.37636969  0.87254395  1
  Fe  Fe85  1  0.00385944  0.50137772  0.49825149  1
  Fe  Fe86  1  0.00062397  0.25267298  0.75094866  1
  Fe  Fe87  1  0.00150663  0.75042483  0.25095611  1
  Fe  Fe88  1  0.12427184  0.87535461  0.12317679  1
  Fe  Fe89  1  0.87711554  0.87884509  0.12582499  1
  Co  Co90  1  0.24853801  0.74793518  0.00044630  1
  Co  Co91  1  0.12525610  0.37407415  0.62175576  1
  Co  Co92  1  0.49809427  0.25334659  0.74911474  1
  Co  Co93  1  0.12067240  0.62926482  0.62550579  1
  Co  Co94  1  0.49554139  0.49864562  0.25211635  1
  Co  Co95  1  0.75018579  0.00278292  0.74989167  1
  Co  Co96  1  0.75244607  0.49744910  0.74947922  1
  Co  Co97  1  0.87693312  0.12176639  0.12363805  1
  Co  Co98  1  0.37382319  0.12349915  0.37518906  1
  Co  Co99  1  0.12663990  0.37539477  0.87655683  1
  Co  Co100  1  0.00201449  0.00014390  0.25477624  1
  Co  Co101  1  0.37735149  0.12342698  0.12464378  1
  Co  Co102  1  0.25046462  0.75131935  0.24698425  1
  Co  Co103  1  0.37542645  0.87189446  0.87734301  1
  Co  Co104  1  0.74842893  0.75080864  0.00512212  1
  Co  Co105  1  0.75341437  0.25003381  0.24959459  1
  Co  Co106  1  0.37915045  0.62423112  0.62782131  1
  Co  Co107  1  0.62246230  0.87844955  0.12622353  1
  Co  Co108  1  0.49706970  0.49795481  0.75301294  1
  Co  Co109  1  0.24785248  0.50685494  0.50325290  1
  Co  Co110  1  0.37349420  0.62676796  0.37386531  1
  Co  Co111  1  0.49980619  -0.00262696  0.75211096  1
  Co  Co112  1  0.62457076  0.37616472  0.37268634  1
  Co  Co113  1  0.87335423  0.87803461  0.62253854  1
  Co  Co114  1  0.37493419  0.37672931  0.12173363  1
  Co  Co115  1  0.62488464  0.62228309  0.12816317  1
  Co  Co116  1  0.00026475  0.50173835  -0.00049234  1
  Co  Co117  1  0.75092193  0.74928370  0.74464489  1
  Co  Co118  1  0.87383512  0.12577891  0.37579772  1
  Co  Co119  1  0.75166287  0.00039747  0.25090446  1
  Co  Co120  1  0.37146802  0.37736057  0.38152030  1
  Co  Co121  1  0.25446673  0.74788038  0.50500181  1
  Co  Co122  1  0.62315383  0.12503465  0.37008035  1
  Co  Co123  1  0.00085906  -0.00156523  -0.00464708  1
  Co  Co124  1  -0.00379252  0.74992992  0.49847735  1
  Co  Co125  1  0.25197063  0.24590695  0.50246214  1
  Co  Co126  1  0.62840088  0.62555020  0.87174672  1
  Co  Co127  1  0.50090916  0.50379799  0.49681189  1
