# generated using pymatgen
data_Fe45Co19
_symmetry_space_group_name_H-M   'P 1'
_cell_length_a   11.41512311
_cell_length_b   11.41483783
_cell_length_c   11.41586087
_cell_angle_alpha   89.99997645
_cell_angle_beta   90.00161888
_cell_angle_gamma   89.98918659
_symmetry_Int_Tables_number   1
_chemical_formula_structural   Fe45Co19
_chemical_formula_sum   'Fe90 Co38'
_cell_volume   1487.50695377
_cell_formula_units_Z   2
loop_
 _symmetry_equiv_pos_site_id
 _symmetry_equiv_pos_as_xyz
  1  'x, y, z'
loop_
 _atom_site_type_symbol
 _atom_site_label
 _atom_site_symmetry_multiplicity
 _atom_site_fract_x
 _atom_site_fract_y
 _atom_site_fract_z
 _atom_site_occupancy
  Fe  Fe0  1  0.37541186  0.36994290  0.87405950  1
  Fe  Fe1  1  0.62287274  0.37381766  0.62349054  1
  Fe  Fe2  1  0.12636423  0.87610049  0.37693271  1
  Fe  Fe3  1  0.12329705  0.87547525  0.62786400  1
  Fe  Fe4  1  0.37400127  0.62554394  0.62929751  1
  Fe  Fe5  1  0.24852486  0.75056735  0.24778628  1
  Fe  Fe6  1  0.74905757  -0.00166685  0.50037297  1
  Fe  Fe7  1  0.24903682  0.25097731  0.74797299  1
  Fe  Fe8  1  0.87475762  0.12606449  0.37702221  1
  Fe  Fe9  1  0.75177458  0.49904776  0.50286963  1
  Fe  Fe10  1  0.87699398  0.87409780  0.62708775  1
  Fe  Fe11  1  0.87674476  0.62483390  0.12222774  1
  Fe  Fe12  1  0.74796880  0.74974559  0.74806726  1
  Fe  Fe13  1  0.87339941  0.62638684  0.37535914  1
  Fe  Fe14  1  0.00218467  0.25224310  0.49942331  1
  Fe  Fe15  1  0.74732115  0.24978123  0.74843745  1
  Fe  Fe16  1  0.37511912  0.87677057  0.37593164  1
  Fe  Fe17  1  0.37157684  0.12604353  0.37448822  1
  Fe  Fe18  1  0.74825541  0.00148196  0.74913425  1
  Fe  Fe19  1  0.74896182  0.25041387  0.00154533  1
  Fe  Fe20  1  0.00256219  0.49871830  0.24880619  1
  Fe  Fe21  1  0.25215638  0.00092400  0.50387553  1
  Fe  Fe22  1  0.75085129  0.00124232  0.00024072  1
  Fe  Fe23  1  0.37878980  0.12789339  0.62742640  1
  Fe  Fe24  1  0.12516773  0.62388727  0.12121439  1
  Fe  Fe25  1  0.24460429  0.24884749  0.24690416  1
  Fe  Fe26  1  0.24730965  0.00266232  0.24777363  1
  Fe  Fe27  1  0.12232600  0.12423256  0.62578157  1
  Fe  Fe28  1  0.12816899  0.62223016  0.37475428  1
  Fe  Fe29  1  0.75045671  0.50150710  0.24787148  1
  Fe  Fe30  1  0.37879513  0.87328847  0.62583534  1
  Fe  Fe31  1  0.50351456  0.00146748  0.25169844  1
  Fe  Fe32  1  0.62813193  0.62245173  0.87463758  1
  Fe  Fe33  1  0.37040344  0.62364567  0.37388092  1
  Fe  Fe34  1  0.24676798  0.25321522  0.50316816  1
  Fe  Fe35  1  0.49862683  0.49761653  0.75068889  1
  Fe  Fe36  1  0.25014348  0.74927757  0.50267994  1
  Fe  Fe37  1  0.00448686  0.25028945  0.25125387  1
  Fe  Fe38  1  0.87456948  0.12660240  0.62438911  1
  Fe  Fe39  1  0.50144758  0.75309605  -0.00408411  1
  Fe  Fe40  1  0.12688342  0.62222966  0.63230728  1
  Fe  Fe41  1  0.87722448  0.12442787  0.12475002  1
  Fe  Fe42  1  0.24897786  0.75352894  -0.00240594  1
  Fe  Fe43  1  0.50051480  0.24819195  0.49987051  1
  Fe  Fe44  1  0.62645690  0.37482627  0.37612218  1
  Fe  Fe45  1  0.62046858  0.87360213  0.62175054  1
  Fe  Fe46  1  0.87464596  0.12578315  0.87342120  1
  Fe  Fe47  1  0.00121768  0.74813319  0.50149707  1
  Fe  Fe48  1  0.62761326  0.12494729  0.37777357  1
  Fe  Fe49  1  0.49869000  0.49748233  -0.00052568  1
  Fe  Fe50  1  0.62060394  0.12566303  0.87836914  1
  Fe  Fe51  1  0.62222573  0.62599605  0.62478431  1
  Fe  Fe52  1  0.62794931  0.62831589  0.37693493  1
  Fe  Fe53  1  0.12301623  0.87869328  0.12238756  1
  Fe  Fe54  1  0.00183401  0.49952296  0.49985174  1
  Fe  Fe55  1  0.49863147  0.50016124  0.25101517  1
  Fe  Fe56  1  0.74937965  0.74952640  0.00069332  1
  Fe  Fe57  1  0.37459576  0.87862228  0.87303411  1
  Fe  Fe58  1  0.37089354  0.37520577  0.37575324  1
  Fe  Fe59  1  0.00021455  0.00137512  0.25208295  1
  Fe  Fe60  1  0.50113734  0.00152032  0.75039066  1
  Fe  Fe61  1  0.87689212  0.37432238  0.12361917  1
  Fe  Fe62  1  0.00048364  0.74969392  -0.00586995  1
  Fe  Fe63  1  0.25050272  0.49887300  -0.00145945  1
  Fe  Fe64  1  0.50094889  0.75111103  0.25233122  1
  Fe  Fe65  1  0.12503969  0.87984401  0.87179667  1
  Fe  Fe66  1  0.87727126  0.62438191  0.62920948  1
  Fe  Fe67  1  0.87361300  0.87416720  0.87224983  1
  Fe  Fe68  1  0.37299539  0.62614079  0.87336265  1
  Fe  Fe69  1  0.50058209  0.24887471  0.24899180  1
  Fe  Fe70  1  0.75003535  0.24807723  0.24905166  1
  Fe  Fe71  1  0.25193679  0.24393800  0.00218832  1
  Fe  Fe72  1  0.00042393  0.24994698  -0.00382588  1
  Fe  Fe73  1  0.62490993  0.37498445  0.12518276  1
  Fe  Fe74  1  0.00132149  0.74946883  0.25001400  1
  Fe  Fe75  1  0.37558230  0.62704280  0.12310007  1
  Fe  Fe76  1  0.62265460  0.62442991  0.12329486  1
  Fe  Fe77  1  -0.00090794  -0.00067413  0.50007996  1
  Fe  Fe78  1  -0.00075976  0.49886947  -0.00724522  1
  Fe  Fe79  1  0.12569529  0.12215889  0.87354242  1
  Fe  Fe80  1  0.87479445  0.37516086  0.37487424  1
  Fe  Fe81  1  0.87490856  0.87611989  0.12592662  1
  Fe  Fe82  1  0.37543373  0.87711718  0.12496221  1
  Fe  Fe83  1  0.87146654  0.87209221  0.37370735  1
  Fe  Fe84  1  0.49729410  0.50132028  0.49909542  1
  Fe  Fe85  1  -0.00047021  0.49714763  0.75858599  1
  Fe  Fe86  1  0.87736431  0.37319713  0.62838302  1
  Fe  Fe87  1  0.62638958  0.87743468  0.12519537  1
  Fe  Fe88  1  0.37354362  0.37403963  0.12615389  1
  Fe  Fe89  1  0.62721994  0.37605992  0.87613133  1
  Co  Co90  1  0.74925309  0.00314493  0.25053590  1
  Co  Co91  1  0.62493222  0.12443552  0.62349113  1
  Co  Co92  1  0.12075246  0.12218982  0.12194759  1
  Co  Co93  1  0.37853013  0.12295982  0.12671348  1
  Co  Co94  1  0.62641308  0.87267280  0.37760444  1
  Co  Co95  1  0.49580037  0.74704627  0.49692785  1
  Co  Co96  1  0.86889268  0.62549884  0.87379969  1
  Co  Co97  1  0.12074302  0.37799271  0.62863403  1
  Co  Co98  1  0.25058863  0.49907832  0.50546796  1
  Co  Co99  1  0.62335570  0.12456004  0.12146433  1
  Co  Co100  1  0.50410577  0.25133231  0.75031647  1
  Co  Co101  1  0.75061858  0.25235086  0.50154783  1
  Co  Co102  1  -0.00242773  0.00224900  0.74977673  1
  Co  Co103  1  0.00020763  0.74901758  0.75353008  1
  Co  Co104  1  0.12868393  0.37109865  0.87647144  1
  Co  Co105  1  0.49832939  -0.00152308  -0.00078714  1
  Co  Co106  1  0.49862979  0.00377460  0.49899546  1
  Co  Co107  1  0.12792808  0.37786013  0.37530463  1
  Co  Co108  1  0.62735653  0.87707763  0.87436543  1
  Co  Co109  1  0.25253758  0.00282768  -0.00011083  1
  Co  Co110  1  0.75277590  0.74970200  0.50490187  1
  Co  Co111  1  0.49846414  0.25221685  0.00255086  1
  Co  Co112  1  0.25340496  0.49398232  0.75099176  1
  Co  Co113  1  0.86973750  0.37353254  0.87418298  1
  Co  Co114  1  0.12597740  0.12394736  0.37868399  1
  Co  Co115  1  0.37854564  0.37285986  0.62365512  1
  Co  Co116  1  0.24963492  0.49956416  0.24531869  1
  Co  Co117  1  0.74963347  0.74769764  0.24668212  1
  Co  Co118  1  0.13014818  0.62454114  0.87236715  1
  Co  Co119  1  0.12407198  0.37530233  0.12015835  1
  Co  Co120  1  0.25219982  0.00136259  0.74708278  1
  Co  Co121  1  0.74923173  0.49805104  0.74594894  1
  Co  Co122  1  0.37807700  0.12602008  0.87236950  1
  Co  Co123  1  0.00036983  0.24922882  0.75318271  1
  Co  Co124  1  0.50087012  0.74978381  0.75443153  1
  Co  Co125  1  0.25038471  0.75398024  0.75077449  1
  Co  Co126  1  -0.00283268  -0.00045215  -0.00348596  1
  Co  Co127  1  0.75082966  0.49917488  0.00355198  1
