# generated using pymatgen
data_Fe45Co19
_symmetry_space_group_name_H-M   'P 1'
_cell_length_a   11.41504960
_cell_length_b   11.41543481
_cell_length_c   11.41629891
_cell_angle_alpha   89.99696997
_cell_angle_beta   89.99123720
_cell_angle_gamma   89.98975164
_symmetry_Int_Tables_number   1
_chemical_formula_structural   Fe45Co19
_chemical_formula_sum   'Fe90 Co38'
_cell_volume   1487.63223454
_cell_formula_units_Z   2
loop_
 _symmetry_equiv_pos_site_id
 _symmetry_equiv_pos_as_xyz
  1  'x, y, z'
loop_
 _atom_site_type_symbol
 _atom_site_label
 _atom_site_symmetry_multiplicity
 _atom_site_fract_x
 _atom_site_fract_y
 _atom_site_fract_z
 _atom_site_occupancy
  Fe  Fe0  1  0.74590716  0.49736826  0.49889168  1
  Fe  Fe1  1  0.37207370  0.37911141  0.87395255  1
  Fe  Fe2  1  0.87795285  0.62467809  0.87458461  1
  Fe  Fe3  1  0.50167990  0.49685450  0.50034969  1
  Fe  Fe4  1  0.49790235  0.25109663  0.75271361  1
  Fe  Fe5  1  0.37248265  0.87662795  0.62586695  1
  Fe  Fe6  1  0.12695283  0.62326143  0.37463652  1
  Fe  Fe7  1  0.12762650  0.37398618  0.12681842  1
  Fe  Fe8  1  0.62202007  0.12236675  0.87533781  1
  Fe  Fe9  1  0.62392267  0.62474470  0.87489408  1
  Fe  Fe10  1  0.12323066  0.62441990  0.62485948  1
  Fe  Fe11  1  0.87652748  0.87359979  0.87466247  1
  Fe  Fe12  1  0.00286841  0.25622796  0.49836664  1
  Fe  Fe13  1  0.00101461  -0.00148768  0.00082130  1
  Fe  Fe14  1  0.25107200  0.25203604  0.49879578  1
  Fe  Fe15  1  0.50032853  0.25236643  0.49775038  1
  Fe  Fe16  1  0.75306602  0.24977011  0.24682233  1
  Fe  Fe17  1  0.49900728  0.49817556  0.00147771  1
  Fe  Fe18  1  0.62313226  0.12783497  0.62676747  1
  Fe  Fe19  1  0.00018434  0.49665261  0.25114116  1
  Fe  Fe20  1  0.37622990  0.87559047  0.37771632  1
  Fe  Fe21  1  0.87501745  0.12697833  0.37439189  1
  Fe  Fe22  1  0.00395244  0.49279677  0.49963420  1
  Fe  Fe23  1  0.12599898  0.87482644  0.37489318  1
  Fe  Fe24  1  0.62139535  0.62899049  0.12457793  1
  Fe  Fe25  1  0.37529918  0.62306499  0.62516560  1
  Fe  Fe26  1  0.12453123  0.62638814  0.12563975  1
  Fe  Fe27  1  0.87316895  0.87528366  0.12563531  1
  Fe  Fe28  1  0.25075677  0.74942754  0.49932400  1
  Fe  Fe29  1  -0.00122471  0.74979678  0.49855121  1
  Fe  Fe30  1  -0.00178673  0.75022594  0.25176324  1
  Fe  Fe31  1  0.12488994  0.12556981  0.12560480  1
  Fe  Fe32  1  0.87606517  0.12841730  0.62376863  1
  Fe  Fe33  1  0.37546555  0.12425133  0.62431646  1
  Fe  Fe34  1  0.37673191  0.37727730  0.37093979  1
  Fe  Fe35  1  0.87534832  0.62101593  0.37577123  1
  Fe  Fe36  1  0.37437782  0.37605167  0.62868794  1
  Fe  Fe37  1  0.75033587  0.00154934  0.74826725  1
  Fe  Fe38  1  0.87790115  0.62100059  0.62442308  1
  Fe  Fe39  1  -0.00114981  0.25210423  0.00245593  1
  Fe  Fe40  1  0.62129046  0.12650219  0.12237491  1
  Fe  Fe41  1  0.50213866  0.75626334  -0.00338045  1
  Fe  Fe42  1  0.87356251  0.87496167  0.62238696  1
  Fe  Fe43  1  0.00298545  0.49808980  -0.00108879  1
  Fe  Fe44  1  0.25422058  0.24678202  0.24872111  1
  Fe  Fe45  1  0.25422162  0.74716323  0.25178516  1
  Fe  Fe46  1  0.62656552  0.12482667  0.37462734  1
  Fe  Fe47  1  0.75147078  0.74788360  0.74925323  1
  Fe  Fe48  1  0.50228427  -0.00071556  0.50154459  1
  Fe  Fe49  1  0.12683657  0.12891781  0.62510857  1
  Fe  Fe50  1  0.00045095  0.00132402  0.74990498  1
  Fe  Fe51  1  0.74719990  -0.00160905  0.00143834  1
  Fe  Fe52  1  0.24730816  0.75129681  -0.00221095  1
  Fe  Fe53  1  0.25477280  0.25023803  0.00065344  1
  Fe  Fe54  1  0.12518146  0.12662765  0.37400333  1
  Fe  Fe55  1  0.86986878  0.87798558  0.37722768  1
  Fe  Fe56  1  0.87432093  0.12538740  0.87743127  1
  Fe  Fe57  1  0.25106302  0.00071364  0.24983360  1
  Fe  Fe58  1  0.50275927  -0.00231683  0.24867146  1
  Fe  Fe59  1  0.62359527  0.37600413  0.87316191  1
  Fe  Fe60  1  0.74878809  0.74994453  0.25319877  1
  Fe  Fe61  1  0.24842032  0.49732164  0.50128810  1
  Fe  Fe62  1  0.74948325  0.49956658  0.74928966  1
  Fe  Fe63  1  0.61863987  0.37302416  0.12894661  1
  Fe  Fe64  1  0.24905811  0.74960255  0.75135498  1
  Fe  Fe65  1  0.37464476  0.87429081  0.12362264  1
  Fe  Fe66  1  -0.00169299  0.00157481  0.24970265  1
  Fe  Fe67  1  0.61919451  0.62831595  0.37627957  1
  Fe  Fe68  1  0.37989065  0.11878167  0.87750780  1
  Fe  Fe69  1  0.12497329  0.87371240  0.12630387  1
  Fe  Fe70  1  0.75037594  0.25082496  0.75063857  1
  Fe  Fe71  1  0.12161569  0.62711762  0.87435806  1
  Fe  Fe72  1  0.75073210  0.74932165  -0.00146902  1
  Fe  Fe73  1  0.37494282  0.12162942  0.37667814  1
  Fe  Fe74  1  0.00092578  0.00144970  0.49952348  1
  Fe  Fe75  1  0.74798607  0.49930911  0.00200571  1
  Fe  Fe76  1  0.12396287  0.12848440  0.87487953  1
  Fe  Fe77  1  0.24885080  -0.00087311  -0.00080737  1
  Fe  Fe78  1  0.12571511  0.87579904  0.62504837  1
  Fe  Fe79  1  0.87520078  0.37570679  0.87475431  1
  Fe  Fe80  1  0.37505854  0.62439709  0.87688349  1
  Fe  Fe81  1  0.24872167  0.00221713  0.75128935  1
  Fe  Fe82  1  0.74880638  0.25226825  0.00130894  1
  Fe  Fe83  1  0.87537730  0.62332339  0.12547966  1
  Fe  Fe84  1  0.25706488  0.50423632  0.24563923  1
  Fe  Fe85  1  0.62885402  0.87363189  0.62231506  1
  Fe  Fe86  1  0.74634235  0.50002077  0.24986460  1
  Fe  Fe87  1  0.74764868  0.25317833  0.50064684  1
  Fe  Fe88  1  0.62328461  0.62435310  0.62546267  1
  Fe  Fe89  1  0.50007064  0.75187132  0.75001689  1
  Co  Co90  1  0.62312098  0.37352092  0.36933363  1
  Co  Co91  1  0.50331452  -0.00542165  0.00264013  1
  Co  Co92  1  0.37795986  0.37318336  0.12757147  1
  Co  Co93  1  0.62777181  0.87654777  0.87164336  1
  Co  Co94  1  -0.00343320  0.25019676  0.75036602  1
  Co  Co95  1  0.49657636  0.24420523  0.25257041  1
  Co  Co96  1  0.62715357  0.87458266  0.37887399  1
  Co  Co97  1  0.87486879  0.12384510  0.12221406  1
  Co  Co98  1  0.37754282  0.63020670  0.11730601  1
  Co  Co99  1  0.49705095  0.50607943  0.24771154  1
  Co  Co100  1  0.74806305  0.00224289  0.24820799  1
  Co  Co101  1  0.49758646  0.25283050  -0.00400620  1
  Co  Co102  1  0.62677095  0.87092739  0.12708899  1
  Co  Co103  1  -0.00103290  0.74985547  0.00318022  1
  Co  Co104  1  0.12280260  0.87413844  0.87402290  1
  Co  Co105  1  0.25653722  0.24579613  0.75257496  1
  Co  Co106  1  -0.00101480  0.75111767  0.74684880  1
  Co  Co107  1  0.24844715  0.00073595  0.49963604  1
  Co  Co108  1  0.12921730  0.37071283  0.63185503  1
  Co  Co109  1  0.87192517  0.37490889  0.37442563  1
  Co  Co110  1  0.24796584  0.49952954  0.00088220  1
  Co  Co111  1  0.37646382  0.62380953  0.38044241  1
  Co  Co112  1  0.87461768  0.37826843  0.12515422  1
  Co  Co113  1  0.24671815  0.50374491  0.75189029  1
  Co  Co114  1  0.37448445  0.87738490  0.87361280  1
  Co  Co115  1  0.12771798  0.36993844  0.87251710  1
  Co  Co116  1  0.50159860  -0.00251540  0.74600746  1
  Co  Co117  1  0.87307519  0.37606069  0.62459044  1
  Co  Co118  1  0.00252398  0.49638260  0.75112567  1
  Co  Co119  1  0.13022196  0.37535278  0.36866057  1
  Co  Co120  1  -0.00183855  0.25038581  0.24843907  1
  Co  Co121  1  0.75176997  0.74455124  0.49962898  1
  Co  Co122  1  0.37850815  0.12237938  0.12187687  1
  Co  Co123  1  0.62372222  0.37400860  0.62847318  1
  Co  Co124  1  0.49810757  0.75213651  0.50336194  1
  Co  Co125  1  0.49967737  0.50103256  0.75105802  1
  Co  Co126  1  0.49687872  0.75102366  0.25173132  1
  Co  Co127  1  0.74926737  0.00528637  0.50198522  1
