# generated using pymatgen
data_Fe45Co19
_symmetry_space_group_name_H-M   'P 1'
_cell_length_a   11.41458465
_cell_length_b   11.41471004
_cell_length_c   11.41543493
_cell_angle_alpha   90.00438146
_cell_angle_beta   90.00372404
_cell_angle_gamma   89.99357883
_symmetry_Int_Tables_number   1
_chemical_formula_structural   Fe45Co19
_chemical_formula_sum   'Fe90 Co38'
_cell_volume   1487.36464804
_cell_formula_units_Z   2
loop_
 _symmetry_equiv_pos_site_id
 _symmetry_equiv_pos_as_xyz
  1  'x, y, z'
loop_
 _atom_site_type_symbol
 _atom_site_label
 _atom_site_symmetry_multiplicity
 _atom_site_fract_x
 _atom_site_fract_y
 _atom_site_fract_z
 _atom_site_occupancy
  Fe  Fe0  1  0.12421007  0.12607873  0.87687103  1
  Fe  Fe1  1  -0.00284463  0.00014923  0.00157854  1
  Fe  Fe2  1  0.87778244  0.12662790  0.37523656  1
  Fe  Fe3  1  -0.00243763  0.24907316  0.00035209  1
  Fe  Fe4  1  0.12223726  0.37680549  0.62690447  1
  Fe  Fe5  1  0.37527598  0.12511953  0.12414510  1
  Fe  Fe6  1  0.62526849  0.62304556  0.12233769  1
  Fe  Fe7  1  0.75010450  0.24809950  0.74970208  1
  Fe  Fe8  1  0.37801200  0.87101448  0.37399521  1
  Fe  Fe9  1  0.49925337  0.25162163  0.50144960  1
  Fe  Fe10  1  0.12300712  0.87236109  0.87642054  1
  Fe  Fe11  1  0.75170457  -0.00336882  0.49497834  1
  Fe  Fe12  1  0.24938748  0.25298292  0.24874080  1
  Fe  Fe13  1  0.25225811  -0.00118228  0.24936799  1
  Fe  Fe14  1  0.74828109  0.75047060  0.00099130  1
  Fe  Fe15  1  0.24720627  -0.00400469  0.50049177  1
  Fe  Fe16  1  0.62744317  0.62611681  0.62533262  1
  Fe  Fe17  1  0.24876476  0.49829564  0.75478243  1
  Fe  Fe18  1  0.24958956  0.75014453  0.75062441  1
  Fe  Fe19  1  -0.00444216  0.49976231  0.50295061  1
  Fe  Fe20  1  0.75055811  0.24974003  0.00111256  1
  Fe  Fe21  1  0.49960400  -0.00127799  0.49886597  1
  Fe  Fe22  1  0.37878206  0.87460807  0.87630910  1
  Fe  Fe23  1  0.75169013  0.00135056  0.00243585  1
  Fe  Fe24  1  0.75181192  0.50141799  0.74950553  1
  Fe  Fe25  1  0.37555221  0.37626678  0.37530146  1
  Fe  Fe26  1  -0.00202932  0.74767339  0.74913656  1
  Fe  Fe27  1  0.37600589  0.87435092  0.62578881  1
  Fe  Fe28  1  0.62650560  0.37489839  0.62450935  1
  Fe  Fe29  1  0.75112073  -0.00128814  0.74810463  1
  Fe  Fe30  1  0.50116446  0.50166154  0.25086887  1
  Fe  Fe31  1  0.87202786  0.62750588  0.87434606  1
  Fe  Fe32  1  0.87356093  0.87219167  0.12986064  1
  Fe  Fe33  1  0.25295367  0.74813471  -0.00069875  1
  Fe  Fe34  1  0.38012881  0.87339759  0.12480698  1
  Fe  Fe35  1  0.87360053  0.62607619  0.12610747  1
  Fe  Fe36  1  0.62407478  0.87610335  0.87591758  1
  Fe  Fe37  1  0.87345273  0.37505307  0.87408244  1
  Fe  Fe38  1  -0.00236111  -0.00254085  0.25159591  1
  Fe  Fe39  1  0.25106403  0.25236091  0.75025454  1
  Fe  Fe40  1  0.12397514  0.12369872  0.12557444  1
  Fe  Fe41  1  0.50246491  0.25130004  0.00012851  1
  Fe  Fe42  1  0.12304043  0.12360158  0.62295607  1
  Fe  Fe43  1  0.12420250  0.87356391  0.12439715  1
  Fe  Fe44  1  0.12615724  0.62558658  0.12228127  1
  Fe  Fe45  1  0.12311081  0.37691437  0.37573578  1
  Fe  Fe46  1  0.87582850  0.62843169  0.37488635  1
  Fe  Fe47  1  0.75208885  0.49817305  0.49909721  1
  Fe  Fe48  1  0.25114052  0.74704834  0.24764054  1
  Fe  Fe49  1  0.62463014  0.12451167  0.37450648  1
  Fe  Fe50  1  0.12499771  0.62517505  0.37495784  1
  Fe  Fe51  1  0.37464040  0.62406723  0.62708572  1
  Fe  Fe52  1  0.62562912  0.12267195  0.87446319  1
  Fe  Fe53  1  0.50017450  0.25155430  0.74954935  1
  Fe  Fe54  1  0.50033000  0.50063054  0.50144577  1
  Fe  Fe55  1  0.50177572  0.49882348  0.75227886  1
  Fe  Fe56  1  0.87341854  0.37689996  0.12576201  1
  Fe  Fe57  1  0.50303296  0.50151649  -0.00507348  1
  Fe  Fe58  1  0.50265751  0.74949966  0.75067658  1
  Fe  Fe59  1  0.37279939  0.12591251  0.37618679  1
  Fe  Fe60  1  0.74774597  0.50086051  0.25165216  1
  Fe  Fe61  1  0.37660171  0.12499084  0.87588091  1
  Fe  Fe62  1  0.50009847  0.25167661  0.24951089  1
  Fe  Fe63  1  -0.00128859  0.00027715  0.75002805  1
  Fe  Fe64  1  0.24698406  0.75113485  0.50212899  1
  Fe  Fe65  1  0.12634127  0.37657693  0.12179999  1
  Fe  Fe66  1  0.37425487  0.12383237  0.62494244  1
  Fe  Fe67  1  0.37394556  0.37865560  0.12267930  1
  Fe  Fe68  1  0.87738608  0.87227851  0.62142647  1
  Fe  Fe69  1  0.12450900  0.12407166  0.37594105  1
  Fe  Fe70  1  0.24893357  0.50161188  -0.00529178  1
  Fe  Fe71  1  0.87486272  0.87446058  0.87556704  1
  Fe  Fe72  1  0.25093026  0.00032695  -0.00005406  1
  Fe  Fe73  1  0.74616758  0.75132379  0.49622929  1
  Fe  Fe74  1  0.00111828  0.25192447  0.24942365  1
  Fe  Fe75  1  0.62564266  0.12359382  0.62346392  1
  Fe  Fe76  1  0.24990503  -0.00077436  0.75150546  1
  Fe  Fe77  1  0.87669137  0.12447189  0.62175308  1
  Fe  Fe78  1  0.62385399  0.87542128  0.62413666  1
  Fe  Fe79  1  0.37533740  0.62583694  0.37559924  1
  Fe  Fe80  1  0.25042925  0.49932618  0.50024453  1
  Fe  Fe81  1  0.62644888  0.12288786  0.12826246  1
  Fe  Fe82  1  0.62323367  0.87691247  0.12995224  1
  Fe  Fe83  1  0.12376319  0.62368914  0.62703854  1
  Fe  Fe84  1  0.75262780  0.25359284  0.49835890  1
  Fe  Fe85  1  -0.00100218  0.50226952  -0.00358395  1
  Fe  Fe86  1  -0.00154435  0.25020990  0.74992688  1
  Fe  Fe87  1  0.00145424  0.50189014  0.24864843  1
  Fe  Fe88  1  0.24874915  0.25294816  0.50155136  1
  Fe  Fe89  1  0.74932706  0.25243093  0.25041769  1
  Co  Co90  1  0.62041523  0.87565142  0.37038162  1
  Co  Co91  1  0.87369828  0.12393247  0.87471902  1
  Co  Co92  1  0.12629619  0.87370892  0.37070675  1
  Co  Co93  1  0.12318248  0.37224999  0.87576586  1
  Co  Co94  1  0.74475195  0.74663290  0.25063291  1
  Co  Co95  1  0.87473069  0.12608157  0.12810388  1
  Co  Co96  1  0.37505193  0.37733209  0.62551649  1
  Co  Co97  1  0.87596887  0.37689636  0.37078275  1
  Co  Co98  1  -0.00283883  0.50283924  0.75160918  1
  Co  Co99  1  -0.00081056  0.25374617  0.50037915  1
  Co  Co100  1  0.37534346  0.37468621  0.87756760  1
  Co  Co101  1  0.25036431  0.24849062  0.00150834  1
  Co  Co102  1  0.62389489  0.37542335  0.37584292  1
  Co  Co103  1  0.50049037  0.00020709  0.74877338  1
  Co  Co104  1  0.50099664  0.74875571  0.50244978  1
  Co  Co105  1  0.00311542  0.74748663  0.24838664  1
  Co  Co106  1  0.37653212  0.62602244  0.87327607  1
  Co  Co107  1  0.62877799  0.62651929  0.87336185  1
  Co  Co108  1  0.24874200  0.50021826  0.25076685  1
  Co  Co109  1  0.50178136  0.74404023  0.24773510  1
  Co  Co110  1  0.50238017  0.74749785  0.00081733  1
  Co  Co111  1  0.49723173  0.00287054  0.25145446  1
  Co  Co112  1  0.74963468  0.75361272  0.75001785  1
  Co  Co113  1  0.12375247  0.62921452  0.87460014  1
  Co  Co114  1  0.00488848  0.75040164  0.49993872  1
  Co  Co115  1  0.62575354  0.37754204  0.12441595  1
  Co  Co116  1  0.75297448  -0.00016148  0.25425455  1
  Co  Co117  1  0.87264311  0.62984851  0.62278565  1
  Co  Co118  1  0.50123564  0.00160027  0.00137275  1
  Co  Co119  1  0.00100516  -0.00461020  0.49698913  1
  Co  Co120  1  0.75142124  0.50137827  -0.00107011  1
  Co  Co121  1  0.87409004  0.37401432  0.62828249  1
  Co  Co122  1  0.12287490  0.87492479  0.62925875  1
  Co  Co123  1  0.62391800  0.62409909  0.37791879  1
  Co  Co124  1  0.62845399  0.37462247  0.87461411  1
  Co  Co125  1  -0.00315275  0.74877158  0.00108689  1
  Co  Co126  1  0.37530838  0.62067897  0.12313813  1
  Co  Co127  1  0.87616925  0.86758521  0.37271726  1
