# generated using pymatgen
data_Fe45Co19
_symmetry_space_group_name_H-M   'P 1'
_cell_length_a   11.41530287
_cell_length_b   11.41574709
_cell_length_c   11.41534978
_cell_angle_alpha   90.00395955
_cell_angle_beta   89.99633086
_cell_angle_gamma   89.99744162
_symmetry_Int_Tables_number   1
_chemical_formula_structural   Fe45Co19
_chemical_formula_sum   'Fe90 Co38'
_cell_volume   1487.58228735
_cell_formula_units_Z   2
loop_
 _symmetry_equiv_pos_site_id
 _symmetry_equiv_pos_as_xyz
  1  'x, y, z'
loop_
 _atom_site_type_symbol
 _atom_site_label
 _atom_site_symmetry_multiplicity
 _atom_site_fract_x
 _atom_site_fract_y
 _atom_site_fract_z
 _atom_site_occupancy
  Fe  Fe0  1  0.37479466  0.37420351  0.37407180  1
  Fe  Fe1  1  0.50051333  0.25107736  0.75065680  1
  Fe  Fe2  1  0.75043761  -0.00118467  0.75049368  1
  Fe  Fe3  1  0.87425754  0.12494029  0.12365413  1
  Fe  Fe4  1  0.00031670  0.00004299  -0.00026925  1
  Fe  Fe5  1  0.37658748  0.87534181  0.37277607  1
  Fe  Fe6  1  0.25093120  0.25049782  0.74918065  1
  Fe  Fe7  1  0.87503057  0.12467188  0.62190407  1
  Fe  Fe8  1  -0.00062107  0.74906129  -0.00050208  1
  Fe  Fe9  1  0.37627205  0.12334812  0.87607672  1
  Fe  Fe10  1  0.62569069  0.86597576  0.62876737  1
  Fe  Fe11  1  0.25030660  0.75217231  0.00007097  1
  Fe  Fe12  1  0.62482406  0.37490886  0.37471215  1
  Fe  Fe13  1  0.24758723  0.00055818  0.49908971  1
  Fe  Fe14  1  0.24996494  0.50049634  0.74963154  1
  Fe  Fe15  1  0.12389591  0.87518230  0.87325395  1
  Fe  Fe16  1  0.37571173  0.12530485  0.37660571  1
  Fe  Fe17  1  0.62736468  0.12537525  0.37673639  1
  Fe  Fe18  1  0.00620302  0.50259500  0.24825101  1
  Fe  Fe19  1  0.50266672  0.00190723  0.24812330  1
  Fe  Fe20  1  0.12424418  0.12761070  0.62391754  1
  Fe  Fe21  1  0.24744873  0.49688653  0.00394323  1
  Fe  Fe22  1  0.62633026  0.62613995  0.12317665  1
  Fe  Fe23  1  0.87266230  0.62379754  0.62004916  1
  Fe  Fe24  1  0.74901687  0.75222254  -0.00444393  1
  Fe  Fe25  1  0.50283615  -0.00231994  0.50261702  1
  Fe  Fe26  1  0.87809527  0.87596310  0.37544550  1
  Fe  Fe27  1  0.12511825  0.37520253  0.87316106  1
  Fe  Fe28  1  0.50040897  -0.00008340  0.74850391  1
  Fe  Fe29  1  0.50312072  0.50143299  0.50197508  1
  Fe  Fe30  1  0.37692091  0.87476678  0.12811494  1
  Fe  Fe31  1  0.00008798  0.49949351  0.75032472  1
  Fe  Fe32  1  -0.00281158  0.74736145  0.74990427  1
  Fe  Fe33  1  -0.00198483  0.00361473  0.25093188  1
  Fe  Fe34  1  0.74663978  0.50356521  0.74746517  1
  Fe  Fe35  1  0.87609391  0.37659314  0.62586046  1
  Fe  Fe36  1  0.37192341  0.62418339  0.37358381  1
  Fe  Fe37  1  0.62320611  0.12812236  0.12269913  1
  Fe  Fe38  1  0.00018306  0.00237977  0.74961022  1
  Fe  Fe39  1  0.50134276  0.25000157  0.50116765  1
  Fe  Fe40  1  0.37846704  0.12728356  0.12359920  1
  Fe  Fe41  1  0.24957829  0.75045156  0.49888448  1
  Fe  Fe42  1  0.87451813  0.87479801  0.12469012  1
  Fe  Fe43  1  0.37521587  0.37600690  0.62510593  1
  Fe  Fe44  1  0.37522108  0.62206118  0.87804398  1
  Fe  Fe45  1  0.37460918  0.62510099  0.62275782  1
  Fe  Fe46  1  0.75202418  0.74819987  0.25112465  1
  Fe  Fe47  1  0.37235481  0.62527360  0.12644160  1
  Fe  Fe48  1  0.37507420  0.87739756  0.87346886  1
  Fe  Fe49  1  0.75031445  0.25001411  0.74945476  1
  Fe  Fe50  1  0.50165455  0.75259978  -0.00098696  1
  Fe  Fe51  1  -0.00302160  0.25367480  -0.00290288  1
  Fe  Fe52  1  0.50168346  0.49645921  0.00161463  1
  Fe  Fe53  1  0.87658156  0.37885132  0.12489988  1
  Fe  Fe54  1  0.37337841  0.87416680  0.62578032  1
  Fe  Fe55  1  0.12572887  0.62466168  0.87674831  1
  Fe  Fe56  1  0.87524644  0.62277298  0.12190004  1
  Fe  Fe57  1  0.37449604  0.12478571  0.62383251  1
  Fe  Fe58  1  0.12500969  0.87482501  0.62646285  1
  Fe  Fe59  1  0.62392486  0.12404813  0.87574288  1
  Fe  Fe60  1  0.87403284  0.61988535  0.87873515  1
  Fe  Fe61  1  0.62559700  0.62676187  0.37918655  1
  Fe  Fe62  1  0.24970004  -0.00035952  0.00156126  1
  Fe  Fe63  1  0.74858811  0.50112476  0.25023149  1
  Fe  Fe64  1  0.74825363  -0.00317695  0.50136902  1
  Fe  Fe65  1  0.12247024  0.12927385  0.37563002  1
  Fe  Fe66  1  0.75051589  0.25261084  0.50096229  1
  Fe  Fe67  1  0.24885879  0.00235425  0.24961659  1
  Fe  Fe68  1  0.12334118  0.12934195  0.12534514  1
  Fe  Fe69  1  0.12293110  0.87285503  0.12768703  1
  Fe  Fe70  1  0.74715858  -0.00325760  -0.00090181  1
  Fe  Fe71  1  0.12463010  0.62381148  0.62300706  1
  Fe  Fe72  1  0.62337877  0.87194918  0.37251781  1
  Fe  Fe73  1  0.87875895  0.62282927  0.37859050  1
  Fe  Fe74  1  0.50141673  0.50157617  0.25006242  1
  Fe  Fe75  1  0.62614445  0.37754366  0.87338919  1
  Fe  Fe76  1  0.87545332  0.87392806  0.62549090  1
  Fe  Fe77  1  0.12507931  0.37074636  0.37333994  1
  Fe  Fe78  1  0.87617472  0.37636714  0.37446397  1
  Fe  Fe79  1  0.12161240  0.87141364  0.37332956  1
  Fe  Fe80  1  0.75017881  0.00088501  0.24949409  1
  Fe  Fe81  1  0.24618633  0.49780396  0.49854340  1
  Fe  Fe82  1  0.25145656  0.74846268  0.75129426  1
  Fe  Fe83  1  0.25276170  0.25200062  -0.00046842  1
  Fe  Fe84  1  0.50270690  0.50374965  0.74723323  1
  Fe  Fe85  1  0.74995156  0.25499753  0.00040511  1
  Fe  Fe86  1  0.87398178  0.12451020  0.87553224  1
  Fe  Fe87  1  0.12541860  0.12557525  0.87510702  1
  Fe  Fe88  1  0.37654326  0.37274991  0.12900662  1
  Fe  Fe89  1  0.75128493  0.25055407  0.24911660  1
  Co  Co90  1  0.50109148  0.24835516  0.25321697  1
  Co  Co91  1  0.12525195  0.62859649  0.37494493  1
  Co  Co92  1  -0.00223001  0.25217446  0.50125754  1
  Co  Co93  1  0.24932257  0.00168424  0.74997831  1
  Co  Co94  1  0.62372533  0.37421819  0.12823825  1
  Co  Co95  1  0.75329467  0.75162512  0.49621191  1
  Co  Co96  1  0.87252761  0.12463255  0.37872268  1
  Co  Co97  1  0.25067989  0.25065559  0.50138083  1
  Co  Co98  1  0.50029381  0.74618501  0.25026710  1
  Co  Co99  1  0.87783162  0.87747328  0.87508934  1
  Co  Co100  1  0.00381166  0.49738336  0.49862862  1
  Co  Co101  1  0.87255649  0.37849195  0.87262126  1
  Co  Co102  1  -0.00375756  0.74642836  0.24840102  1
  Co  Co103  1  0.62762092  0.63181589  0.62189515  1
  Co  Co104  1  0.62472555  0.37455258  0.62527151  1
  Co  Co105  1  -0.00007648  0.74946805  0.50276430  1
  Co  Co106  1  0.62649064  0.87259407  0.12772298  1
  Co  Co107  1  0.50018524  0.25467368  -0.00364611  1
  Co  Co108  1  0.75490638  0.74650299  0.75518246  1
  Co  Co109  1  0.12733654  0.62869719  0.12439149  1
  Co  Co110  1  0.00403181  0.49851490  0.00039641  1
  Co  Co111  1  -0.00508824  0.24883318  0.24987322  1
  Co  Co112  1  0.24618024  0.49820660  0.24888708  1
  Co  Co113  1  0.25245028  0.24800529  0.24955291  1
  Co  Co114  1  0.50140449  -0.00314029  0.00087339  1
  Co  Co115  1  0.12467349  0.37465968  0.62765870  1
  Co  Co116  1  0.00139168  0.00048732  0.50013984  1
  Co  Co117  1  0.62392234  0.62378822  0.87673089  1
  Co  Co118  1  0.49579841  0.74552546  0.75173629  1
  Co  Co119  1  0.62610693  0.12552247  0.62504522  1
  Co  Co120  1  0.25126427  0.75061401  0.25059499  1
  Co  Co121  1  0.49675309  0.74977170  0.49893701  1
  Co  Co122  1  -0.00163960  0.24947026  0.75075801  1
  Co  Co123  1  0.12342608  0.36981536  0.12581203  1
  Co  Co124  1  0.74739028  0.49707902  0.00172475  1
  Co  Co125  1  0.37434566  0.37868526  0.87217864  1
  Co  Co126  1  0.74826719  0.49767198  0.50007117  1
  Co  Co127  1  0.62348836  0.87457006  0.86965552  1
