# generated using pymatgen
data_Fe45Co19
_symmetry_space_group_name_H-M   'P 1'
_cell_length_a   11.41534415
_cell_length_b   11.41673842
_cell_length_c   11.41441907
_cell_angle_alpha   90.00215481
_cell_angle_beta   89.99614822
_cell_angle_gamma   90.00167484
_symmetry_Int_Tables_number   1
_chemical_formula_structural   Fe45Co19
_chemical_formula_sum   'Fe90 Co38'
_cell_volume   1487.59555405
_cell_formula_units_Z   2
loop_
 _symmetry_equiv_pos_site_id
 _symmetry_equiv_pos_as_xyz
  1  'x, y, z'
loop_
 _atom_site_type_symbol
 _atom_site_label
 _atom_site_symmetry_multiplicity
 _atom_site_fract_x
 _atom_site_fract_y
 _atom_site_fract_z
 _atom_site_occupancy
  Fe  Fe0  1  0.37586621  0.12542394  0.37631798  1
  Fe  Fe1  1  0.49991278  0.74720322  0.24760055  1
  Fe  Fe2  1  0.75386751  0.75036263  0.74891907  1
  Fe  Fe3  1  0.00058835  0.75031640  0.24589125  1
  Fe  Fe4  1  0.62473662  0.62622367  0.62120090  1
  Fe  Fe5  1  0.24700925  -0.00067981  0.50098933  1
  Fe  Fe6  1  0.00009486  0.00054040  0.24946880  1
  Fe  Fe7  1  0.24900627  0.25116139  0.74902377  1
  Fe  Fe8  1  0.00044886  0.25049799  0.50342293  1
  Fe  Fe9  1  0.12352810  0.12661168  0.37485329  1
  Fe  Fe10  1  -0.00029507  0.49982650  0.24883979  1
  Fe  Fe11  1  0.24929582  -0.00030007  0.24869550  1
  Fe  Fe12  1  0.50217397  0.50227095  0.24921562  1
  Fe  Fe13  1  0.00132921  0.24993672  0.00068690  1
  Fe  Fe14  1  0.87344764  0.12510758  0.87582588  1
  Fe  Fe15  1  0.62509066  0.87083754  0.37707822  1
  Fe  Fe16  1  0.87458064  0.12457615  0.12406720  1
  Fe  Fe17  1  0.37428302  0.12563782  0.12255336  1
  Fe  Fe18  1  0.50038972  0.24879692  0.75083239  1
  Fe  Fe19  1  0.25243338  0.75000170  0.75044653  1
  Fe  Fe20  1  -0.00395829  0.75062279  0.75379194  1
  Fe  Fe21  1  0.87380150  0.12404451  0.37744059  1
  Fe  Fe22  1  0.50042387  0.24663213  -0.00333805  1
  Fe  Fe23  1  0.50153273  0.00091179  0.24943203  1
  Fe  Fe24  1  0.87559168  0.37577679  0.37449774  1
  Fe  Fe25  1  0.49988827  0.50314841  0.74894102  1
  Fe  Fe26  1  0.24969921  -0.00195555  0.75079538  1
  Fe  Fe27  1  0.75031936  0.49694843  -0.00425981  1
  Fe  Fe28  1  0.24466531  0.74859555  -0.00057246  1
  Fe  Fe29  1  0.12486309  0.37490405  0.12722542  1
  Fe  Fe30  1  0.50149204  0.24894870  0.25099564  1
  Fe  Fe31  1  0.74851724  0.74655243  0.25119994  1
  Fe  Fe32  1  0.37547772  0.37601813  0.62447317  1
  Fe  Fe33  1  0.12455565  0.37404648  0.37428938  1
  Fe  Fe34  1  0.00063089  0.50253102  0.49950154  1
  Fe  Fe35  1  0.50202063  0.00135546  0.75398428  1
  Fe  Fe36  1  0.87269260  0.62402626  0.12450864  1
  Fe  Fe37  1  0.25204320  0.50140889  0.75022155  1
  Fe  Fe38  1  -0.00089494  -0.00084143  0.75113694  1
  Fe  Fe39  1  0.87443527  0.37590870  0.12557573  1
  Fe  Fe40  1  0.12479725  0.62543353  0.62789294  1
  Fe  Fe41  1  0.25124100  0.75019787  0.50057415  1
  Fe  Fe42  1  0.62457293  0.37487027  0.37722590  1
  Fe  Fe43  1  0.62599496  0.62619030  0.87535395  1
  Fe  Fe44  1  0.74978798  0.25293682  -0.00287513  1
  Fe  Fe45  1  0.37486394  0.12373504  0.62562488  1
  Fe  Fe46  1  0.87575655  0.87446084  0.12289906  1
  Fe  Fe47  1  0.75102100  0.25107568  0.25090635  1
  Fe  Fe48  1  0.74653756  -0.00211516  -0.00233884  1
  Fe  Fe49  1  0.62582926  0.37593285  0.62296140  1
  Fe  Fe50  1  0.49706684  0.74753945  0.75009279  1
  Fe  Fe51  1  0.74989459  -0.00322683  0.75117055  1
  Fe  Fe52  1  0.75221133  0.50516835  0.49718679  1
  Fe  Fe53  1  -0.00033288  0.25012334  0.74761861  1
  Fe  Fe54  1  0.62738049  0.12705667  0.62325416  1
  Fe  Fe55  1  0.62602309  0.12552336  0.12444239  1
  Fe  Fe56  1  0.24964054  0.50084642  0.50004167  1
  Fe  Fe57  1  0.37644964  0.87643042  0.62425068  1
  Fe  Fe58  1  0.12226040  0.87441657  0.62617917  1
  Fe  Fe59  1  0.12570184  0.62585792  0.37116087  1
  Fe  Fe60  1  0.37580996  0.87394802  0.12245031  1
  Fe  Fe61  1  0.12691107  0.12558534  0.87427318  1
  Fe  Fe62  1  0.37095796  0.62505341  0.12517394  1
  Fe  Fe63  1  0.74855966  -0.00042715  0.25135813  1
  Fe  Fe64  1  0.00250613  -0.00215784  -0.00020648  1
  Fe  Fe65  1  0.37579097  0.37441296  0.12422040  1
  Fe  Fe66  1  0.87434353  0.87456136  0.37691974  1
  Fe  Fe67  1  0.12503802  0.87335711  0.37342229  1
  Fe  Fe68  1  0.24780934  0.49954252  -0.00043250  1
  Fe  Fe69  1  0.24832020  0.25000584  0.50380426  1
  Fe  Fe70  1  -0.00290817  0.74851526  0.50133313  1
  Fe  Fe71  1  0.75011436  0.75154100  -0.00177254  1
  Fe  Fe72  1  0.62585243  0.87175334  0.62348736  1
  Fe  Fe73  1  0.24856781  -0.00025542  -0.00006271  1
  Fe  Fe74  1  0.12348744  0.37562594  0.87320188  1
  Fe  Fe75  1  0.00103974  0.50359153  -0.00073530  1
  Fe  Fe76  1  0.37616083  0.37419758  0.37608241  1
  Fe  Fe77  1  0.87397636  0.12166778  0.62260398  1
  Fe  Fe78  1  0.37602234  0.87610872  0.37498160  1
  Fe  Fe79  1  0.50044559  0.50398765  0.00045556  1
  Fe  Fe80  1  0.62506600  0.37579776  0.12429629  1
  Fe  Fe81  1  0.24896137  0.25060189  0.24789164  1
  Fe  Fe82  1  0.37691173  0.62468318  0.37653944  1
  Fe  Fe83  1  0.37687320  0.37568352  0.87551037  1
  Fe  Fe84  1  0.37809085  0.87371689  0.87834422  1
  Fe  Fe85  1  0.75079737  0.25439420  0.75187673  1
  Fe  Fe86  1  0.87442297  0.37974782  0.62564166  1
  Fe  Fe87  1  0.62240842  0.87382759  0.12317847  1
  Fe  Fe88  1  -0.00222938  0.50174918  0.75263812  1
  Fe  Fe89  1  0.50353814  0.00078539  0.49984546  1
  Co  Co90  1  0.75564482  0.74714719  0.50039459  1
  Co  Co91  1  0.63028639  0.62349177  0.12328129  1
  Co  Co92  1  0.74720646  0.49925945  0.75170393  1
  Co  Co93  1  0.49893589  0.24903599  0.50153930  1
  Co  Co94  1  0.87580064  0.62203449  0.62830866  1
  Co  Co95  1  0.62640620  0.12741980  0.37627139  1
  Co  Co96  1  0.12460158  0.12485008  0.12548318  1
  Co  Co97  1  0.49888484  0.49838533  0.50121111  1
  Co  Co98  1  0.87805250  0.62610893  0.37024901  1
  Co  Co99  1  0.87506242  0.87548048  0.87742755  1
  Co  Co100  1  0.24787238  0.25284008  -0.00028209  1
  Co  Co101  1  0.12663645  0.62419998  0.12936929  1
  Co  Co102  1  0.74706553  -0.00288995  0.49951149  1
  Co  Co103  1  0.62172124  0.62722825  0.37875990  1
  Co  Co104  1  0.12393528  0.37957718  0.62638611  1
  Co  Co105  1  0.37419700  0.62446521  0.62265874  1
  Co  Co106  1  0.37341267  0.62519402  0.87707419  1
  Co  Co107  1  0.37149522  0.12519477  0.87469131  1
  Co  Co108  1  0.87657036  0.87766407  0.62305660  1
  Co  Co109  1  0.25264127  0.75101243  0.25119213  1
  Co  Co110  1  0.50180979  0.00225910  -0.00217370  1
  Co  Co111  1  0.49645870  0.75220823  0.50097626  1
  Co  Co112  1  0.12467612  0.12205986  0.62634289  1
  Co  Co113  1  0.12438917  0.87419879  0.87362323  1
  Co  Co114  1  0.75325116  0.25209718  0.50052877  1
  Co  Co115  1  0.62883518  0.12603074  0.87419662  1
  Co  Co116  1  0.50110002  0.74573593  0.00206842  1
  Co  Co117  1  0.87831647  0.37511938  0.87394468  1
  Co  Co118  1  0.62016457  0.37593667  0.87525537  1
  Co  Co119  1  -0.00196161  0.24931458  0.24931330  1
  Co  Co120  1  0.74819868  0.49986902  0.25341606  1
  Co  Co121  1  0.00260419  0.74714244  -0.00010358  1
  Co  Co122  1  0.12531557  0.87457303  0.12671669  1
  Co  Co123  1  0.87204543  0.62510755  0.87656103  1
  Co  Co124  1  0.62273520  0.87090440  0.87422812  1
  Co  Co125  1  0.00205103  -0.00098700  0.49840074  1
  Co  Co126  1  0.12553266  0.62461290  0.87133179  1
  Co  Co127  1  0.25211916  0.49812479  0.25137239  1
