# generated using pymatgen
data_Fe45Co19
_symmetry_space_group_name_H-M   'P 1'
_cell_length_a   11.41539082
_cell_length_b   11.41571775
_cell_length_c   11.41587574
_cell_angle_alpha   90.00589066
_cell_angle_beta   90.00121440
_cell_angle_gamma   89.99547982
_symmetry_Int_Tables_number   1
_chemical_formula_structural   Fe45Co19
_chemical_formula_sum   'Fe90 Co38'
_cell_volume   1487.65845976
_cell_formula_units_Z   2
loop_
 _symmetry_equiv_pos_site_id
 _symmetry_equiv_pos_as_xyz
  1  'x, y, z'
loop_
 _atom_site_type_symbol
 _atom_site_label
 _atom_site_symmetry_multiplicity
 _atom_site_fract_x
 _atom_site_fract_y
 _atom_site_fract_z
 _atom_site_occupancy
  Fe  Fe0  1  0.37470047  0.12680026  0.62311647  1
  Fe  Fe1  1  0.50064768  0.74777059  0.24979310  1
  Fe  Fe2  1  -0.00009366  0.24960115  0.24672889  1
  Fe  Fe3  1  -0.00005008  0.24906224  0.00192944  1
  Fe  Fe4  1  0.62589753  0.62280844  0.62512534  1
  Fe  Fe5  1  0.50143993  -0.00091680  0.50055181  1
  Fe  Fe6  1  0.75040341  0.00108262  -0.00260891  1
  Fe  Fe7  1  0.62706164  0.36849456  0.87833180  1
  Fe  Fe8  1  0.74958066  0.00071074  0.75046399  1
  Fe  Fe9  1  0.00115627  0.50013017  0.74927559  1
  Fe  Fe10  1  0.12309474  0.12453135  0.37258110  1
  Fe  Fe11  1  0.75079695  0.00278766  0.25226288  1
  Fe  Fe12  1  0.37479835  0.62518415  0.37873526  1
  Fe  Fe13  1  0.24954059  -0.00021116  0.25091050  1
  Fe  Fe14  1  0.00108258  0.25133515  0.50073719  1
  Fe  Fe15  1  0.24783248  0.25169923  0.49844952  1
  Fe  Fe16  1  0.12647312  0.12321962  0.62646250  1
  Fe  Fe17  1  0.37736907  0.87345898  0.12275676  1
  Fe  Fe18  1  0.00100258  0.49859608  0.00253633  1
  Fe  Fe19  1  0.87034383  0.37751364  0.12508048  1
  Fe  Fe20  1  0.74940080  0.74845053  -0.00148982  1
  Fe  Fe21  1  0.12521355  0.62498376  0.87591636  1
  Fe  Fe22  1  0.37618478  0.87402593  0.62354419  1
  Fe  Fe23  1  0.37610499  0.12659371  0.37512790  1
  Fe  Fe24  1  0.87234296  0.37336985  0.37261172  1
  Fe  Fe25  1  0.62306902  0.62164546  0.37715102  1
  Fe  Fe26  1  0.37576275  0.87290652  0.37651902  1
  Fe  Fe27  1  0.87151340  0.12651521  0.62081173  1
  Fe  Fe28  1  -0.00059527  0.24892652  0.74856560  1
  Fe  Fe29  1  0.87664570  0.62554142  0.37639742  1
  Fe  Fe30  1  0.37739685  0.87210929  0.87785010  1
  Fe  Fe31  1  0.62499547  0.12695386  0.12047404  1
  Fe  Fe32  1  0.24766109  0.50076751  0.00089944  1
  Fe  Fe33  1  0.37301588  0.62257432  0.62248655  1
  Fe  Fe34  1  0.62696039  0.12628226  0.62538413  1
  Fe  Fe35  1  0.24821365  0.75035329  0.24854583  1
  Fe  Fe36  1  0.87679940  0.12218835  0.12666915  1
  Fe  Fe37  1  0.37526621  0.37543678  0.37325771  1
  Fe  Fe38  1  0.24881531  0.50162503  0.24902282  1
  Fe  Fe39  1  0.87671554  0.62542837  0.87445286  1
  Fe  Fe40  1  0.25012165  -0.00107365  -0.00233684  1
  Fe  Fe41  1  0.50118287  0.25397852  0.50108313  1
  Fe  Fe42  1  0.00061264  0.75162660  0.24948405  1
  Fe  Fe43  1  0.50086839  0.49639260  0.00177722  1
  Fe  Fe44  1  0.87421617  0.12687058  0.87481389  1
  Fe  Fe45  1  0.37858586  0.12805937  0.87572942  1
  Fe  Fe46  1  0.87460694  0.87535427  0.37503684  1
  Fe  Fe47  1  0.12841359  0.62112543  0.62388199  1
  Fe  Fe48  1  0.00281175  0.75258669  -0.00126597  1
  Fe  Fe49  1  0.62541006  0.87568852  0.12432286  1
  Fe  Fe50  1  0.24893888  0.75020156  0.75149260  1
  Fe  Fe51  1  0.50068650  0.74888964  0.74824747  1
  Fe  Fe52  1  0.62646085  0.12590374  0.37783466  1
  Fe  Fe53  1  0.12323424  0.87878184  0.12430246  1
  Fe  Fe54  1  0.87423620  0.87277630  0.62727402  1
  Fe  Fe55  1  0.12355499  0.37446411  0.87412711  1
  Fe  Fe56  1  0.12360807  0.12134851  0.87334746  1
  Fe  Fe57  1  0.75211273  0.49813733  0.75369942  1
  Fe  Fe58  1  -0.00088732  -0.00047580  0.49905449  1
  Fe  Fe59  1  0.37026363  0.37640029  0.62534447  1
  Fe  Fe60  1  0.87339759  0.62562850  0.62604989  1
  Fe  Fe61  1  0.00350047  0.75153443  0.50227171  1
  Fe  Fe62  1  0.37348318  0.37354536  0.87532716  1
  Fe  Fe63  1  0.50042745  0.00108473  0.24883587  1
  Fe  Fe64  1  0.37395220  0.12573393  0.12589224  1
  Fe  Fe65  1  0.49964755  0.00282154  0.75119721  1
  Fe  Fe66  1  0.37458885  0.62709855  0.12209932  1
  Fe  Fe67  1  0.50237795  0.25189748  0.24733600  1
  Fe  Fe68  1  0.62383774  0.62426282  0.87486596  1
  Fe  Fe69  1  0.12459230  0.37531465  0.37134189  1
  Fe  Fe70  1  0.62322555  0.87546319  0.87499104  1
  Fe  Fe71  1  0.62713015  0.37852966  0.37175891  1
  Fe  Fe72  1  0.87754206  0.87306140  0.87157178  1
  Fe  Fe73  1  0.87630446  0.62454117  0.12421228  1
  Fe  Fe74  1  0.62431168  0.87509634  0.37495478  1
  Fe  Fe75  1  0.00049111  0.49792424  0.49975720  1
  Fe  Fe76  1  0.37221495  0.37387973  0.12611273  1
  Fe  Fe77  1  0.49844710  0.49657947  0.75055511  1
  Fe  Fe78  1  0.74709944  0.75094687  0.50128181  1
  Fe  Fe79  1  0.62783838  0.37534257  0.62622266  1
  Fe  Fe80  1  0.24721932  0.24820957  0.00157354  1
  Fe  Fe81  1  0.62575892  0.62131441  0.12419997  1
  Fe  Fe82  1  0.12510842  0.87860382  0.63050083  1
  Fe  Fe83  1  0.87425715  0.87607090  0.12531742  1
  Fe  Fe84  1  0.37534553  0.62618905  0.87766904  1
  Fe  Fe85  1  0.24919725  -0.00121507  0.49886870  1
  Fe  Fe86  1  0.24936474  0.24927465  0.75048573  1
  Fe  Fe87  1  0.12423205  0.62549861  0.37429697  1
  Fe  Fe88  1  0.87440569  0.37488951  0.62610662  1
  Fe  Fe89  1  0.74964591  0.74722215  0.25043198  1
  Co  Co90  1  0.25033362  0.50067325  0.75325648  1
  Co  Co91  1  0.63006542  0.37619913  0.12441904  1
  Co  Co92  1  0.49784121  0.25188613  0.00388295  1
  Co  Co93  1  0.49921929  0.49737373  0.50194468  1
  Co  Co94  1  0.49952051  0.00213539  -0.00025298  1
  Co  Co95  1  -0.00070567  -0.00080444  0.25261511  1
  Co  Co96  1  0.74874550  0.25292664  0.49850438  1
  Co  Co97  1  0.74904553  0.24637340  0.24930271  1
  Co  Co98  1  0.74797248  0.74946627  0.75140351  1
  Co  Co99  1  0.62360161  0.12969804  0.87521747  1
  Co  Co100  1  0.75225210  0.49941430  0.49961003  1
  Co  Co101  1  0.24832705  0.49689317  0.49658746  1
  Co  Co102  1  0.24460020  0.75234535  -0.00098584  1
  Co  Co103  1  -0.00162628  0.49893962  0.24989525  1
  Co  Co104  1  0.12470900  0.12189637  0.12538238  1
  Co  Co105  1  0.75479870  0.24804160  0.00093631  1
  Co  Co106  1  0.87616948  0.12659231  0.37598520  1
  Co  Co107  1  -0.00184910  0.00027710  -0.00215549  1
  Co  Co108  1  0.00350562  0.74650943  0.74880547  1
  Co  Co109  1  0.12513223  0.87499178  0.37426693  1
  Co  Co110  1  0.12691011  0.37509649  0.12563918  1
  Co  Co111  1  0.75073207  -0.00219672  0.49935911  1
  Co  Co112  1  0.75053096  0.50123407  -0.00358692  1
  Co  Co113  1  -0.00544899  0.00399243  0.74846862  1
  Co  Co114  1  0.49853780  0.25175020  0.74728641  1
  Co  Co115  1  0.75307416  0.25019739  0.75096875  1
  Co  Co116  1  0.75194503  0.50404444  0.25113752  1
  Co  Co117  1  0.50198277  0.74908009  0.50113646  1
  Co  Co118  1  0.12240293  0.62505852  0.12612214  1
  Co  Co119  1  0.24882335  0.24847850  0.25029079  1
  Co  Co120  1  0.50430784  0.74868231  0.00180317  1
  Co  Co121  1  0.87823570  0.37529380  0.87524609  1
  Co  Co122  1  0.25601771  0.00035445  0.75196824  1
  Co  Co123  1  0.24711892  0.75191142  0.50196249  1
  Co  Co124  1  0.49808290  0.50045853  0.24765030  1
  Co  Co125  1  0.62440512  0.87650908  0.62686324  1
  Co  Co126  1  0.12190125  0.87925085  0.87023302  1
  Co  Co127  1  0.12623742  0.37525827  0.62807545  1
