# generated using pymatgen
data_Fe45Co19
_symmetry_space_group_name_H-M   'P 1'
_cell_length_a   11.41454107
_cell_length_b   11.41520599
_cell_length_c   11.41527552
_cell_angle_alpha   89.99615153
_cell_angle_beta   89.99359600
_cell_angle_gamma   90.00896359
_symmetry_Int_Tables_number   1
_chemical_formula_structural   Fe45Co19
_chemical_formula_sum   'Fe90 Co38'
_cell_volume   1487.40280737
_cell_formula_units_Z   2
loop_
 _symmetry_equiv_pos_site_id
 _symmetry_equiv_pos_as_xyz
  1  'x, y, z'
loop_
 _atom_site_type_symbol
 _atom_site_label
 _atom_site_symmetry_multiplicity
 _atom_site_fract_x
 _atom_site_fract_y
 _atom_site_fract_z
 _atom_site_occupancy
  Fe  Fe0  1  0.50053613  0.24991584  0.24906195  1
  Fe  Fe1  1  0.50033195  0.74727745  0.50243128  1
  Fe  Fe2  1  0.50065134  0.49930912  0.50066148  1
  Fe  Fe3  1  0.24603658  0.74834882  -0.00249770  1
  Fe  Fe4  1  0.49960475  0.50096021  0.24989156  1
  Fe  Fe5  1  0.49802669  0.00116315  0.24895809  1
  Fe  Fe6  1  0.62215060  0.87486033  0.62936330  1
  Fe  Fe7  1  0.24961369  0.74733010  0.74931241  1
  Fe  Fe8  1  0.75008568  0.25065305  0.25091895  1
  Fe  Fe9  1  0.12362604  0.87849325  0.87372172  1
  Fe  Fe10  1  0.87714668  0.87418528  0.87664916  1
  Fe  Fe11  1  0.62698311  0.62157471  0.87503702  1
  Fe  Fe12  1  0.62643103  0.37427135  0.62978015  1
  Fe  Fe13  1  0.62562540  0.62261998  0.62783755  1
  Fe  Fe14  1  0.49881380  0.49953967  -0.00146230  1
  Fe  Fe15  1  0.00133308  0.74815171  0.24886024  1
  Fe  Fe16  1  0.62548818  0.12339455  0.37539183  1
  Fe  Fe17  1  0.12465907  0.87556039  0.37508023  1
  Fe  Fe18  1  0.00029404  0.50104120  0.25008241  1
  Fe  Fe19  1  -0.00040335  0.74987545  0.49919872  1
  Fe  Fe20  1  0.37323295  0.37229376  0.87668258  1
  Fe  Fe21  1  0.87354833  0.62819179  0.12182734  1
  Fe  Fe22  1  0.37277717  0.37380613  0.62578850  1
  Fe  Fe23  1  0.75121958  0.00055357  0.00001179  1
  Fe  Fe24  1  0.12375983  0.87584132  0.12378110  1
  Fe  Fe25  1  0.87529892  0.87550414  0.37518922  1
  Fe  Fe26  1  0.75495847  0.00129130  0.74782763  1
  Fe  Fe27  1  0.50132112  0.25286238  0.49914925  1
  Fe  Fe28  1  0.37355372  0.62568738  0.12266016  1
  Fe  Fe29  1  0.37416930  0.12798064  0.12030962  1
  Fe  Fe30  1  0.37420893  0.12681366  0.37673575  1
  Fe  Fe31  1  0.62593888  0.87382375  0.12524324  1
  Fe  Fe32  1  0.12429755  0.12389597  0.37358554  1
  Fe  Fe33  1  0.49763410  0.24779729  0.75218991  1
  Fe  Fe34  1  0.50347028  0.75030566  -0.00426091  1
  Fe  Fe35  1  0.00137793  0.25191503  0.49795314  1
  Fe  Fe36  1  0.87573834  0.87204969  0.12108262  1
  Fe  Fe37  1  0.25203838  -0.00047409  0.24975116  1
  Fe  Fe38  1  0.50030476  -0.00005247  0.00072108  1
  Fe  Fe39  1  0.12285958  0.37990854  0.87507644  1
  Fe  Fe40  1  0.74990037  0.49876663  0.50022485  1
  Fe  Fe41  1  0.12523872  0.12242097  0.87456598  1
  Fe  Fe42  1  0.49722407  0.00006577  0.50328753  1
  Fe  Fe43  1  0.87361458  0.62262092  0.37417330  1
  Fe  Fe44  1  0.24942771  0.74793689  0.50354678  1
  Fe  Fe45  1  0.75641277  0.49591673  0.75418599  1
  Fe  Fe46  1  -0.00208469  0.00128710  0.24661130  1
  Fe  Fe47  1  0.74854457  0.75056221  0.75355622  1
  Fe  Fe48  1  0.37360784  0.37477049  0.12223923  1
  Fe  Fe49  1  0.37226482  0.62243343  0.37818304  1
  Fe  Fe50  1  0.00120654  0.74864826  0.75360053  1
  Fe  Fe51  1  0.00530987  0.24746622  0.00303226  1
  Fe  Fe52  1  0.75295286  -0.00109718  0.50434314  1
  Fe  Fe53  1  -0.00223047  -0.00032031  0.50452950  1
  Fe  Fe54  1  0.62786544  0.62507423  0.12407487  1
  Fe  Fe55  1  0.12683904  0.38117677  0.12376096  1
  Fe  Fe56  1  0.37100706  0.37715965  0.37481890  1
  Fe  Fe57  1  0.24637494  0.25289548  0.50030017  1
  Fe  Fe58  1  0.37499420  0.87193005  0.12367986  1
  Fe  Fe59  1  0.87637140  0.62601407  0.62672122  1
  Fe  Fe60  1  0.74649590  0.25072953  -0.00284573  1
  Fe  Fe61  1  0.00115101  0.24971039  0.74989859  1
  Fe  Fe62  1  0.49840038  0.49934703  0.75095935  1
  Fe  Fe63  1  0.24738102  0.74715625  0.24919181  1
  Fe  Fe64  1  0.75061330  0.25151523  0.49902611  1
  Fe  Fe65  1  0.12410033  0.87457264  0.62697794  1
  Fe  Fe66  1  0.62680596  0.37813474  0.37326249  1
  Fe  Fe67  1  0.87770626  0.12708611  0.87578984  1
  Fe  Fe68  1  0.62371089  0.12311074  0.87380242  1
  Fe  Fe69  1  0.74953634  0.74987745  0.49921856  1
  Fe  Fe70  1  0.24861185  0.25010548  0.24749833  1
  Fe  Fe71  1  0.87545032  0.12530109  0.37552744  1
  Fe  Fe72  1  0.25502867  0.00390095  0.74763090  1
  Fe  Fe73  1  0.24766453  0.50042555  0.74680634  1
  Fe  Fe74  1  0.37434986  0.87316818  0.37594148  1
  Fe  Fe75  1  0.62475650  0.37589861  0.12360066  1
  Fe  Fe76  1  0.12471181  0.12604567  0.62601396  1
  Fe  Fe77  1  0.87543556  0.37319655  0.12361277  1
  Fe  Fe78  1  0.75165947  -0.00009066  0.24826354  1
  Fe  Fe79  1  0.62462131  0.87483369  0.37486562  1
  Fe  Fe80  1  0.62590148  0.12720385  0.62592746  1
  Fe  Fe81  1  0.00138468  0.25033738  0.24911357  1
  Fe  Fe82  1  0.37376177  0.62541303  0.87347886  1
  Fe  Fe83  1  0.00429439  0.49770353  0.50041659  1
  Fe  Fe84  1  0.24978084  -0.00045014  0.00020931  1
  Fe  Fe85  1  0.87639194  0.37253946  0.62580635  1
  Fe  Fe86  1  0.25114082  -0.00076318  0.50261359  1
  Fe  Fe87  1  0.75387020  0.49734020  -0.00284723  1
  Fe  Fe88  1  0.37786694  0.87556626  0.87155647  1
  Fe  Fe89  1  0.50127270  0.74760470  0.25141960  1
  Co  Co90  1  0.25078664  0.50330799  0.24931654  1
  Co  Co91  1  0.25235427  0.50098947  -0.00204335  1
  Co  Co92  1  0.24922316  0.24904067  0.75292737  1
  Co  Co93  1  0.12423952  0.61974548  0.87468979  1
  Co  Co94  1  0.62307950  0.37656356  0.87298911  1
  Co  Co95  1  0.49463197  0.00606820  0.74735771  1
  Co  Co96  1  0.12345087  0.37357105  0.62889175  1
  Co  Co97  1  0.88058595  0.36907227  0.87757971  1
  Co  Co98  1  0.74633655  0.75195888  -0.00367314  1
  Co  Co99  1  0.87504141  0.62872498  0.87649556  1
  Co  Co100  1  0.12590079  0.62481208  0.37643447  1
  Co  Co101  1  0.24390939  0.25172219  -0.00040313  1
  Co  Co102  1  0.12073933  0.62581290  0.62663543  1
  Co  Co103  1  0.87593666  0.13071654  0.62500911  1
  Co  Co104  1  0.37658065  0.87179013  0.62856579  1
  Co  Co105  1  0.75098503  0.49983683  0.24768378  1
  Co  Co106  1  0.87533234  0.37655172  0.37461303  1
  Co  Co107  1  0.87609215  0.86971406  0.62746631  1
  Co  Co108  1  0.62666710  0.62339351  0.37503584  1
  Co  Co109  1  -0.00481896  0.50006535  0.75085743  1
  Co  Co110  1  0.12746491  0.12143093  0.12633320  1
  Co  Co111  1  0.12560981  0.62116390  0.12161932  1
  Co  Co112  1  0.62323656  0.88048836  0.87122784  1
  Co  Co113  1  0.75080482  0.25107692  0.75321716  1
  Co  Co114  1  0.12738790  0.37628371  0.37131239  1
  Co  Co115  1  0.24556565  0.49889645  0.50424825  1
  Co  Co116  1  0.87363324  0.12868193  0.12350227  1
  Co  Co117  1  0.00541298  0.74878649  -0.00204515  1
  Co  Co118  1  0.37392571  0.12704413  0.88130007  1
  Co  Co119  1  -0.00324400  0.00045052  0.74795432  1
  Co  Co120  1  -0.00482265  0.50247530  -0.00124668  1
  Co  Co121  1  -0.00028022  0.00146105  0.00105263  1
  Co  Co122  1  0.75080773  0.75036277  0.25153242  1
  Co  Co123  1  0.62546169  0.12536292  0.12498217  1
  Co  Co124  1  0.50317374  0.25117684  -0.00172662  1
  Co  Co125  1  0.37351005  0.13108352  0.62110678  1
  Co  Co126  1  0.37602354  0.62286436  0.62530755  1
  Co  Co127  1  0.50183294  0.74668223  0.75213721  1
