# generated using pymatgen
data_Fe45Co19
_symmetry_space_group_name_H-M   'P 1'
_cell_length_a   11.41657419
_cell_length_b   11.41460283
_cell_length_c   11.41509914
_cell_angle_alpha   90.00147439
_cell_angle_beta   90.00686437
_cell_angle_gamma   89.99970246
_symmetry_Int_Tables_number   1
_chemical_formula_structural   Fe45Co19
_chemical_formula_sum   'Fe90 Co38'
_cell_volume   1487.56616731
_cell_formula_units_Z   2
loop_
 _symmetry_equiv_pos_site_id
 _symmetry_equiv_pos_as_xyz
  1  'x, y, z'
loop_
 _atom_site_type_symbol
 _atom_site_label
 _atom_site_symmetry_multiplicity
 _atom_site_fract_x
 _atom_site_fract_y
 _atom_site_fract_z
 _atom_site_occupancy
  Fe  Fe0  1  0.37525809  0.62543009  0.87529999  1
  Fe  Fe1  1  0.62514681  0.87388432  0.62523692  1
  Fe  Fe2  1  0.74856348  0.50037909  -0.00019533  1
  Fe  Fe3  1  0.50343270  0.00068829  -0.00346588  1
  Fe  Fe4  1  0.62574142  0.87550875  0.12600496  1
  Fe  Fe5  1  0.50219574  -0.00128706  0.75107141  1
  Fe  Fe6  1  0.37351021  0.37681562  0.37492180  1
  Fe  Fe7  1  0.24814686  0.50049867  0.50348110  1
  Fe  Fe8  1  0.74990400  0.24839412  0.24988879  1
  Fe  Fe9  1  0.25022798  0.00224959  0.24760091  1
  Fe  Fe10  1  0.24938895  0.00265859  -0.00336023  1
  Fe  Fe11  1  0.25002035  0.75079063  0.75021915  1
  Fe  Fe12  1  0.12419874  0.37324540  0.12374276  1
  Fe  Fe13  1  0.62306256  0.62516037  0.37338164  1
  Fe  Fe14  1  0.49855892  -0.00193690  0.25236080  1
  Fe  Fe15  1  0.25067048  0.24772137  0.75188883  1
  Fe  Fe16  1  0.50069242  0.24996796  0.75250296  1
  Fe  Fe17  1  0.50190973  0.49648781  0.49941280  1
  Fe  Fe18  1  0.50282814  0.49770984  -0.00265290  1
  Fe  Fe19  1  0.12049008  0.12832922  0.62647631  1
  Fe  Fe20  1  0.37586778  0.12247607  0.37893810  1
  Fe  Fe21  1  0.12642417  0.37474861  0.37373231  1
  Fe  Fe22  1  0.00054470  0.50076848  0.24937152  1
  Fe  Fe23  1  0.75760655  0.25020138  0.74620452  1
  Fe  Fe24  1  0.24854636  0.00227518  0.75289547  1
  Fe  Fe25  1  0.62316539  0.62674826  0.62503693  1
  Fe  Fe26  1  0.62612096  0.37233703  0.62512554  1
  Fe  Fe27  1  0.24989636  0.74986464  -0.00089344  1
  Fe  Fe28  1  0.62225798  0.62559609  0.12685475  1
  Fe  Fe29  1  -0.00012033  0.50029329  -0.00048791  1
  Fe  Fe30  1  0.74884654  0.50071193  0.50074418  1
  Fe  Fe31  1  0.87660870  0.62804864  0.12759558  1
  Fe  Fe32  1  0.12125794  0.36870034  0.87582957  1
  Fe  Fe33  1  0.62573240  0.62600161  0.87290006  1
  Fe  Fe34  1  0.75218149  -0.00213962  0.24803284  1
  Fe  Fe35  1  0.75174156  0.24624331  0.00281168  1
  Fe  Fe36  1  0.50274541  0.49832986  0.75176758  1
  Fe  Fe37  1  0.87516907  0.62760486  0.37251159  1
  Fe  Fe38  1  0.62384927  0.12484608  0.37634759  1
  Fe  Fe39  1  0.49911886  0.75283141  0.75192571  1
  Fe  Fe40  1  0.12483266  0.12656792  0.37378508  1
  Fe  Fe41  1  0.74943786  0.75047510  0.00103882  1
  Fe  Fe42  1  0.75017484  0.75020461  0.49866739  1
  Fe  Fe43  1  -0.00131992  0.75075522  0.75120306  1
  Fe  Fe44  1  -0.00121424  0.00224223  0.75284449  1
  Fe  Fe45  1  0.25278349  0.74686571  0.24876101  1
  Fe  Fe46  1  0.50107566  0.75265381  -0.00246164  1
  Fe  Fe47  1  0.62432108  0.37325505  0.12573034  1
  Fe  Fe48  1  0.50017073  0.25123462  0.25225146  1
  Fe  Fe49  1  0.37853760  0.12431923  0.62361472  1
  Fe  Fe50  1  0.37777874  0.37360802  0.12239896  1
  Fe  Fe51  1  0.49647106  0.75179036  0.25279321  1
  Fe  Fe52  1  0.00305317  -0.00032667  0.49777305  1
  Fe  Fe53  1  0.87601840  0.12321633  0.37537013  1
  Fe  Fe54  1  0.37196619  0.87786678  0.62321098  1
  Fe  Fe55  1  0.87595779  0.62183874  0.62728614  1
  Fe  Fe56  1  -0.00102480  0.74976146  -0.00172410  1
  Fe  Fe57  1  0.37589662  0.62422320  0.62454816  1
  Fe  Fe58  1  0.87028214  0.87924320  0.87634030  1
  Fe  Fe59  1  0.12635297  0.62569498  0.37495617  1
  Fe  Fe60  1  0.87586811  0.87728227  0.62341526  1
  Fe  Fe61  1  0.74852947  0.50069787  0.24968478  1
  Fe  Fe62  1  0.37559596  0.37383717  0.62619404  1
  Fe  Fe63  1  0.13049533  0.87414592  0.37583710  1
  Fe  Fe64  1  0.00153065  0.50051456  0.50019838  1
  Fe  Fe65  1  0.12482974  0.62560660  0.87375446  1
  Fe  Fe66  1  0.12252469  0.12733401  0.12303262  1
  Fe  Fe67  1  -0.00108525  -0.00417841  0.25041753  1
  Fe  Fe68  1  -0.00297028  0.00249893  -0.00021293  1
  Fe  Fe69  1  0.37859109  0.12627196  0.12106356  1
  Fe  Fe70  1  0.74693602  0.00052002  0.50241561  1
  Fe  Fe71  1  0.37459758  0.87580091  0.12272838  1
  Fe  Fe72  1  0.63057817  0.12393977  0.87241849  1
  Fe  Fe73  1  0.75082382  0.75101640  0.74933522  1
  Fe  Fe74  1  0.12390792  0.87400943  0.12283306  1
  Fe  Fe75  1  0.37507239  0.37186237  0.87664180  1
  Fe  Fe76  1  0.24934161  0.49962737  0.00023360  1
  Fe  Fe77  1  0.25240909  0.50345017  0.24597939  1
  Fe  Fe78  1  0.00057075  0.75022382  0.49953987  1
  Fe  Fe79  1  0.75295018  0.24897257  0.50236106  1
  Fe  Fe80  1  0.87495295  0.37471898  0.12518007  1
  Fe  Fe81  1  0.24988711  0.24851885  0.50019280  1
  Fe  Fe82  1  0.12568658  0.87457871  0.62598919  1
  Fe  Fe83  1  0.24748326  0.49910125  0.75022846  1
  Fe  Fe84  1  0.87372947  0.37554320  0.37580722  1
  Fe  Fe85  1  0.11989556  0.37109458  0.62666821  1
  Fe  Fe86  1  0.87318840  0.62109624  0.87197008  1
  Fe  Fe87  1  0.49683348  0.75485084  0.49600635  1
  Fe  Fe88  1  -0.00087155  0.25103934  0.25032006  1
  Fe  Fe89  1  0.25209238  0.24852597  0.24813458  1
  Co  Co90  1  0.37367468  0.87607930  0.87506636  1
  Co  Co91  1  0.12367266  0.62683256  0.62694205  1
  Co  Co92  1  0.74974699  0.00183776  0.00641285  1
  Co  Co93  1  0.37608365  0.12547573  0.87618940  1
  Co  Co94  1  0.87599768  0.87219669  0.12401972  1
  Co  Co95  1  0.25114862  0.74778272  0.50096629  1
  Co  Co96  1  0.74941661  -0.00016268  0.74410106  1
  Co  Co97  1  0.25067382  0.24862820  0.00129801  1
  Co  Co98  1  0.37642543  0.62151221  0.37755949  1
  Co  Co99  1  0.62238805  0.12809987  0.62574823  1
  Co  Co100  1  0.87337844  0.37744243  0.87687629  1
  Co  Co101  1  0.37877003  0.62474853  0.12112456  1
  Co  Co102  1  0.87795528  0.37976647  0.62354419  1
  Co  Co103  1  0.62243370  0.12387201  0.12869487  1
  Co  Co104  1  0.50078937  0.49785444  0.24986037  1
  Co  Co105  1  0.87334294  0.87533143  0.37705885  1
  Co  Co106  1  0.87697931  0.12452611  0.12944106  1
  Co  Co107  1  0.86981738  0.12128938  0.87521620  1
  Co  Co108  1  0.00235670  0.49859368  0.75172518  1
  Co  Co109  1  0.74922847  0.75092395  0.24954417  1
  Co  Co110  1  0.74675636  0.49893973  0.74820016  1
  Co  Co111  1  -0.00893730  0.24820585  0.75220982  1
  Co  Co112  1  0.50295154  -0.00300805  0.50070862  1
  Co  Co113  1  0.62760475  0.87642839  0.37338640  1
  Co  Co114  1  0.63044356  0.37096447  0.87394617  1
  Co  Co115  1  0.36822769  0.87959128  0.37634037  1
  Co  Co116  1  0.62815380  0.37353381  0.37539471  1
  Co  Co117  1  0.12300271  0.12922946  0.87599217  1
  Co  Co118  1  0.00208433  0.75337450  0.25199271  1
  Co  Co119  1  0.12382769  0.87586829  0.87534701  1
  Co  Co120  1  -0.00594492  0.24775038  -0.00052214  1
  Co  Co121  1  -0.00148140  0.25023989  0.49781999  1
  Co  Co122  1  0.87872918  0.12072773  0.62164246  1
  Co  Co123  1  0.50510913  0.24812471  -0.00218438  1
  Co  Co124  1  0.49897197  0.25231655  0.49848897  1
  Co  Co125  1  0.12291750  0.62648759  0.12417721  1
  Co  Co126  1  0.62993157  0.87664002  0.87492679  1
  Co  Co127  1  0.24633648  0.00477989  0.50292679  1
