# generated using pymatgen
data_Fe45Co19
_symmetry_space_group_name_H-M   'P 1'
_cell_length_a   11.41509098
_cell_length_b   11.41452031
_cell_length_c   11.41446021
_cell_angle_alpha   90.00262555
_cell_angle_beta   89.99971336
_cell_angle_gamma   90.01041855
_symmetry_Int_Tables_number   1
_chemical_formula_structural   Fe45Co19
_chemical_formula_sum   'Fe90 Co38'
_cell_volume   1487.27888809
_cell_formula_units_Z   2
loop_
 _symmetry_equiv_pos_site_id
 _symmetry_equiv_pos_as_xyz
  1  'x, y, z'
loop_
 _atom_site_type_symbol
 _atom_site_label
 _atom_site_symmetry_multiplicity
 _atom_site_fract_x
 _atom_site_fract_y
 _atom_site_fract_z
 _atom_site_occupancy
  Fe  Fe0  1  0.37519835  0.87679949  0.62569800  1
  Fe  Fe1  1  0.87251193  0.87574608  0.12621415  1
  Fe  Fe2  1  0.25193482  0.00124899  0.25116414  1
  Fe  Fe3  1  0.37352491  0.37475621  0.87778901  1
  Fe  Fe4  1  0.00309119  0.49875096  0.49105928  1
  Fe  Fe5  1  0.12617664  0.87471355  0.62770045  1
  Fe  Fe6  1  -0.00000558  0.49658888  0.00217457  1
  Fe  Fe7  1  0.87752425  0.13186543  0.87947369  1
  Fe  Fe8  1  0.24811178  -0.00173286  -0.00159988  1
  Fe  Fe9  1  0.62413376  0.62305216  0.62369882  1
  Fe  Fe10  1  0.24838972  0.25187995  0.00211976  1
  Fe  Fe11  1  0.25064742  0.74946614  0.49936456  1
  Fe  Fe12  1  0.50248771  0.75319789  0.50235967  1
  Fe  Fe13  1  0.74696552  -0.00072688  0.49950795  1
  Fe  Fe14  1  0.74912787  -0.00037887  -0.00151395  1
  Fe  Fe15  1  0.37639767  0.12454203  0.12110210  1
  Fe  Fe16  1  0.37586987  0.62638835  0.87762121  1
  Fe  Fe17  1  0.37684393  0.87717721  0.12411639  1
  Fe  Fe18  1  0.75281678  0.49626491  -0.00013533  1
  Fe  Fe19  1  0.74997487  0.74272462  0.24714923  1
  Fe  Fe20  1  0.37712920  0.37422976  0.37191196  1
  Fe  Fe21  1  0.24715417  0.49996993  0.49318302  1
  Fe  Fe22  1  0.25092245  0.00056694  0.49661813  1
  Fe  Fe23  1  0.50071383  0.00311406  0.25114105  1
  Fe  Fe24  1  0.50347148  -0.00251182  0.75158316  1
  Fe  Fe25  1  0.62612618  0.12592888  0.12251219  1
  Fe  Fe26  1  0.12584240  0.87166987  0.37133024  1
  Fe  Fe27  1  0.74790175  0.75005266  0.50093901  1
  Fe  Fe28  1  0.87324487  0.37796278  0.62304356  1
  Fe  Fe29  1  0.87461737  0.62198408  0.62012145  1
  Fe  Fe30  1  0.87201048  0.87399626  0.37321796  1
  Fe  Fe31  1  0.00000483  -0.00301728  -0.00100873  1
  Fe  Fe32  1  0.24932449  -0.00058139  0.75341675  1
  Fe  Fe33  1  0.50165823  0.74591434  0.24415741  1
  Fe  Fe34  1  0.87527422  0.62501495  0.87852910  1
  Fe  Fe35  1  0.87100636  0.87241979  0.87248611  1
  Fe  Fe36  1  0.62509127  0.12882621  0.87760519  1
  Fe  Fe37  1  0.75105956  0.00484041  0.25019908  1
  Fe  Fe38  1  0.12492573  0.37810556  0.13154639  1
  Fe  Fe39  1  0.75225852  0.25076624  0.74888540  1
  Fe  Fe40  1  0.37718156  0.12281290  0.62340419  1
  Fe  Fe41  1  0.12416607  0.62626928  0.87486103  1
  Fe  Fe42  1  0.37804047  0.87495618  0.37363834  1
  Fe  Fe43  1  0.50232244  0.75105805  0.75018298  1
  Fe  Fe44  1  0.74678350  0.75028376  0.00382504  1
  Fe  Fe45  1  0.37510947  0.37753692  0.62434479  1
  Fe  Fe46  1  0.25094602  0.24966243  0.74920766  1
  Fe  Fe47  1  0.49913093  0.25177395  0.75049289  1
  Fe  Fe48  1  0.74451862  0.49707665  0.49427440  1
  Fe  Fe49  1  0.49952624  0.49534388  0.00316435  1
  Fe  Fe50  1  -0.00173028  0.49990320  0.75032967  1
  Fe  Fe51  1  0.37744754  0.62547896  0.37446516  1
  Fe  Fe52  1  0.12542318  0.37531306  0.62374828  1
  Fe  Fe53  1  0.50233766  0.25283202  0.50036843  1
  Fe  Fe54  1  -0.00822559  0.24736630  0.24852256  1
  Fe  Fe55  1  0.00004417  -0.00334180  0.49867820  1
  Fe  Fe56  1  -0.00207417  0.00070209  0.75197379  1
  Fe  Fe57  1  0.63082788  0.37665384  0.13199630  1
  Fe  Fe58  1  0.62344068  0.62587754  0.87960818  1
  Fe  Fe59  1  -0.00295227  0.00041971  0.25085733  1
  Fe  Fe60  1  0.50066655  0.49971298  0.75119069  1
  Fe  Fe61  1  0.62623275  0.37423053  0.87429545  1
  Fe  Fe62  1  0.25088981  0.24975883  0.49879742  1
  Fe  Fe63  1  0.49856065  0.24985404  0.24576413  1
  Fe  Fe64  1  0.25280884  0.24845018  0.24912862  1
  Fe  Fe65  1  0.12265888  0.12402834  0.12502193  1
  Fe  Fe66  1  0.75050115  0.50182065  0.75145471  1
  Fe  Fe67  1  -0.00011223  0.75157115  0.00231437  1
  Fe  Fe68  1  0.50404943  0.49617997  0.49630112  1
  Fe  Fe69  1  0.12482430  0.87375139  0.12777087  1
  Fe  Fe70  1  0.12269586  0.37320326  0.87320537  1
  Fe  Fe71  1  -0.00029298  0.75184054  0.49917505  1
  Fe  Fe72  1  0.37513433  0.62291954  0.62474728  1
  Fe  Fe73  1  0.24999247  0.75075729  0.00021172  1
  Fe  Fe74  1  -0.00233659  0.74803345  0.74846746  1
  Fe  Fe75  1  0.24951647  0.50071194  0.75149863  1
  Fe  Fe76  1  0.62496469  0.87289465  0.37116441  1
  Fe  Fe77  1  0.37283367  0.61983666  0.12432346  1
  Fe  Fe78  1  0.62547712  0.12913031  0.37622519  1
  Fe  Fe79  1  0.12110419  0.12869137  0.87599456  1
  Fe  Fe80  1  0.87003200  0.87520549  0.62857457  1
  Fe  Fe81  1  0.62460899  0.12552665  0.62427096  1
  Fe  Fe82  1  -0.00323094  0.25179080  0.49882047  1
  Fe  Fe83  1  0.12415842  0.12508123  0.62458042  1
  Fe  Fe84  1  0.12440771  0.62471852  0.13099623  1
  Fe  Fe85  1  0.37707754  0.12578094  0.87825815  1
  Fe  Fe86  1  0.12554872  0.62444590  0.62402274  1
  Fe  Fe87  1  0.50389553  -0.00425629  -0.00164271  1
  Fe  Fe88  1  0.87455096  0.12400373  0.62231753  1
  Fe  Fe89  1  0.12352419  0.12647882  0.37407475  1
  Co  Co90  1  0.75167584  0.50965668  0.25375160  1
  Co  Co91  1  0.12283207  0.36894264  0.37038461  1
  Co  Co92  1  0.50179713  0.25524864  0.00355831  1
  Co  Co93  1  -0.00605164  0.74909812  0.24960036  1
  Co  Co94  1  0.24615817  0.49987393  -0.00078115  1
  Co  Co95  1  0.12389748  0.87256082  0.87355749  1
  Co  Co96  1  0.50354208  -0.00159220  0.49839458  1
  Co  Co97  1  0.62221250  0.62744237  0.37612103  1
  Co  Co98  1  0.75084079  0.00681896  0.75316377  1
  Co  Co99  1  0.00008643  0.25654447  0.00679613  1
  Co  Co100  1  0.62948133  0.87607968  0.62852087  1
  Co  Co101  1  0.74925303  0.25236502  0.50186601  1
  Co  Co102  1  0.62948357  0.87174359  0.87266064  1
  Co  Co103  1  0.62887996  0.37078383  0.36603191  1
  Co  Co104  1  0.87675454  0.37287137  0.87439642  1
  Co  Co105  1  0.86968094  0.37437487  0.37165681  1
  Co  Co106  1  0.87518904  0.12322074  0.38004435  1
  Co  Co107  1  0.62670314  0.87758517  0.12887842  1
  Co  Co108  1  0.87662869  0.62256503  0.12151540  1
  Co  Co109  1  0.87610067  0.12205455  0.11804603  1
  Co  Co110  1  -0.00222913  0.25114487  0.74501138  1
  Co  Co111  1  0.50183334  0.75191867  0.00443685  1
  Co  Co112  1  0.25095776  0.74879307  0.75027091  1
  Co  Co113  1  0.75634769  0.24211934  0.24746556  1
  Co  Co114  1  0.12509488  0.63143155  0.37006401  1
  Co  Co115  1  0.87126775  0.37963892  0.13100371  1
  Co  Co116  1  0.37187764  0.37783382  0.12623163  1
  Co  Co117  1  0.24952696  0.49999403  0.25634659  1
  Co  Co118  1  0.50114539  0.50117712  0.24978497  1
  Co  Co119  1  0.87505045  0.62652505  0.38019426  1
  Co  Co120  1  0.75026932  0.25392816  0.00297071  1
  Co  Co121  1  0.62549582  0.61948180  0.12054102  1
  Co  Co122  1  0.37719717  0.12726666  0.37628277  1
  Co  Co123  1  0.37616436  0.87341177  0.87602872  1
  Co  Co124  1  0.25526642  0.75075283  0.24795807  1
  Co  Co125  1  -0.00352078  0.50292894  0.25437925  1
  Co  Co126  1  0.62525793  0.37589167  0.62820764  1
  Co  Co127  1  0.74938388  0.74181519  0.74890697  1
