# generated using pymatgen
data_Fe45Co19
_symmetry_space_group_name_H-M   'P 1'
_cell_length_a   11.41495697
_cell_length_b   11.41606573
_cell_length_c   11.41509844
_cell_angle_alpha   89.99201796
_cell_angle_beta   89.99109487
_cell_angle_gamma   90.00250365
_symmetry_Int_Tables_number   1
_chemical_formula_structural   Fe45Co19
_chemical_formula_sum   'Fe90 Co38'
_cell_volume   1487.54595182
_cell_formula_units_Z   2
loop_
 _symmetry_equiv_pos_site_id
 _symmetry_equiv_pos_as_xyz
  1  'x, y, z'
loop_
 _atom_site_type_symbol
 _atom_site_label
 _atom_site_symmetry_multiplicity
 _atom_site_fract_x
 _atom_site_fract_y
 _atom_site_fract_z
 _atom_site_occupancy
  Fe  Fe0  1  0.87651584  0.87652744  0.87269872  1
  Fe  Fe1  1  0.00207498  0.00386473  0.74505357  1
  Fe  Fe2  1  0.00325054  -0.00098189  0.24966496  1
  Fe  Fe3  1  0.00061352  0.25209836  0.25017463  1
  Fe  Fe4  1  0.12614683  0.37618208  0.87379036  1
  Fe  Fe5  1  0.24850367  0.50146531  0.25068650  1
  Fe  Fe6  1  0.75002107  0.00117731  0.50033890  1
  Fe  Fe7  1  0.37561027  0.12283915  0.87375142  1
  Fe  Fe8  1  0.87676945  0.62520003  0.62430982  1
  Fe  Fe9  1  0.62341703  0.12616110  0.12555839  1
  Fe  Fe10  1  0.00137842  0.49811764  0.74864097  1
  Fe  Fe11  1  0.87467400  0.87634692  0.62506908  1
  Fe  Fe12  1  0.62908178  0.87225437  0.62577767  1
  Fe  Fe13  1  0.49727763  0.25260703  0.74865087  1
  Fe  Fe14  1  0.62545648  0.87373988  0.12544796  1
  Fe  Fe15  1  0.62714928  0.37238842  0.62217104  1
  Fe  Fe16  1  0.25092289  -0.00221082  0.00025014  1
  Fe  Fe17  1  0.62345659  0.62641495  0.62735565  1
  Fe  Fe18  1  0.00060565  0.50199515  0.49909828  1
  Fe  Fe19  1  0.25014187  0.50406151  -0.00268237  1
  Fe  Fe20  1  0.62381003  0.87286055  0.87336303  1
  Fe  Fe21  1  0.62701351  0.62412836  0.37366420  1
  Fe  Fe22  1  0.37321361  0.37867198  0.87219760  1
  Fe  Fe23  1  0.49938236  0.50144921  0.00071744  1
  Fe  Fe24  1  -0.00075008  0.74939608  0.00131450  1
  Fe  Fe25  1  0.25102508  0.75129236  0.25364721  1
  Fe  Fe26  1  0.74786970  0.00043270  0.25135616  1
  Fe  Fe27  1  0.49937472  0.75031735  0.50145083  1
  Fe  Fe28  1  0.49643416  0.25006073  -0.00096716  1
  Fe  Fe29  1  0.12807902  0.12393369  0.37474847  1
  Fe  Fe30  1  0.37220381  0.87100385  0.62645905  1
  Fe  Fe31  1  0.00287405  0.74972548  0.74931535  1
  Fe  Fe32  1  0.00142334  0.00104452  0.00168856  1
  Fe  Fe33  1  0.12262233  0.62540268  0.37624926  1
  Fe  Fe34  1  0.87364508  0.12627565  0.12636593  1
  Fe  Fe35  1  0.25562549  0.25152961  0.49616811  1
  Fe  Fe36  1  0.12641533  0.37590670  0.37577572  1
  Fe  Fe37  1  0.87515246  0.37413990  0.87684847  1
  Fe  Fe38  1  0.25027216  0.74527397  0.50268030  1
  Fe  Fe39  1  0.87518304  0.12489845  0.87373688  1
  Fe  Fe40  1  0.62610141  0.62784314  0.12627334  1
  Fe  Fe41  1  0.87664558  0.12338620  0.37564618  1
  Fe  Fe42  1  -0.00037449  0.74860661  0.25095561  1
  Fe  Fe43  1  0.74930072  0.25137089  0.25229031  1
  Fe  Fe44  1  0.00013213  0.24725778  0.50152796  1
  Fe  Fe45  1  0.62294722  0.12550661  0.87512683  1
  Fe  Fe46  1  0.87666799  0.87602097  0.37608850  1
  Fe  Fe47  1  0.75274946  0.74739309  0.49767077  1
  Fe  Fe48  1  0.87700450  0.62380153  0.87394006  1
  Fe  Fe49  1  0.87235924  0.62297909  0.13114394  1
  Fe  Fe50  1  0.49883082  0.75246258  0.25015995  1
  Fe  Fe51  1  0.62550931  0.12823053  0.62210016  1
  Fe  Fe52  1  0.62289775  0.37474370  0.37787909  1
  Fe  Fe53  1  0.75058411  0.24890647  0.75079087  1
  Fe  Fe54  1  0.49732944  -0.00190819  0.00344323  1
  Fe  Fe55  1  0.50031653  0.50151043  0.24785841  1
  Fe  Fe56  1  0.12715712  0.37411611  0.12575824  1
  Fe  Fe57  1  0.75107802  0.74937375  -0.00116295  1
  Fe  Fe58  1  0.24890014  -0.00151528  0.75088224  1
  Fe  Fe59  1  0.74965828  0.00063553  -0.00182815  1
  Fe  Fe60  1  0.12971763  0.12588543  0.12822335  1
  Fe  Fe61  1  0.37328696  0.62881956  0.12367327  1
  Fe  Fe62  1  0.12759304  0.87215279  0.12428199  1
  Fe  Fe63  1  0.50164711  -0.00182101  0.74593338  1
  Fe  Fe64  1  0.74935481  0.49961139  0.00178322  1
  Fe  Fe65  1  0.00098287  0.50072888  0.00476563  1
  Fe  Fe66  1  0.87277486  0.37369035  0.62266238  1
  Fe  Fe67  1  0.87415571  0.37920853  0.37492704  1
  Fe  Fe68  1  0.00307355  0.24806616  0.74661645  1
  Fe  Fe69  1  0.61741467  0.12341097  0.37836928  1
  Fe  Fe70  1  0.37110371  0.38099612  0.62662844  1
  Fe  Fe71  1  0.25088905  0.74972729  -0.00977182  1
  Fe  Fe72  1  0.12470346  0.87314689  0.62404609  1
  Fe  Fe73  1  0.37379391  0.12494026  0.62442803  1
  Fe  Fe74  1  0.12653066  0.12473400  0.87390704  1
  Fe  Fe75  1  0.25055397  -0.00143428  0.49841602  1
  Fe  Fe76  1  0.49430410  0.24893744  0.25262074  1
  Fe  Fe77  1  0.62148604  0.87737184  0.37600205  1
  Fe  Fe78  1  0.87391264  0.87588431  0.12647895  1
  Fe  Fe79  1  0.50018598  0.49980969  0.50204325  1
  Fe  Fe80  1  0.37362415  0.37515413  0.12642521  1
  Fe  Fe81  1  0.37678940  0.62379797  0.37644371  1
  Fe  Fe82  1  0.00075857  0.24934419  0.00101466  1
  Fe  Fe83  1  0.12961328  0.37586951  0.62466612  1
  Fe  Fe84  1  0.12395218  0.87452428  0.37753061  1
  Fe  Fe85  1  0.62451175  0.37173784  0.12370167  1
  Fe  Fe86  1  0.62600980  0.37427837  0.87610754  1
  Fe  Fe87  1  0.25119038  0.24997074  -0.00137855  1
  Fe  Fe88  1  0.62175257  0.62637321  0.87302705  1
  Fe  Fe89  1  0.74950001  0.50142822  0.74879231  1
  Co  Co90  1  0.37706518  0.87511255  0.37847095  1
  Co  Co91  1  0.25336852  0.25119396  0.25459779  1
  Co  Co92  1  0.37764392  0.11887054  0.37624756  1
  Co  Co93  1  0.87385889  0.62096023  0.37115740  1
  Co  Co94  1  0.11925171  0.62365598  0.87614731  1
  Co  Co95  1  0.25089906  0.24975313  0.75096370  1
  Co  Co96  1  0.12883174  0.62932973  0.12411461  1
  Co  Co97  1  0.24692855  0.50797071  0.75187329  1
  Co  Co98  1  0.37169290  0.86992678  0.12335136  1
  Co  Co99  1  0.37178452  0.12608116  0.12612229  1
  Co  Co100  1  0.75217651  0.74774283  0.75104105  1
  Co  Co101  1  0.12277466  0.62391512  0.62403000  1
  Co  Co102  1  0.49282209  0.25308692  0.50099391  1
  Co  Co103  1  0.37643975  0.38145061  0.37357435  1
  Co  Co104  1  0.24949648  0.50336996  0.49829454  1
  Co  Co105  1  0.13118269  0.12675196  0.62161038  1
  Co  Co106  1  0.49559409  -0.00324965  0.24575560  1
  Co  Co107  1  0.38167918  0.62426571  0.87080170  1
  Co  Co108  1  0.75061652  0.24840437  -0.00040081  1
  Co  Co109  1  0.00106630  0.00222167  0.50185742  1
  Co  Co110  1  0.24697979  0.74628054  0.75265627  1
  Co  Co111  1  0.25227948  -0.00422153  0.25065867  1
  Co  Co112  1  0.49780410  0.75299486  0.74748407  1
  Co  Co113  1  0.49907833  -0.00336380  0.50695391  1
  Co  Co114  1  0.49978365  0.75079063  0.00050161  1
  Co  Co115  1  -0.00226395  0.74877608  0.49866069  1
  Co  Co116  1  0.74592577  0.49500093  0.24901079  1
  Co  Co117  1  0.74865551  0.50320422  0.50180658  1
  Co  Co118  1  0.75189177  0.24835582  0.49587990  1
  Co  Co119  1  0.87176769  0.12479219  0.62459100  1
  Co  Co120  1  0.00498739  0.50052519  0.24865423  1
  Co  Co121  1  0.74946933  0.75347479  0.25287679  1
  Co  Co122  1  0.37762298  0.62293325  0.62763128  1
  Co  Co123  1  0.74780759  0.00104989  0.75050288  1
  Co  Co124  1  0.87508565  0.37454817  0.12493274  1
  Co  Co125  1  0.12151115  0.87693031  0.87406024  1
  Co  Co126  1  0.37801732  0.87634200  0.87246547  1
  Co  Co127  1  0.50352419  0.49571310  0.74857228  1
