# generated using pymatgen
data_Fe45Co19
_symmetry_space_group_name_H-M   'P 1'
_cell_length_a   11.41431597
_cell_length_b   11.41504227
_cell_length_c   11.41668959
_cell_angle_alpha   90.00128569
_cell_angle_beta   89.99716194
_cell_angle_gamma   89.99291118
_symmetry_Int_Tables_number   1
_chemical_formula_structural   Fe45Co19
_chemical_formula_sum   'Fe90 Co38'
_cell_volume   1487.53640720
_cell_formula_units_Z   2
loop_
 _symmetry_equiv_pos_site_id
 _symmetry_equiv_pos_as_xyz
  1  'x, y, z'
loop_
 _atom_site_type_symbol
 _atom_site_label
 _atom_site_symmetry_multiplicity
 _atom_site_fract_x
 _atom_site_fract_y
 _atom_site_fract_z
 _atom_site_occupancy
  Fe  Fe0  1  -0.00310920  0.75186423  0.49811712  1
  Fe  Fe1  1  0.50239180  0.75137733  0.74931441  1
  Fe  Fe2  1  0.50214595  0.75217205  -0.00103217  1
  Fe  Fe3  1  0.37281115  0.87620831  0.12518135  1
  Fe  Fe4  1  0.00349058  0.24925792  0.00050554  1
  Fe  Fe5  1  0.00054894  -0.00604853  0.25039418  1
  Fe  Fe6  1  0.12473703  0.87453047  0.62436003  1
  Fe  Fe7  1  0.50278149  0.24780373  0.24928797  1
  Fe  Fe8  1  0.75041800  0.75143603  0.25212480  1
  Fe  Fe9  1  0.25023460  0.50087818  0.24822767  1
  Fe  Fe10  1  0.25067538  0.00115513  0.75033176  1
  Fe  Fe11  1  0.25074907  0.24646364  0.24862523  1
  Fe  Fe12  1  0.75150521  0.75141292  -0.00400195  1
  Fe  Fe13  1  0.62560493  0.62245829  0.87496535  1
  Fe  Fe14  1  0.50124432  -0.00238317  -0.00252066  1
  Fe  Fe15  1  0.25223622  0.74656587  0.50097456  1
  Fe  Fe16  1  0.12342761  0.12640380  0.62622404  1
  Fe  Fe17  1  0.87665644  0.62531278  0.37409402  1
  Fe  Fe18  1  0.50464795  0.25135441  -0.00281741  1
  Fe  Fe19  1  -0.00075396  0.49748304  0.24806781  1
  Fe  Fe20  1  0.49667896  0.50160961  0.49854629  1
  Fe  Fe21  1  0.12335144  0.87657663  0.87409260  1
  Fe  Fe22  1  0.12738978  0.37508397  0.37380168  1
  Fe  Fe23  1  0.49976529  0.50041200  0.00112168  1
  Fe  Fe24  1  0.87674162  0.37242584  0.62337292  1
  Fe  Fe25  1  0.00145112  0.49750839  0.00330653  1
  Fe  Fe26  1  0.12425359  0.62588863  0.37541504  1
  Fe  Fe27  1  0.87383067  0.12497909  0.12577455  1
  Fe  Fe28  1  0.62586317  0.62661821  0.62521812  1
  Fe  Fe29  1  0.25002220  0.00137908  0.50086873  1
  Fe  Fe30  1  -0.00521834  0.74814033  0.75136641  1
  Fe  Fe31  1  0.24907978  0.24786138  0.49936279  1
  Fe  Fe32  1  0.50142149  -0.00112037  0.25076452  1
  Fe  Fe33  1  -0.00263119  -0.00130958  0.50089032  1
  Fe  Fe34  1  0.87524640  0.62734806  0.12488391  1
  Fe  Fe35  1  0.37356501  0.37290444  0.12289058  1
  Fe  Fe36  1  0.37449435  0.87434433  0.87270917  1
  Fe  Fe37  1  0.74858740  0.24973847  0.75052931  1
  Fe  Fe38  1  0.37330160  0.37451466  0.62469636  1
  Fe  Fe39  1  0.62568828  0.37174613  0.37495524  1
  Fe  Fe40  1  0.62319042  0.62441112  0.37292064  1
  Fe  Fe41  1  0.62770728  0.87698947  0.37982848  1
  Fe  Fe42  1  0.37452148  0.62475195  0.87297247  1
  Fe  Fe43  1  0.87871924  0.13105425  0.62441520  1
  Fe  Fe44  1  0.87331978  0.37480054  0.87769832  1
  Fe  Fe45  1  -0.00315190  -0.00019209  0.74810608  1
  Fe  Fe46  1  0.00077797  0.25022712  0.24859984  1
  Fe  Fe47  1  0.12838351  0.12072108  0.12437490  1
  Fe  Fe48  1  0.37755930  0.62887017  0.12743272  1
  Fe  Fe49  1  0.74838874  0.00238853  0.25196609  1
  Fe  Fe50  1  0.37623722  0.12234747  0.12283342  1
  Fe  Fe51  1  0.61944240  0.12682303  0.62763829  1
  Fe  Fe52  1  0.74498523  0.25048319  0.00220273  1
  Fe  Fe53  1  0.50147211  0.00062402  0.50376566  1
  Fe  Fe54  1  0.62384806  0.37502519  0.62545187  1
  Fe  Fe55  1  0.12554952  0.37413948  0.62393978  1
  Fe  Fe56  1  0.62972178  0.87879810  0.86811942  1
  Fe  Fe57  1  0.24913121  0.24836698  0.75224044  1
  Fe  Fe58  1  0.75036260  0.50031484  0.50009475  1
  Fe  Fe59  1  0.87221050  0.37015237  0.37500137  1
  Fe  Fe60  1  0.49866087  0.49944435  0.24986766  1
  Fe  Fe61  1  0.37526120  0.87464878  0.62530560  1
  Fe  Fe62  1  0.37796164  0.12449185  0.87372288  1
  Fe  Fe63  1  0.37752309  0.12461826  0.37686985  1
  Fe  Fe64  1  0.75131665  0.49725954  0.24767074  1
  Fe  Fe65  1  0.86736826  0.87135362  0.62473397  1
  Fe  Fe66  1  0.87312897  0.12672993  0.37592892  1
  Fe  Fe67  1  0.12358045  0.12203765  0.37496864  1
  Fe  Fe68  1  0.12343317  0.62699982  0.12562228  1
  Fe  Fe69  1  0.87578960  0.12637669  0.87460140  1
  Fe  Fe70  1  0.12403062  0.62422940  0.87548226  1
  Fe  Fe71  1  0.24760085  0.75326941  0.25117163  1
  Fe  Fe72  1  0.49996213  0.74858116  0.49968194  1
  Fe  Fe73  1  0.62433451  0.62687763  0.12624027  1
  Fe  Fe74  1  0.74834405  0.49797477  0.00379881  1
  Fe  Fe75  1  0.24990574  0.75009463  -0.00095292  1
  Fe  Fe76  1  -0.00269132  0.75449708  0.00124083  1
  Fe  Fe77  1  -0.00068545  -0.00196170  0.00071637  1
  Fe  Fe78  1  -0.00112041  0.49869316  0.75061577  1
  Fe  Fe79  1  0.37230621  0.37665282  0.87671880  1
  Fe  Fe80  1  0.24893688  0.74845373  0.74900262  1
  Fe  Fe81  1  0.62794489  0.87630374  0.12458462  1
  Fe  Fe82  1  0.12885223  0.37604590  0.87830954  1
  Fe  Fe83  1  0.37441504  0.87482751  0.37597794  1
  Fe  Fe84  1  0.75073857  0.00131946  -0.00201946  1
  Fe  Fe85  1  0.12356676  0.62356996  0.62414070  1
  Fe  Fe86  1  0.75381452  0.50305718  0.74899214  1
  Fe  Fe87  1  -0.00030042  0.49720061  0.49878411  1
  Fe  Fe88  1  0.49871004  0.49892836  0.75046310  1
  Fe  Fe89  1  0.37374103  0.37390093  0.37597901  1
  Co  Co90  1  0.62415511  0.12283595  0.87291971  1
  Co  Co91  1  0.12879546  0.87791650  0.12286434  1
  Co  Co92  1  0.62340381  0.12199607  0.12325362  1
  Co  Co93  1  0.25148585  0.50407775  0.00314851  1
  Co  Co94  1  -0.00024286  0.75476415  0.24955574  1
  Co  Co95  1  0.74734681  0.24799611  0.50334922  1
  Co  Co96  1  0.87664512  0.62503365  0.62158124  1
  Co  Co97  1  0.87690136  0.62062493  0.88038988  1
  Co  Co98  1  0.25152643  0.00013746  -0.00495046  1
  Co  Co99  1  0.74936959  0.74603292  0.49679515  1
  Co  Co100  1  0.75010015  0.00629071  0.50441141  1
  Co  Co101  1  0.62702114  0.37820897  0.87279023  1
  Co  Co102  1  0.87579295  0.37138314  0.12397723  1
  Co  Co103  1  0.24803040  0.50060180  0.74935095  1
  Co  Co104  1  0.00237004  0.25083341  0.49648611  1
  Co  Co105  1  0.37578140  0.12668534  0.62565325  1
  Co  Co106  1  0.50301341  0.75565689  0.25062323  1
  Co  Co107  1  0.75265024  0.00593486  0.74518258  1
  Co  Co108  1  0.75332167  0.74407811  0.75406267  1
  Co  Co109  1  0.12197932  0.12124332  0.87340312  1
  Co  Co110  1  0.49913461  0.25310706  0.75265066  1
  Co  Co111  1  0.49940013  0.25166830  0.50093612  1
  Co  Co112  1  0.87106582  0.87583334  0.12601305  1
  Co  Co113  1  0.87408999  0.87867024  0.87200847  1
  Co  Co114  1  0.37518215  0.62697616  0.37085676  1
  Co  Co115  1  0.12564813  0.87467992  0.37892695  1
  Co  Co116  1  0.00163744  0.25317159  0.75418454  1
  Co  Co117  1  0.49861391  -0.00211756  0.74819903  1
  Co  Co118  1  0.24876672  0.24537820  -0.00116076  1
  Co  Co119  1  0.74709210  0.24869883  0.24684827  1
  Co  Co120  1  0.25123369  -0.00015967  0.25296849  1
  Co  Co121  1  0.12812481  0.37297056  0.12521092  1
  Co  Co122  1  0.87189200  0.87705479  0.37680954  1
  Co  Co123  1  0.25188360  0.50198161  0.49955142  1
  Co  Co124  1  0.62229452  0.37589108  0.12731588  1
  Co  Co125  1  0.62412713  0.12721959  0.37686410  1
  Co  Co126  1  0.37631995  0.62449414  0.62820456  1
  Co  Co127  1  0.62991297  0.87222110  0.62595139  1
