# generated using pymatgen
data_Fe45Co19
_symmetry_space_group_name_H-M   'P 1'
_cell_length_a   11.41492538
_cell_length_b   11.41560016
_cell_length_c   11.41453341
_cell_angle_alpha   90.00027185
_cell_angle_beta   90.02267417
_cell_angle_gamma   89.99786045
_symmetry_Int_Tables_number   1
_chemical_formula_structural   Fe45Co19
_chemical_formula_sum   'Fe90 Co38'
_cell_volume   1487.40745851
_cell_formula_units_Z   2
loop_
 _symmetry_equiv_pos_site_id
 _symmetry_equiv_pos_as_xyz
  1  'x, y, z'
loop_
 _atom_site_type_symbol
 _atom_site_label
 _atom_site_symmetry_multiplicity
 _atom_site_fract_x
 _atom_site_fract_y
 _atom_site_fract_z
 _atom_site_occupancy
  Fe  Fe0  1  0.12386719  0.62629655  0.87354472  1
  Fe  Fe1  1  0.75269252  0.24839163  0.74917449  1
  Fe  Fe2  1  0.37624280  0.87458751  0.87406735  1
  Fe  Fe3  1  -0.00234721  0.24588999  0.74970102  1
  Fe  Fe4  1  0.50034676  0.24969241  0.00004579  1
  Fe  Fe5  1  0.62704792  0.12461342  0.87585450  1
  Fe  Fe6  1  0.00048406  0.24852755  0.50105688  1
  Fe  Fe7  1  0.50074165  0.74948072  0.74326195  1
  Fe  Fe8  1  0.12374146  0.37417398  0.37561214  1
  Fe  Fe9  1  0.24830032  0.24565342  0.74858765  1
  Fe  Fe10  1  0.62626923  0.62499526  0.37680604  1
  Fe  Fe11  1  0.24711321  0.75255952  0.50099158  1
  Fe  Fe12  1  0.24994811  -0.00036324  0.24997328  1
  Fe  Fe13  1  0.37445181  0.12429279  0.87519851  1
  Fe  Fe14  1  0.50052696  0.50288154  0.74859851  1
  Fe  Fe15  1  0.62521245  0.62332131  0.12673634  1
  Fe  Fe16  1  0.75192012  -0.00111610  0.00356235  1
  Fe  Fe17  1  0.50069640  0.25063032  0.25051401  1
  Fe  Fe18  1  0.25084629  0.75192843  0.74602885  1
  Fe  Fe19  1  0.24669856  0.50048788  0.49935524  1
  Fe  Fe20  1  0.37530058  0.37522253  0.12483824  1
  Fe  Fe21  1  0.75259438  0.25207041  0.00326005  1
  Fe  Fe22  1  0.87581031  0.37670838  0.87447723  1
  Fe  Fe23  1  0.87650610  0.12610875  0.37554567  1
  Fe  Fe24  1  0.75086946  0.25355157  0.24796336  1
  Fe  Fe25  1  0.75388303  0.00091152  0.75031787  1
  Fe  Fe26  1  0.50231500  -0.00215351  0.00143512  1
  Fe  Fe27  1  0.62603135  0.12458068  0.12682023  1
  Fe  Fe28  1  0.50253973  0.75219117  0.00195196  1
  Fe  Fe29  1  0.37462766  0.37505715  0.62395281  1
  Fe  Fe30  1  0.49969374  -0.00004511  0.74965719  1
  Fe  Fe31  1  0.37449587  0.37356150  0.87288440  1
  Fe  Fe32  1  0.62734800  0.12260232  0.62483978  1
  Fe  Fe33  1  -0.00458011  0.74844777  0.74904170  1
  Fe  Fe34  1  0.87770589  0.12436749  0.88084673  1
  Fe  Fe35  1  0.50208020  0.49781511  0.25155314  1
  Fe  Fe36  1  0.24932667  0.75153779  0.00027232  1
  Fe  Fe37  1  0.87417751  0.62423125  0.12457615  1
  Fe  Fe38  1  0.00220259  0.75307122  0.49811400  1
  Fe  Fe39  1  0.74524573  0.75339749  0.50041474  1
  Fe  Fe40  1  0.50217249  0.50114565  0.50196857  1
  Fe  Fe41  1  0.87302889  0.62342979  0.37918525  1
  Fe  Fe42  1  -0.00582648  0.50406210  0.74602123  1
  Fe  Fe43  1  0.74937783  0.25099433  0.50049153  1
  Fe  Fe44  1  0.62501626  0.12594169  0.37365658  1
  Fe  Fe45  1  0.74807053  0.74895891  0.00069342  1
  Fe  Fe46  1  0.37604487  0.37226550  0.37821572  1
  Fe  Fe47  1  0.24918127  0.24828832  0.25066630  1
  Fe  Fe48  1  -0.00106343  0.74935295  0.25046491  1
  Fe  Fe49  1  0.12340520  0.87789924  0.87034486  1
  Fe  Fe50  1  0.62813378  0.37669756  0.62625463  1
  Fe  Fe51  1  0.25026257  0.50111061  -0.00151514  1
  Fe  Fe52  1  0.74920028  0.50128394  -0.00142391  1
  Fe  Fe53  1  0.24991597  0.50200370  0.74899185  1
  Fe  Fe54  1  0.75024934  -0.00087138  0.49740992  1
  Fe  Fe55  1  0.50058755  0.24782529  0.74769948  1
  Fe  Fe56  1  0.50480724  -0.00328155  0.49804629  1
  Fe  Fe57  1  0.62626339  0.37558032  0.87400292  1
  Fe  Fe58  1  0.49959580  0.75258189  0.25102795  1
  Fe  Fe59  1  0.25002735  0.50058917  0.25279090  1
  Fe  Fe60  1  0.62929450  0.87639681  0.13232078  1
  Fe  Fe61  1  0.24687518  0.24980932  -0.00132748  1
  Fe  Fe62  1  -0.00001888  0.50269087  0.25289905  1
  Fe  Fe63  1  0.12014195  0.12356310  0.12312351  1
  Fe  Fe64  1  0.87383692  0.87267161  0.87705608  1
  Fe  Fe65  1  0.37452072  0.62672772  0.12601473  1
  Fe  Fe66  1  0.49972680  0.50094455  -0.00209541  1
  Fe  Fe67  1  0.12733881  0.62745813  0.12777081  1
  Fe  Fe68  1  0.37634809  0.62785840  0.87356660  1
  Fe  Fe69  1  0.24446008  -0.00279468  0.49989844  1
  Fe  Fe70  1  0.12434939  0.37622521  0.12607794  1
  Fe  Fe71  1  0.37598435  0.12264068  0.12454596  1
  Fe  Fe72  1  0.11966723  0.11754182  0.62583727  1
  Fe  Fe73  1  0.00139609  0.75308116  0.00207673  1
  Fe  Fe74  1  0.00182174  0.50057035  0.00011060  1
  Fe  Fe75  1  0.12338476  0.37505693  0.87216596  1
  Fe  Fe76  1  0.37570580  0.12139154  0.62245626  1
  Fe  Fe77  1  0.24769598  -0.00192435  -0.00089587  1
  Fe  Fe78  1  0.37529111  0.62718471  0.37787457  1
  Fe  Fe79  1  0.87140827  0.87381464  0.37160022  1
  Fe  Fe80  1  -0.00331057  -0.00265307  0.24893401  1
  Fe  Fe81  1  0.87499642  0.87617740  0.62424002  1
  Fe  Fe82  1  0.37550328  0.87433255  0.37687250  1
  Fe  Fe83  1  0.37524854  0.12483912  0.37737674  1
  Fe  Fe84  1  0.12186902  0.37555620  0.62588581  1
  Fe  Fe85  1  0.12306693  0.62663776  0.62330888  1
  Fe  Fe86  1  0.87537509  0.37704511  0.37720069  1
  Fe  Fe87  1  0.62708278  0.87317086  0.87119455  1
  Fe  Fe88  1  -0.00117663  0.25136917  0.24855563  1
  Fe  Fe89  1  0.24666628  0.24744332  0.50117558  1
  Co  Co90  1  0.12520218  0.87459306  0.37064729  1
  Co  Co91  1  0.63045972  0.62466661  0.62512792  1
  Co  Co92  1  0.74905799  0.49858917  0.25198201  1
  Co  Co93  1  0.74996382  0.49730043  0.50033679  1
  Co  Co94  1  0.75437998  0.74716589  0.74956247  1
  Co  Co95  1  0.75497777  0.50423057  0.75073475  1
  Co  Co96  1  0.37624075  0.87655627  0.62126629  1
  Co  Co97  1  0.12646554  0.87345237  0.12914537  1
  Co  Co98  1  0.12587874  0.62720975  0.37499698  1
  Co  Co99  1  0.87496620  0.12340524  0.62070346  1
  Co  Co100  1  0.87282750  0.62747363  0.61753455  1
  Co  Co101  1  0.25328634  0.75046833  0.25174214  1
  Co  Co102  1  0.00147008  0.50072107  0.50055433  1
  Co  Co103  1  0.87615140  0.37946491  0.12557386  1
  Co  Co104  1  0.62800690  0.87693089  0.62876406  1
  Co  Co105  1  0.00021747  0.25377842  -0.00049554  1
  Co  Co106  1  -0.00158174  -0.00378789  0.49511636  1
  Co  Co107  1  0.87464403  0.37385686  0.62354723  1
  Co  Co108  1  0.37455218  0.87573899  0.12490165  1
  Co  Co109  1  0.62492161  0.37583004  0.12295034  1
  Co  Co110  1  0.12210200  0.12197926  0.87595421  1
  Co  Co111  1  0.87078122  0.87176795  0.12794527  1
  Co  Co112  1  0.50155502  0.24880337  0.50283946  1
  Co  Co113  1  0.25224642  -0.00049297  0.74933401  1
  Co  Co114  1  0.37310190  0.62510509  0.62216188  1
  Co  Co115  1  0.87838002  0.12586150  0.12344346  1
  Co  Co116  1  0.75337862  0.00468356  0.25078728  1
  Co  Co117  1  -0.00696357  0.00112473  0.75235222  1
  Co  Co118  1  -0.00085199  -0.00645125  0.00243621  1
  Co  Co119  1  0.75058622  0.74394910  0.25112950  1
  Co  Co120  1  0.87584942  0.62658845  0.88010344  1
  Co  Co121  1  0.50465777  0.75142782  0.50194647  1
  Co  Co122  1  0.62769648  0.87520445  0.36964643  1
  Co  Co123  1  0.49917721  -0.00059284  0.25166824  1
  Co  Co124  1  0.62414309  0.37410991  0.37730981  1
  Co  Co125  1  0.62413219  0.62748284  0.87207486  1
  Co  Co126  1  0.12223595  0.12371741  0.37320746  1
  Co  Co127  1  0.11972851  0.87724166  0.62871926  1
