# generated using pymatgen
data_Fe45Co19
_symmetry_space_group_name_H-M   'P 1'
_cell_length_a   11.41560008
_cell_length_b   11.41596541
_cell_length_c   11.41531802
_cell_angle_alpha   90.00573190
_cell_angle_beta   89.99385739
_cell_angle_gamma   89.98972430
_symmetry_Int_Tables_number   1
_chemical_formula_structural   Fe45Co19
_chemical_formula_sum   'Fe90 Co38'
_cell_volume   1487.64529654
_cell_formula_units_Z   2
loop_
 _symmetry_equiv_pos_site_id
 _symmetry_equiv_pos_as_xyz
  1  'x, y, z'
loop_
 _atom_site_type_symbol
 _atom_site_label
 _atom_site_symmetry_multiplicity
 _atom_site_fract_x
 _atom_site_fract_y
 _atom_site_fract_z
 _atom_site_occupancy
  Fe  Fe0  1  -0.00276521  0.50151623  0.50314580  1
  Fe  Fe1  1  0.62566956  0.12495037  0.37355246  1
  Fe  Fe2  1  -0.00156650  0.25114065  0.24818649  1
  Fe  Fe3  1  -0.00030329  0.00077094  0.24835293  1
  Fe  Fe4  1  0.25115928  0.49546735  0.74651266  1
  Fe  Fe5  1  0.75088663  -0.00301039  0.24981246  1
  Fe  Fe6  1  0.50046735  0.74820775  0.24991854  1
  Fe  Fe7  1  0.12583683  0.62382194  0.87324421  1
  Fe  Fe8  1  0.25192570  0.25270210  0.50550604  1
  Fe  Fe9  1  0.62578989  0.12487317  0.87455880  1
  Fe  Fe10  1  0.62510632  0.87268762  0.37528050  1
  Fe  Fe11  1  0.00043450  0.49717989  0.24966305  1
  Fe  Fe12  1  0.24840634  -0.00016632  -0.00229535  1
  Fe  Fe13  1  0.75259961  0.74796411  0.00197732  1
  Fe  Fe14  1  0.37276863  0.12415539  0.37389724  1
  Fe  Fe15  1  0.88188907  0.87511090  0.88094342  1
  Fe  Fe16  1  0.12465108  0.62540413  0.62490918  1
  Fe  Fe17  1  0.12647459  0.12646082  0.86908560  1
  Fe  Fe18  1  0.50298570  0.50303720  0.49584238  1
  Fe  Fe19  1  0.37582174  0.87531439  0.12427582  1
  Fe  Fe20  1  0.75204394  -0.00340493  0.75173313  1
  Fe  Fe21  1  0.49935844  -0.00150226  0.75067030  1
  Fe  Fe22  1  0.37428178  0.62372637  0.62265844  1
  Fe  Fe23  1  0.37260895  0.62457446  0.37473306  1
  Fe  Fe24  1  0.75004338  0.24822692  0.50063660  1
  Fe  Fe25  1  0.37532507  0.87219784  0.87750547  1
  Fe  Fe26  1  0.62360296  0.12420479  0.62749575  1
  Fe  Fe27  1  0.12358745  0.62461426  0.37515522  1
  Fe  Fe28  1  0.00157334  0.00152606  0.50150529  1
  Fe  Fe29  1  0.75504829  0.74787440  0.49553582  1
  Fe  Fe30  1  0.50229616  0.50170935  0.75264612  1
  Fe  Fe31  1  0.12464256  0.37439047  0.87342856  1
  Fe  Fe32  1  0.87490313  0.12596349  0.62759618  1
  Fe  Fe33  1  0.12471708  0.37518049  0.37749993  1
  Fe  Fe34  1  0.37335039  0.62343963  0.87531541  1
  Fe  Fe35  1  0.62616914  0.87267202  0.62367295  1
  Fe  Fe36  1  0.87556884  0.12453528  0.37473772  1
  Fe  Fe37  1  0.87230436  0.12270016  0.12242693  1
  Fe  Fe38  1  -0.00029595  0.24836990  -0.00049821  1
  Fe  Fe39  1  0.74953382  0.50089294  0.75058756  1
  Fe  Fe40  1  0.12368784  0.62380317  0.12676864  1
  Fe  Fe41  1  0.37457633  0.12442523  0.12642802  1
  Fe  Fe42  1  0.63044119  0.62161199  0.12878039  1
  Fe  Fe43  1  0.74924968  0.25132254  0.75048642  1
  Fe  Fe44  1  -0.00679473  0.75126148  0.24809114  1
  Fe  Fe45  1  0.50066317  0.74404704  0.00158021  1
  Fe  Fe46  1  0.12480838  0.87435753  0.62584518  1
  Fe  Fe47  1  0.25025984  0.49719141  0.00323890  1
  Fe  Fe48  1  0.12707060  0.12735347  0.12655994  1
  Fe  Fe49  1  -0.00298275  0.49937191  0.74727785  1
  Fe  Fe50  1  0.12571277  0.12759658  0.37479465  1
  Fe  Fe51  1  0.62465380  0.37607835  0.87680732  1
  Fe  Fe52  1  0.62497789  0.37933018  0.12380453  1
  Fe  Fe53  1  0.62522576  0.12323692  0.12472341  1
  Fe  Fe54  1  0.62479343  0.87467233  0.12493957  1
  Fe  Fe55  1  0.49835516  0.24801551  0.50157031  1
  Fe  Fe56  1  0.49810164  0.74877128  0.74807338  1
  Fe  Fe57  1  -0.00080886  0.50178443  0.00017394  1
  Fe  Fe58  1  0.62491342  0.37522539  0.62307202  1
  Fe  Fe59  1  0.24923761  0.75145998  0.75031174  1
  Fe  Fe60  1  0.12750128  0.12454716  0.62903932  1
  Fe  Fe61  1  0.62718453  0.62766583  0.62434155  1
  Fe  Fe62  1  0.12258728  0.87380344  0.37621679  1
  Fe  Fe63  1  0.87480744  0.37407341  0.87492563  1
  Fe  Fe64  1  0.87396806  0.12459023  0.87529456  1
  Fe  Fe65  1  0.37372594  0.12852289  0.87069471  1
  Fe  Fe66  1  0.25110554  0.25372762  0.00111931  1
  Fe  Fe67  1  0.87560423  0.62617206  0.87352856  1
  Fe  Fe68  1  -0.00036021  0.25010468  0.50398626  1
  Fe  Fe69  1  0.24760500  0.74858796  0.00013082  1
  Fe  Fe70  1  0.62276695  0.87120696  0.87589121  1
  Fe  Fe71  1  0.37509788  0.61998540  0.12722705  1
  Fe  Fe72  1  0.87547376  0.37345523  0.37752003  1
  Fe  Fe73  1  0.49989433  0.00096467  -0.00081187  1
  Fe  Fe74  1  0.87304449  0.37795138  0.12281127  1
  Fe  Fe75  1  0.24985004  0.25583752  0.24806600  1
  Fe  Fe76  1  0.12244732  0.87437450  0.12186729  1
  Fe  Fe77  1  0.37285271  0.87658287  0.62223398  1
  Fe  Fe78  1  0.24907614  -0.00169860  0.25065632  1
  Fe  Fe79  1  0.24928899  0.74944388  0.24994889  1
  Fe  Fe80  1  0.87771706  0.87277466  0.62284546  1
  Fe  Fe81  1  0.75036871  0.00126081  0.50041087  1
  Fe  Fe82  1  0.49941399  0.25205581  -0.00006535  1
  Fe  Fe83  1  0.49923790  0.00046805  0.49882860  1
  Fe  Fe84  1  0.75013032  0.25235522  0.24904171  1
  Fe  Fe85  1  0.37446226  0.87399635  0.37569576  1
  Fe  Fe86  1  0.37438804  0.37792845  0.37450059  1
  Fe  Fe87  1  0.50054818  0.25144220  0.24959716  1
  Fe  Fe88  1  0.74974621  0.50165564  0.49641148  1
  Fe  Fe89  1  0.75320135  0.75124096  0.75181497  1
  Co  Co90  1  0.37510125  0.37610376  0.87493381  1
  Co  Co91  1  0.74886484  0.25104625  0.00045160  1
  Co  Co92  1  0.49993881  -0.00082695  0.25138582  1
  Co  Co93  1  0.24664720  0.49835530  0.24965137  1
  Co  Co94  1  0.00499670  0.00633484  0.00023788  1
  Co  Co95  1  0.37447997  0.12304103  0.62796241  1
  Co  Co96  1  0.62476817  0.37008810  0.37761048  1
  Co  Co97  1  0.74668189  -0.00185344  -0.00242513  1
  Co  Co98  1  0.12117921  0.87389683  0.87674322  1
  Co  Co99  1  0.87242223  0.62621152  0.62587574  1
  Co  Co100  1  0.12209586  0.37425402  0.12290575  1
  Co  Co101  1  0.24909168  0.49946615  0.50106329  1
  Co  Co102  1  0.00033938  0.74305163  0.00172182  1
  Co  Co103  1  0.25145075  -0.00387482  0.75280363  1
  Co  Co104  1  0.50140346  0.50302902  -0.00258353  1
  Co  Co105  1  0.00104683  0.74860320  0.74979085  1
  Co  Co106  1  -0.00050612  0.74758066  0.50013759  1
  Co  Co107  1  0.87157775  0.61965771  0.12874048  1
  Co  Co108  1  0.49816966  0.74943010  0.50038520  1
  Co  Co109  1  -0.00211695  -0.00129664  0.74953467  1
  Co  Co110  1  0.50392805  0.50053670  0.25499172  1
  Co  Co111  1  0.87713587  0.87873445  0.37796188  1
  Co  Co112  1  0.87125066  0.37514755  0.62443911  1
  Co  Co113  1  0.87778889  0.87848201  0.11917506  1
  Co  Co114  1  0.75553076  0.75440030  0.24998102  1
  Co  Co115  1  0.50145058  0.25206447  0.75014982  1
  Co  Co116  1  -0.00165636  0.25180598  0.74884485  1
  Co  Co117  1  0.62731178  0.63109307  0.37321799  1
  Co  Co118  1  0.25196797  0.25640179  0.74463114  1
  Co  Co119  1  0.12142568  0.37647038  0.62501112  1
  Co  Co120  1  0.38156990  0.37889283  0.62436861  1
  Co  Co121  1  0.24820801  0.00058137  0.49843768  1
  Co  Co122  1  0.74812147  0.49593769  0.25681377  1
  Co  Co123  1  0.87714908  0.62250448  0.37151519  1
  Co  Co124  1  0.37883714  0.37881752  0.12615670  1
  Co  Co125  1  0.75029794  0.50244760  -0.00414951  1
  Co  Co126  1  0.24811888  0.74905240  0.49975936  1
  Co  Co127  1  0.62615228  0.62885732  0.87325930  1
