# generated using pymatgen
data_Fe45Co19
_symmetry_space_group_name_H-M   'P 1'
_cell_length_a   11.41519560
_cell_length_b   11.41411938
_cell_length_c   11.41594703
_cell_angle_alpha   90.00443443
_cell_angle_beta   90.00163813
_cell_angle_gamma   90.01726098
_symmetry_Int_Tables_number   1
_chemical_formula_structural   Fe45Co19
_chemical_formula_sum   'Fe90 Co38'
_cell_volume   1487.43395771
_cell_formula_units_Z   2
loop_
 _symmetry_equiv_pos_site_id
 _symmetry_equiv_pos_as_xyz
  1  'x, y, z'
loop_
 _atom_site_type_symbol
 _atom_site_label
 _atom_site_symmetry_multiplicity
 _atom_site_fract_x
 _atom_site_fract_y
 _atom_site_fract_z
 _atom_site_occupancy
  Fe  Fe0  1  -0.00076404  -0.00164811  0.49935120  1
  Fe  Fe1  1  0.75240200  0.75012046  0.74976874  1
  Fe  Fe2  1  0.12796267  0.37470842  0.62442128  1
  Fe  Fe3  1  0.62382401  0.12413137  0.37632557  1
  Fe  Fe4  1  0.62564468  0.37561794  0.62528625  1
  Fe  Fe5  1  0.87622464  0.37462451  0.87530268  1
  Fe  Fe6  1  0.62304576  0.12410234  0.62507547  1
  Fe  Fe7  1  0.12642456  0.37796418  0.37340803  1
  Fe  Fe8  1  -0.00150961  0.00025459  0.00313924  1
  Fe  Fe9  1  0.12701854  0.87497860  0.37274502  1
  Fe  Fe10  1  0.12623786  0.87596935  0.87521260  1
  Fe  Fe11  1  0.62275207  0.12165296  0.87443308  1
  Fe  Fe12  1  0.49588921  -0.00230971  0.50309638  1
  Fe  Fe13  1  0.25371411  0.50498073  0.24837765  1
  Fe  Fe14  1  0.62535015  0.62689399  0.87441474  1
  Fe  Fe15  1  0.37340145  0.62412390  0.87692765  1
  Fe  Fe16  1  0.74963002  0.25109029  0.49979662  1
  Fe  Fe17  1  0.13016710  0.37383411  0.12402223  1
  Fe  Fe18  1  0.37179051  0.37514117  0.62731409  1
  Fe  Fe19  1  0.24948389  0.00145462  0.00071343  1
  Fe  Fe20  1  0.74841183  0.25179356  0.24994750  1
  Fe  Fe21  1  0.37415672  0.37636016  0.12234091  1
  Fe  Fe22  1  0.62579983  0.62151700  0.37250962  1
  Fe  Fe23  1  0.12414001  0.12716148  0.12432298  1
  Fe  Fe24  1  0.87531079  0.12609773  0.37333100  1
  Fe  Fe25  1  0.25015031  -0.00008781  0.25084240  1
  Fe  Fe26  1  0.74969958  -0.00045976  0.24900877  1
  Fe  Fe27  1  0.87980642  0.12861360  0.87541843  1
  Fe  Fe28  1  0.74926419  0.50124845  0.74970069  1
  Fe  Fe29  1  0.49908823  0.25110016  0.50004225  1
  Fe  Fe30  1  0.62496029  0.37497809  0.87608692  1
  Fe  Fe31  1  0.49944342  0.25093539  0.75102334  1
  Fe  Fe32  1  0.12389053  0.62630297  0.12669886  1
  Fe  Fe33  1  -0.00072866  0.74930456  0.49895457  1
  Fe  Fe34  1  0.62567546  0.37898126  0.37372229  1
  Fe  Fe35  1  0.12843204  0.37253776  0.87837838  1
  Fe  Fe36  1  0.87414832  0.87243901  0.37196074  1
  Fe  Fe37  1  0.62467526  0.12620825  0.12341321  1
  Fe  Fe38  1  -0.00083684  0.75113066  0.00127512  1
  Fe  Fe39  1  0.12419328  0.62588667  0.87564203  1
  Fe  Fe40  1  0.75081046  0.74906310  0.00271710  1
  Fe  Fe41  1  0.00018882  0.25269735  0.49911221  1
  Fe  Fe42  1  0.75102933  0.74780455  0.49856483  1
  Fe  Fe43  1  0.62458584  0.87503349  0.12559555  1
  Fe  Fe44  1  0.49784962  0.49968065  0.75170099  1
  Fe  Fe45  1  0.12661093  0.87368087  0.62427908  1
  Fe  Fe46  1  0.25027594  0.74936330  0.00169373  1
  Fe  Fe47  1  0.37582083  0.12251483  0.37560738  1
  Fe  Fe48  1  0.62164020  0.62360096  0.12653546  1
  Fe  Fe49  1  0.87795313  0.12657441  0.62501584  1
  Fe  Fe50  1  0.24733048  0.24459164  0.75204911  1
  Fe  Fe51  1  0.12252253  0.62272201  0.37389177  1
  Fe  Fe52  1  0.49799937  0.75126369  0.49903443  1
  Fe  Fe53  1  0.87461567  0.38113336  0.37610303  1
  Fe  Fe54  1  0.87305863  0.37300584  0.12276294  1
  Fe  Fe55  1  0.00265927  -0.00073030  0.74867064  1
  Fe  Fe56  1  0.49819768  0.75481486  0.75359802  1
  Fe  Fe57  1  0.12459975  0.12437033  0.37616765  1
  Fe  Fe58  1  0.12511587  0.87313106  0.12763795  1
  Fe  Fe59  1  0.49937650  0.49938319  0.50102275  1
  Fe  Fe60  1  0.62348731  0.87541469  0.37421641  1
  Fe  Fe61  1  0.87757236  0.62501579  0.62466171  1
  Fe  Fe62  1  0.62288931  0.62619005  0.62690880  1
  Fe  Fe63  1  0.49955027  0.75451501  -0.00382907  1
  Fe  Fe64  1  0.00453858  0.50097896  0.74818013  1
  Fe  Fe65  1  0.00049002  0.25215146  0.24907502  1
  Fe  Fe66  1  0.74973674  0.24952987  0.75137829  1
  Fe  Fe67  1  0.87515026  0.87390957  0.87502534  1
  Fe  Fe68  1  0.24926901  0.74931976  0.75204768  1
  Fe  Fe69  1  0.75184263  0.00107803  0.00124228  1
  Fe  Fe70  1  0.00202939  0.49884781  0.00231628  1
  Fe  Fe71  1  0.74860048  0.50077385  0.00207281  1
  Fe  Fe72  1  0.37625804  0.11932323  0.87186317  1
  Fe  Fe73  1  0.37290140  0.62479681  0.62461810  1
  Fe  Fe74  1  0.25035924  0.24765937  0.49958743  1
  Fe  Fe75  1  0.87657115  0.62451146  0.87573349  1
  Fe  Fe76  1  0.37495064  0.87444197  0.12685293  1
  Fe  Fe77  1  0.75158019  -0.00108245  0.50066997  1
  Fe  Fe78  1  0.49933578  0.49890989  -0.00172628  1
  Fe  Fe79  1  0.37707052  0.12276031  0.12564219  1
  Fe  Fe80  1  0.37345838  0.37744270  0.37514995  1
  Fe  Fe81  1  0.49980906  0.25070947  0.25020558  1
  Fe  Fe82  1  0.25173709  0.24795003  0.25024294  1
  Fe  Fe83  1  -0.00129794  -0.00010812  0.24849444  1
  Fe  Fe84  1  0.62623173  0.87383736  0.62597191  1
  Fe  Fe85  1  0.75151377  -0.00012879  0.74897189  1
  Fe  Fe86  1  0.87460585  0.37569655  0.62563170  1
  Fe  Fe87  1  0.49683217  0.74854014  0.25219098  1
  Fe  Fe88  1  0.25193675  0.75017965  0.49548745  1
  Fe  Fe89  1  0.49795508  0.24974036  -0.00194400  1
  Co  Co90  1  0.36887458  0.87790033  0.87507507  1
  Co  Co91  1  0.37600439  0.62287015  0.37798626  1
  Co  Co92  1  -0.00007160  0.49776981  0.24605747  1
  Co  Co93  1  0.37622007  0.12603294  0.62708747  1
  Co  Co94  1  0.49650973  0.49938147  0.24948830  1
  Co  Co95  1  0.87529192  0.87338931  0.12650176  1
  Co  Co96  1  0.25235131  0.74667165  0.25079129  1
  Co  Co97  1  0.25185748  0.00015904  0.50067729  1
  Co  Co98  1  0.12802169  0.62886303  0.62386284  1
  Co  Co99  1  0.24897684  0.50062174  0.50027027  1
  Co  Co100  1  0.37484464  0.87750722  0.37216059  1
  Co  Co101  1  0.75142405  0.50058933  0.24543950  1
  Co  Co102  1  0.74884194  0.50280582  0.50255924  1
  Co  Co103  1  0.24723007  0.50210378  0.75111082  1
  Co  Co104  1  0.24567721  0.00300364  0.74769212  1
  Co  Co105  1  0.00038736  0.75004199  0.75021205  1
  Co  Co106  1  0.63055298  0.87555110  0.87450560  1
  Co  Co107  1  0.50019352  -0.00685048  0.74872547  1
  Co  Co108  1  0.87615685  0.87410680  0.62517560  1
  Co  Co109  1  0.50024320  -0.00399371  -0.00120129  1
  Co  Co110  1  0.12213085  0.12481337  0.62031849  1
  Co  Co111  1  0.74891028  0.24888979  -0.00285085  1
  Co  Co112  1  0.37085807  0.37595874  0.87477824  1
  Co  Co113  1  0.62262326  0.37434707  0.12390429  1
  Co  Co114  1  0.37039437  0.87214527  0.62645774  1
  Co  Co115  1  0.50127963  0.00079677  0.24958122  1
  Co  Co116  1  0.25352623  0.24501140  -0.00089058  1
  Co  Co117  1  0.37824781  0.62636859  0.12083353  1
  Co  Co118  1  0.00267371  0.50038755  0.50327875  1
  Co  Co119  1  0.87428427  0.12780305  0.12656607  1
  Co  Co120  1  -0.00044372  0.74975829  0.25050320  1
  Co  Co121  1  0.00126019  0.25162419  0.00333424  1
  Co  Co122  1  0.74901150  0.74852078  0.24929421  1
  Co  Co123  1  0.24900721  0.50330047  0.00052776  1
  Co  Co124  1  0.00368935  0.25215730  0.74898909  1
  Co  Co125  1  0.12157934  0.12472797  0.87894810  1
  Co  Co126  1  0.87626563  0.62246919  0.37397452  1
  Co  Co127  1  0.87753713  0.62605635  0.12582234  1
