# generated using pymatgen
data_Fe45Co19
_symmetry_space_group_name_H-M   'P 1'
_cell_length_a   11.41579108
_cell_length_b   11.41474435
_cell_length_c   11.41568658
_cell_angle_alpha   90.00443203
_cell_angle_beta   89.99705177
_cell_angle_gamma   90.00718609
_symmetry_Int_Tables_number   1
_chemical_formula_structural   Fe45Co19
_chemical_formula_sum   'Fe90 Co38'
_cell_volume   1487.55911255
_cell_formula_units_Z   2
loop_
 _symmetry_equiv_pos_site_id
 _symmetry_equiv_pos_as_xyz
  1  'x, y, z'
loop_
 _atom_site_type_symbol
 _atom_site_label
 _atom_site_symmetry_multiplicity
 _atom_site_fract_x
 _atom_site_fract_y
 _atom_site_fract_z
 _atom_site_occupancy
  Fe  Fe0  1  0.74732226  0.50105237  0.24969649  1
  Fe  Fe1  1  0.62126643  0.12667106  0.37429040  1
  Fe  Fe2  1  -0.00124007  0.74995450  -0.00012440  1
  Fe  Fe3  1  0.75060387  0.25073973  0.25023367  1
  Fe  Fe4  1  0.37796722  0.87158091  0.12644165  1
  Fe  Fe5  1  0.37413973  0.12320150  0.87506842  1
  Fe  Fe6  1  0.62374332  0.12531344  0.12575675  1
  Fe  Fe7  1  0.62748543  0.87233060  0.61991314  1
  Fe  Fe8  1  0.62398175  0.37647722  0.37559846  1
  Fe  Fe9  1  0.49848296  0.25205588  -0.00089107  1
  Fe  Fe10  1  0.75005505  0.24991141  0.49950697  1
  Fe  Fe11  1  0.37404398  0.87468953  0.62510611  1
  Fe  Fe12  1  0.12561639  0.37791662  0.37362828  1
  Fe  Fe13  1  0.37146486  0.37817548  0.87415083  1
  Fe  Fe14  1  0.87585192  0.37471626  0.12563046  1
  Fe  Fe15  1  0.87520731  0.62431291  0.87326376  1
  Fe  Fe16  1  0.25144301  0.25047728  0.25091401  1
  Fe  Fe17  1  0.75008317  0.50048649  -0.00097953  1
  Fe  Fe18  1  0.37363747  0.37407185  0.62516996  1
  Fe  Fe19  1  0.00176577  0.50135189  0.00332774  1
  Fe  Fe20  1  0.25301214  0.74654487  0.49765441  1
  Fe  Fe21  1  0.50111292  0.49907065  -0.00217770  1
  Fe  Fe22  1  0.62635085  0.12487061  0.87427691  1
  Fe  Fe23  1  0.87432582  0.37885902  0.37659779  1
  Fe  Fe24  1  0.12665590  0.86981301  0.12738642  1
  Fe  Fe25  1  0.25007526  -0.00064150  0.49892051  1
  Fe  Fe26  1  -0.00008502  -0.00115199  0.74796183  1
  Fe  Fe27  1  0.37432639  0.37653123  0.12648174  1
  Fe  Fe28  1  0.24640299  0.24958089  0.75361834  1
  Fe  Fe29  1  0.24927875  0.25065339  0.49807764  1
  Fe  Fe30  1  0.75093282  0.50685737  0.50311052  1
  Fe  Fe31  1  0.62403755  0.12593975  0.62560869  1
  Fe  Fe32  1  0.12579297  0.87033601  0.37353555  1
  Fe  Fe33  1  0.50132389  -0.00168241  0.00020669  1
  Fe  Fe34  1  0.25168227  -0.00162041  0.25092211  1
  Fe  Fe35  1  0.87517361  0.37623368  0.87524457  1
  Fe  Fe36  1  0.74871828  0.74829281  -0.00150543  1
  Fe  Fe37  1  -0.00124825  -0.00177188  0.00266951  1
  Fe  Fe38  1  0.24787684  0.50317269  0.50155331  1
  Fe  Fe39  1  0.50109161  -0.00197896  0.74892247  1
  Fe  Fe40  1  0.49827495  0.75073927  0.75121811  1
  Fe  Fe41  1  0.12237598  0.12652192  0.62289374  1
  Fe  Fe42  1  0.00002958  -0.00270077  0.24892682  1
  Fe  Fe43  1  0.74633468  0.74944612  0.25354450  1
  Fe  Fe44  1  0.25120935  0.74868639  0.75272767  1
  Fe  Fe45  1  0.75124168  0.24918215  0.00118172  1
  Fe  Fe46  1  0.87463573  0.12212311  0.87563782  1
  Fe  Fe47  1  0.87145776  0.87718592  0.87562624  1
  Fe  Fe48  1  0.62491364  0.37452835  0.12421399  1
  Fe  Fe49  1  0.37965533  0.87239694  0.37412586  1
  Fe  Fe50  1  0.37852770  0.12701700  0.37526481  1
  Fe  Fe51  1  0.75024297  0.74907630  0.74883829  1
  Fe  Fe52  1  0.75252057  0.25139883  0.74904286  1
  Fe  Fe53  1  0.62274679  0.62528149  0.12524190  1
  Fe  Fe54  1  -0.00041621  0.49963147  0.74754436  1
  Fe  Fe55  1  0.87036202  0.87389814  0.12451228  1
  Fe  Fe56  1  0.49978974  0.74924540  -0.00343063  1
  Fe  Fe57  1  0.74661036  -0.00075891  0.24999077  1
  Fe  Fe58  1  0.87134367  0.87633316  0.37741917  1
  Fe  Fe59  1  0.62779213  0.87744984  0.87521107  1
  Fe  Fe60  1  0.37676380  0.37678432  0.37458700  1
  Fe  Fe61  1  0.87818811  0.12577075  0.62149061  1
  Fe  Fe62  1  0.24870120  0.00006095  0.74888598  1
  Fe  Fe63  1  0.12599422  0.12706839  0.12478967  1
  Fe  Fe64  1  0.87400266  0.62596634  0.12665552  1
  Fe  Fe65  1  0.50021284  0.50093502  0.50237522  1
  Fe  Fe66  1  0.12585759  0.62293708  0.87370905  1
  Fe  Fe67  1  -0.00045413  0.25135277  0.25227758  1
  Fe  Fe68  1  0.00074674  0.50292200  0.50175249  1
  Fe  Fe69  1  0.37547881  0.12574653  0.12557432  1
  Fe  Fe70  1  0.87656899  0.12326651  0.37632869  1
  Fe  Fe71  1  0.00016393  0.75175132  0.75135831  1
  Fe  Fe72  1  0.24958295  0.50663450  0.24861097  1
  Fe  Fe73  1  0.25205717  0.74790434  -0.00150637  1
  Fe  Fe74  1  0.12402330  0.12389647  0.37576039  1
  Fe  Fe75  1  0.87161665  0.87466872  0.62151504  1
  Fe  Fe76  1  0.62455399  0.62147375  0.87025516  1
  Fe  Fe77  1  0.24652253  0.50076336  0.00339776  1
  Fe  Fe78  1  0.50051578  0.25348180  0.75092463  1
  Fe  Fe79  1  0.62754730  0.37761351  0.62654713  1
  Fe  Fe80  1  0.12645829  0.87191021  0.62303131  1
  Fe  Fe81  1  0.00318100  0.25081896  -0.00146917  1
  Fe  Fe82  1  -0.00358636  0.74787962  0.49809675  1
  Fe  Fe83  1  0.37578821  0.62398614  0.62792330  1
  Fe  Fe84  1  0.37499386  0.12671705  0.62466253  1
  Fe  Fe85  1  0.12233586  0.37180214  0.62582053  1
  Fe  Fe86  1  0.00206531  0.50282171  0.24733387  1
  Fe  Fe87  1  0.25114372  -0.00137382  0.00183184  1
  Fe  Fe88  1  0.12646039  0.87680068  0.87588525  1
  Fe  Fe89  1  0.50004681  0.00047831  0.50054764  1
  Co  Co90  1  0.74740353  0.00356096  0.49943529  1
  Co  Co91  1  0.62109914  0.62559637  0.37667430  1
  Co  Co92  1  0.50148099  -0.00193103  0.25013760  1
  Co  Co93  1  0.12309123  0.62773627  0.37395343  1
  Co  Co94  1  0.87628714  0.62666438  0.62836224  1
  Co  Co95  1  0.00240045  -0.00366226  0.49978864  1
  Co  Co96  1  0.37433609  0.87764247  0.87469744  1
  Co  Co97  1  0.49937949  0.49658478  0.75037740  1
  Co  Co98  1  0.24959854  0.25224439  -0.00192001  1
  Co  Co99  1  0.37900238  0.62268063  0.37552324  1
  Co  Co100  1  0.12523975  0.12074348  0.87733369  1
  Co  Co101  1  0.87614776  0.62170485  0.37157345  1
  Co  Co102  1  0.25539753  0.74532858  0.25140264  1
  Co  Co103  1  0.12443458  0.62966285  0.62501010  1
  Co  Co104  1  -0.00493778  0.75153520  0.25045161  1
  Co  Co105  1  0.49867881  0.74661226  0.50253830  1
  Co  Co106  1  0.75198623  0.74259020  0.49807305  1
  Co  Co107  1  0.12383158  0.63129708  0.12652213  1
  Co  Co108  1  0.50145346  0.49988681  0.24919798  1
  Co  Co109  1  0.74925586  0.00146376  0.00268989  1
  Co  Co110  1  0.50228062  0.74764321  0.24993301  1
  Co  Co111  1  0.62291723  0.62510600  0.62932844  1
  Co  Co112  1  0.62344186  0.87267137  0.38030730  1
  Co  Co113  1  0.24775594  0.50005326  0.74534161  1
  Co  Co114  1  0.37363868  0.62066551  0.87403550  1
  Co  Co115  1  0.62472707  0.87307310  0.12355891  1
  Co  Co116  1  -0.00080262  0.24916685  0.75342724  1
  Co  Co117  1  0.75287816  0.49926179  0.74952552  1
  Co  Co118  1  0.37881498  0.62518240  0.12263059  1
  Co  Co119  1  0.12449789  0.37932834  0.87368252  1
  Co  Co120  1  0.12547194  0.37256951  0.12755671  1
  Co  Co121  1  0.62817196  0.37460907  0.87509150  1
  Co  Co122  1  0.49958798  0.25314211  0.24855818  1
  Co  Co123  1  0.50094940  0.25302597  0.50152367  1
  Co  Co124  1  0.87661525  0.12617779  0.12630048  1
  Co  Co125  1  0.75066327  0.00028177  0.74624287  1
  Co  Co126  1  0.87550934  0.37450220  0.62222975  1
  Co  Co127  1  0.00037487  0.25268042  0.49545142  1
