# generated using pymatgen
data_Fe45Co19
_symmetry_space_group_name_H-M   'P 1'
_cell_length_a   11.41470513
_cell_length_b   11.41496033
_cell_length_c   11.41541435
_cell_angle_alpha   90.00264311
_cell_angle_beta   89.99558248
_cell_angle_gamma   89.99377156
_symmetry_Int_Tables_number   1
_chemical_formula_structural   Fe45Co19
_chemical_formula_sum   'Fe90 Co38'
_cell_volume   1487.41028170
_cell_formula_units_Z   2
loop_
 _symmetry_equiv_pos_site_id
 _symmetry_equiv_pos_as_xyz
  1  'x, y, z'
loop_
 _atom_site_type_symbol
 _atom_site_label
 _atom_site_symmetry_multiplicity
 _atom_site_fract_x
 _atom_site_fract_y
 _atom_site_fract_z
 _atom_site_occupancy
  Fe  Fe0  1  0.12242887  0.87521707  0.37883998  1
  Fe  Fe1  1  0.62447683  0.12273929  0.87148035  1
  Fe  Fe2  1  0.24917240  0.24915405  0.49834205  1
  Fe  Fe3  1  0.62588118  0.62521544  0.37542179  1
  Fe  Fe4  1  -0.00211085  0.24614395  0.50148541  1
  Fe  Fe5  1  0.50034807  -0.00216168  0.25091024  1
  Fe  Fe6  1  -0.00081780  0.49649545  0.25005779  1
  Fe  Fe7  1  0.74955915  0.49871553  0.25020883  1
  Fe  Fe8  1  0.12409372  0.87571382  0.12187323  1
  Fe  Fe9  1  0.25070800  0.25377698  0.25191968  1
  Fe  Fe10  1  0.24711076  0.00376408  0.00025564  1
  Fe  Fe11  1  0.49938379  0.25037529  0.75010433  1
  Fe  Fe12  1  0.37555064  0.12504438  0.87411195  1
  Fe  Fe13  1  0.49883383  0.49592118  0.24907769  1
  Fe  Fe14  1  0.49949327  0.50055678  0.49952591  1
  Fe  Fe15  1  0.12369966  0.62243045  0.12542318  1
  Fe  Fe16  1  0.49962490  0.75373640  0.74809616  1
  Fe  Fe17  1  0.00004745  0.25256014  0.24796654  1
  Fe  Fe18  1  0.87620600  0.62535020  0.62608671  1
  Fe  Fe19  1  0.37214519  0.12320463  0.62697502  1
  Fe  Fe20  1  0.37304779  0.87577413  0.87573873  1
  Fe  Fe21  1  0.00213633  0.24766698  0.00187082  1
  Fe  Fe22  1  0.75121772  0.24858337  0.74931783  1
  Fe  Fe23  1  0.74813737  0.75199421  0.25022333  1
  Fe  Fe24  1  0.24703205  0.25054825  0.75083878  1
  Fe  Fe25  1  0.62490428  0.12442138  0.12551664  1
  Fe  Fe26  1  0.87236359  0.37149548  0.37712223  1
  Fe  Fe27  1  0.62472642  0.87701744  0.87499017  1
  Fe  Fe28  1  0.12371558  0.12014979  0.62655823  1
  Fe  Fe29  1  0.87774502  0.62606471  0.87477375  1
  Fe  Fe30  1  0.87474640  0.12601753  0.12601026  1
  Fe  Fe31  1  -0.00098653  -0.00001492  0.24997522  1
  Fe  Fe32  1  0.50002550  0.25249490  0.24701649  1
  Fe  Fe33  1  0.12653265  0.62281125  0.62432905  1
  Fe  Fe34  1  0.75229014  0.00190390  -0.00174624  1
  Fe  Fe35  1  0.11918630  0.12237448  0.87198761  1
  Fe  Fe36  1  0.37552924  0.12641089  0.37397334  1
  Fe  Fe37  1  0.12249722  0.62369686  0.87634334  1
  Fe  Fe38  1  0.75068706  -0.00104113  0.25184479  1
  Fe  Fe39  1  0.00371145  0.75434738  0.74882263  1
  Fe  Fe40  1  0.00029724  0.75017837  0.25004683  1
  Fe  Fe41  1  0.49738134  0.49906292  0.75098227  1
  Fe  Fe42  1  0.74909706  0.74911572  0.00097079  1
  Fe  Fe43  1  0.87633018  0.37207232  0.87540797  1
  Fe  Fe44  1  -0.00257400  0.50176842  0.49791408  1
  Fe  Fe45  1  0.24723820  0.75171606  0.75228512  1
  Fe  Fe46  1  0.37570016  0.62579599  0.12775979  1
  Fe  Fe47  1  0.75624604  0.00477238  0.49772874  1
  Fe  Fe48  1  0.62610879  0.62517124  0.62608446  1
  Fe  Fe49  1  0.24945970  0.74673952  0.00074093  1
  Fe  Fe50  1  0.49999724  0.49794072  0.00064504  1
  Fe  Fe51  1  0.62325292  0.62573631  0.87357220  1
  Fe  Fe52  1  0.37184116  0.62334760  0.62651139  1
  Fe  Fe53  1  0.50108456  0.75097524  0.00200873  1
  Fe  Fe54  1  0.49858619  0.75204581  0.50064483  1
  Fe  Fe55  1  0.75151602  0.50055677  0.75079906  1
  Fe  Fe56  1  0.25178238  0.49572043  0.25250175  1
  Fe  Fe57  1  0.87486854  0.62498257  0.12576535  1
  Fe  Fe58  1  0.37160132  0.37611968  0.62337252  1
  Fe  Fe59  1  0.00030838  0.49780172  0.75019672  1
  Fe  Fe60  1  0.87537975  0.87465534  0.12430042  1
  Fe  Fe61  1  0.88022941  0.87577479  0.87921288  1
  Fe  Fe62  1  0.74901732  0.50025352  -0.00104360  1
  Fe  Fe63  1  0.37203481  0.37282877  0.87917619  1
  Fe  Fe64  1  0.12700483  0.37787042  0.62197321  1
  Fe  Fe65  1  0.50431799  0.75429957  0.24975830  1
  Fe  Fe66  1  0.75165015  0.75320875  0.75030212  1
  Fe  Fe67  1  0.12563737  0.37723291  0.87811627  1
  Fe  Fe68  1  0.62685395  0.37650996  0.62555511  1
  Fe  Fe69  1  0.87268427  0.37358290  0.12282595  1
  Fe  Fe70  1  0.62807095  0.87784831  0.62284269  1
  Fe  Fe71  1  0.37475359  0.62721182  0.37246738  1
  Fe  Fe72  1  0.62658313  0.12100138  0.62831849  1
  Fe  Fe73  1  0.12329948  0.12652800  0.37244956  1
  Fe  Fe74  1  0.24949944  0.74971555  0.49855478  1
  Fe  Fe75  1  0.87885582  0.87621043  0.62050663  1
  Fe  Fe76  1  0.62624468  0.12625686  0.37406092  1
  Fe  Fe77  1  0.12901986  0.37520000  0.12176724  1
  Fe  Fe78  1  0.36973849  0.87842818  0.62485084  1
  Fe  Fe79  1  0.37330893  0.12818115  0.12455619  1
  Fe  Fe80  1  0.87410447  0.37428706  0.62371668  1
  Fe  Fe81  1  0.37354529  0.87483459  0.12620816  1
  Fe  Fe82  1  0.62708137  0.37251945  0.37664909  1
  Fe  Fe83  1  0.12433423  0.62367751  0.37411326  1
  Fe  Fe84  1  0.50186927  0.24879548  0.50246602  1
  Fe  Fe85  1  0.49933540  0.00094744  0.00082488  1
  Fe  Fe86  1  0.49734621  -0.00023619  0.49914521  1
  Fe  Fe87  1  0.75333894  0.74803462  0.49758297  1
  Fe  Fe88  1  0.24968323  -0.00173342  0.25198066  1
  Fe  Fe89  1  0.74657332  0.24899231  -0.00109361  1
  Co  Co90  1  0.25185718  0.50545462  0.00022545  1
  Co  Co91  1  0.24590302  0.75149037  0.24945554  1
  Co  Co92  1  0.87508424  0.62499633  0.37153390  1
  Co  Co93  1  0.62463589  0.62365926  0.12501393  1
  Co  Co94  1  0.62647981  0.87767475  0.12305258  1
  Co  Co95  1  0.37765762  0.37258098  0.37828144  1
  Co  Co96  1  0.37833855  0.62680400  0.87409289  1
  Co  Co97  1  0.87891763  0.12370609  0.63167001  1
  Co  Co98  1  0.62680098  0.87643655  0.37904308  1
  Co  Co99  1  0.37143261  0.37125022  0.11940554  1
  Co  Co100  1  0.24986259  0.49974187  0.75359864  1
  Co  Co101  1  0.74866949  0.25011817  0.24783019  1
  Co  Co102  1  0.25127615  0.50073582  0.49459202  1
  Co  Co103  1  0.24488377  0.24340279  -0.00251519  1
  Co  Co104  1  0.37447628  0.87315519  0.37351600  1
  Co  Co105  1  0.62564564  0.37518525  0.12539960  1
  Co  Co106  1  0.87910618  0.12718587  0.87287322  1
  Co  Co107  1  0.12181738  0.37339642  0.37797857  1
  Co  Co108  1  0.75037526  0.24544800  0.50366852  1
  Co  Co109  1  0.25088825  0.00237306  0.49537877  1
  Co  Co110  1  -0.00227711  0.49927669  0.00130549  1
  Co  Co111  1  0.87584912  0.12928926  0.37018689  1
  Co  Co112  1  0.00058444  0.00450159  0.00371982  1
  Co  Co113  1  0.75097220  0.50170781  0.49990609  1
  Co  Co114  1  0.24699175  -0.00117473  0.75318383  1
  Co  Co115  1  0.12581156  0.87840417  0.61966771  1
  Co  Co116  1  0.00285240  0.25414338  0.74828314  1
  Co  Co117  1  0.49833471  -0.00244587  0.74869361  1
  Co  Co118  1  0.00021137  0.74744842  0.00260415  1
  Co  Co119  1  -0.00220347  0.00508192  0.49681781  1
  Co  Co120  1  0.12364565  0.87580996  0.88092037  1
  Co  Co121  1  0.12600993  0.12602645  0.13098964  1
  Co  Co122  1  -0.00063439  -0.00628548  0.74983688  1
  Co  Co123  1  0.87744374  0.87382215  0.37493200  1
  Co  Co124  1  0.00025556  0.74604376  0.49946262  1
  Co  Co125  1  0.75551472  -0.00295369  0.75204031  1
  Co  Co126  1  0.50438366  0.24938898  -0.00069056  1
  Co  Co127  1  0.62554564  0.37591205  0.87229261  1
