# generated using pymatgen
data_Fe45Co19
_symmetry_space_group_name_H-M   'P 1'
_cell_length_a   11.41442147
_cell_length_b   11.41534334
_cell_length_c   11.41565354
_cell_angle_alpha   89.99700910
_cell_angle_beta   89.99981859
_cell_angle_gamma   89.99079091
_symmetry_Int_Tables_number   1
_chemical_formula_structural   Fe45Co19
_chemical_formula_sum   'Fe90 Co38'
_cell_volume   1487.45438544
_cell_formula_units_Z   2
loop_
 _symmetry_equiv_pos_site_id
 _symmetry_equiv_pos_as_xyz
  1  'x, y, z'
loop_
 _atom_site_type_symbol
 _atom_site_label
 _atom_site_symmetry_multiplicity
 _atom_site_fract_x
 _atom_site_fract_y
 _atom_site_fract_z
 _atom_site_occupancy
  Fe  Fe0  1  0.37158833  0.37330824  0.12893866  1
  Fe  Fe1  1  0.12321354  0.12481250  0.87805313  1
  Fe  Fe2  1  0.75249816  -0.00023938  0.49810079  1
  Fe  Fe3  1  0.62467801  0.12625708  0.87550348  1
  Fe  Fe4  1  0.75251194  0.25064134  0.25027585  1
  Fe  Fe5  1  0.50186575  0.25047877  0.74826284  1
  Fe  Fe6  1  0.49881045  0.74920429  -0.00064257  1
  Fe  Fe7  1  0.37196494  0.62355051  0.37677317  1
  Fe  Fe8  1  0.75255726  0.75244693  0.00210807  1
  Fe  Fe9  1  0.37678989  0.12363215  0.87399864  1
  Fe  Fe10  1  0.37313482  0.62364939  0.62334320  1
  Fe  Fe11  1  0.75075790  0.50120248  0.49453526  1
  Fe  Fe12  1  -0.00212993  -0.00217999  0.00132917  1
  Fe  Fe13  1  0.75089118  0.49858068  -0.00031425  1
  Fe  Fe14  1  0.24709930  0.74735623  0.25176470  1
  Fe  Fe15  1  0.37384770  0.37523141  0.62588221  1
  Fe  Fe16  1  0.75101202  0.00030372  0.25062241  1
  Fe  Fe17  1  0.62581180  0.37505177  0.12586461  1
  Fe  Fe18  1  0.62649814  0.87329023  0.87359216  1
  Fe  Fe19  1  0.74927893  0.00065175  0.75053042  1
  Fe  Fe20  1  0.62633105  0.37435124  0.62263111  1
  Fe  Fe21  1  0.37179065  0.37448176  0.37188429  1
  Fe  Fe22  1  0.88010453  0.37515502  0.37074126  1
  Fe  Fe23  1  0.62866666  0.87219417  0.62267860  1
  Fe  Fe24  1  0.24822186  0.49985573  0.00164813  1
  Fe  Fe25  1  0.25079072  0.75164769  -0.00072787  1
  Fe  Fe26  1  0.62659017  0.12515789  0.12652670  1
  Fe  Fe27  1  0.37726839  0.12711685  0.37632431  1
  Fe  Fe28  1  0.87320735  0.62313188  0.12923536  1
  Fe  Fe29  1  0.12349678  0.37354334  0.87503407  1
  Fe  Fe30  1  0.12472371  0.87502501  0.12530553  1
  Fe  Fe31  1  0.50011930  0.74854128  0.25075583  1
  Fe  Fe32  1  0.00093628  0.50044788  0.74977898  1
  Fe  Fe33  1  -0.00291023  0.75176430  -0.00002601  1
  Fe  Fe34  1  0.50101616  0.74696057  0.75136360  1
  Fe  Fe35  1  -0.00028774  -0.00159453  0.74958931  1
  Fe  Fe36  1  0.00628807  0.50313992  0.24800471  1
  Fe  Fe37  1  0.37406045  0.87585596  0.12788713  1
  Fe  Fe38  1  -0.00009434  0.74906937  0.25161029  1
  Fe  Fe39  1  0.12423647  0.87602417  0.62095452  1
  Fe  Fe40  1  -0.00363156  0.75148289  0.74814125  1
  Fe  Fe41  1  0.62600041  0.12724165  0.62085233  1
  Fe  Fe42  1  0.37605092  0.87681077  0.62551552  1
  Fe  Fe43  1  0.50146009  -0.00080024  0.00091596  1
  Fe  Fe44  1  0.24606742  0.25285350  0.49795389  1
  Fe  Fe45  1  0.50296081  0.50232310  0.75254141  1
  Fe  Fe46  1  0.62285860  0.37031043  0.37590803  1
  Fe  Fe47  1  0.62601724  0.87425264  0.12800090  1
  Fe  Fe48  1  0.12426575  0.87604898  0.37847110  1
  Fe  Fe49  1  0.12484786  0.62626241  0.62080143  1
  Fe  Fe50  1  0.24679651  0.00396372  0.25335518  1
  Fe  Fe51  1  0.00050707  0.49929541  0.00218171  1
  Fe  Fe52  1  0.00129961  0.00357453  0.24862358  1
  Fe  Fe53  1  0.62741844  0.87245093  0.37570829  1
  Fe  Fe54  1  0.87674231  0.12547598  0.62182273  1
  Fe  Fe55  1  0.50112706  0.50022348  0.25106831  1
  Fe  Fe56  1  0.87459970  0.12354935  0.87715733  1
  Fe  Fe57  1  0.37538323  0.12514721  0.62391529  1
  Fe  Fe58  1  0.75114817  0.25063612  0.74910539  1
  Fe  Fe59  1  0.24894285  0.75075223  0.74921650  1
  Fe  Fe60  1  -0.00831502  0.75107484  0.49937754  1
  Fe  Fe61  1  0.50093739  0.00062693  0.49936622  1
  Fe  Fe62  1  -0.00226929  0.25026736  0.00508748  1
  Fe  Fe63  1  0.24988822  -0.00165556  -0.00090441  1
  Fe  Fe64  1  0.87434848  0.37704797  0.62500072  1
  Fe  Fe65  1  0.49840568  0.75005802  0.49901640  1
  Fe  Fe66  1  0.37612308  0.87634685  0.87223296  1
  Fe  Fe67  1  0.50114613  0.00224453  0.25163651  1
  Fe  Fe68  1  0.62690728  0.62466640  0.12730899  1
  Fe  Fe69  1  0.24802039  0.24802288  0.75176186  1
  Fe  Fe70  1  0.87413361  0.62526422  0.87367548  1
  Fe  Fe71  1  0.87587027  0.37434136  0.87556091  1
  Fe  Fe72  1  0.00392860  0.49663891  0.50023674  1
  Fe  Fe73  1  0.37383469  0.62494060  0.12508285  1
  Fe  Fe74  1  0.12275779  0.12447526  0.61971225  1
  Fe  Fe75  1  0.62853857  0.62643984  0.62146695  1
  Fe  Fe76  1  0.75178442  0.25095372  0.00156354  1
  Fe  Fe77  1  0.49914534  0.49890965  0.49871675  1
  Fe  Fe78  1  0.74846356  0.50036935  0.75243137  1
  Fe  Fe79  1  0.24772311  0.50136219  0.74959366  1
  Fe  Fe80  1  0.49918994  0.25097784  0.00140190  1
  Fe  Fe81  1  0.24764301  -0.00004898  0.74898027  1
  Fe  Fe82  1  0.37312062  0.12578125  0.12502889  1
  Fe  Fe83  1  0.50080526  0.50083547  -0.00171335  1
  Fe  Fe84  1  0.12781837  0.37041630  0.12856558  1
  Fe  Fe85  1  0.12509403  0.62717123  0.87618834  1
  Fe  Fe86  1  0.87858323  0.12671782  0.37691116  1
  Fe  Fe87  1  -0.00092430  0.24964636  0.74825188  1
  Fe  Fe88  1  0.37396629  0.87545252  0.37428150  1
  Fe  Fe89  1  0.37547832  0.37626484  0.87386914  1
  Co  Co90  1  0.12463093  0.37398165  0.36784898  1
  Co  Co91  1  0.87178000  0.87770561  0.62668968  1
  Co  Co92  1  0.24648506  0.50558191  0.24914150  1
  Co  Co93  1  -0.00429500  -0.00403693  0.50052733  1
  Co  Co94  1  0.50074929  0.24926745  0.24898717  1
  Co  Co95  1  0.87425665  0.61983688  0.62458147  1
  Co  Co96  1  0.00154705  0.25649264  0.50150700  1
  Co  Co97  1  0.87512075  0.37842705  0.12895427  1
  Co  Co98  1  0.87513897  0.87740182  0.37073248  1
  Co  Co99  1  0.24690768  0.49562462  0.49947759  1
  Co  Co100  1  0.25234131  0.00052599  0.49880005  1
  Co  Co101  1  0.50348345  0.00068063  0.74745768  1
  Co  Co102  1  0.87257475  0.12208858  0.12384507  1
  Co  Co103  1  0.75731919  0.74768796  0.49651947  1
  Co  Co104  1  0.25207930  0.75242038  0.50019555  1
  Co  Co105  1  0.74565007  0.49833585  0.25467184  1
  Co  Co106  1  0.49865260  0.25058766  0.50040714  1
  Co  Co107  1  0.11866578  0.12496339  0.38161971  1
  Co  Co108  1  0.12378905  0.87428712  0.87537382  1
  Co  Co109  1  0.75194251  0.74819441  0.25268794  1
  Co  Co110  1  0.74858283  -0.00264950  -0.00007897  1
  Co  Co111  1  0.37214299  0.62395741  0.87551471  1
  Co  Co112  1  0.24660103  0.24291373  0.25313175  1
  Co  Co113  1  0.75293588  0.74886469  0.74787126  1
  Co  Co114  1  0.75434526  0.25214685  0.49850863  1
  Co  Co115  1  0.25128864  0.25108357  -0.00229179  1
  Co  Co116  1  0.87377158  0.87665044  0.87354948  1
  Co  Co117  1  0.12445740  0.62878100  0.12160937  1
  Co  Co118  1  0.12553569  0.37419161  0.62930767  1
  Co  Co119  1  0.62353814  0.62803530  0.37599495  1
  Co  Co120  1  0.62690317  0.12713166  0.37576548  1
  Co  Co121  1  0.62521792  0.37312288  0.87550920  1
  Co  Co122  1  0.87798772  0.61977971  0.37133189  1
  Co  Co123  1  0.12753550  0.12469404  0.12061930  1
  Co  Co124  1  0.12494337  0.62704690  0.38171156  1
  Co  Co125  1  0.87595430  0.87583252  0.12831463  1
  Co  Co126  1  0.00043534  0.24463739  0.24603292  1
  Co  Co127  1  0.62875784  0.62716048  0.87690422  1
