# generated using pymatgen
data_Fe45Co19
_symmetry_space_group_name_H-M   'P 1'
_cell_length_a   11.41598467
_cell_length_b   11.41600230
_cell_length_c   11.41568243
_cell_angle_alpha   90.01482503
_cell_angle_beta   89.99756069
_cell_angle_gamma   90.00464181
_symmetry_Int_Tables_number   1
_chemical_formula_structural   Fe45Co19
_chemical_formula_sum   'Fe90 Co38'
_cell_volume   1487.74769643
_cell_formula_units_Z   2
loop_
 _symmetry_equiv_pos_site_id
 _symmetry_equiv_pos_as_xyz
  1  'x, y, z'
loop_
 _atom_site_type_symbol
 _atom_site_label
 _atom_site_symmetry_multiplicity
 _atom_site_fract_x
 _atom_site_fract_y
 _atom_site_fract_z
 _atom_site_occupancy
  Fe  Fe0  1  0.12601900  0.62314046  0.62565486  1
  Fe  Fe1  1  0.00039232  0.25308582  0.50170757  1
  Fe  Fe2  1  0.75090688  0.74850108  0.50101027  1
  Fe  Fe3  1  0.24970879  0.50043515  0.24672245  1
  Fe  Fe4  1  0.24629748  -0.00116774  0.25075735  1
  Fe  Fe5  1  -0.00138256  0.49973665  0.50111147  1
  Fe  Fe6  1  0.12901958  0.87492900  0.62352101  1
  Fe  Fe7  1  0.12630962  0.12732941  0.62385566  1
  Fe  Fe8  1  0.12595084  0.62454109  0.37674217  1
  Fe  Fe9  1  0.50093664  0.49634010  0.75090248  1
  Fe  Fe10  1  0.74826035  -0.00101705  0.25248855  1
  Fe  Fe11  1  0.74513253  0.49638021  0.74952728  1
  Fe  Fe12  1  0.00199485  -0.00072654  0.50054180  1
  Fe  Fe13  1  0.00015829  0.75059451  -0.00586847  1
  Fe  Fe14  1  0.50081616  0.49951231  0.24962648  1
  Fe  Fe15  1  0.87409571  0.62214643  0.62738311  1
  Fe  Fe16  1  0.00066012  0.74944996  0.50053000  1
  Fe  Fe17  1  0.37542859  0.37199695  0.12827929  1
  Fe  Fe18  1  0.49654669  0.75015942  0.50216674  1
  Fe  Fe19  1  0.87553371  0.62658164  0.12308693  1
  Fe  Fe20  1  0.87506330  0.12535211  0.37571918  1
  Fe  Fe21  1  0.62300481  0.62784544  0.12228223  1
  Fe  Fe22  1  0.49929905  0.24898917  0.00035157  1
  Fe  Fe23  1  0.62257307  0.12439386  0.87567255  1
  Fe  Fe24  1  -0.00017179  0.50135817  0.24862473  1
  Fe  Fe25  1  0.49707134  0.49798710  0.49990935  1
  Fe  Fe26  1  0.75110952  -0.00075369  -0.00215067  1
  Fe  Fe27  1  0.24856169  0.74996681  0.25075536  1
  Fe  Fe28  1  0.87499912  0.37545645  0.87487660  1
  Fe  Fe29  1  0.49745597  -0.00521860  -0.00003287  1
  Fe  Fe30  1  0.12198590  0.12412276  0.12382697  1
  Fe  Fe31  1  0.62344506  0.12763533  0.62323616  1
  Fe  Fe32  1  0.25222941  0.74815850  0.74699394  1
  Fe  Fe33  1  0.74885279  0.00052791  0.74891872  1
  Fe  Fe34  1  0.74704655  0.25192580  0.74940204  1
  Fe  Fe35  1  0.87516328  0.87562286  0.12473906  1
  Fe  Fe36  1  0.50314332  -0.00240287  0.25346915  1
  Fe  Fe37  1  0.62258722  0.87667129  0.62430291  1
  Fe  Fe38  1  0.12701528  0.12652749  0.37591958  1
  Fe  Fe39  1  0.87851142  0.12375004  0.12511109  1
  Fe  Fe40  1  0.00320034  0.50056547  0.75296169  1
  Fe  Fe41  1  0.49798987  0.50017303  -0.00058987  1
  Fe  Fe42  1  0.49931643  0.75161863  0.75000902  1
  Fe  Fe43  1  0.25194445  -0.00176902  -0.00023692  1
  Fe  Fe44  1  0.25226835  0.75256540  -0.00036210  1
  Fe  Fe45  1  0.00158673  0.74976380  0.25097960  1
  Fe  Fe46  1  0.50032894  0.75341696  0.24965080  1
  Fe  Fe47  1  0.62424631  0.62607121  0.37689219  1
  Fe  Fe48  1  0.62543144  0.37454552  0.12320604  1
  Fe  Fe49  1  0.87626901  0.37494644  0.12310152  1
  Fe  Fe50  1  0.87733492  0.87466276  0.37514338  1
  Fe  Fe51  1  0.75160103  0.25260710  0.50255155  1
  Fe  Fe52  1  0.12270505  0.12058341  0.87682598  1
  Fe  Fe53  1  0.74947325  -0.00038955  0.50040739  1
  Fe  Fe54  1  0.87419959  0.37688166  0.37487951  1
  Fe  Fe55  1  0.12373636  0.87539465  0.12442497  1
  Fe  Fe56  1  0.24969826  0.24805104  0.00044769  1
  Fe  Fe57  1  0.62331422  0.12346606  0.12594197  1
  Fe  Fe58  1  0.37517857  0.62582460  0.87478670  1
  Fe  Fe59  1  0.12850000  0.37569490  0.37606126  1
  Fe  Fe60  1  0.25278739  0.50056455  0.50324537  1
  Fe  Fe61  1  0.62380618  0.62282501  0.62486514  1
  Fe  Fe62  1  0.74973912  0.50290088  0.25070780  1
  Fe  Fe63  1  0.00190722  0.74989907  0.75330699  1
  Fe  Fe64  1  0.37408304  0.62459071  0.37438834  1
  Fe  Fe65  1  0.00385745  0.25237529  0.75080428  1
  Fe  Fe66  1  0.62524590  0.37436049  0.37636029  1
  Fe  Fe67  1  0.74774426  0.75136116  0.75126656  1
  Fe  Fe68  1  0.12549262  0.62351013  0.12014993  1
  Fe  Fe69  1  0.74851228  0.24900635  0.24887447  1
  Fe  Fe70  1  0.37238304  0.12775979  0.62741946  1
  Fe  Fe71  1  0.37350428  0.37103351  0.87342253  1
  Fe  Fe72  1  0.37212086  0.37108609  0.62903787  1
  Fe  Fe73  1  0.25087183  0.00165403  0.75004476  1
  Fe  Fe74  1  0.37592494  0.62790510  0.12487402  1
  Fe  Fe75  1  0.49445005  0.24916663  0.49486605  1
  Fe  Fe76  1  0.87590625  0.87543099  0.62694308  1
  Fe  Fe77  1  0.49743911  0.00252932  0.49777995  1
  Fe  Fe78  1  0.12375305  0.37661369  0.12112350  1
  Fe  Fe79  1  0.74910050  0.75006462  0.25183143  1
  Fe  Fe80  1  0.37044219  0.87539353  0.37788551  1
  Fe  Fe81  1  0.87941034  0.12249772  0.87221315  1
  Fe  Fe82  1  0.87711312  0.12634175  0.62652514  1
  Fe  Fe83  1  0.74983907  0.50187358  -0.00224087  1
  Fe  Fe84  1  0.12799415  0.37919760  0.87800523  1
  Fe  Fe85  1  0.49768646  0.00127480  0.75021127  1
  Fe  Fe86  1  0.00136687  0.25035958  0.24971282  1
  Fe  Fe87  1  0.37584187  0.12447315  0.12919583  1
  Fe  Fe88  1  0.75139733  0.24739691  -0.00127993  1
  Fe  Fe89  1  0.74788457  0.75160068  -0.00542099  1
  Co  Co90  1  0.49873714  0.75312512  -0.00054719  1
  Co  Co91  1  0.50227152  0.25026357  0.25224364  1
  Co  Co92  1  0.37540594  0.12541694  0.87621173  1
  Co  Co93  1  0.25601141  0.49936022  0.00178313  1
  Co  Co94  1  0.25150431  0.50095318  0.74867818  1
  Co  Co95  1  0.87715654  0.37714102  0.62760568  1
  Co  Co96  1  0.87231181  0.62440620  0.87159101  1
  Co  Co97  1  0.62404665  0.37292031  0.87899256  1
  Co  Co98  1  0.62706855  0.12717938  0.37685136  1
  Co  Co99  1  0.87669358  0.62543942  0.37537905  1
  Co  Co100  1  0.62497602  0.87286294  0.37887547  1
  Co  Co101  1  0.37364498  0.87464797  0.87222067  1
  Co  Co102  1  -0.00079116  -0.00414769  -0.00021301  1
  Co  Co103  1  0.74992786  0.50099809  0.50027902  1
  Co  Co104  1  0.62298357  0.87735619  0.87358593  1
  Co  Co105  1  0.12685669  0.87322732  0.37770964  1
  Co  Co106  1  0.62129257  0.37249573  0.62110325  1
  Co  Co107  1  0.00118190  0.00004727  0.25202869  1
  Co  Co108  1  0.00028285  0.25007687  -0.00199870  1
  Co  Co109  1  -0.00260158  0.50320028  -0.00221476  1
  Co  Co110  1  0.12819750  0.87604090  0.87284515  1
  Co  Co111  1  0.25031278  0.00304885  0.50068251  1
  Co  Co112  1  0.87559404  0.87766606  0.87193165  1
  Co  Co113  1  0.13090406  0.62416912  0.87736249  1
  Co  Co114  1  0.25178255  0.74600260  0.50310050  1
  Co  Co115  1  0.37127983  0.12400268  0.36843659  1
  Co  Co116  1  0.62681246  0.87475141  0.12370195  1
  Co  Co117  1  0.62211135  0.62451689  0.87469644  1
  Co  Co118  1  0.24539058  0.24754804  0.75402006  1
  Co  Co119  1  0.37379142  0.87572383  0.12848740  1
  Co  Co120  1  0.24694231  0.25054610  0.24731013  1
  Co  Co121  1  0.37793731  0.62253925  0.62726154  1
  Co  Co122  1  0.37419474  0.87792135  0.62388847  1
  Co  Co123  1  0.25342623  0.25033879  0.49885526  1
  Co  Co124  1  0.00282447  -0.00175861  0.74597998  1
  Co  Co125  1  0.50224669  0.24898383  0.75137662  1
  Co  Co126  1  0.37149122  0.37635110  0.37059510  1
  Co  Co127  1  0.12813902  0.37505189  0.62442683  1
