# generated using pymatgen
data_Fe45Co19
_symmetry_space_group_name_H-M   'P 1'
_cell_length_a   11.41496363
_cell_length_b   11.41458120
_cell_length_c   11.41473721
_cell_angle_alpha   89.99996695
_cell_angle_beta   89.99707927
_cell_angle_gamma   89.99214589
_symmetry_Int_Tables_number   1
_chemical_formula_structural   Fe45Co19
_chemical_formula_sum   'Fe90 Co38'
_cell_volume   1487.30633247
_cell_formula_units_Z   2
loop_
 _symmetry_equiv_pos_site_id
 _symmetry_equiv_pos_as_xyz
  1  'x, y, z'
loop_
 _atom_site_type_symbol
 _atom_site_label
 _atom_site_symmetry_multiplicity
 _atom_site_fract_x
 _atom_site_fract_y
 _atom_site_fract_z
 _atom_site_occupancy
  Fe  Fe0  1  0.37469629  0.62416661  0.37351684  1
  Fe  Fe1  1  0.12251348  0.87369694  0.62507409  1
  Fe  Fe2  1  0.75170325  0.50003634  0.24835943  1
  Fe  Fe3  1  0.87950332  0.62804874  0.62500216  1
  Fe  Fe4  1  0.37603964  0.37630402  0.87540723  1
  Fe  Fe5  1  0.37544701  0.12412907  0.12407377  1
  Fe  Fe6  1  0.25160226  0.75084849  0.75134841  1
  Fe  Fe7  1  0.00086517  0.00079432  0.00055164  1
  Fe  Fe8  1  0.00018838  0.24898283  0.75107157  1
  Fe  Fe9  1  0.87513767  0.62666777  0.12690545  1
  Fe  Fe10  1  0.37744789  0.62586742  0.62450561  1
  Fe  Fe11  1  0.87435418  0.12562054  0.87768664  1
  Fe  Fe12  1  0.87693514  0.37390374  0.87739395  1
  Fe  Fe13  1  0.49884019  0.24974708  0.75020769  1
  Fe  Fe14  1  0.75010992  -0.00351167  0.74993458  1
  Fe  Fe15  1  0.50129002  0.24959790  0.25135946  1
  Fe  Fe16  1  0.62712900  0.37465139  0.12389014  1
  Fe  Fe17  1  0.87281778  0.12388894  0.62385739  1
  Fe  Fe18  1  0.62753889  0.12315792  0.62267443  1
  Fe  Fe19  1  0.87393203  0.87076490  0.37208423  1
  Fe  Fe20  1  0.75482818  0.49908232  0.50208573  1
  Fe  Fe21  1  0.24838055  0.24932935  0.00174583  1
  Fe  Fe22  1  0.00172962  0.74862548  0.00110598  1
  Fe  Fe23  1  0.50010692  0.24948862  -0.00114314  1
  Fe  Fe24  1  0.62239537  0.87329279  0.62659030  1
  Fe  Fe25  1  -0.00174069  0.50531799  0.25542914  1
  Fe  Fe26  1  0.49701935  0.75022770  0.00195956  1
  Fe  Fe27  1  0.24898298  0.25202996  0.49556591  1
  Fe  Fe28  1  0.50094709  0.00047616  0.49694724  1
  Fe  Fe29  1  0.50326015  0.50115255  0.24972494  1
  Fe  Fe30  1  0.74906865  0.00011187  0.25062640  1
  Fe  Fe31  1  0.12477994  0.12468532  0.62296386  1
  Fe  Fe32  1  0.50095935  0.50030816  0.49825902  1
  Fe  Fe33  1  0.62114796  0.62781651  0.62697217  1
  Fe  Fe34  1  0.00055822  0.50110335  0.75139165  1
  Fe  Fe35  1  0.86967795  0.12529295  0.37662635  1
  Fe  Fe36  1  0.00006082  -0.00087263  0.75014024  1
  Fe  Fe37  1  0.62137987  0.62517220  0.87530511  1
  Fe  Fe38  1  0.37557838  0.37567711  0.62262248  1
  Fe  Fe39  1  0.62784120  0.12600910  0.12504674  1
  Fe  Fe40  1  -0.00362654  0.25298131  0.49882647  1
  Fe  Fe41  1  0.75126064  0.50046686  0.00046222  1
  Fe  Fe42  1  0.24951339  0.74723274  0.24563221  1
  Fe  Fe43  1  0.12292635  0.37590891  0.87754619  1
  Fe  Fe44  1  0.24819806  0.49788674  0.49625799  1
  Fe  Fe45  1  0.62482516  0.37708470  0.87504895  1
  Fe  Fe46  1  -0.00088285  -0.00004922  0.25092353  1
  Fe  Fe47  1  0.87451776  0.87246551  0.87326843  1
  Fe  Fe48  1  0.24865025  -0.00025229  0.49799738  1
  Fe  Fe49  1  0.62953229  0.62628613  0.37522069  1
  Fe  Fe50  1  0.12635806  0.87316502  0.12409664  1
  Fe  Fe51  1  0.62464158  0.87431967  0.12396589  1
  Fe  Fe52  1  0.50140526  0.74801783  0.24836028  1
  Fe  Fe53  1  0.75053199  0.50208051  0.74983003  1
  Fe  Fe54  1  0.12825165  0.87561440  0.87698614  1
  Fe  Fe55  1  0.37681756  0.62121089  0.87645036  1
  Fe  Fe56  1  0.37515077  0.87372328  0.37190622  1
  Fe  Fe57  1  0.12758023  0.12354125  0.87371377  1
  Fe  Fe58  1  0.37694903  0.87459207  0.62381611  1
  Fe  Fe59  1  0.62894971  0.37253344  0.37488900  1
  Fe  Fe60  1  0.12544167  0.87245401  0.37330565  1
  Fe  Fe61  1  0.62502587  0.87377272  0.37476136  1
  Fe  Fe62  1  0.74967997  0.74941105  0.00095984  1
  Fe  Fe63  1  0.25065914  0.49948814  0.74828634  1
  Fe  Fe64  1  0.37600271  0.37634424  0.12714567  1
  Fe  Fe65  1  0.62558147  0.12485862  0.87561309  1
  Fe  Fe66  1  0.87546307  0.62779434  0.87352749  1
  Fe  Fe67  1  0.25067945  0.25036944  0.75015254  1
  Fe  Fe68  1  -0.00608687  0.24866278  0.24886040  1
  Fe  Fe69  1  0.37389402  0.12635005  0.37383032  1
  Fe  Fe70  1  0.12192201  0.37633605  0.62358706  1
  Fe  Fe71  1  0.11930292  0.37676758  0.12630932  1
  Fe  Fe72  1  0.24903094  0.00154305  0.24978173  1
  Fe  Fe73  1  0.24748700  0.49917214  0.25143595  1
  Fe  Fe74  1  0.12307472  0.12643717  0.12844777  1
  Fe  Fe75  1  0.74904166  -0.00062728  -0.00055285  1
  Fe  Fe76  1  0.62612496  0.37580154  0.62586630  1
  Fe  Fe77  1  0.75088518  0.75259717  0.50307024  1
  Fe  Fe78  1  0.37160860  0.88093939  0.88130570  1
  Fe  Fe79  1  0.49919457  -0.00101458  0.75304442  1
  Fe  Fe80  1  0.50155427  0.24952858  0.49848124  1
  Fe  Fe81  1  0.75055244  0.25095436  0.75016822  1
  Fe  Fe82  1  0.24967750  0.49987021  0.00322192  1
  Fe  Fe83  1  0.87517177  0.87442769  0.12564806  1
  Fe  Fe84  1  0.12667692  0.62466609  0.87683962  1
  Fe  Fe85  1  -0.00199562  -0.00242915  0.49805142  1
  Fe  Fe86  1  0.37350048  0.12430602  0.62490698  1
  Fe  Fe87  1  0.25117730  0.75044723  0.49986122  1
  Fe  Fe88  1  0.50131510  0.00064872  0.24985074  1
  Fe  Fe89  1  0.12275074  0.62525909  0.62195832  1
  Co  Co90  1  0.24615494  0.00515675  0.00541730  1
  Co  Co91  1  0.74744315  0.75086822  0.24761905  1
  Co  Co92  1  -0.00225853  0.49917812  0.49533905  1
  Co  Co93  1  0.62569090  0.62526654  0.12284166  1
  Co  Co94  1  0.37324553  0.12206570  0.87566670  1
  Co  Co95  1  0.12643108  0.62784744  0.37768315  1
  Co  Co96  1  0.50343148  0.00135588  0.00088411  1
  Co  Co97  1  0.12337120  0.62279263  0.12441815  1
  Co  Co98  1  0.49571535  0.75310233  0.75522445  1
  Co  Co99  1  0.00202888  0.74842348  0.24904119  1
  Co  Co100  1  0.37396683  0.87699150  0.12434212  1
  Co  Co101  1  0.49932233  0.49849147  0.74753484  1
  Co  Co102  1  0.87877639  0.37821437  0.12294162  1
  Co  Co103  1  0.87714756  0.37589698  0.62932134  1
  Co  Co104  1  0.37706953  0.37563776  0.37370341  1
  Co  Co105  1  0.37627105  0.62169399  0.12696071  1
  Co  Co106  1  0.12160419  0.37217873  0.37181003  1
  Co  Co107  1  0.87128847  0.63017270  0.37492095  1
  Co  Co108  1  0.00431488  0.74972207  0.75327292  1
  Co  Co109  1  0.87249338  0.37474357  0.37277054  1
  Co  Co110  1  0.50121249  0.49851580  0.00313732  1
  Co  Co111  1  0.12329911  0.12725645  0.37478292  1
  Co  Co112  1  0.00100244  0.24658987  0.00103753  1
  Co  Co113  1  0.87296295  0.12168930  0.12291571  1
  Co  Co114  1  0.75125068  0.25357199  0.50238447  1
  Co  Co115  1  0.50015691  0.74912235  0.49594275  1
  Co  Co116  1  -0.00095434  0.75160469  0.49666326  1
  Co  Co117  1  0.75073631  -0.00607424  0.50010640  1
  Co  Co118  1  0.25065904  0.25114491  0.24877465  1
  Co  Co119  1  0.75290837  0.25035894  0.24614568  1
  Co  Co120  1  0.62932654  0.12689564  0.37595705  1
  Co  Co121  1  0.25211714  0.74567366  0.00146750  1
  Co  Co122  1  0.87731078  0.87224370  0.62909651  1
  Co  Co123  1  0.74810035  0.74855433  0.74897507  1
  Co  Co124  1  -0.00201066  0.50455475  -0.00126595  1
  Co  Co125  1  0.24995577  -0.00167342  0.74645520  1
  Co  Co126  1  0.75081797  0.25170474  0.00124691  1
  Co  Co127  1  0.62664183  0.87282993  0.87666901  1
