# generated using pymatgen
data_Fe45Co19
_symmetry_space_group_name_H-M   'P 1'
_cell_length_a   11.41559113
_cell_length_b   11.41550033
_cell_length_c   11.41556906
_cell_angle_alpha   90.00972996
_cell_angle_beta   90.00054676
_cell_angle_gamma   89.99459759
_symmetry_Int_Tables_number   1
_chemical_formula_structural   Fe45Co19
_chemical_formula_sum   'Fe90 Co38'
_cell_volume   1487.61624967
_cell_formula_units_Z   2
loop_
 _symmetry_equiv_pos_site_id
 _symmetry_equiv_pos_as_xyz
  1  'x, y, z'
loop_
 _atom_site_type_symbol
 _atom_site_label
 _atom_site_symmetry_multiplicity
 _atom_site_fract_x
 _atom_site_fract_y
 _atom_site_fract_z
 _atom_site_occupancy
  Fe  Fe0  1  0.37252564  0.37653587  0.62523675  1
  Fe  Fe1  1  0.87482310  0.12488758  0.62790254  1
  Fe  Fe2  1  0.25054607  0.24931912  0.75169281  1
  Fe  Fe3  1  0.74900865  0.75456077  0.25228822  1
  Fe  Fe4  1  0.24919486  0.24603630  0.49868666  1
  Fe  Fe5  1  0.37591306  0.12080227  0.37362305  1
  Fe  Fe6  1  0.87516560  0.12719731  0.12544755  1
  Fe  Fe7  1  0.24903087  0.74914248  0.24933378  1
  Fe  Fe8  1  0.62635944  0.37353873  0.37387204  1
  Fe  Fe9  1  -0.00015483  -0.00231983  0.50237670  1
  Fe  Fe10  1  0.37835842  0.12338240  0.62984913  1
  Fe  Fe11  1  0.62637081  0.62566845  0.37503362  1
  Fe  Fe12  1  0.74960390  0.25124248  0.00041742  1
  Fe  Fe13  1  0.87411812  0.62562724  0.87507134  1
  Fe  Fe14  1  0.62323172  0.37514377  0.87732042  1
  Fe  Fe15  1  0.12556916  0.37511701  0.12273682  1
  Fe  Fe16  1  0.49877459  0.74964311  0.49866455  1
  Fe  Fe17  1  0.12692507  0.87772513  0.37763497  1
  Fe  Fe18  1  0.12514775  0.37508997  0.87397581  1
  Fe  Fe19  1  0.12434952  0.62757723  0.87651671  1
  Fe  Fe20  1  0.12383046  0.62402422  0.37434180  1
  Fe  Fe21  1  0.25034610  0.74951696  0.75192820  1
  Fe  Fe22  1  0.87618175  0.12416135  0.37332737  1
  Fe  Fe23  1  0.37694994  0.37607902  0.87471729  1
  Fe  Fe24  1  0.24956942  -0.00047883  0.24860830  1
  Fe  Fe25  1  -0.00337841  0.75279170  0.49904511  1
  Fe  Fe26  1  -0.00147176  -0.00193657  0.75169832  1
  Fe  Fe27  1  0.37729748  0.87312316  0.87758627  1
  Fe  Fe28  1  0.50057722  0.24931363  0.50276659  1
  Fe  Fe29  1  0.50004424  0.50385123  0.00376584  1
  Fe  Fe30  1  0.37625293  0.37403953  0.12421665  1
  Fe  Fe31  1  0.63001548  0.87089905  0.62193412  1
  Fe  Fe32  1  0.50014737  0.50152006  0.24895758  1
  Fe  Fe33  1  0.37719385  0.87258471  0.12484895  1
  Fe  Fe34  1  0.62383491  0.62529130  0.87557559  1
  Fe  Fe35  1  0.12361846  0.87359886  0.87822394  1
  Fe  Fe36  1  0.12532034  0.87274692  0.12027039  1
  Fe  Fe37  1  0.12471024  0.62698728  0.62577453  1
  Fe  Fe38  1  0.74983233  0.75014079  0.00063961  1
  Fe  Fe39  1  0.50021747  0.24868209  0.24891883  1
  Fe  Fe40  1  0.87504973  0.62560518  0.12728532  1
  Fe  Fe41  1  0.00071347  0.75151251  0.24945441  1
  Fe  Fe42  1  0.62381781  0.87428962  0.87882206  1
  Fe  Fe43  1  0.24832589  0.24965801  0.25202601  1
  Fe  Fe44  1  0.75098012  0.50256453  0.49936476  1
  Fe  Fe45  1  -0.00002494  0.49985266  0.74991210  1
  Fe  Fe46  1  0.50197033  0.75052432  0.74952975  1
  Fe  Fe47  1  0.87401255  0.87593815  0.12333817  1
  Fe  Fe48  1  0.75030590  0.00207269  -0.00074507  1
  Fe  Fe49  1  0.75117542  -0.00125986  0.49865960  1
  Fe  Fe50  1  0.00147569  0.25246331  0.25325319  1
  Fe  Fe51  1  0.87143296  0.62981897  0.62515954  1
  Fe  Fe52  1  0.50256645  0.75174318  0.24981779  1
  Fe  Fe53  1  0.50065133  0.50083847  0.49979671  1
  Fe  Fe54  1  0.12572056  0.37505727  0.62531312  1
  Fe  Fe55  1  -0.00191829  0.00162134  -0.00166148  1
  Fe  Fe56  1  0.49810673  0.00309061  0.00226315  1
  Fe  Fe57  1  0.00179608  0.25036729  0.49817385  1
  Fe  Fe58  1  0.87491798  0.37390092  0.62620908  1
  Fe  Fe59  1  0.75047273  0.49800686  0.00312433  1
  Fe  Fe60  1  -0.00197802  0.24959703  -0.00453028  1
  Fe  Fe61  1  0.62657995  0.37607114  0.62345181  1
  Fe  Fe62  1  0.25420100  0.24630377  -0.00293567  1
  Fe  Fe63  1  0.37226032  0.87485257  0.62426305  1
  Fe  Fe64  1  0.50092478  0.50006083  0.74804221  1
  Fe  Fe65  1  0.12444725  0.12337233  0.62757381  1
  Fe  Fe66  1  0.74817532  0.25043612  0.74999917  1
  Fe  Fe67  1  0.37541251  0.62388339  0.62707794  1
  Fe  Fe68  1  0.25104428  0.50167125  0.24891259  1
  Fe  Fe69  1  0.49945878  -0.00185058  0.50214097  1
  Fe  Fe70  1  0.25005776  0.50252541  0.49967586  1
  Fe  Fe71  1  -0.00215982  0.49995620  0.49897580  1
  Fe  Fe72  1  -0.00193200  0.50030831  -0.00003803  1
  Fe  Fe73  1  -0.00098082  0.49644620  0.25131062  1
  Fe  Fe74  1  0.00201211  -0.00069687  0.24742559  1
  Fe  Fe75  1  0.37446692  0.37527124  0.37583882  1
  Fe  Fe76  1  -0.00242572  0.75305159  0.75069340  1
  Fe  Fe77  1  0.25140915  0.50516695  -0.00044410  1
  Fe  Fe78  1  0.12572665  0.12681325  0.12313693  1
  Fe  Fe79  1  0.25273394  0.00228421  -0.00108403  1
  Fe  Fe80  1  0.25085571  0.74960576  0.49859731  1
  Fe  Fe81  1  0.61979959  0.12625329  0.87152825  1
  Fe  Fe82  1  0.62363255  0.12332542  0.37491896  1
  Fe  Fe83  1  0.24943144  -0.00160825  0.75179316  1
  Fe  Fe84  1  0.74852008  -0.00211013  0.75167996  1
  Fe  Fe85  1  0.74756750  -0.00093398  0.24990176  1
  Fe  Fe86  1  0.75132489  0.49556358  0.24869626  1
  Fe  Fe87  1  0.74880481  0.50203174  0.74916968  1
  Fe  Fe88  1  0.74918265  0.24738095  0.49995818  1
  Fe  Fe89  1  0.62365487  0.12599575  0.12531226  1
  Co  Co90  1  0.87726128  0.87873542  0.37274896  1
  Co  Co91  1  0.62462481  0.87625352  0.12183177  1
  Co  Co92  1  0.00057953  0.25064409  0.75149440  1
  Co  Co93  1  0.49783898  0.24665803  0.00078089  1
  Co  Co94  1  0.25107682  0.74703806  0.00032278  1
  Co  Co95  1  0.62825541  0.62560780  0.12750669  1
  Co  Co96  1  0.87504093  0.62465473  0.37202660  1
  Co  Co97  1  0.37576553  0.62845988  0.12619343  1
  Co  Co98  1  0.62192411  0.37356697  0.12504798  1
  Co  Co99  1  0.37355365  0.12531906  0.12812848  1
  Co  Co100  1  0.74795571  0.75022668  0.75429456  1
  Co  Co101  1  0.50181614  -0.00086625  0.24747045  1
  Co  Co102  1  0.50315784  -0.00735634  0.74718583  1
  Co  Co103  1  -0.00264660  0.74878579  0.00146296  1
  Co  Co104  1  0.74917216  0.24917924  0.24882707  1
  Co  Co105  1  0.12311931  0.62374216  0.12531795  1
  Co  Co106  1  0.87302186  0.12572170  0.87274069  1
  Co  Co107  1  0.12424547  0.12072373  0.37463787  1
  Co  Co108  1  0.87068557  0.87376014  0.62708930  1
  Co  Co109  1  0.24831609  0.50176733  0.75167699  1
  Co  Co110  1  0.87204073  0.37302304  0.37705724  1
  Co  Co111  1  0.37419907  0.87694762  0.37376838  1
  Co  Co112  1  0.87704758  0.37223239  0.12422379  1
  Co  Co113  1  0.37793144  0.62580909  0.87333340  1
  Co  Co114  1  0.12497480  0.12370742  0.87502023  1
  Co  Co115  1  0.87311065  0.37537972  0.87296818  1
  Co  Co116  1  0.87446666  0.87487225  0.87664563  1
  Co  Co117  1  0.62237677  0.87657245  0.37716898  1
  Co  Co118  1  0.12791418  0.37809744  0.37695499  1
  Co  Co119  1  0.25148579  0.00220469  0.50163898  1
  Co  Co120  1  0.50207639  0.74660192  0.00201198  1
  Co  Co121  1  0.37586470  0.62543590  0.37408132  1
  Co  Co122  1  0.62466490  0.12268035  0.62664429  1
  Co  Co123  1  0.75365343  0.75086274  0.49376988  1
  Co  Co124  1  0.62592811  0.62838226  0.62262244  1
  Co  Co125  1  0.50129030  0.25516308  0.74690965  1
  Co  Co126  1  0.12630571  0.87470250  0.62493640  1
  Co  Co127  1  0.38019586  0.12315503  0.86849375  1
