# generated using pymatgen
data_Fe45Co19
_symmetry_space_group_name_H-M   'P 1'
_cell_length_a   11.41606678
_cell_length_b   11.41421881
_cell_length_c   11.41580386
_cell_angle_alpha   89.99932579
_cell_angle_beta   89.99979476
_cell_angle_gamma   89.99808472
_symmetry_Int_Tables_number   1
_chemical_formula_structural   Fe45Co19
_chemical_formula_sum   'Fe90 Co38'
_cell_volume   1487.54184882
_cell_formula_units_Z   2
loop_
 _symmetry_equiv_pos_site_id
 _symmetry_equiv_pos_as_xyz
  1  'x, y, z'
loop_
 _atom_site_type_symbol
 _atom_site_label
 _atom_site_symmetry_multiplicity
 _atom_site_fract_x
 _atom_site_fract_y
 _atom_site_fract_z
 _atom_site_occupancy
  Fe  Fe0  1  0.62389945  0.37375669  0.12248483  1
  Fe  Fe1  1  0.12566264  0.12525500  0.62489537  1
  Fe  Fe2  1  0.24943525  0.74721909  0.00492030  1
  Fe  Fe3  1  0.62376638  0.87725029  0.37777517  1
  Fe  Fe4  1  0.25340783  0.00155560  0.50144993  1
  Fe  Fe5  1  0.12491996  0.87626180  0.62585521  1
  Fe  Fe6  1  0.50322549  0.24779678  0.50074648  1
  Fe  Fe7  1  0.00172169  0.75034506  0.00091944  1
  Fe  Fe8  1  0.75032527  0.25124277  -0.00336121  1
  Fe  Fe9  1  0.75266755  0.49980825  0.75256730  1
  Fe  Fe10  1  0.87545705  0.62569218  0.12434759  1
  Fe  Fe11  1  0.74893191  0.75161079  0.00051881  1
  Fe  Fe12  1  0.12771675  0.12709408  0.37630283  1
  Fe  Fe13  1  -0.00230128  0.24915170  0.75253914  1
  Fe  Fe14  1  0.37566276  0.87309472  0.62522646  1
  Fe  Fe15  1  0.50007130  0.49688732  -0.00463649  1
  Fe  Fe16  1  0.87492884  0.37469434  0.12392934  1
  Fe  Fe17  1  0.74821996  0.00074228  0.74971971  1
  Fe  Fe18  1  0.62381683  0.87749270  0.12350155  1
  Fe  Fe19  1  -0.00118793  0.00145468  0.49934924  1
  Fe  Fe20  1  0.00033803  0.50089158  0.49855848  1
  Fe  Fe21  1  0.12482988  0.62504630  0.87566388  1
  Fe  Fe22  1  0.87070467  0.12763944  0.62455213  1
  Fe  Fe23  1  0.12887314  0.62265955  0.36844020  1
  Fe  Fe24  1  0.49971797  0.00120657  -0.00278329  1
  Fe  Fe25  1  0.37645537  0.87684070  0.12382997  1
  Fe  Fe26  1  0.25222738  0.49853667  0.50003280  1
  Fe  Fe27  1  0.74700964  0.24811593  0.24990320  1
  Fe  Fe28  1  0.75106030  0.74868795  0.74928006  1
  Fe  Fe29  1  0.87304725  0.37396912  0.37542648  1
  Fe  Fe30  1  0.25259384  0.24867624  -0.00155876  1
  Fe  Fe31  1  0.74747551  0.75202296  0.24855805  1
  Fe  Fe32  1  0.62422810  0.37807719  0.62749425  1
  Fe  Fe33  1  -0.00062812  0.25049027  0.49918066  1
  Fe  Fe34  1  0.37850862  0.37736047  0.62536734  1
  Fe  Fe35  1  0.00123590  0.75051990  0.24918171  1
  Fe  Fe36  1  0.12562765  0.37735433  0.12611469  1
  Fe  Fe37  1  0.12715272  0.87646677  0.87362148  1
  Fe  Fe38  1  0.49857092  0.74894098  0.24996558  1
  Fe  Fe39  1  -0.00049607  0.00151498  -0.00169662  1
  Fe  Fe40  1  0.25187223  0.00037233  0.25116838  1
  Fe  Fe41  1  0.49749115  0.50072942  0.25214630  1
  Fe  Fe42  1  0.87226356  0.62462941  0.37424247  1
  Fe  Fe43  1  0.24966715  0.74876031  0.49997212  1
  Fe  Fe44  1  0.25244354  0.25069831  0.24868581  1
  Fe  Fe45  1  -0.00093593  0.24769922  -0.00068878  1
  Fe  Fe46  1  0.87446034  0.37469864  0.62507250  1
  Fe  Fe47  1  0.12690000  0.12418660  0.12460417  1
  Fe  Fe48  1  -0.00109560  0.74804921  0.75006096  1
  Fe  Fe49  1  0.00012771  0.50068030  0.00040769  1
  Fe  Fe50  1  0.87420501  0.87770141  0.37406922  1
  Fe  Fe51  1  0.12611439  0.37511848  0.37281983  1
  Fe  Fe52  1  0.25146224  0.49950305  0.75080229  1
  Fe  Fe53  1  0.74672798  0.50062829  0.49996811  1
  Fe  Fe54  1  0.62278641  0.87463391  0.62485825  1
  Fe  Fe55  1  0.00052572  0.00212305  0.75088537  1
  Fe  Fe56  1  0.00100234  0.74760538  0.49887040  1
  Fe  Fe57  1  0.62241471  0.62349065  0.12493760  1
  Fe  Fe58  1  0.87106800  0.12171945  0.12488285  1
  Fe  Fe59  1  0.50250239  0.00473468  0.25028060  1
  Fe  Fe60  1  0.86949313  0.12410985  0.37568162  1
  Fe  Fe61  1  0.74783218  0.74887775  0.50157654  1
  Fe  Fe62  1  0.37391345  0.62493325  0.87663036  1
  Fe  Fe63  1  0.87466993  0.87877561  0.12686784  1
  Fe  Fe64  1  0.25002477  0.24944888  0.74966945  1
  Fe  Fe65  1  0.37616253  0.37489974  0.12167896  1
  Fe  Fe66  1  0.50161124  0.24472816  0.24777530  1
  Fe  Fe67  1  0.87648984  0.87375576  0.62470476  1
  Fe  Fe68  1  -0.00074137  0.24845844  0.24956249  1
  Fe  Fe69  1  0.25269123  0.00198643  -0.00422984  1
  Fe  Fe70  1  0.12537740  0.62422138  0.62526927  1
  Fe  Fe71  1  0.62373957  0.37493481  0.37408545  1
  Fe  Fe72  1  0.12527746  0.87767333  0.12625284  1
  Fe  Fe73  1  0.37654779  0.87457937  0.37561198  1
  Fe  Fe74  1  -0.00235306  0.50166517  0.75120911  1
  Fe  Fe75  1  0.37646426  0.37225535  0.37726417  1
  Fe  Fe76  1  0.37749271  0.12627918  0.62682115  1
  Fe  Fe77  1  0.12542823  0.87571587  0.37330304  1
  Fe  Fe78  1  0.62731493  0.62396016  0.87491282  1
  Fe  Fe79  1  0.25102705  0.74989687  0.74942698  1
  Fe  Fe80  1  0.49860314  -0.00270469  0.75204281  1
  Fe  Fe81  1  0.50241620  0.25433503  0.75434421  1
  Fe  Fe82  1  0.49929570  0.74782607  0.75077847  1
  Fe  Fe83  1  0.62497449  0.12587086  0.87592548  1
  Fe  Fe84  1  0.50129529  0.74348372  0.50096001  1
  Fe  Fe85  1  0.87396770  0.87523535  0.87440423  1
  Fe  Fe86  1  0.12511646  0.37382383  0.87576043  1
  Fe  Fe87  1  0.74945383  0.49949964  0.24734238  1
  Fe  Fe88  1  0.50081526  0.75122036  -0.00203512  1
  Fe  Fe89  1  0.12370459  0.37425020  0.62539446  1
  Co  Co90  1  0.24909067  0.50219063  0.00066112  1
  Co  Co91  1  0.87300969  0.12400061  0.87523031  1
  Co  Co92  1  0.49816203  0.49994065  0.75487134  1
  Co  Co93  1  0.37499408  0.12739097  0.37498519  1
  Co  Co94  1  0.25117847  0.25130464  0.50347616  1
  Co  Co95  1  0.87473633  0.62437497  0.62302989  1
  Co  Co96  1  0.25284837  0.75087268  0.24508810  1
  Co  Co97  1  0.74901645  0.25088827  0.75187507  1
  Co  Co98  1  0.87442640  0.62596295  0.87774541  1
  Co  Co99  1  0.25621193  0.49803462  0.24829494  1
  Co  Co100  1  0.50149914  0.50302065  0.49827856  1
  Co  Co101  1  0.74871045  -0.00302429  -0.00232101  1
  Co  Co102  1  0.37129364  0.37440465  0.87536290  1
  Co  Co103  1  0.74464328  -0.00054696  0.24971845  1
  Co  Co104  1  0.62543039  0.87406289  0.87330796  1
  Co  Co105  1  0.74906428  -0.00233438  0.50382016  1
  Co  Co106  1  0.62618427  0.62462402  0.37165183  1
  Co  Co107  1  0.00100132  0.00330198  0.25062046  1
  Co  Co108  1  0.62699200  0.12563110  0.11926550  1
  Co  Co109  1  0.12344319  0.62126893  0.12959228  1
  Co  Co110  1  0.74567532  0.25280398  0.50172956  1
  Co  Co111  1  0.37497244  0.62321453  0.62504367  1
  Co  Co112  1  0.37736479  0.12665305  0.87251484  1
  Co  Co113  1  0.74980864  0.50041725  0.00229363  1
  Co  Co114  1  -0.00386173  0.49812694  0.25011270  1
  Co  Co115  1  0.37979222  0.62338851  0.12281931  1
  Co  Co116  1  0.12634577  0.12577569  0.87428766  1
  Co  Co117  1  0.37288626  0.87250533  0.87595258  1
  Co  Co118  1  0.37297238  0.62648340  0.37501228  1
  Co  Co119  1  0.62374645  0.12484541  0.62709220  1
  Co  Co120  1  0.49842130  0.25080488  -0.00155838  1
  Co  Co121  1  0.49787189  0.00227575  0.50136168  1
  Co  Co122  1  0.62481896  0.62189751  0.62905557  1
  Co  Co123  1  0.62702707  0.12345768  0.37893474  1
  Co  Co124  1  0.37480511  0.12408896  0.12442937  1
  Co  Co125  1  0.25217489  0.00047163  0.74916248  1
  Co  Co126  1  0.62830635  0.37618662  0.87590139  1
  Co  Co127  1  0.87594579  0.37605143  0.87607900  1
