# generated using pymatgen
data_Fe45Co19
_symmetry_space_group_name_H-M   'P 1'
_cell_length_a   11.41386962
_cell_length_b   11.41348290
_cell_length_c   11.41455415
_cell_angle_alpha   90.00642839
_cell_angle_beta   90.01247873
_cell_angle_gamma   89.99250655
_symmetry_Int_Tables_number   1
_chemical_formula_structural   Fe45Co19
_chemical_formula_sum   'Fe90 Co38'
_cell_volume   1486.99680658
_cell_formula_units_Z   2
loop_
 _symmetry_equiv_pos_site_id
 _symmetry_equiv_pos_as_xyz
  1  'x, y, z'
loop_
 _atom_site_type_symbol
 _atom_site_label
 _atom_site_symmetry_multiplicity
 _atom_site_fract_x
 _atom_site_fract_y
 _atom_site_fract_z
 _atom_site_occupancy
  Fe  Fe0  1  0.12591899  0.37568643  0.37357208  1
  Fe  Fe1  1  0.37304455  0.62306016  0.12284379  1
  Fe  Fe2  1  0.74788306  0.00561547  0.00252394  1
  Fe  Fe3  1  0.75137404  0.00216522  0.74921996  1
  Fe  Fe4  1  0.37495652  0.87620223  0.87469440  1
  Fe  Fe5  1  0.00131086  0.00015526  -0.00312485  1
  Fe  Fe6  1  0.87622837  0.87584873  0.62698752  1
  Fe  Fe7  1  0.00081574  0.25294323  -0.00118112  1
  Fe  Fe8  1  0.62730889  0.62646914  0.87354260  1
  Fe  Fe9  1  0.62453940  0.37592237  0.62731145  1
  Fe  Fe10  1  0.25429046  0.25321483  0.74874710  1
  Fe  Fe11  1  0.62662948  0.37282301  0.36996887  1
  Fe  Fe12  1  0.50431301  0.49942465  -0.00234560  1
  Fe  Fe13  1  0.00024580  0.74716355  0.50057237  1
  Fe  Fe14  1  0.37293120  0.37723887  0.37723740  1
  Fe  Fe15  1  0.62535045  0.62736946  0.37416539  1
  Fe  Fe16  1  0.74840940  0.75152170  0.50289457  1
  Fe  Fe17  1  0.37247733  0.62322503  0.37529738  1
  Fe  Fe18  1  0.37619136  0.62074400  0.62595041  1
  Fe  Fe19  1  0.37639876  0.37488596  0.12163905  1
  Fe  Fe20  1  0.87394776  0.62445743  0.37679418  1
  Fe  Fe21  1  0.62620192  0.87603446  0.87339240  1
  Fe  Fe22  1  0.12377770  0.87334390  0.37351936  1
  Fe  Fe23  1  0.87171742  0.12820530  0.87707735  1
  Fe  Fe24  1  0.50427117  -0.00015549  0.49796525  1
  Fe  Fe25  1  0.37740225  0.87560126  0.62432423  1
  Fe  Fe26  1  0.37552393  0.12635471  0.87746408  1
  Fe  Fe27  1  0.24965552  0.74849911  0.50139954  1
  Fe  Fe28  1  0.75302235  0.74906893  0.24783845  1
  Fe  Fe29  1  0.74858608  0.49773578  0.49933894  1
  Fe  Fe30  1  0.74590991  -0.00111622  0.49878424  1
  Fe  Fe31  1  0.87344003  0.37695211  0.11949870  1
  Fe  Fe32  1  0.12491147  0.87509728  0.87202640  1
  Fe  Fe33  1  0.87345835  0.37400170  0.37538506  1
  Fe  Fe34  1  0.87695184  0.37542799  0.62312116  1
  Fe  Fe35  1  0.25125368  0.74939962  0.74946595  1
  Fe  Fe36  1  -0.00361961  0.74548021  0.75341742  1
  Fe  Fe37  1  0.12662498  0.12786211  0.87426932  1
  Fe  Fe38  1  0.12745828  0.62387435  0.37246143  1
  Fe  Fe39  1  0.62467284  0.87802103  0.12627279  1
  Fe  Fe40  1  0.25043365  0.00191732  0.74931681  1
  Fe  Fe41  1  0.37588075  0.87210388  0.37662561  1
  Fe  Fe42  1  0.62480622  0.62414141  0.12504482  1
  Fe  Fe43  1  0.12205764  0.87455642  0.62792498  1
  Fe  Fe44  1  0.25067174  -0.00092808  0.24952372  1
  Fe  Fe45  1  0.24320564  0.49429866  0.00003944  1
  Fe  Fe46  1  0.37446744  0.12627660  0.37688220  1
  Fe  Fe47  1  0.50074640  -0.00104142  0.25438010  1
  Fe  Fe48  1  0.62630694  0.62456068  0.62679779  1
  Fe  Fe49  1  -0.00239780  0.00097426  0.25178736  1
  Fe  Fe50  1  0.37687242  0.12623322  0.62339277  1
  Fe  Fe51  1  0.49902706  0.75134039  -0.00077176  1
  Fe  Fe52  1  0.50506375  0.24974025  -0.00013528  1
  Fe  Fe53  1  0.50296764  0.25106426  0.49824092  1
  Fe  Fe54  1  0.50190438  0.50053054  0.49897035  1
  Fe  Fe55  1  0.24980696  -0.00013515  0.00069867  1
  Fe  Fe56  1  0.74991480  0.24664778  0.24326999  1
  Fe  Fe57  1  0.62631484  0.12659431  0.62657997  1
  Fe  Fe58  1  0.24854323  -0.00107357  0.50160685  1
  Fe  Fe59  1  0.87103361  0.12672388  0.37770324  1
  Fe  Fe60  1  0.25312584  0.25085255  0.24791894  1
  Fe  Fe61  1  0.75363332  0.50122689  0.75232580  1
  Fe  Fe62  1  0.12325992  0.12687335  0.12545482  1
  Fe  Fe63  1  0.87828188  0.62328057  0.11805114  1
  Fe  Fe64  1  0.87632701  0.87644715  0.12421878  1
  Fe  Fe65  1  -0.00244328  0.25022268  0.25146364  1
  Fe  Fe66  1  0.49972878  0.00122712  0.75132733  1
  Fe  Fe67  1  0.49787334  0.74909002  0.24818308  1
  Fe  Fe68  1  0.74971601  0.75012545  0.00000484  1
  Fe  Fe69  1  0.87376102  0.87520163  0.87487228  1
  Fe  Fe70  1  0.37837320  0.12365356  0.12314056  1
  Fe  Fe71  1  0.63098401  0.37281439  0.87567691  1
  Fe  Fe72  1  0.00248207  0.50053809  0.50034902  1
  Fe  Fe73  1  0.12323390  0.12654922  0.62612541  1
  Fe  Fe74  1  0.12367051  0.62700007  0.12490126  1
  Fe  Fe75  1  0.12272209  0.87376564  0.12743169  1
  Fe  Fe76  1  0.87369916  0.87428438  0.37421076  1
  Fe  Fe77  1  -0.00589577  0.24793291  0.74951048  1
  Fe  Fe78  1  0.25012491  0.75272511  0.00127203  1
  Fe  Fe79  1  0.49948060  0.25305781  0.75217203  1
  Fe  Fe80  1  -0.00040691  0.50004289  0.24788806  1
  Fe  Fe81  1  0.50008390  0.74910193  0.75000510  1
  Fe  Fe82  1  0.75090724  0.50167880  0.24766327  1
  Fe  Fe83  1  0.12614354  0.12625441  0.37460507  1
  Fe  Fe84  1  0.37306661  0.62124928  0.87587560  1
  Fe  Fe85  1  0.24939657  0.49495450  0.74860921  1
  Fe  Fe86  1  0.00015936  0.00264589  0.50052862  1
  Fe  Fe87  1  -0.00184244  0.50269278  0.75479001  1
  Fe  Fe88  1  0.24804229  0.25348129  0.50323153  1
  Fe  Fe89  1  0.49858503  0.49893183  0.24947611  1
  Co  Co90  1  0.62588016  0.37664270  0.12679188  1
  Co  Co91  1  0.74587653  0.24538740  0.00527446  1
  Co  Co92  1  0.50208643  0.49852814  0.75368639  1
  Co  Co93  1  0.12382665  0.37070474  0.86977935  1
  Co  Co94  1  0.88032881  0.12514154  0.12282593  1
  Co  Co95  1  0.87455966  0.62355628  0.88217234  1
  Co  Co96  1  0.62621487  0.12624547  0.87182003  1
  Co  Co97  1  0.49647216  0.25292871  0.25007952  1
  Co  Co98  1  0.87245228  0.12418375  0.62057506  1
  Co  Co99  1  0.25019084  0.49795039  0.24608346  1
  Co  Co100  1  0.12295762  0.37059946  0.12819042  1
  Co  Co101  1  0.62746638  0.12908674  0.37157738  1
  Co  Co102  1  0.37940960  0.37661871  0.62314282  1
  Co  Co103  1  0.12822023  0.62528751  0.87562736  1
  Co  Co104  1  0.75329483  0.25134322  0.74730447  1
  Co  Co105  1  0.24719882  0.49827033  0.50439278  1
  Co  Co106  1  0.74809657  0.25311612  0.50228906  1
  Co  Co107  1  0.50030625  0.74753166  0.50278782  1
  Co  Co108  1  -0.00168022  0.00416311  0.75186209  1
  Co  Co109  1  0.75276629  0.74848370  0.75024655  1
  Co  Co110  1  0.50118634  -0.00083469  -0.00397868  1
  Co  Co111  1  0.25130699  0.75055155  0.24923791  1
  Co  Co112  1  0.00616715  0.49597376  -0.00273152  1
  Co  Co113  1  0.87366155  0.62307719  0.62258693  1
  Co  Co114  1  0.62579346  0.87041030  0.37213150  1
  Co  Co115  1  0.00011875  0.24901552  0.49834537  1
  Co  Co116  1  0.00149241  0.75237845  -0.00324244  1
  Co  Co117  1  0.11928873  0.37354795  0.62830860  1
  Co  Co118  1  0.12486587  0.62497815  0.62813497  1
  Co  Co119  1  0.24931254  0.25059785  0.00091824  1
  Co  Co120  1  -0.00316539  0.74799898  0.25026619  1
  Co  Co121  1  0.62414960  0.87531702  0.62845426  1
  Co  Co122  1  0.74604524  0.50123271  -0.00056702  1
  Co  Co123  1  0.75214051  0.00184135  0.24920049  1
  Co  Co124  1  0.61834184  0.12161934  0.12905874  1
  Co  Co125  1  0.37717390  0.87743241  0.12550931  1
  Co  Co126  1  0.87163247  0.37441040  0.87945257  1
  Co  Co127  1  0.37487675  0.37642938  0.87891050  1
