# generated using pymatgen
data_Fe45Co19
_symmetry_space_group_name_H-M   'P 1'
_cell_length_a   11.41597447
_cell_length_b   11.41547093
_cell_length_c   11.41435875
_cell_angle_alpha   90.00810400
_cell_angle_beta   90.00062545
_cell_angle_gamma   89.99480728
_symmetry_Int_Tables_number   1
_chemical_formula_structural   Fe45Co19
_chemical_formula_sum   'Fe90 Co38'
_cell_volume   1487.50465510
_cell_formula_units_Z   2
loop_
 _symmetry_equiv_pos_site_id
 _symmetry_equiv_pos_as_xyz
  1  'x, y, z'
loop_
 _atom_site_type_symbol
 _atom_site_label
 _atom_site_symmetry_multiplicity
 _atom_site_fract_x
 _atom_site_fract_y
 _atom_site_fract_z
 _atom_site_occupancy
  Fe  Fe0  1  0.75072301  0.50189397  0.49706934  1
  Fe  Fe1  1  -0.00109100  0.74993622  0.50163228  1
  Fe  Fe2  1  0.25009843  0.75166054  0.74954200  1
  Fe  Fe3  1  0.37481692  0.37474718  0.62365922  1
  Fe  Fe4  1  0.62574426  0.87251773  0.37490908  1
  Fe  Fe5  1  0.87264808  0.37899228  0.12460181  1
  Fe  Fe6  1  0.25043154  0.24991865  0.49723572  1
  Fe  Fe7  1  0.12661536  0.12435329  0.12647020  1
  Fe  Fe8  1  0.00243945  0.25032818  0.00061855  1
  Fe  Fe9  1  0.87187005  0.37307444  0.62354859  1
  Fe  Fe10  1  0.12334635  0.87044185  0.37140597  1
  Fe  Fe11  1  0.87413091  0.87502057  0.62403166  1
  Fe  Fe12  1  0.87617929  0.37576521  0.87636544  1
  Fe  Fe13  1  0.12658655  0.12544222  0.62554093  1
  Fe  Fe14  1  0.75019380  0.50014096  0.75156226  1
  Fe  Fe15  1  0.00020454  0.50078009  0.50079271  1
  Fe  Fe16  1  0.37537374  0.87190511  0.37251320  1
  Fe  Fe17  1  0.24971569  0.74965046  0.00252108  1
  Fe  Fe18  1  0.75033013  -0.00117879  0.75144054  1
  Fe  Fe19  1  0.12293757  0.87411939  0.87673757  1
  Fe  Fe20  1  0.37783559  0.87484717  0.87593679  1
  Fe  Fe21  1  0.24854451  -0.00234252  0.49752183  1
  Fe  Fe22  1  0.37683998  0.62619153  0.62681212  1
  Fe  Fe23  1  0.37340470  0.12535882  0.12643806  1
  Fe  Fe24  1  0.37255387  0.37539098  0.12617680  1
  Fe  Fe25  1  -0.00151815  0.50096042  0.74840344  1
  Fe  Fe26  1  -0.00050733  -0.00306966  0.24957921  1
  Fe  Fe27  1  0.50098353  -0.00351008  0.74740621  1
  Fe  Fe28  1  -0.00168712  0.75058501  0.74982290  1
  Fe  Fe29  1  -0.00021709  0.25291336  0.24934190  1
  Fe  Fe30  1  0.50040176  0.75052621  0.50144964  1
  Fe  Fe31  1  0.74979892  0.75080491  0.75078418  1
  Fe  Fe32  1  0.75130433  0.00161010  0.49723716  1
  Fe  Fe33  1  0.37855158  0.62553334  0.87300145  1
  Fe  Fe34  1  0.74992177  -0.00133139  0.25050946  1
  Fe  Fe35  1  0.12428016  0.12704939  0.37251159  1
  Fe  Fe36  1  0.62317251  0.87543250  0.87876976  1
  Fe  Fe37  1  0.74702880  0.00273449  0.00062436  1
  Fe  Fe38  1  0.49952091  0.25081730  0.74917133  1
  Fe  Fe39  1  0.25036704  0.74984959  0.50004472  1
  Fe  Fe40  1  0.37434594  0.62377334  0.12926369  1
  Fe  Fe41  1  0.62808261  0.12681651  0.62546184  1
  Fe  Fe42  1  0.50111657  -0.00131958  0.50071117  1
  Fe  Fe43  1  0.00279989  0.50100900  0.24955602  1
  Fe  Fe44  1  0.87546382  0.62481521  0.87679597  1
  Fe  Fe45  1  0.62645083  0.62230298  0.12820345  1
  Fe  Fe46  1  0.24827365  0.50045846  0.25501292  1
  Fe  Fe47  1  0.87219505  0.12720775  0.62404494  1
  Fe  Fe48  1  0.24808086  -0.00276327  0.74906766  1
  Fe  Fe49  1  0.25075597  0.50187949  0.49640981  1
  Fe  Fe50  1  0.00136827  0.24899026  0.75124133  1
  Fe  Fe51  1  0.75272441  0.25206824  0.25332862  1
  Fe  Fe52  1  0.00020325  -0.00046227  0.00097096  1
  Fe  Fe53  1  0.37390723  0.87466884  0.12765817  1
  Fe  Fe54  1  0.62711040  0.37659032  0.12669755  1
  Fe  Fe55  1  0.25007631  0.49897344  -0.00295644  1
  Fe  Fe56  1  -0.00021533  -0.00031079  0.49834706  1
  Fe  Fe57  1  0.75239311  0.74935513  0.24815161  1
  Fe  Fe58  1  0.74820723  0.24904036  -0.00163680  1
  Fe  Fe59  1  0.37580727  0.12484848  0.37345668  1
  Fe  Fe60  1  -0.00039076  -0.00046150  0.75027411  1
  Fe  Fe61  1  0.12621552  0.37431583  0.62476938  1
  Fe  Fe62  1  0.25007722  -0.00087979  0.00076823  1
  Fe  Fe63  1  0.12455763  0.62516039  0.87570837  1
  Fe  Fe64  1  0.87789303  0.62546144  0.37284432  1
  Fe  Fe65  1  0.87499964  0.12492270  0.87553744  1
  Fe  Fe66  1  0.37558220  0.12435761  0.87418615  1
  Fe  Fe67  1  0.50085917  0.24948164  0.49927178  1
  Fe  Fe68  1  0.62161755  0.62483842  0.87407393  1
  Fe  Fe69  1  0.49976643  0.74943327  0.00427987  1
  Fe  Fe70  1  0.87335706  0.12437392  0.12659601  1
  Fe  Fe71  1  0.50184986  0.24718866  0.00143383  1
  Fe  Fe72  1  0.62417321  0.62480204  0.62654109  1
  Fe  Fe73  1  0.62465135  0.12573167  0.37262779  1
  Fe  Fe74  1  0.00117921  0.50056700  0.00183490  1
  Fe  Fe75  1  0.75115376  0.74813328  0.00216621  1
  Fe  Fe76  1  0.62255360  0.37559014  0.87497840  1
  Fe  Fe77  1  -0.00120216  0.74984466  0.00627173  1
  Fe  Fe78  1  0.49862473  0.25200692  0.24977413  1
  Fe  Fe79  1  0.25219146  0.49744229  0.75225791  1
  Fe  Fe80  1  0.24675522  0.25145941  -0.00336985  1
  Fe  Fe81  1  0.75089871  0.74789901  0.49940873  1
  Fe  Fe82  1  0.50017884  0.50022054  0.00209143  1
  Fe  Fe83  1  0.49887065  0.50238903  0.49694632  1
  Fe  Fe84  1  0.12561210  0.62539158  0.62519402  1
  Fe  Fe85  1  0.62762330  0.37429278  0.62369520  1
  Fe  Fe86  1  -0.00243963  0.24960818  0.49788652  1
  Fe  Fe87  1  0.50136833  -0.00229638  0.24740438  1
  Fe  Fe88  1  0.62428371  0.37671777  0.37484781  1
  Fe  Fe89  1  0.37306015  0.12404875  0.62508038  1
  Co  Co90  1  0.74990893  0.25125472  0.75411535  1
  Co  Co91  1  0.49955901  0.49797365  0.74902120  1
  Co  Co92  1  0.37398661  0.87512933  0.62330549  1
  Co  Co93  1  0.37528662  0.37417274  0.37552032  1
  Co  Co94  1  -0.00186871  0.74911906  0.24276945  1
  Co  Co95  1  0.12295748  0.87390960  0.62450334  1
  Co  Co96  1  0.62682596  0.12665833  0.12918426  1
  Co  Co97  1  0.24974655  0.25256055  0.75270804  1
  Co  Co98  1  0.50241519  0.75087186  0.24706332  1
  Co  Co99  1  0.50023747  0.00152159  0.00439796  1
  Co  Co100  1  0.87260396  0.87806233  0.12364487  1
  Co  Co101  1  0.24983593  0.25049931  0.25145225  1
  Co  Co102  1  0.87637519  0.12402078  0.37291011  1
  Co  Co103  1  0.87744497  0.37849359  0.37542585  1
  Co  Co104  1  0.37665249  0.62922754  0.37243136  1
  Co  Co105  1  0.24674676  0.74783115  0.24856243  1
  Co  Co106  1  0.50160234  0.75366779  0.74807384  1
  Co  Co107  1  0.62364924  0.62717453  0.37298266  1
  Co  Co108  1  0.62203422  0.12319009  0.87275223  1
  Co  Co109  1  0.12440040  0.37404110  0.37645025  1
  Co  Co110  1  0.74793687  0.50045510  -0.00303797  1
  Co  Co111  1  0.49885094  0.49898151  0.25148388  1
  Co  Co112  1  0.87449857  0.87465680  0.87801396  1
  Co  Co113  1  0.12583105  0.12294031  0.87494989  1
  Co  Co114  1  0.12760246  0.37652035  0.12529054  1
  Co  Co115  1  0.12664276  0.87654772  0.12541306  1
  Co  Co116  1  0.12207491  0.37768749  0.87416819  1
  Co  Co117  1  0.12769676  0.62237774  0.12383938  1
  Co  Co118  1  0.24996713  -0.00008585  0.25211208  1
  Co  Co119  1  0.75065335  0.24967828  0.49398217  1
  Co  Co120  1  0.75004465  0.50082568  0.25400018  1
  Co  Co121  1  0.87401840  0.62618328  0.62496518  1
  Co  Co122  1  0.62714507  0.87498642  0.12314341  1
  Co  Co123  1  0.12204541  0.62817749  0.37576000  1
  Co  Co124  1  0.87279388  0.61969980  0.12506116  1
  Co  Co125  1  0.37896902  0.37360483  0.87778165  1
  Co  Co126  1  0.87542844  0.87262098  0.37442610  1
  Co  Co127  1  0.62845633  0.87491822  0.62246479  1
