# generated using pymatgen
data_Fe45Co19
_symmetry_space_group_name_H-M   'P 1'
_cell_length_a   11.41354723
_cell_length_b   11.41403336
_cell_length_c   11.41562495
_cell_angle_alpha   90.00116275
_cell_angle_beta   89.99234964
_cell_angle_gamma   89.99783090
_symmetry_Int_Tables_number   1
_chemical_formula_structural   Fe45Co19
_chemical_formula_sum   'Fe90 Co38'
_cell_volume   1487.16606058
_cell_formula_units_Z   2
loop_
 _symmetry_equiv_pos_site_id
 _symmetry_equiv_pos_as_xyz
  1  'x, y, z'
loop_
 _atom_site_type_symbol
 _atom_site_label
 _atom_site_symmetry_multiplicity
 _atom_site_fract_x
 _atom_site_fract_y
 _atom_site_fract_z
 _atom_site_occupancy
  Fe  Fe0  1  0.50008147  0.25261961  0.74982241  1
  Fe  Fe1  1  0.12835554  0.37373633  0.87581594  1
  Fe  Fe2  1  0.25003854  0.24876891  0.50327320  1
  Fe  Fe3  1  0.37334337  0.12595469  0.37316500  1
  Fe  Fe4  1  0.37232004  0.37499468  0.37551563  1
  Fe  Fe5  1  0.00156202  0.49775371  0.25057480  1
  Fe  Fe6  1  0.11781388  0.12317942  0.12505848  1
  Fe  Fe7  1  0.74890829  0.74920993  0.74954538  1
  Fe  Fe8  1  0.87267427  0.87640878  0.87477255  1
  Fe  Fe9  1  0.25350164  0.00470164  -0.00067078  1
  Fe  Fe10  1  0.62691488  0.12274058  0.37768893  1
  Fe  Fe11  1  0.24817699  0.74495538  0.50189908  1
  Fe  Fe12  1  0.37293614  0.87417406  0.37399966  1
  Fe  Fe13  1  0.50075070  0.75033643  0.75075744  1
  Fe  Fe14  1  0.75025478  0.49860819  0.25024429  1
  Fe  Fe15  1  0.50012950  0.25106421  0.50040507  1
  Fe  Fe16  1  0.87179725  0.87474482  0.37660289  1
  Fe  Fe17  1  0.74933003  0.50095202  0.75012179  1
  Fe  Fe18  1  0.12706107  0.87428325  0.37549713  1
  Fe  Fe19  1  0.49809086  0.74922411  -0.00021347  1
  Fe  Fe20  1  0.74990393  0.74704472  -0.00068235  1
  Fe  Fe21  1  0.25062071  0.50115098  0.00175399  1
  Fe  Fe22  1  0.12453569  0.12590740  0.62646768  1
  Fe  Fe23  1  0.37506471  0.62452147  0.87412989  1
  Fe  Fe24  1  0.24762770  0.24729476  0.24635581  1
  Fe  Fe25  1  0.62439914  0.62295867  0.12290031  1
  Fe  Fe26  1  0.12284606  0.87197220  0.62390947  1
  Fe  Fe27  1  0.74959733  0.25091045  0.50084708  1
  Fe  Fe28  1  0.00080864  0.25315525  0.74990363  1
  Fe  Fe29  1  0.37461416  0.87629232  0.62771842  1
  Fe  Fe30  1  0.62369680  0.87568592  0.12501835  1
  Fe  Fe31  1  0.87357308  0.37485993  0.87590781  1
  Fe  Fe32  1  0.24825761  0.74731436  0.74894171  1
  Fe  Fe33  1  0.12480987  0.87760201  0.12325640  1
  Fe  Fe34  1  0.00414139  0.50138402  0.50058356  1
  Fe  Fe35  1  0.74906908  0.25108648  0.74871691  1
  Fe  Fe36  1  0.75385858  0.24967599  0.24824060  1
  Fe  Fe37  1  0.87782686  0.87341282  0.62625662  1
  Fe  Fe38  1  0.75288784  0.00159521  0.24943668  1
  Fe  Fe39  1  0.87735842  0.62517434  0.87297529  1
  Fe  Fe40  1  0.62480656  0.62448515  0.37487066  1
  Fe  Fe41  1  0.12792035  0.12944446  0.87413304  1
  Fe  Fe42  1  0.24756992  0.50268576  0.74460471  1
  Fe  Fe43  1  0.25054171  0.00103544  0.50124375  1
  Fe  Fe44  1  0.00248677  -0.00154608  0.75324406  1
  Fe  Fe45  1  -0.00186626  0.00051122  0.49839266  1
  Fe  Fe46  1  0.12307667  0.37227021  0.12239356  1
  Fe  Fe47  1  0.24958958  0.74974884  0.24864787  1
  Fe  Fe48  1  0.49641879  0.00162370  -0.00493441  1
  Fe  Fe49  1  0.62347451  0.12443668  0.12438388  1
  Fe  Fe50  1  0.13017208  0.87320417  0.87815837  1
  Fe  Fe51  1  0.12230111  0.12606837  0.37427134  1
  Fe  Fe52  1  0.62521537  0.12661681  0.87474095  1
  Fe  Fe53  1  0.50233353  0.49711341  0.50012034  1
  Fe  Fe54  1  -0.00036168  0.49891079  -0.00174034  1
  Fe  Fe55  1  0.49982509  -0.00147827  0.25348528  1
  Fe  Fe56  1  0.24840109  0.49947405  0.25038953  1
  Fe  Fe57  1  0.50229546  0.25081657  0.25071434  1
  Fe  Fe58  1  0.87617354  0.12522332  0.62661816  1
  Fe  Fe59  1  0.37454162  0.87615470  0.12592934  1
  Fe  Fe60  1  0.62705371  0.37631290  0.12250115  1
  Fe  Fe61  1  0.75256500  0.00349056  -0.00006729  1
  Fe  Fe62  1  0.62365767  0.87840435  0.62206140  1
  Fe  Fe63  1  0.49575875  0.24918943  -0.00070458  1
  Fe  Fe64  1  0.12384254  0.62576977  0.12490924  1
  Fe  Fe65  1  0.62539796  0.37769235  0.87701157  1
  Fe  Fe66  1  0.74856661  0.75017183  0.24906672  1
  Fe  Fe67  1  -0.00000610  0.75217878  0.25093865  1
  Fe  Fe68  1  0.37556868  0.12189721  0.63020423  1
  Fe  Fe69  1  0.87618287  0.62318241  0.12485238  1
  Fe  Fe70  1  0.62295198  0.12334129  0.62338537  1
  Fe  Fe71  1  0.62322097  0.62225968  0.62622997  1
  Fe  Fe72  1  0.88115544  0.62645358  0.62716244  1
  Fe  Fe73  1  0.75006518  0.74857415  0.50163459  1
  Fe  Fe74  1  0.37391449  0.37753653  0.62337508  1
  Fe  Fe75  1  0.50091007  0.49868677  0.24963811  1
  Fe  Fe76  1  0.87529512  0.37481899  0.37739114  1
  Fe  Fe77  1  0.37459273  0.37330888  0.12615393  1
  Fe  Fe78  1  0.37418833  0.62320695  0.37594522  1
  Fe  Fe79  1  0.00101349  0.75030779  -0.00190483  1
  Fe  Fe80  1  0.50084068  0.75213909  0.49798745  1
  Fe  Fe81  1  0.12656561  0.37301320  0.37763106  1
  Fe  Fe82  1  0.62548572  0.87409373  0.87627750  1
  Fe  Fe83  1  0.37138944  0.37411538  0.87504613  1
  Fe  Fe84  1  0.74824836  0.00025202  0.74900330  1
  Fe  Fe85  1  0.75532282  0.24727397  0.00230596  1
  Fe  Fe86  1  0.87608148  0.62411012  0.37516638  1
  Fe  Fe87  1  0.87545249  0.37665605  0.62356947  1
  Fe  Fe88  1  0.37530838  0.62516870  0.12677631  1
  Fe  Fe89  1  0.87738548  0.87769259  0.12248936  1
  Co  Co90  1  0.49679173  0.49922011  0.00068786  1
  Co  Co91  1  0.25203116  0.24589976  0.00472134  1
  Co  Co92  1  -0.00224426  0.25287826  0.24963155  1
  Co  Co93  1  0.62698846  0.37447492  0.37490095  1
  Co  Co94  1  0.00164245  0.49542340  0.75096035  1
  Co  Co95  1  0.75173364  0.50246868  -0.00255041  1
  Co  Co96  1  0.62605206  0.37612167  0.62544911  1
  Co  Co97  1  -0.00055032  0.75028330  0.49521614  1
  Co  Co98  1  0.62783432  0.87721042  0.37575975  1
  Co  Co99  1  0.37198202  0.12698006  0.86860248  1
  Co  Co100  1  0.00051452  0.00043890  -0.00719990  1
  Co  Co101  1  0.37829622  0.12369662  0.12858980  1
  Co  Co102  1  0.62229185  0.62348560  0.87480326  1
  Co  Co103  1  0.87476600  0.37735695  0.12367153  1
  Co  Co104  1  0.37293091  0.87382255  0.87243358  1
  Co  Co105  1  0.12491435  0.37438371  0.62341854  1
  Co  Co106  1  0.49858028  0.49736999  0.75056987  1
  Co  Co107  1  0.25017082  0.25306141  0.74524428  1
  Co  Co108  1  0.75400649  0.00007489  0.50201591  1
  Co  Co109  1  -0.00137547  -0.00374370  0.25553729  1
  Co  Co110  1  0.50229318  -0.00063291  0.75319137  1
  Co  Co111  1  0.24845524  0.00154754  0.24925104  1
  Co  Co112  1  0.12528428  0.62295325  0.87527828  1
  Co  Co113  1  0.11747951  0.62888663  0.62805832  1
  Co  Co114  1  0.88241790  0.12232740  0.12570372  1
  Co  Co115  1  0.87536398  0.12743879  0.37578307  1
  Co  Co116  1  0.00044936  0.24940553  0.50181345  1
  Co  Co117  1  0.37890647  0.62487614  0.62312398  1
  Co  Co118  1  0.50105703  0.75002379  0.25054711  1
  Co  Co119  1  0.75008844  0.50186512  0.50166170  1
  Co  Co120  1  0.87474487  0.12512573  0.87066294  1
  Co  Co121  1  0.24579172  0.50349849  0.50337316  1
  Co  Co122  1  -0.00291845  0.25047735  -0.00247445  1
  Co  Co123  1  0.00203293  0.75449340  0.75689955  1
  Co  Co124  1  0.24598592  -0.00206522  0.75040862  1
  Co  Co125  1  0.25155704  0.74792245  0.00129838  1
  Co  Co126  1  0.12574933  0.62592018  0.37276541  1
  Co  Co127  1  0.49547338  -0.00047955  0.49797330  1
