# generated using pymatgen
data_Fe45Co19
_symmetry_space_group_name_H-M   'P 1'
_cell_length_a   11.41516617
_cell_length_b   11.41577178
_cell_length_c   11.41490659
_cell_angle_alpha   90.00267873
_cell_angle_beta   89.99773320
_cell_angle_gamma   90.00702849
_symmetry_Int_Tables_number   1
_chemical_formula_structural   Fe45Co19
_chemical_formula_sum   'Fe90 Co38'
_cell_volume   1487.50993052
_cell_formula_units_Z   2
loop_
 _symmetry_equiv_pos_site_id
 _symmetry_equiv_pos_as_xyz
  1  'x, y, z'
loop_
 _atom_site_type_symbol
 _atom_site_label
 _atom_site_symmetry_multiplicity
 _atom_site_fract_x
 _atom_site_fract_y
 _atom_site_fract_z
 _atom_site_occupancy
  Fe  Fe0  1  0.62698405  0.87904439  0.87573611  1
  Fe  Fe1  1  0.12553474  0.37450260  0.62050824  1
  Fe  Fe2  1  0.62333926  0.62479204  0.12426507  1
  Fe  Fe3  1  0.12694468  0.62438011  0.37442330  1
  Fe  Fe4  1  0.00155046  0.24946503  -0.00224525  1
  Fe  Fe5  1  -0.00033604  0.49857515  0.25318317  1
  Fe  Fe6  1  0.62450960  0.37350820  0.12529277  1
  Fe  Fe7  1  0.12429166  0.12552888  0.37745545  1
  Fe  Fe8  1  0.87299618  0.37779476  0.87403009  1
  Fe  Fe9  1  -0.00088560  0.00116419  0.24855370  1
  Fe  Fe10  1  0.37681348  0.36933176  0.12330950  1
  Fe  Fe11  1  0.62443650  0.12724137  0.62895308  1
  Fe  Fe12  1  0.00182065  0.74960792  -0.00148121  1
  Fe  Fe13  1  0.49686378  0.75166736  0.25137985  1
  Fe  Fe14  1  0.87709693  0.62608146  0.12417562  1
  Fe  Fe15  1  0.24767908  -0.00057825  0.50379382  1
  Fe  Fe16  1  0.74816810  0.24786649  -0.00231709  1
  Fe  Fe17  1  0.00089879  0.49974992  0.00002272  1
  Fe  Fe18  1  0.62529306  0.37385743  0.37509506  1
  Fe  Fe19  1  0.25048513  0.49850208  0.00147350  1
  Fe  Fe20  1  0.12307248  0.62664265  0.62501988  1
  Fe  Fe21  1  0.25245737  0.50023595  0.25089514  1
  Fe  Fe22  1  0.75270224  0.00105858  0.24550623  1
  Fe  Fe23  1  0.74971136  -0.00049746  0.50342620  1
  Fe  Fe24  1  0.49999461  0.24862928  0.49680827  1
  Fe  Fe25  1  0.49825653  0.75252507  0.49559729  1
  Fe  Fe26  1  0.87324567  0.87825695  0.87430045  1
  Fe  Fe27  1  0.00039884  0.25268933  0.49727438  1
  Fe  Fe28  1  0.00261720  -0.00120773  0.50357855  1
  Fe  Fe29  1  0.87478416  0.37248968  0.12468879  1
  Fe  Fe30  1  0.62592353  0.37318928  0.87123113  1
  Fe  Fe31  1  0.87423897  0.12448628  0.37567552  1
  Fe  Fe32  1  0.62286677  0.12674504  0.12415450  1
  Fe  Fe33  1  0.25020498  0.49936174  0.74723947  1
  Fe  Fe34  1  0.74921848  0.24804265  0.25146807  1
  Fe  Fe35  1  0.37473016  0.12333348  0.37506516  1
  Fe  Fe36  1  0.87652031  0.37718730  0.62540327  1
  Fe  Fe37  1  0.49917205  0.00259904  0.25007865  1
  Fe  Fe38  1  0.24906678  0.75178255  0.00218831  1
  Fe  Fe39  1  0.12420164  0.37554506  0.12633701  1
  Fe  Fe40  1  -0.00015613  0.25051770  0.75120561  1
  Fe  Fe41  1  0.37718345  0.62688482  0.62501399  1
  Fe  Fe42  1  0.49941331  0.49644172  -0.00190968  1
  Fe  Fe43  1  0.62567524  0.62289711  0.87591217  1
  Fe  Fe44  1  0.87364974  0.62475334  0.37577014  1
  Fe  Fe45  1  0.12694088  0.62390921  0.87442928  1
  Fe  Fe46  1  0.62446600  0.62553853  0.37488517  1
  Fe  Fe47  1  0.62569298  0.87505132  0.12433292  1
  Fe  Fe48  1  0.37386130  0.62510657  0.87543817  1
  Fe  Fe49  1  0.37121643  0.12711634  0.87911757  1
  Fe  Fe50  1  0.62384331  0.37156523  0.62730821  1
  Fe  Fe51  1  0.49821411  0.49747923  0.25124484  1
  Fe  Fe52  1  0.00078280  0.25120905  0.25301463  1
  Fe  Fe53  1  -0.00067868  0.75006757  0.49894223  1
  Fe  Fe54  1  0.37544586  0.62500768  0.12422533  1
  Fe  Fe55  1  0.49872629  0.49836784  0.75023720  1
  Fe  Fe56  1  0.49830296  0.00198236  -0.00043564  1
  Fe  Fe57  1  0.25079734  0.24812266  0.25084033  1
  Fe  Fe58  1  0.12695758  0.37611264  0.87451532  1
  Fe  Fe59  1  0.25343937  0.75148042  0.49904429  1
  Fe  Fe60  1  0.87609413  0.87169903  0.62796026  1
  Fe  Fe61  1  0.62668951  0.87711521  0.37445336  1
  Fe  Fe62  1  0.37405410  0.37368729  0.62233324  1
  Fe  Fe63  1  -0.00080008  0.00000442  0.00257639  1
  Fe  Fe64  1  0.12667975  0.87426354  0.37320226  1
  Fe  Fe65  1  0.49661576  0.00101024  0.75199010  1
  Fe  Fe66  1  0.62497585  0.62746666  0.62438440  1
  Fe  Fe67  1  0.49821370  0.75194419  -0.00010145  1
  Fe  Fe68  1  0.49836354  0.49941606  0.49868945  1
  Fe  Fe69  1  0.25015244  0.24956407  0.74851258  1
  Fe  Fe70  1  0.25178315  0.75330022  0.74905336  1
  Fe  Fe71  1  0.12540762  0.12516627  0.12335656  1
  Fe  Fe72  1  0.75028807  0.50014062  0.24861227  1
  Fe  Fe73  1  0.75083823  0.75057020  0.24994692  1
  Fe  Fe74  1  0.74987295  0.24918213  0.50023626  1
  Fe  Fe75  1  0.75007525  0.50016762  0.50144749  1
  Fe  Fe76  1  0.87515234  0.87610174  0.37395333  1
  Fe  Fe77  1  0.50126536  0.00027494  0.49929740  1
  Fe  Fe78  1  0.87732559  0.12611497  0.62513463  1
  Fe  Fe79  1  0.87394129  0.62149137  0.87238475  1
  Fe  Fe80  1  0.50045502  0.75136055  0.75302861  1
  Fe  Fe81  1  0.12470350  0.87390163  0.12877531  1
  Fe  Fe82  1  0.12599287  0.87831101  0.87088184  1
  Fe  Fe83  1  0.87575398  0.62529420  0.62807953  1
  Fe  Fe84  1  0.37193982  0.87817291  0.12736309  1
  Fe  Fe85  1  0.87276355  0.12147181  0.87441273  1
  Fe  Fe86  1  0.75047774  0.74998065  -0.00065350  1
  Fe  Fe87  1  0.12689127  0.12202300  0.87248693  1
  Fe  Fe88  1  0.37466365  0.12515287  0.62384086  1
  Fe  Fe89  1  0.62353464  0.87337327  0.62597154  1
  Co  Co90  1  0.12345132  0.12778632  0.62646965  1
  Co  Co91  1  -0.00030267  0.50061087  0.49811636  1
  Co  Co92  1  0.24803754  0.00463570  0.25021526  1
  Co  Co93  1  0.87726901  0.87138374  0.12471848  1
  Co  Co94  1  0.75072356  0.75079009  0.49980512  1
  Co  Co95  1  0.87175805  0.37429243  0.37466408  1
  Co  Co96  1  0.24871248  -0.00191269  0.00108892  1
  Co  Co97  1  0.12950609  0.37604739  0.37752008  1
  Co  Co98  1  0.37453846  0.12678442  0.12204278  1
  Co  Co99  1  0.75039180  -0.00054962  0.74537640  1
  Co  Co100  1  0.37796602  0.87456860  0.62424341  1
  Co  Co101  1  0.37686794  0.62415310  0.37516288  1
  Co  Co102  1  0.62709100  0.12294984  0.87195753  1
  Co  Co103  1  -0.00040323  0.74991172  0.75351165  1
  Co  Co104  1  0.49535701  0.24888887  0.75207799  1
  Co  Co105  1  -0.00032215  0.00040362  0.74672258  1
  Co  Co106  1  0.00050534  0.74838916  0.25211207  1
  Co  Co107  1  0.12447862  0.87260016  0.62724063  1
  Co  Co108  1  0.25147971  0.50386674  0.50079498  1
  Co  Co109  1  0.74859104  0.75009849  0.75237174  1
  Co  Co110  1  0.87685249  0.12974573  0.12476520  1
  Co  Co111  1  0.75066699  0.00165629  0.00491747  1
  Co  Co112  1  0.75358183  0.24945661  0.74965710  1
  Co  Co113  1  0.37191444  0.37400696  0.87525418  1
  Co  Co114  1  0.25062543  0.24602757  0.49897212  1
  Co  Co115  1  0.25228614  0.74797065  0.24997284  1
  Co  Co116  1  0.24612992  0.25113826  0.00140611  1
  Co  Co117  1  0.25268136  0.00021890  0.74672245  1
  Co  Co118  1  0.12425420  0.62373965  0.12598348  1
  Co  Co119  1  0.37326388  0.37372128  0.37745498  1
  Co  Co120  1  0.00321664  0.49931545  0.74951996  1
  Co  Co121  1  0.49896513  0.24796494  0.25322647  1
  Co  Co122  1  0.50286607  0.24983475  -0.00357347  1
  Co  Co123  1  0.62793312  0.12295496  0.37526890  1
  Co  Co124  1  0.74915130  0.49932554  0.00138241  1
  Co  Co125  1  0.37297633  0.87983153  0.37400280  1
  Co  Co126  1  0.74725538  0.50008690  0.74713897  1
  Co  Co127  1  0.37387508  0.87479345  0.87542911  1
