# generated using pymatgen
data_Fe45Co19
_symmetry_space_group_name_H-M   'P 1'
_cell_length_a   11.41501884
_cell_length_b   11.41530743
_cell_length_c   11.41402041
_cell_angle_alpha   89.99693816
_cell_angle_beta   90.00512790
_cell_angle_gamma   89.99986845
_symmetry_Int_Tables_number   1
_chemical_formula_structural   Fe45Co19
_chemical_formula_sum   'Fe90 Co38'
_cell_volume   1487.31475783
_cell_formula_units_Z   2
loop_
 _symmetry_equiv_pos_site_id
 _symmetry_equiv_pos_as_xyz
  1  'x, y, z'
loop_
 _atom_site_type_symbol
 _atom_site_label
 _atom_site_symmetry_multiplicity
 _atom_site_fract_x
 _atom_site_fract_y
 _atom_site_fract_z
 _atom_site_occupancy
  Fe  Fe0  1  0.37604995  0.62407508  0.87575680  1
  Fe  Fe1  1  0.74836012  0.00196988  0.75207145  1
  Fe  Fe2  1  0.12594765  0.37249638  0.37561271  1
  Fe  Fe3  1  0.62499537  0.62598854  0.62382613  1
  Fe  Fe4  1  0.50169579  0.75498200  0.50135576  1
  Fe  Fe5  1  0.37619927  0.62596858  0.37851834  1
  Fe  Fe6  1  0.49905367  0.49979577  0.74929277  1
  Fe  Fe7  1  0.62489673  0.37437658  0.87301436  1
  Fe  Fe8  1  0.62388038  0.37664149  0.12893247  1
  Fe  Fe9  1  0.87345148  0.62125423  0.62483384  1
  Fe  Fe10  1  0.37355138  0.87634687  0.12643113  1
  Fe  Fe11  1  0.12761873  0.87718856  0.12691866  1
  Fe  Fe12  1  0.25016198  0.49599501  -0.00307745  1
  Fe  Fe13  1  0.87561318  0.12516790  0.12524365  1
  Fe  Fe14  1  0.62447607  0.12670680  0.12545694  1
  Fe  Fe15  1  0.62470578  0.12176998  0.62408620  1
  Fe  Fe16  1  0.37781344  0.12951600  0.37957970  1
  Fe  Fe17  1  0.25034166  0.75060516  0.00098385  1
  Fe  Fe18  1  0.00032441  0.49882869  0.25120107  1
  Fe  Fe19  1  -0.00054164  0.25027818  0.24778520  1
  Fe  Fe20  1  0.62624289  0.87439725  0.87628159  1
  Fe  Fe21  1  0.00020499  0.75045646  0.00168459  1
  Fe  Fe22  1  0.25279305  0.25101989  0.24990827  1
  Fe  Fe23  1  0.87301800  0.87384561  0.37352463  1
  Fe  Fe24  1  0.00055221  0.49565486  -0.00171023  1
  Fe  Fe25  1  0.49963718  0.75252757  0.74886658  1
  Fe  Fe26  1  0.00146680  0.00062259  0.74942354  1
  Fe  Fe27  1  0.49899926  -0.00095930  -0.00258306  1
  Fe  Fe28  1  0.12557673  0.62411804  0.87410594  1
  Fe  Fe29  1  0.00158609  -0.00238358  0.49943546  1
  Fe  Fe30  1  0.75011343  0.24974192  0.50232992  1
  Fe  Fe31  1  0.74714974  0.49942747  0.49738450  1
  Fe  Fe32  1  0.37315194  0.37849176  0.62034948  1
  Fe  Fe33  1  0.62261972  0.62530622  0.87618920  1
  Fe  Fe34  1  0.25284394  0.24915803  0.74900320  1
  Fe  Fe35  1  0.87270947  0.87691536  0.12267530  1
  Fe  Fe36  1  0.62184806  0.12714193  0.87508149  1
  Fe  Fe37  1  0.62693057  0.87554635  0.12453959  1
  Fe  Fe38  1  0.37596729  0.62215008  0.12308895  1
  Fe  Fe39  1  0.12457548  0.62714508  0.37469912  1
  Fe  Fe40  1  0.12438765  0.13077872  0.87699105  1
  Fe  Fe41  1  -0.00091018  0.74975417  0.74886592  1
  Fe  Fe42  1  0.25003327  0.75292626  0.50059392  1
  Fe  Fe43  1  0.12646795  0.87345628  0.37291492  1
  Fe  Fe44  1  0.74686556  -0.00157184  0.49638228  1
  Fe  Fe45  1  0.75149134  0.74535161  0.24482066  1
  Fe  Fe46  1  0.12519178  0.12716970  0.12334713  1
  Fe  Fe47  1  0.25141441  0.00049061  -0.00492236  1
  Fe  Fe48  1  0.87262033  0.87550663  0.87721488  1
  Fe  Fe49  1  0.37294925  0.88001177  0.62691357  1
  Fe  Fe50  1  0.87291586  0.37703964  0.12719291  1
  Fe  Fe51  1  0.87238103  0.87652768  0.62519034  1
  Fe  Fe52  1  0.50005568  0.75098214  0.00099882  1
  Fe  Fe53  1  0.49832703  0.25239546  0.00138884  1
  Fe  Fe54  1  0.37425105  0.12019849  0.62411606  1
  Fe  Fe55  1  0.50110129  0.00147942  0.25302129  1
  Fe  Fe56  1  0.00104992  0.49841803  0.50198734  1
  Fe  Fe57  1  0.87581245  0.12603122  0.37615941  1
  Fe  Fe58  1  0.37458472  0.62232017  0.62257264  1
  Fe  Fe59  1  0.12412189  0.37125912  0.87217055  1
  Fe  Fe60  1  0.12516878  0.62153553  0.12528734  1
  Fe  Fe61  1  0.00000402  0.00109438  0.00029394  1
  Fe  Fe62  1  0.74838079  0.00346820  0.25140459  1
  Fe  Fe63  1  0.25155908  0.00241883  0.25377179  1
  Fe  Fe64  1  0.12794726  0.12066529  0.62444699  1
  Fe  Fe65  1  0.87536521  0.62455449  0.37495860  1
  Fe  Fe66  1  0.62804296  0.37638945  0.62699590  1
  Fe  Fe67  1  0.37407921  0.12460729  0.12174539  1
  Fe  Fe68  1  0.12496367  0.87355339  0.87400346  1
  Fe  Fe69  1  0.25117053  0.75079813  0.74972653  1
  Fe  Fe70  1  0.25310457  0.49892816  0.25503166  1
  Fe  Fe71  1  0.12298521  0.12709488  0.37544654  1
  Fe  Fe72  1  -0.00056164  0.75133808  0.50219444  1
  Fe  Fe73  1  0.62090147  0.36972121  0.37142383  1
  Fe  Fe74  1  0.12668872  0.62391271  0.62606716  1
  Fe  Fe75  1  0.87564921  0.62369941  0.87652090  1
  Fe  Fe76  1  -0.00116517  0.25110734  0.50644763  1
  Fe  Fe77  1  0.74767647  0.50215654  0.00171641  1
  Fe  Fe78  1  0.75089870  0.24962036  0.00003198  1
  Fe  Fe79  1  0.50318809  -0.00381184  0.49620637  1
  Fe  Fe80  1  0.87351310  0.37350675  0.86846396  1
  Fe  Fe81  1  0.87445040  0.37396576  0.37538742  1
  Fe  Fe82  1  0.75043249  0.74850003  0.75043996  1
  Fe  Fe83  1  -0.00016698  0.75096095  0.24684706  1
  Fe  Fe84  1  0.87704038  0.12782699  0.87334329  1
  Fe  Fe85  1  0.37644303  0.37776596  0.12556257  1
  Fe  Fe86  1  0.49865086  0.24987220  0.74638999  1
  Fe  Fe87  1  0.12718080  0.37762060  0.62698458  1
  Fe  Fe88  1  0.62425271  0.62818022  0.37414459  1
  Fe  Fe89  1  0.49776429  0.74994656  0.24859494  1
  Co  Co90  1  0.62009345  0.62236452  0.12611214  1
  Co  Co91  1  0.24776489  0.50044468  0.49644563  1
  Co  Co92  1  0.74703410  0.50408248  0.75137324  1
  Co  Co93  1  0.37815510  0.37382676  0.87380539  1
  Co  Co94  1  0.62735664  0.87031140  0.37105102  1
  Co  Co95  1  0.75076861  0.74873260  0.50137193  1
  Co  Co96  1  0.62727309  0.87548641  0.62672753  1
  Co  Co97  1  0.49722574  0.50032916  0.25502271  1
  Co  Co98  1  0.87080126  0.37838949  0.62808412  1
  Co  Co99  1  0.00118097  0.50055626  0.74965301  1
  Co  Co100  1  0.49542638  0.24827879  0.24701254  1
  Co  Co101  1  0.24917938  0.00156914  0.75649350  1
  Co  Co102  1  0.24925353  -0.00114163  0.49454016  1
  Co  Co103  1  0.74841675  0.50170200  0.25177521  1
  Co  Co104  1  -0.00344671  0.25316498  0.00262049  1
  Co  Co105  1  0.50214861  0.25062553  0.50633123  1
  Co  Co106  1  0.00000175  -0.00004620  0.24977060  1
  Co  Co107  1  0.74917153  0.74555110  0.00200557  1
  Co  Co108  1  0.25128630  0.74730594  0.24888646  1
  Co  Co109  1  0.37709947  0.12841589  0.87504572  1
  Co  Co110  1  0.25193567  0.49940957  0.75216542  1
  Co  Co111  1  0.74962047  0.00467695  -0.00108841  1
  Co  Co112  1  0.50149871  0.49831696  -0.00192994  1
  Co  Co113  1  0.37719830  0.37092409  0.37983828  1
  Co  Co114  1  0.62328227  0.13034476  0.37532544  1
  Co  Co115  1  0.74888829  0.24526084  0.74798058  1
  Co  Co116  1  0.12737298  0.87640306  0.62617850  1
  Co  Co117  1  0.25326449  0.25357810  0.00077633  1
  Co  Co118  1  0.75148339  0.24825730  0.24960813  1
  Co  Co119  1  0.50102037  -0.00050089  0.75240616  1
  Co  Co120  1  0.87938607  0.62135521  0.12377615  1
  Co  Co121  1  0.12627013  0.37529220  0.12665455  1
  Co  Co122  1  -0.00078184  0.24882933  0.74278936  1
  Co  Co123  1  0.37509198  0.87348061  0.37359787  1
  Co  Co124  1  0.37552262  0.87333356  0.87412403  1
  Co  Co125  1  0.24822373  0.24960991  0.50229323  1
  Co  Co126  1  0.87291270  0.12090355  0.62283138  1
  Co  Co127  1  0.50431604  0.49877722  0.49864314  1
