# generated using pymatgen
data_Fe45Co19
_symmetry_space_group_name_H-M   'P 1'
_cell_length_a   11.41490085
_cell_length_b   11.41381466
_cell_length_c   11.41450605
_cell_angle_alpha   89.99627693
_cell_angle_beta   90.00015522
_cell_angle_gamma   89.99621083
_symmetry_Int_Tables_number   1
_chemical_formula_structural   Fe45Co19
_chemical_formula_sum   'Fe90 Co38'
_cell_volume   1487.16816516
_cell_formula_units_Z   2
loop_
 _symmetry_equiv_pos_site_id
 _symmetry_equiv_pos_as_xyz
  1  'x, y, z'
loop_
 _atom_site_type_symbol
 _atom_site_label
 _atom_site_symmetry_multiplicity
 _atom_site_fract_x
 _atom_site_fract_y
 _atom_site_fract_z
 _atom_site_occupancy
  Fe  Fe0  1  0.37633512  0.37507986  0.37577311  1
  Fe  Fe1  1  -0.00099099  0.50033894  0.00196707  1
  Fe  Fe2  1  0.25446645  0.24623719  0.50093824  1
  Fe  Fe3  1  0.50392720  0.50361996  0.74698499  1
  Fe  Fe4  1  0.37563497  0.12252373  0.87426733  1
  Fe  Fe5  1  -0.00049091  0.75109020  0.25125059  1
  Fe  Fe6  1  0.62651872  0.86787051  0.12391535  1
  Fe  Fe7  1  0.37529675  0.37566691  0.12328960  1
  Fe  Fe8  1  0.87338020  0.37413875  0.37450371  1
  Fe  Fe9  1  0.00017790  0.25280398  0.74903832  1
  Fe  Fe10  1  0.25070222  -0.00270740  0.25040194  1
  Fe  Fe11  1  0.12386018  0.12526943  0.12674359  1
  Fe  Fe12  1  0.50024829  0.24952163  0.75116154  1
  Fe  Fe13  1  0.12847768  0.12598325  0.62667509  1
  Fe  Fe14  1  0.62651602  0.37403896  0.12286858  1
  Fe  Fe15  1  0.62462484  0.37541097  0.87557414  1
  Fe  Fe16  1  0.50183572  0.25162060  0.24934372  1
  Fe  Fe17  1  0.62539207  0.12568788  0.12496621  1
  Fe  Fe18  1  0.12529127  0.87498987  0.12190197  1
  Fe  Fe19  1  0.37259083  0.87693574  0.62383788  1
  Fe  Fe20  1  0.75148048  0.24827698  -0.00157405  1
  Fe  Fe21  1  0.50013078  0.50192705  0.24800353  1
  Fe  Fe22  1  0.24761268  -0.00254465  0.75302368  1
  Fe  Fe23  1  0.62522864  0.87300869  0.62190327  1
  Fe  Fe24  1  0.62401285  0.12557255  0.37555058  1
  Fe  Fe25  1  0.87241164  0.62566373  0.12811703  1
  Fe  Fe26  1  0.50305299  0.50581510  0.00085810  1
  Fe  Fe27  1  0.24748085  0.74953856  0.50043208  1
  Fe  Fe28  1  0.87491209  0.62239101  0.87136081  1
  Fe  Fe29  1  0.87559137  0.12811257  0.13086016  1
  Fe  Fe30  1  0.49470462  0.00410063  0.49920604  1
  Fe  Fe31  1  0.24695900  0.49767475  0.74906918  1
  Fe  Fe32  1  0.50124152  0.50124717  0.50350835  1
  Fe  Fe33  1  0.37736046  0.37758700  0.87497097  1
  Fe  Fe34  1  0.87147710  0.12594543  0.62866311  1
  Fe  Fe35  1  0.25152705  0.24913425  -0.00211764  1
  Fe  Fe36  1  0.75136045  0.00142915  0.50034307  1
  Fe  Fe37  1  -0.00050223  0.49825017  0.50265235  1
  Fe  Fe38  1  0.24871705  0.25349773  0.24895877  1
  Fe  Fe39  1  0.12278874  0.62294564  0.37431321  1
  Fe  Fe40  1  -0.00187974  0.25188394  0.00244144  1
  Fe  Fe41  1  0.25005379  0.50133255  -0.00153166  1
  Fe  Fe42  1  0.87305407  0.87348609  0.12573699  1
  Fe  Fe43  1  0.00057077  0.00221855  0.50227256  1
  Fe  Fe44  1  0.12451556  0.87671855  0.37895987  1
  Fe  Fe45  1  0.25027410  0.75022839  0.25245484  1
  Fe  Fe46  1  0.75193213  0.00053956  -0.00121831  1
  Fe  Fe47  1  0.12302646  0.12445147  0.87634799  1
  Fe  Fe48  1  0.87477155  0.37612907  0.87360771  1
  Fe  Fe49  1  0.74984181  0.25086696  0.50064361  1
  Fe  Fe50  1  0.74698183  0.49759374  0.74462758  1
  Fe  Fe51  1  0.12365148  0.12428807  0.37211645  1
  Fe  Fe52  1  0.37543583  0.62526911  0.37489406  1
  Fe  Fe53  1  0.12353641  0.62480471  0.62609056  1
  Fe  Fe54  1  0.37548952  0.87333374  0.12217891  1
  Fe  Fe55  1  0.87485913  0.62332952  0.62396377  1
  Fe  Fe56  1  0.50298628  -0.00290417  0.74928086  1
  Fe  Fe57  1  0.37403265  0.62661771  0.62786918  1
  Fe  Fe58  1  0.75429885  0.74711953  0.49580762  1
  Fe  Fe59  1  -0.00221332  0.00153549  0.00186148  1
  Fe  Fe60  1  0.37561824  0.12588772  0.12604680  1
  Fe  Fe61  1  0.37375337  0.62569542  0.12571788  1
  Fe  Fe62  1  0.25096727  0.50071772  0.50154342  1
  Fe  Fe63  1  0.00266498  0.74998582  0.75023278  1
  Fe  Fe64  1  0.12352410  0.37670091  0.87624058  1
  Fe  Fe65  1  0.12764629  0.37567264  0.37699462  1
  Fe  Fe66  1  0.62553911  0.12647019  0.62607230  1
  Fe  Fe67  1  0.74821885  0.50382052  0.00013431  1
  Fe  Fe68  1  0.00025963  -0.00054542  0.74883012  1
  Fe  Fe69  1  0.12659812  0.62464856  0.12467696  1
  Fe  Fe70  1  -0.00061729  0.24883539  0.50010763  1
  Fe  Fe71  1  0.62375784  0.87059028  0.87753610  1
  Fe  Fe72  1  0.37589654  0.37260984  0.62570722  1
  Fe  Fe73  1  0.87608730  0.87669385  0.87436830  1
  Fe  Fe74  1  0.24885422  0.75292742  0.75353551  1
  Fe  Fe75  1  0.62292577  0.37451440  0.37854442  1
  Fe  Fe76  1  0.62701164  0.12464152  0.87429266  1
  Fe  Fe77  1  0.74952929  0.75120789  0.74980031  1
  Fe  Fe78  1  0.75024355  -0.00041008  0.25148721  1
  Fe  Fe79  1  0.62416486  0.62577982  0.37490935  1
  Fe  Fe80  1  0.62317536  0.87414073  0.37575683  1
  Fe  Fe81  1  0.50048487  0.00027370  0.00087453  1
  Fe  Fe82  1  0.49805957  0.74913521  0.50082570  1
  Fe  Fe83  1  0.00189149  0.49511559  0.24664036  1
  Fe  Fe84  1  -0.00140402  0.74785095  -0.00197405  1
  Fe  Fe85  1  0.87565813  0.87473935  0.62450004  1
  Fe  Fe86  1  0.87781950  0.87761715  0.37630167  1
  Fe  Fe87  1  0.25122010  0.75006334  -0.00600382  1
  Fe  Fe88  1  0.49903579  -0.00334442  0.25058117  1
  Fe  Fe89  1  0.74830818  0.50012503  0.25109195  1
  Co  Co90  1  0.74907723  0.25265687  0.75086986  1
  Co  Co91  1  0.74857572  0.49967449  0.50116261  1
  Co  Co92  1  0.12890736  0.37639493  0.12165086  1
  Co  Co93  1  -0.00060025  0.74915725  0.50013386  1
  Co  Co94  1  0.75344367  0.74786388  -0.00303192  1
  Co  Co95  1  0.25119698  0.50003111  0.25099582  1
  Co  Co96  1  0.74778916  -0.00330359  0.75082531  1
  Co  Co97  1  0.25044703  0.00206285  0.00037985  1
  Co  Co98  1  0.87508549  0.37416484  0.62463011  1
  Co  Co99  1  0.12162945  0.87735180  0.87818274  1
  Co  Co100  1  0.37337896  0.12330069  0.63147775  1
  Co  Co101  1  0.37519769  0.62241188  0.87108538  1
  Co  Co102  1  -0.00021348  -0.00281567  0.24960352  1
  Co  Co103  1  0.62590913  0.62764880  0.87190017  1
  Co  Co104  1  0.87606944  0.12597315  0.37293207  1
  Co  Co105  1  0.00222093  0.49778903  0.74677928  1
  Co  Co106  1  0.25146751  0.00439025  0.49817343  1
  Co  Co107  1  0.74675632  0.24964227  0.25155278  1
  Co  Co108  1  0.49791172  0.75032243  0.25043382  1
  Co  Co109  1  0.37785795  0.87760477  0.87624028  1
  Co  Co110  1  0.49826176  0.75095975  0.74900873  1
  Co  Co111  1  0.00224582  0.25617509  0.24955014  1
  Co  Co112  1  0.49588204  0.24546804  0.50078556  1
  Co  Co113  1  0.87911030  0.61994521  0.37346434  1
  Co  Co114  1  0.49975226  0.24910887  -0.00135389  1
  Co  Co115  1  0.86990306  0.37410542  0.12511569  1
  Co  Co116  1  0.24976794  0.25230515  0.75340745  1
  Co  Co117  1  0.12440303  0.62294306  0.87449385  1
  Co  Co118  1  0.62704061  0.62943415  0.62314923  1
  Co  Co119  1  0.12697186  0.37263349  0.62213224  1
  Co  Co120  1  0.12614394  0.87592398  0.62342779  1
  Co  Co121  1  0.49773466  0.74474251  -0.00161092  1
  Co  Co122  1  0.87540884  0.12482290  0.87189424  1
  Co  Co123  1  0.37488783  0.12607661  0.36822895  1
  Co  Co124  1  0.62818553  0.63084972  0.12744296  1
  Co  Co125  1  0.37395638  0.87388931  0.37833715  1
  Co  Co126  1  0.75305140  0.75079889  0.25630475  1
  Co  Co127  1  0.62173029  0.37079772  0.62296022  1
