# generated using pymatgen
data_Fe45Co19
_symmetry_space_group_name_H-M   'P 1'
_cell_length_a   11.41678575
_cell_length_b   11.41516752
_cell_length_c   11.41626796
_cell_angle_alpha   90.00512554
_cell_angle_beta   90.00797845
_cell_angle_gamma   90.00456072
_symmetry_Int_Tables_number   1
_chemical_formula_structural   Fe45Co19
_chemical_formula_sum   'Fe90 Co38'
_cell_volume   1487.81963791
_cell_formula_units_Z   2
loop_
 _symmetry_equiv_pos_site_id
 _symmetry_equiv_pos_as_xyz
  1  'x, y, z'
loop_
 _atom_site_type_symbol
 _atom_site_label
 _atom_site_symmetry_multiplicity
 _atom_site_fract_x
 _atom_site_fract_y
 _atom_site_fract_z
 _atom_site_occupancy
  Fe  Fe0  1  0.37541374  0.61850702  0.62014394  1
  Fe  Fe1  1  0.00308432  0.74940701  0.50301366  1
  Fe  Fe2  1  0.62600046  0.62819450  0.87534829  1
  Fe  Fe3  1  -0.00078778  0.25130169  0.50127124  1
  Fe  Fe4  1  0.37523672  0.12618541  0.37751720  1
  Fe  Fe5  1  0.62190002  0.87474906  0.62507100  1
  Fe  Fe6  1  0.62624644  0.11890635  0.12696977  1
  Fe  Fe7  1  0.25201968  -0.00137359  0.74820831  1
  Fe  Fe8  1  0.12514519  0.62694107  0.87333107  1
  Fe  Fe9  1  0.87237376  0.11618161  0.11973991  1
  Fe  Fe10  1  -0.00062950  -0.00147705  0.24980056  1
  Fe  Fe11  1  0.87468798  0.37682006  0.12480652  1
  Fe  Fe12  1  0.49824193  -0.00166090  0.75051936  1
  Fe  Fe13  1  0.37456850  0.12414636  0.87735728  1
  Fe  Fe14  1  0.62288466  0.87287188  0.37406584  1
  Fe  Fe15  1  0.12545026  0.12662734  0.37496076  1
  Fe  Fe16  1  0.12474315  0.62523099  0.12481370  1
  Fe  Fe17  1  0.50440694  0.25384490  0.50056747  1
  Fe  Fe18  1  0.37863570  0.38109787  0.62461539  1
  Fe  Fe19  1  0.74879405  0.75054251  0.50130930  1
  Fe  Fe20  1  0.49967265  0.50419487  0.25394334  1
  Fe  Fe21  1  0.37340636  0.62716994  0.87757528  1
  Fe  Fe22  1  0.37695966  0.12483957  0.62314677  1
  Fe  Fe23  1  0.12479047  0.12525917  0.62547435  1
  Fe  Fe24  1  0.50300352  -0.00656690  -0.00060686  1
  Fe  Fe25  1  0.50016904  0.50160496  -0.00074851  1
  Fe  Fe26  1  0.24919533  0.25311038  0.50114237  1
  Fe  Fe27  1  0.62574631  0.62590389  0.12613979  1
  Fe  Fe28  1  0.74528911  0.49894038  0.49557916  1
  Fe  Fe29  1  0.87049850  0.37315969  0.37248770  1
  Fe  Fe30  1  0.74914048  -0.00012028  0.49892568  1
  Fe  Fe31  1  0.74905990  -0.00051807  0.75204935  1
  Fe  Fe32  1  0.12550276  0.12324613  0.12487822  1
  Fe  Fe33  1  0.74837750  0.24898709  0.00124525  1
  Fe  Fe34  1  0.50092667  0.25165126  0.75000018  1
  Fe  Fe35  1  -0.00059411  0.75156696  0.00058361  1
  Fe  Fe36  1  0.74939188  0.75355964  0.00157517  1
  Fe  Fe37  1  0.75535187  0.74869716  0.24881195  1
  Fe  Fe38  1  0.12494011  0.87460699  0.37496875  1
  Fe  Fe39  1  0.49543236  0.74869184  0.25006922  1
  Fe  Fe40  1  0.24938204  -0.00072488  0.50119912  1
  Fe  Fe41  1  0.24809908  0.75061333  0.50400675  1
  Fe  Fe42  1  -0.00360918  0.50306622  0.25016899  1
  Fe  Fe43  1  0.74919885  0.50173455  0.75231237  1
  Fe  Fe44  1  0.25150663  0.25141104  0.74910869  1
  Fe  Fe45  1  -0.00306418  0.74953557  0.24837206  1
  Fe  Fe46  1  0.25114846  0.49940717  0.24739734  1
  Fe  Fe47  1  0.25048055  0.25132100  0.24627471  1
  Fe  Fe48  1  0.87776031  0.87628018  0.62570728  1
  Fe  Fe49  1  0.87592762  0.62443719  0.62320177  1
  Fe  Fe50  1  0.00064713  0.49888957  0.49883615  1
  Fe  Fe51  1  -0.00004618  0.00155532  0.49952379  1
  Fe  Fe52  1  0.25068225  0.74971107  0.74504926  1
  Fe  Fe53  1  0.87328570  0.12692681  0.37553983  1
  Fe  Fe54  1  0.12597130  0.62506988  0.37528402  1
  Fe  Fe55  1  0.12731062  0.87274225  0.87305306  1
  Fe  Fe56  1  -0.00232857  0.24762784  0.24669555  1
  Fe  Fe57  1  0.24826253  -0.00489254  0.00097133  1
  Fe  Fe58  1  0.62287017  0.62272278  0.62457033  1
  Fe  Fe59  1  0.37630911  0.37519351  0.87587184  1
  Fe  Fe60  1  0.62560491  0.37752521  0.12937085  1
  Fe  Fe61  1  -0.00087607  0.50160567  -0.00196035  1
  Fe  Fe62  1  0.12519876  0.37349986  0.87500326  1
  Fe  Fe63  1  0.49649700  0.74843559  0.74790855  1
  Fe  Fe64  1  0.87629659  0.87310567  0.37724750  1
  Fe  Fe65  1  0.25076685  0.25332866  0.00378544  1
  Fe  Fe66  1  0.62705018  0.12695616  0.37343595  1
  Fe  Fe67  1  0.37543530  0.37485728  0.37399720  1
  Fe  Fe68  1  0.75244518  0.74952323  0.74898434  1
  Fe  Fe69  1  0.87379475  0.12778320  0.62823390  1
  Fe  Fe70  1  0.25016814  0.49919793  0.00174154  1
  Fe  Fe71  1  0.62462575  0.12448654  0.87482385  1
  Fe  Fe72  1  0.62461959  0.37552145  0.87430405  1
  Fe  Fe73  1  0.00141493  0.00323563  0.75456200  1
  Fe  Fe74  1  0.87438290  0.87602449  0.87626644  1
  Fe  Fe75  1  0.87124654  0.37297004  0.62721414  1
  Fe  Fe76  1  0.12390785  0.37381399  0.37147911  1
  Fe  Fe77  1  0.25223125  -0.00154053  0.25036436  1
  Fe  Fe78  1  0.75017484  0.50115124  -0.00012262  1
  Fe  Fe79  1  0.37571945  0.12161576  0.12299976  1
  Fe  Fe80  1  0.50164809  0.25031630  0.00217652  1
  Fe  Fe81  1  0.62597108  0.12576451  0.62565728  1
  Fe  Fe82  1  0.87383740  0.37208271  0.87363797  1
  Fe  Fe83  1  0.25250104  0.75050309  0.24716483  1
  Fe  Fe84  1  0.50038709  0.75324175  0.00135375  1
  Fe  Fe85  1  0.00035931  0.24611249  -0.00174931  1
  Fe  Fe86  1  0.37738691  0.87515872  0.37949158  1
  Fe  Fe87  1  0.12551856  0.37776661  0.62736455  1
  Fe  Fe88  1  -0.00155210  0.50171080  0.75149813  1
  Fe  Fe89  1  0.49933341  0.24731359  0.24761729  1
  Co  Co90  1  0.12043550  0.37602389  0.12514758  1
  Co  Co91  1  0.62691732  0.63076580  0.37238027  1
  Co  Co92  1  0.75243578  0.50522586  0.25113233  1
  Co  Co93  1  0.00515021  -0.00043703  -0.00362458  1
  Co  Co94  1  0.37556384  0.62433334  0.12232821  1
  Co  Co95  1  0.74797753  0.25065651  0.50151110  1
  Co  Co96  1  0.12367145  0.62195630  0.62607096  1
  Co  Co97  1  0.37377419  0.87341310  0.87474694  1
  Co  Co98  1  0.12147667  0.87769075  0.62643804  1
  Co  Co99  1  0.50002738  0.74617610  0.50070556  1
  Co  Co100  1  0.87336797  0.62690658  0.87550626  1
  Co  Co101  1  0.00213908  0.24909671  0.75114779  1
  Co  Co102  1  0.12362449  0.87384063  0.12699787  1
  Co  Co103  1  0.37891645  0.87664003  0.62170073  1
  Co  Co104  1  0.75190734  -0.00219791  0.25452089  1
  Co  Co105  1  0.24745963  0.49803023  0.49762819  1
  Co  Co106  1  0.37637017  0.87599118  0.12378674  1
  Co  Co107  1  0.87568373  0.62646347  0.38057008  1
  Co  Co108  1  0.62449507  0.37914012  0.62771824  1
  Co  Co109  1  0.50027755  0.50253184  0.75455096  1
  Co  Co110  1  0.49777458  0.00022771  0.25230095  1
  Co  Co111  1  0.37078398  0.62558409  0.37864860  1
  Co  Co112  1  0.87103988  0.12440132  0.87639448  1
  Co  Co113  1  0.87472683  0.87920940  0.12236944  1
  Co  Co114  1  0.74599640  0.25013719  0.75238874  1
  Co  Co115  1  0.62534555  0.87404160  0.13196907  1
  Co  Co116  1  -0.00138315  0.74947593  0.75027749  1
  Co  Co117  1  0.62871066  0.37068883  0.36706585  1
  Co  Co118  1  0.75304825  0.24597767  0.24354561  1
  Co  Co119  1  0.13155205  0.12686585  0.87563300  1
  Co  Co120  1  0.50359291  0.00223733  0.49869181  1
  Co  Co121  1  0.25085065  0.50106908  0.75328277  1
  Co  Co122  1  0.74300963  -0.00515907  -0.00333289  1
  Co  Co123  1  0.62362288  0.87072563  0.86904933  1
  Co  Co124  1  0.87465982  0.62484701  0.12146777  1
  Co  Co125  1  0.24940454  0.75057084  0.00321141  1
  Co  Co126  1  0.50519593  0.49905514  0.49256646  1
  Co  Co127  1  0.37983092  0.37707265  0.12583854  1
