# generated using pymatgen
data_Fe45Co19
_symmetry_space_group_name_H-M   'P 1'
_cell_length_a   11.41650486
_cell_length_b   11.41522031
_cell_length_c   11.41518683
_cell_angle_alpha   90.00155998
_cell_angle_beta   90.00055027
_cell_angle_gamma   90.00433515
_symmetry_Int_Tables_number   1
_chemical_formula_structural   Fe45Co19
_chemical_formula_sum   'Fe90 Co38'
_cell_volume   1487.64903847
_cell_formula_units_Z   2
loop_
 _symmetry_equiv_pos_site_id
 _symmetry_equiv_pos_as_xyz
  1  'x, y, z'
loop_
 _atom_site_type_symbol
 _atom_site_label
 _atom_site_symmetry_multiplicity
 _atom_site_fract_x
 _atom_site_fract_y
 _atom_site_fract_z
 _atom_site_occupancy
  Fe  Fe0  1  0.62600810  0.62762772  0.62369837  1
  Fe  Fe1  1  0.62566287  0.37523886  0.87346269  1
  Fe  Fe2  1  0.12850448  0.62821890  0.88010456  1
  Fe  Fe3  1  0.00156859  0.50264569  0.24867727  1
  Fe  Fe4  1  0.75177825  0.75027611  0.75142555  1
  Fe  Fe5  1  0.62683006  0.12425442  0.12305437  1
  Fe  Fe6  1  0.75265814  0.75151798  0.50065311  1
  Fe  Fe7  1  0.12282180  0.62743017  0.37977017  1
  Fe  Fe8  1  0.49801379  0.75280138  -0.00092444  1
  Fe  Fe9  1  0.87785225  0.37635737  0.62833887  1
  Fe  Fe10  1  0.87391908  0.87689719  0.37212235  1
  Fe  Fe11  1  0.62472294  0.87279870  0.62585798  1
  Fe  Fe12  1  0.50165037  0.49752879  0.00050520  1
  Fe  Fe13  1  0.37545318  0.87666884  0.12701185  1
  Fe  Fe14  1  0.37621282  0.87471854  0.37365443  1
  Fe  Fe15  1  -0.00335514  0.24947432  0.49944750  1
  Fe  Fe16  1  0.12376392  0.87323752  0.12619905  1
  Fe  Fe17  1  0.87306935  0.37863506  0.37395429  1
  Fe  Fe18  1  0.12563388  0.12439690  0.37614923  1
  Fe  Fe19  1  -0.00307140  0.24902981  -0.00356446  1
  Fe  Fe20  1  0.37504626  0.37645723  0.87236188  1
  Fe  Fe21  1  0.37224406  0.62543919  0.12211306  1
  Fe  Fe22  1  0.88008997  0.87814026  0.63304682  1
  Fe  Fe23  1  0.24938805  0.50119201  0.50126940  1
  Fe  Fe24  1  0.75141828  0.24826969  0.25056598  1
  Fe  Fe25  1  0.62667122  0.62624977  0.87856504  1
  Fe  Fe26  1  0.37480132  0.87276253  0.62801404  1
  Fe  Fe27  1  0.25036645  0.24822292  0.25002619  1
  Fe  Fe28  1  0.50107852  0.00185955  0.25087610  1
  Fe  Fe29  1  0.50377116  0.50342347  0.24829309  1
  Fe  Fe30  1  0.49971278  0.24779583  0.25092781  1
  Fe  Fe31  1  0.00008662  0.00176294  0.25026190  1
  Fe  Fe32  1  0.50325782  0.00107416  0.74913938  1
  Fe  Fe33  1  0.00165302  0.50531569  0.75030015  1
  Fe  Fe34  1  0.49960214  0.00027046  0.50190414  1
  Fe  Fe35  1  0.87489580  0.37746160  0.12470606  1
  Fe  Fe36  1  0.62290661  0.87465578  0.12548794  1
  Fe  Fe37  1  0.37295734  0.62611397  0.87640166  1
  Fe  Fe38  1  0.12576631  0.37376424  0.37586566  1
  Fe  Fe39  1  0.25197870  0.25213017  0.00010568  1
  Fe  Fe40  1  0.74580879  0.50275135  0.24640233  1
  Fe  Fe41  1  0.62649987  0.12470458  0.87499349  1
  Fe  Fe42  1  0.87612217  0.87352569  0.12548871  1
  Fe  Fe43  1  0.12341323  0.37454054  0.62575901  1
  Fe  Fe44  1  0.50056460  0.50229642  0.74948019  1
  Fe  Fe45  1  0.24824936  0.50139014  0.25101813  1
  Fe  Fe46  1  0.87409591  0.12277142  0.12396592  1
  Fe  Fe47  1  0.12010519  0.86975635  0.87164629  1
  Fe  Fe48  1  0.62440904  0.87384032  0.87371408  1
  Fe  Fe49  1  0.37546170  0.37660650  0.12652804  1
  Fe  Fe50  1  0.12509805  0.37527804  0.12478960  1
  Fe  Fe51  1  0.00104445  0.50241045  0.00193347  1
  Fe  Fe52  1  0.37496312  0.62827361  0.62525719  1
  Fe  Fe53  1  0.62503126  0.37408489  0.62597086  1
  Fe  Fe54  1  0.87344787  0.62245458  0.37706115  1
  Fe  Fe55  1  0.24780237  0.50321341  0.74857864  1
  Fe  Fe56  1  0.87708320  0.62409381  0.62115005  1
  Fe  Fe57  1  0.37644121  0.37638379  0.37508387  1
  Fe  Fe58  1  0.24298338  -0.00025522  0.74797731  1
  Fe  Fe59  1  0.49691172  0.24779530  0.50211178  1
  Fe  Fe60  1  0.49862017  0.24914804  -0.00055490  1
  Fe  Fe61  1  0.74830401  0.74800702  0.24832276  1
  Fe  Fe62  1  0.50231131  0.50110651  0.50178351  1
  Fe  Fe63  1  0.75134076  0.50128947  0.75053114  1
  Fe  Fe64  1  0.49800633  0.24837840  0.74832233  1
  Fe  Fe65  1  0.75331061  0.24877068  0.50155704  1
  Fe  Fe66  1  0.37280256  0.12221140  0.87309126  1
  Fe  Fe67  1  0.37325482  0.12157917  0.12488868  1
  Fe  Fe68  1  0.37762551  0.62755315  0.37658355  1
  Fe  Fe69  1  0.12400466  0.87349043  0.37557786  1
  Fe  Fe70  1  0.62538415  0.37560408  0.37608217  1
  Fe  Fe71  1  0.24888548  -0.00232673  0.50190096  1
  Fe  Fe72  1  0.62523862  0.87299661  0.37441337  1
  Fe  Fe73  1  0.75272366  0.25294330  -0.00242778  1
  Fe  Fe74  1  0.87200639  0.62681316  0.88175706  1
  Fe  Fe75  1  -0.00066593  -0.00064032  -0.00365761  1
  Fe  Fe76  1  0.37496228  0.87512973  0.87089231  1
  Fe  Fe77  1  0.00004362  -0.00042735  0.50138899  1
  Fe  Fe78  1  0.25445739  0.24893237  0.50156388  1
  Fe  Fe79  1  0.75140044  -0.00441903  -0.00271032  1
  Fe  Fe80  1  0.62741066  0.12332856  0.37700480  1
  Fe  Fe81  1  0.12283847  0.37449061  0.87439826  1
  Fe  Fe82  1  0.75343136  0.24913166  0.75070130  1
  Fe  Fe83  1  0.24814801  -0.00355877  -0.00166254  1
  Fe  Fe84  1  -0.00087966  0.74627727  0.24898523  1
  Fe  Fe85  1  0.12541416  0.12431175  0.12277123  1
  Fe  Fe86  1  0.24971896  0.75004690  0.25026968  1
  Fe  Fe87  1  -0.00142108  0.24851159  0.25095031  1
  Fe  Fe88  1  0.75142792  0.00024261  0.50295743  1
  Fe  Fe89  1  0.24960448  0.24956107  0.74854488  1
  Co  Co90  1  0.87173113  0.62543754  0.12173947  1
  Co  Co91  1  0.49994170  0.00011308  -0.00165860  1
  Co  Co92  1  0.87282608  0.12023016  0.87219029  1
  Co  Co93  1  0.49991487  0.75187692  0.50118964  1
  Co  Co94  1  0.12475248  0.12785989  0.62079674  1
  Co  Co95  1  0.00072207  0.49657439  0.49958807  1
  Co  Co96  1  0.74593332  -0.00142630  0.75047921  1
  Co  Co97  1  0.87799094  0.37887828  0.87323086  1
  Co  Co98  1  0.74774598  0.49504709  0.00118388  1
  Co  Co99  1  0.62556629  0.12646700  0.62463818  1
  Co  Co100  1  0.37494836  0.37776083  0.62598597  1
  Co  Co101  1  0.00795566  0.00666488  0.75175661  1
  Co  Co102  1  0.37370320  0.12227950  0.37473122  1
  Co  Co103  1  0.74878862  0.49878743  0.50262421  1
  Co  Co104  1  0.12952339  0.62651094  0.12264642  1
  Co  Co105  1  0.24971833  0.49585254  -0.00114174  1
  Co  Co106  1  0.12810063  0.12786836  0.87878678  1
  Co  Co107  1  0.74947812  -0.00045580  0.24836780  1
  Co  Co108  1  0.00002651  0.74965750  0.00163615  1
  Co  Co109  1  0.87589068  0.12171067  0.62872583  1
  Co  Co110  1  0.50051025  0.74797787  0.24845202  1
  Co  Co111  1  0.12042721  0.86958456  0.62646056  1
  Co  Co112  1  0.87461462  0.12155766  0.37503439  1
  Co  Co113  1  -0.00104362  0.74219914  0.75055121  1
  Co  Co114  1  0.25152407  0.75231657  0.49996355  1
  Co  Co115  1  0.75025182  0.75747445  -0.00063830  1
  Co  Co116  1  -0.00546337  0.75370993  0.49866974  1
  Co  Co117  1  0.62532673  0.62836179  0.11835275  1
  Co  Co118  1  0.50136405  0.74888120  0.75111587  1
  Co  Co119  1  0.62601504  0.62731298  0.37855351  1
  Co  Co120  1  0.62457623  0.37153610  0.12555939  1
  Co  Co121  1  0.12288882  0.62902722  0.61857467  1
  Co  Co122  1  0.00023503  0.24575073  0.75244170  1
  Co  Co123  1  0.37387193  0.12111549  0.62789947  1
  Co  Co124  1  0.24759393  -0.00048325  0.25041421  1
  Co  Co125  1  0.87997598  0.87534593  0.86895187  1
  Co  Co126  1  0.25154238  0.75627486  -0.00002659  1
  Co  Co127  1  0.24789420  0.74784684  0.74920606  1
