# generated using pymatgen
data_Fe45Co19
_symmetry_space_group_name_H-M   'P 1'
_cell_length_a   11.41537292
_cell_length_b   11.41589601
_cell_length_c   11.41598563
_cell_angle_alpha   89.99670814
_cell_angle_beta   89.99925675
_cell_angle_gamma   90.00509847
_symmetry_Int_Tables_number   1
_chemical_formula_structural   Fe45Co19
_chemical_formula_sum   'Fe90 Co38'
_cell_volume   1487.69368186
_cell_formula_units_Z   2
loop_
 _symmetry_equiv_pos_site_id
 _symmetry_equiv_pos_as_xyz
  1  'x, y, z'
loop_
 _atom_site_type_symbol
 _atom_site_label
 _atom_site_symmetry_multiplicity
 _atom_site_fract_x
 _atom_site_fract_y
 _atom_site_fract_z
 _atom_site_occupancy
  Fe  Fe0  1  0.74971592  0.00099815  0.00264381  1
  Fe  Fe1  1  0.11976103  0.87283282  0.62590730  1
  Fe  Fe2  1  0.49923090  -0.00382715  0.00050831  1
  Fe  Fe3  1  0.37583844  0.62199880  0.37642619  1
  Fe  Fe4  1  0.75107885  0.24867312  0.25219590  1
  Fe  Fe5  1  0.62530911  0.37449762  0.12641783  1
  Fe  Fe6  1  0.62480903  0.12543694  0.12814760  1
  Fe  Fe7  1  0.37536281  0.87438499  0.62484643  1
  Fe  Fe8  1  0.00012249  0.75024843  0.00000001  1
  Fe  Fe9  1  0.87261259  0.62272572  0.87505878  1
  Fe  Fe10  1  0.87632724  0.87610002  0.37622001  1
  Fe  Fe11  1  -0.00189551  0.49809177  0.25241723  1
  Fe  Fe12  1  0.62557537  0.62270468  0.37665727  1
  Fe  Fe13  1  0.49965030  -0.00198755  0.74916151  1
  Fe  Fe14  1  0.62540232  0.12372364  0.87304066  1
  Fe  Fe15  1  0.87256364  0.37499362  0.38103970  1
  Fe  Fe16  1  0.75176269  0.75105364  0.25198052  1
  Fe  Fe17  1  0.12374445  0.87712916  0.37384736  1
  Fe  Fe18  1  0.50354088  0.50130666  0.00031506  1
  Fe  Fe19  1  0.25006043  0.24995640  0.74961881  1
  Fe  Fe20  1  0.75157381  -0.00011624  0.74725176  1
  Fe  Fe21  1  -0.00465830  0.00188541  0.24749619  1
  Fe  Fe22  1  0.37462441  0.37449483  0.87590116  1
  Fe  Fe23  1  0.37672717  0.62463786  0.12533661  1
  Fe  Fe24  1  0.62351016  0.37814541  0.37735124  1
  Fe  Fe25  1  0.25225571  -0.00040364  0.00145490  1
  Fe  Fe26  1  0.87616877  0.62590439  0.12768871  1
  Fe  Fe27  1  0.49962409  0.00181306  0.49920511  1
  Fe  Fe28  1  0.25396084  0.49775862  0.24896012  1
  Fe  Fe29  1  -0.00236585  0.24946646  0.25203918  1
  Fe  Fe30  1  0.12054043  0.37270520  0.62623342  1
  Fe  Fe31  1  0.74857679  0.74795359  0.00012638  1
  Fe  Fe32  1  -0.00285884  0.00000106  0.00187063  1
  Fe  Fe33  1  0.62441390  0.37430912  0.62122866  1
  Fe  Fe34  1  0.13047063  0.37271985  0.37328201  1
  Fe  Fe35  1  0.24770948  0.00076163  0.50245033  1
  Fe  Fe36  1  0.62635922  0.87654095  0.37670762  1
  Fe  Fe37  1  0.62712828  0.12352827  0.37348069  1
  Fe  Fe38  1  0.87876869  0.62240009  0.62142201  1
  Fe  Fe39  1  0.63047117  0.37786892  0.87537847  1
  Fe  Fe40  1  0.37791108  0.37187274  0.62179351  1
  Fe  Fe41  1  0.12157619  0.62536415  0.62638151  1
  Fe  Fe42  1  0.25034311  0.49864153  0.74985289  1
  Fe  Fe43  1  -0.00120497  0.49734772  -0.00140366  1
  Fe  Fe44  1  0.12449988  0.62395341  0.87409217  1
  Fe  Fe45  1  0.25016872  0.24881595  0.00309309  1
  Fe  Fe46  1  -0.00074929  0.25180555  -0.00283740  1
  Fe  Fe47  1  -0.00195585  0.49503990  0.75343901  1
  Fe  Fe48  1  0.87275366  0.12732296  0.87662393  1
  Fe  Fe49  1  0.37386670  0.87625635  0.37479198  1
  Fe  Fe50  1  0.62486938  0.62486008  0.12743524  1
  Fe  Fe51  1  0.12309451  0.62386776  0.37385297  1
  Fe  Fe52  1  0.75091616  0.49918362  0.74609314  1
  Fe  Fe53  1  0.24932568  0.75096522  0.75062051  1
  Fe  Fe54  1  0.49339428  0.25200511  0.25396308  1
  Fe  Fe55  1  0.50140075  0.49959998  0.74881931  1
  Fe  Fe56  1  0.87370029  0.87404732  0.87377698  1
  Fe  Fe57  1  0.12628506  0.37369925  0.12584411  1
  Fe  Fe58  1  0.87816455  0.13012677  0.62098438  1
  Fe  Fe59  1  0.12389689  0.87593790  0.87336651  1
  Fe  Fe60  1  0.62341491  0.12588393  0.62530271  1
  Fe  Fe61  1  0.37757348  0.12811639  0.62425507  1
  Fe  Fe62  1  0.24748256  0.75011625  0.49900809  1
  Fe  Fe63  1  -0.00222516  0.00113538  0.74955805  1
  Fe  Fe64  1  0.75185995  0.74931122  0.50159173  1
  Fe  Fe65  1  0.24799453  0.49938570  0.50242761  1
  Fe  Fe66  1  0.25030484  0.00022277  0.74908062  1
  Fe  Fe67  1  0.12457243  0.87563878  0.12616208  1
  Fe  Fe68  1  0.37563499  0.62567062  0.62545775  1
  Fe  Fe69  1  0.87181424  0.37309047  0.12233206  1
  Fe  Fe70  1  0.62622409  0.87516087  0.12742099  1
  Fe  Fe71  1  0.49818710  0.00029079  0.25111256  1
  Fe  Fe72  1  0.25178867  0.00463286  0.24616376  1
  Fe  Fe73  1  0.50138057  0.74955109  0.50165614  1
  Fe  Fe74  1  0.49983716  0.74992785  0.25107381  1
  Fe  Fe75  1  0.12493046  0.12542474  0.87513401  1
  Fe  Fe76  1  0.50339504  0.25087216  -0.00224280  1
  Fe  Fe77  1  0.25022138  0.50074841  -0.00077616  1
  Fe  Fe78  1  0.25164625  0.75155306  0.00030760  1
  Fe  Fe79  1  0.12679269  0.12623485  0.37350730  1
  Fe  Fe80  1  0.37959012  0.62862913  0.87331968  1
  Fe  Fe81  1  0.12104091  0.12827944  0.62552291  1
  Fe  Fe82  1  0.37622437  0.12518880  0.87488667  1
  Fe  Fe83  1  0.75187685  0.00177161  0.50108392  1
  Fe  Fe84  1  0.24940999  0.74908274  0.25039920  1
  Fe  Fe85  1  0.75059297  0.49991031  0.25056221  1
  Fe  Fe86  1  0.75114733  0.25128293  0.74823923  1
  Fe  Fe87  1  0.74870012  0.74949806  0.74575817  1
  Fe  Fe88  1  0.62402856  0.87222469  0.87278068  1
  Fe  Fe89  1  0.12330546  0.62350017  0.12631517  1
  Co  Co90  1  0.87754265  0.87471270  0.62442234  1
  Co  Co91  1  0.50256476  0.25211491  0.75267340  1
  Co  Co92  1  0.37641520  0.87346328  0.87244610  1
  Co  Co93  1  0.75035637  0.50088817  0.50047864  1
  Co  Co94  1  0.87313305  0.12875940  0.12400655  1
  Co  Co95  1  -0.00289948  0.25234131  0.75511273  1
  Co  Co96  1  0.12847492  0.37421266  0.87527605  1
  Co  Co97  1  0.87378576  0.87253580  0.12433182  1
  Co  Co98  1  0.25579381  0.24875800  0.24644085  1
  Co  Co99  1  0.75369620  0.00007894  0.24865257  1
  Co  Co100  1  0.37389784  0.87495689  0.12920442  1
  Co  Co101  1  0.49929528  0.49846708  0.25019651  1
  Co  Co102  1  0.74673467  0.24842574  0.49942527  1
  Co  Co103  1  0.38002672  0.12547325  0.12229030  1
  Co  Co104  1  0.12155339  0.12714902  0.12497692  1
  Co  Co105  1  0.00279977  0.25067949  0.49453679  1
  Co  Co106  1  0.00062496  0.74920528  0.49701286  1
  Co  Co107  1  0.87462259  0.62442975  0.37493110  1
  Co  Co108  1  0.37056224  0.12446410  0.37803973  1
  Co  Co109  1  0.87780119  0.37298256  0.62035307  1
  Co  Co110  1  -0.00212729  0.74839101  0.75195513  1
  Co  Co111  1  0.50029281  0.75141823  0.00362678  1
  Co  Co112  1  0.62530366  0.62275713  0.62321902  1
  Co  Co113  1  0.00114130  0.00103329  0.50006619  1
  Co  Co114  1  0.50392093  0.75099117  0.74485350  1
  Co  Co115  1  0.74889308  0.50355080  0.00383000  1
  Co  Co116  1  0.00296221  0.49875152  0.49644724  1
  Co  Co117  1  0.86813698  0.37525466  0.87805564  1
  Co  Co118  1  0.87425344  0.12427451  0.37674603  1
  Co  Co119  1  0.74583789  0.24713723  0.00005192  1
  Co  Co120  1  0.37275737  0.37675048  0.37982081  1
  Co  Co121  1  0.62428720  0.62590683  0.87286061  1
  Co  Co122  1  0.00068834  0.75073917  0.25087801  1
  Co  Co123  1  0.24850165  0.24938169  0.50247418  1
  Co  Co124  1  0.49969806  0.50129607  0.50124650  1
  Co  Co125  1  0.50185295  0.24774855  0.49525582  1
  Co  Co126  1  0.37618406  0.37592628  0.12179560  1
  Co  Co127  1  0.62605630  0.87812744  0.62270939  1
