# generated using pymatgen
data_Fe45Co19
_symmetry_space_group_name_H-M   'P 1'
_cell_length_a   11.41420891
_cell_length_b   11.41539339
_cell_length_c   11.41773124
_cell_angle_alpha   90.00775684
_cell_angle_beta   90.00497527
_cell_angle_gamma   90.00287773
_symmetry_Int_Tables_number   1
_chemical_formula_structural   Fe45Co19
_chemical_formula_sum   'Fe90 Co38'
_cell_volume   1487.70392533
_cell_formula_units_Z   2
loop_
 _symmetry_equiv_pos_site_id
 _symmetry_equiv_pos_as_xyz
  1  'x, y, z'
loop_
 _atom_site_type_symbol
 _atom_site_label
 _atom_site_symmetry_multiplicity
 _atom_site_fract_x
 _atom_site_fract_y
 _atom_site_fract_z
 _atom_site_occupancy
  Fe  Fe0  1  0.74878832  0.74654203  0.49691100  1
  Fe  Fe1  1  0.49924780  -0.00237766  0.50129028  1
  Fe  Fe2  1  0.87221745  0.12464341  0.12495097  1
  Fe  Fe3  1  0.49645498  0.74714342  0.75248324  1
  Fe  Fe4  1  0.49996105  0.00019942  0.74924266  1
  Fe  Fe5  1  0.62199634  0.62407813  0.62275641  1
  Fe  Fe6  1  0.12518456  0.12619306  0.37337051  1
  Fe  Fe7  1  0.00019907  0.74862145  0.50130071  1
  Fe  Fe8  1  0.75214749  0.00105115  0.50204762  1
  Fe  Fe9  1  0.75224963  0.74898530  -0.00145296  1
  Fe  Fe10  1  0.75046727  0.74745625  0.75069534  1
  Fe  Fe11  1  0.12333873  0.62361211  0.87599492  1
  Fe  Fe12  1  0.75044790  0.50123886  0.25035168  1
  Fe  Fe13  1  0.87642660  0.37587348  0.62668546  1
  Fe  Fe14  1  0.24901382  0.75074581  0.24871082  1
  Fe  Fe15  1  0.12446227  0.12682389  0.62368832  1
  Fe  Fe16  1  0.37550116  0.87555183  0.37358590  1
  Fe  Fe17  1  0.24898117  0.49822981  0.49847531  1
  Fe  Fe18  1  0.37583491  0.12389535  0.37345641  1
  Fe  Fe19  1  0.12683512  0.12422646  0.87773132  1
  Fe  Fe20  1  0.24874541  0.49892321  0.24955484  1
  Fe  Fe21  1  0.24955664  0.25149218  0.49917280  1
  Fe  Fe22  1  0.62673951  0.87584628  0.87530026  1
  Fe  Fe23  1  0.62528573  0.87341605  0.62514541  1
  Fe  Fe24  1  0.00013903  0.00015401  0.50166494  1
  Fe  Fe25  1  0.62422874  0.37625182  0.37492436  1
  Fe  Fe26  1  0.00083046  0.50035780  0.50181461  1
  Fe  Fe27  1  0.62281276  0.37681391  0.62856048  1
  Fe  Fe28  1  0.87487627  0.12585144  0.37448580  1
  Fe  Fe29  1  0.62542407  0.12403036  0.87573896  1
  Fe  Fe30  1  0.62517529  0.12373192  0.37530675  1
  Fe  Fe31  1  0.37670898  0.37546095  0.87348402  1
  Fe  Fe32  1  0.00121723  0.25183137  0.75075593  1
  Fe  Fe33  1  0.25193802  0.25223706  0.00093018  1
  Fe  Fe34  1  0.87791814  0.37546586  0.37219075  1
  Fe  Fe35  1  0.75023913  0.24950520  0.75057169  1
  Fe  Fe36  1  0.75015408  0.24974870  0.24981688  1
  Fe  Fe37  1  0.75184177  0.50311728  0.75118267  1
  Fe  Fe38  1  0.12280311  0.62538461  0.12605134  1
  Fe  Fe39  1  0.00040603  0.25082008  0.49984008  1
  Fe  Fe40  1  0.24868188  -0.00043661  0.50100250  1
  Fe  Fe41  1  -0.00082239  0.25311364  0.00160558  1
  Fe  Fe42  1  0.24947628  0.25211494  0.24888056  1
  Fe  Fe43  1  0.37782676  0.62567637  0.37606918  1
  Fe  Fe44  1  0.12498513  0.12574663  0.12414601  1
  Fe  Fe45  1  0.87214294  0.87545584  0.12605484  1
  Fe  Fe46  1  0.87468083  0.12303891  0.87339994  1
  Fe  Fe47  1  0.74897615  0.74798831  0.25371048  1
  Fe  Fe48  1  0.24820034  0.49692623  0.00161663  1
  Fe  Fe49  1  0.37528305  0.12577705  0.62505550  1
  Fe  Fe50  1  0.00251418  -0.00016133  0.74840584  1
  Fe  Fe51  1  0.62500946  0.62417984  0.87621253  1
  Fe  Fe52  1  0.24826047  0.50092736  0.75083041  1
  Fe  Fe53  1  0.87732575  0.62423906  0.12626638  1
  Fe  Fe54  1  0.74998948  0.25077021  -0.00195310  1
  Fe  Fe55  1  0.00050005  0.75149831  0.00018744  1
  Fe  Fe56  1  0.87444194  0.87518028  0.87267696  1
  Fe  Fe57  1  0.37518895  0.37443638  0.37362275  1
  Fe  Fe58  1  0.24944889  0.75024940  0.49997380  1
  Fe  Fe59  1  0.49943196  0.49925627  0.24973202  1
  Fe  Fe60  1  0.50252255  0.75189279  0.25114714  1
  Fe  Fe61  1  0.37084680  0.87406829  0.62786355  1
  Fe  Fe62  1  0.75073426  0.50143394  0.49835864  1
  Fe  Fe63  1  0.50012693  0.49809196  -0.00193834  1
  Fe  Fe64  1  0.62347635  0.37173258  0.12372813  1
  Fe  Fe65  1  0.37501157  0.62457491  0.62376287  1
  Fe  Fe66  1  0.24801036  0.75294730  0.00064660  1
  Fe  Fe67  1  0.00217512  0.74680640  0.74836328  1
  Fe  Fe68  1  0.37660265  0.37484599  0.62752701  1
  Fe  Fe69  1  0.75114676  0.25091833  0.50146752  1
  Fe  Fe70  1  0.37919467  0.12784821  0.12525646  1
  Fe  Fe71  1  0.50503762  -0.00182506  0.24692581  1
  Fe  Fe72  1  0.49888656  0.75114591  -0.00164959  1
  Fe  Fe73  1  0.25013580  -0.00154753  0.24590273  1
  Fe  Fe74  1  0.12174102  0.62496680  0.37344480  1
  Fe  Fe75  1  0.87409993  0.87508739  0.37465112  1
  Fe  Fe76  1  -0.00105424  -0.00009624  0.24906444  1
  Fe  Fe77  1  0.75117165  0.50033348  0.00057220  1
  Fe  Fe78  1  0.36939070  0.87755503  0.87476436  1
  Fe  Fe79  1  0.12414956  0.87492257  0.37370717  1
  Fe  Fe80  1  0.37562299  0.62553006  0.12299180  1
  Fe  Fe81  1  0.37450732  0.12296797  0.87554431  1
  Fe  Fe82  1  0.87432394  0.87382690  0.62609181  1
  Fe  Fe83  1  0.24948573  0.24908213  0.75055858  1
  Fe  Fe84  1  0.87695653  0.37890569  0.87564561  1
  Fe  Fe85  1  0.50017030  0.25156517  0.49963823  1
  Fe  Fe86  1  0.62593218  0.12569396  0.62539349  1
  Fe  Fe87  1  0.50164727  -0.00129328  0.00320443  1
  Fe  Fe88  1  0.00030171  -0.00227975  -0.00029833  1
  Fe  Fe89  1  0.62354099  0.62630995  0.12427294  1
  Co  Co90  1  0.12535130  0.37461014  0.62604560  1
  Co  Co91  1  0.87353745  0.37517943  0.12489340  1
  Co  Co92  1  0.00075399  0.49796651  0.24703815  1
  Co  Co93  1  0.87860189  0.62328170  0.37388399  1
  Co  Co94  1  0.12748637  0.62368655  0.62377628  1
  Co  Co95  1  0.37586155  0.87229677  0.12485720  1
  Co  Co96  1  0.75006116  0.00034607  0.74901775  1
  Co  Co97  1  0.74829509  0.00057852  0.24919921  1
  Co  Co98  1  -0.00109005  0.75207663  0.24928347  1
  Co  Co99  1  0.62923743  0.87185387  0.12304436  1
  Co  Co100  1  0.12399246  0.37490774  0.87486952  1
  Co  Co101  1  -0.00047009  0.24914222  0.24740936  1
  Co  Co102  1  0.12640210  0.87355941  0.62561392  1
  Co  Co103  1  0.12734974  0.87626102  0.87371123  1
  Co  Co104  1  0.49859576  0.50416666  0.75284071  1
  Co  Co105  1  0.12360710  0.87532547  0.12560436  1
  Co  Co106  1  0.24939716  0.74624449  0.75169501  1
  Co  Co107  1  0.87761473  0.62430676  0.87620293  1
  Co  Co108  1  0.62637751  0.87667302  0.37744121  1
  Co  Co109  1  0.62547509  0.12884328  0.12345133  1
  Co  Co110  1  0.50121796  0.25076130  0.25303188  1
  Co  Co111  1  0.87324473  0.62528009  0.62384417  1
  Co  Co112  1  0.75032535  0.00045818  -0.00087331  1
  Co  Co113  1  0.12454916  0.37401965  0.12525379  1
  Co  Co114  1  0.87636385  0.12633536  0.62670194  1
  Co  Co115  1  0.49979619  0.25147318  -0.00406848  1
  Co  Co116  1  0.50098434  0.24807116  0.75130981  1
  Co  Co117  1  0.49818370  0.49695922  0.49990561  1
  Co  Co118  1  0.37703318  0.37501779  0.12528221  1
  Co  Co119  1  0.00041065  0.50247765  0.74843682  1
  Co  Co120  1  0.00047947  0.49913575  0.00224387  1
  Co  Co121  1  0.49832667  0.75196894  0.50018691  1
  Co  Co122  1  0.62615444  0.37666460  0.87300468  1
  Co  Co123  1  0.12280451  0.37417429  0.37425213  1
  Co  Co124  1  0.37157941  0.62381648  0.87962123  1
  Co  Co125  1  0.25035459  -0.00004556  0.00471710  1
  Co  Co126  1  0.62074953  0.62316456  0.37653125  1
  Co  Co127  1  0.24677083  0.00379854  0.74786573  1
