# generated using pymatgen
data_Fe45Co19
_symmetry_space_group_name_H-M   'P 1'
_cell_length_a   11.41508371
_cell_length_b   11.41500254
_cell_length_c   11.41513653
_cell_angle_alpha   89.99439356
_cell_angle_beta   90.00321125
_cell_angle_gamma   90.00503127
_symmetry_Int_Tables_number   1
_chemical_formula_structural   Fe45Co19
_chemical_formula_sum   'Fe90 Co38'
_cell_volume   1487.42891192
_cell_formula_units_Z   2
loop_
 _symmetry_equiv_pos_site_id
 _symmetry_equiv_pos_as_xyz
  1  'x, y, z'
loop_
 _atom_site_type_symbol
 _atom_site_label
 _atom_site_symmetry_multiplicity
 _atom_site_fract_x
 _atom_site_fract_y
 _atom_site_fract_z
 _atom_site_occupancy
  Fe  Fe0  1  0.75209088  0.74892042  0.74871333  1
  Fe  Fe1  1  0.37538045  0.87528069  0.87473116  1
  Fe  Fe2  1  0.37222682  0.12638109  0.62272831  1
  Fe  Fe3  1  0.87610163  0.87658275  0.62551857  1
  Fe  Fe4  1  0.25143191  0.50561141  0.25639969  1
  Fe  Fe5  1  0.00172861  -0.00201601  0.49756304  1
  Fe  Fe6  1  0.62458549  0.87420642  0.12697615  1
  Fe  Fe7  1  0.24956803  0.25239217  0.75049277  1
  Fe  Fe8  1  0.12317470  0.87449829  0.87469472  1
  Fe  Fe9  1  0.49956775  0.49886808  -0.00092027  1
  Fe  Fe10  1  0.37491143  0.62463238  0.87528059  1
  Fe  Fe11  1  0.24702416  0.24785215  0.25096768  1
  Fe  Fe12  1  0.63005710  0.12854986  0.62285746  1
  Fe  Fe13  1  0.62689098  0.87715101  0.62727086  1
  Fe  Fe14  1  0.87580004  0.12702700  0.37643771  1
  Fe  Fe15  1  0.62963537  0.12846493  0.87642922  1
  Fe  Fe16  1  0.62700624  0.62668588  0.37721605  1
  Fe  Fe17  1  0.37277987  0.87371611  0.37275261  1
  Fe  Fe18  1  0.49901371  0.74762579  0.25061432  1
  Fe  Fe19  1  0.12720982  0.62111038  0.62114176  1
  Fe  Fe20  1  -0.00058626  0.00192920  0.24957697  1
  Fe  Fe21  1  0.49937944  0.25083140  0.74800171  1
  Fe  Fe22  1  0.75040424  0.49788632  0.74927158  1
  Fe  Fe23  1  0.62435033  0.37608142  0.12780217  1
  Fe  Fe24  1  -0.00149812  0.00397202  0.75047817  1
  Fe  Fe25  1  0.50259559  0.75329310  0.50022363  1
  Fe  Fe26  1  0.87504710  0.87065569  0.37353111  1
  Fe  Fe27  1  0.49934924  0.50223081  0.25302669  1
  Fe  Fe28  1  0.49820924  0.00237726  0.25002681  1
  Fe  Fe29  1  0.75076474  0.75237843  0.00057615  1
  Fe  Fe30  1  0.37414828  0.37490715  0.12809628  1
  Fe  Fe31  1  0.87451310  0.62336077  0.62185564  1
  Fe  Fe32  1  0.50119367  -0.00027039  0.49868032  1
  Fe  Fe33  1  0.62621299  0.62472353  0.12317318  1
  Fe  Fe34  1  0.75154377  0.49637399  0.00003410  1
  Fe  Fe35  1  0.12302671  0.12654217  0.87645965  1
  Fe  Fe36  1  0.62546171  0.37256861  0.37331518  1
  Fe  Fe37  1  -0.00014416  0.50056185  0.75051001  1
  Fe  Fe38  1  0.75347987  0.24927164  0.24899202  1
  Fe  Fe39  1  0.50100233  0.00127485  0.00091823  1
  Fe  Fe40  1  0.37413717  0.87565478  0.12590915  1
  Fe  Fe41  1  0.62609530  0.62215158  0.62353129  1
  Fe  Fe42  1  0.00006097  0.74726639  0.00411283  1
  Fe  Fe43  1  0.75384648  0.00383483  0.75199589  1
  Fe  Fe44  1  0.87896549  0.37617486  0.12818866  1
  Fe  Fe45  1  0.24661549  0.25657589  0.49732035  1
  Fe  Fe46  1  0.24817877  0.00011579  0.00123030  1
  Fe  Fe47  1  0.25026589  0.49615348  0.75098957  1
  Fe  Fe48  1  0.75180888  0.49422225  0.49871543  1
  Fe  Fe49  1  0.24621445  0.25318233  0.00112458  1
  Fe  Fe50  1  -0.00078440  0.25449119  0.49727296  1
  Fe  Fe51  1  0.24766204  0.00086017  0.74938319  1
  Fe  Fe52  1  0.24948029  0.74942919  0.00202436  1
  Fe  Fe53  1  0.87837190  0.37253914  0.87578456  1
  Fe  Fe54  1  0.24785686  0.75000210  0.74730634  1
  Fe  Fe55  1  0.37405833  0.12641445  0.87740189  1
  Fe  Fe56  1  0.00062730  0.74795771  0.74839618  1
  Fe  Fe57  1  0.24788104  0.49659365  -0.00201030  1
  Fe  Fe58  1  0.24706805  -0.00282523  0.49895436  1
  Fe  Fe59  1  0.37533489  0.62364873  0.12330647  1
  Fe  Fe60  1  0.87509820  0.62430824  0.87732153  1
  Fe  Fe61  1  0.12452901  0.62373756  0.87673983  1
  Fe  Fe62  1  0.12609676  0.86951817  0.37023904  1
  Fe  Fe63  1  0.37184143  0.12539267  0.37503246  1
  Fe  Fe64  1  0.87770465  0.87712536  0.87792161  1
  Fe  Fe65  1  0.00143172  0.75074275  0.50134752  1
  Fe  Fe66  1  0.49983558  0.74704794  0.74873580  1
  Fe  Fe67  1  0.62347868  0.87404440  0.87378696  1
  Fe  Fe68  1  0.12332990  0.12606226  0.62151954  1
  Fe  Fe69  1  0.75102126  0.50192606  0.25167128  1
  Fe  Fe70  1  -0.00140194  0.50990144  0.25284040  1
  Fe  Fe71  1  0.49810864  0.49565387  0.49807813  1
  Fe  Fe72  1  0.49993947  0.25086828  0.00236091  1
  Fe  Fe73  1  0.75025766  -0.00174394  0.49813670  1
  Fe  Fe74  1  0.62804142  0.12513407  0.12406542  1
  Fe  Fe75  1  0.75262107  0.00052873  0.24920108  1
  Fe  Fe76  1  0.12221029  0.37953958  0.13010579  1
  Fe  Fe77  1  0.49995613  0.25093847  0.49923870  1
  Fe  Fe78  1  0.37451799  0.87648854  0.62661136  1
  Fe  Fe79  1  -0.00385673  0.24694442  0.74894682  1
  Fe  Fe80  1  0.37261381  0.62160003  0.62060062  1
  Fe  Fe81  1  0.62498796  0.62497627  0.87597588  1
  Fe  Fe82  1  0.50022983  0.00378224  0.74939436  1
  Fe  Fe83  1  0.62432575  0.37424944  0.87252258  1
  Fe  Fe84  1  0.75309807  0.74795022  0.24981051  1
  Fe  Fe85  1  0.62717235  0.12557824  0.37517817  1
  Fe  Fe86  1  0.12405320  0.12408163  0.12654801  1
  Fe  Fe87  1  0.49930579  0.24727257  0.24926875  1
  Fe  Fe88  1  0.12424333  0.87210360  0.12929403  1
  Fe  Fe89  1  0.00125628  0.49661108  0.49653242  1
  Co  Co90  1  0.62590227  0.87501727  0.37135312  1
  Co  Co91  1  0.00383849  0.00024392  0.00261675  1
  Co  Co92  1  0.87748253  0.37565752  0.36909019  1
  Co  Co93  1  0.12649975  0.62215203  0.12354532  1
  Co  Co94  1  0.87422416  0.12395847  0.12012496  1
  Co  Co95  1  0.74857297  0.75284371  0.50249230  1
  Co  Co96  1  0.12116949  0.37643402  0.36806018  1
  Co  Co97  1  0.87693320  0.87592049  0.12522449  1
  Co  Co98  1  0.75494645  0.24974062  0.74915257  1
  Co  Co99  1  -0.00026495  0.24482024  0.24912033  1
  Co  Co100  1  0.75091496  0.25562380  0.00307278  1
  Co  Co101  1  0.87172644  0.62284828  0.12144911  1
  Co  Co102  1  0.37268169  0.12649205  0.12361700  1
  Co  Co103  1  0.24820303  0.75395951  0.50317110  1
  Co  Co104  1  0.37480120  0.37553522  0.62576839  1
  Co  Co105  1  0.37583183  0.37159807  0.37050372  1
  Co  Co106  1  0.00014704  0.49954354  -0.00036622  1
  Co  Co107  1  0.62481426  0.37356257  0.62548324  1
  Co  Co108  1  0.12055281  0.37409044  0.87263603  1
  Co  Co109  1  0.24948970  0.49304906  0.49477981  1
  Co  Co110  1  0.74728534  -0.00348458  0.00040619  1
  Co  Co111  1  0.49945418  0.50085697  0.74985581  1
  Co  Co112  1  0.87283757  0.62715689  0.38094039  1
  Co  Co113  1  0.12664526  0.62875754  0.37938209  1
  Co  Co114  1  0.12351432  0.37528937  0.62753059  1
  Co  Co115  1  0.24847267  0.00270153  0.25020222  1
  Co  Co116  1  0.87439538  0.12553782  0.88350399  1
  Co  Co117  1  -0.00303138  0.74326180  0.24802189  1
  Co  Co118  1  0.12216491  0.87729978  0.62744204  1
  Co  Co119  1  0.37662140  0.37361662  0.87531090  1
  Co  Co120  1  0.37481627  0.62864925  0.38124052  1
  Co  Co121  1  0.25157473  0.74395632  0.24807542  1
  Co  Co122  1  0.00292650  0.25185013  0.00428101  1
  Co  Co123  1  0.75368331  0.25477659  0.49823822  1
  Co  Co124  1  0.49913529  0.74959375  0.00022353  1
  Co  Co125  1  0.12452339  0.12537725  0.37731897  1
  Co  Co126  1  0.87530777  0.12429320  0.61877351  1
  Co  Co127  1  0.87677423  0.37612088  0.62597786  1
