# generated using pymatgen
data_Fe45Co19
_symmetry_space_group_name_H-M   'P 1'
_cell_length_a   11.41487809
_cell_length_b   11.41495257
_cell_length_c   11.41575520
_cell_angle_alpha   90.01101593
_cell_angle_beta   90.00867413
_cell_angle_gamma   89.99047806
_symmetry_Int_Tables_number   1
_chemical_formula_structural   Fe45Co19
_chemical_formula_sum   'Fe90 Co38'
_cell_volume   1487.47617013
_cell_formula_units_Z   2
loop_
 _symmetry_equiv_pos_site_id
 _symmetry_equiv_pos_as_xyz
  1  'x, y, z'
loop_
 _atom_site_type_symbol
 _atom_site_label
 _atom_site_symmetry_multiplicity
 _atom_site_fract_x
 _atom_site_fract_y
 _atom_site_fract_z
 _atom_site_occupancy
  Fe  Fe0  1  0.87293529  0.87708859  0.37518385  1
  Fe  Fe1  1  0.00267101  0.00053054  0.25108003  1
  Fe  Fe2  1  -0.00233581  0.00137884  -0.00064589  1
  Fe  Fe3  1  0.24783046  0.25103116  0.25117543  1
  Fe  Fe4  1  0.37564325  0.12457214  0.12691635  1
  Fe  Fe5  1  0.50215663  0.49926995  0.74815523  1
  Fe  Fe6  1  0.12449298  0.37326331  0.87459972  1
  Fe  Fe7  1  0.62715168  0.62668865  0.87530724  1
  Fe  Fe8  1  0.12610962  0.87265018  0.12422098  1
  Fe  Fe9  1  0.25136948  0.75241005  0.74761180  1
  Fe  Fe10  1  -0.00295984  0.75076154  0.00069687  1
  Fe  Fe11  1  0.75033341  0.49893231  0.00004686  1
  Fe  Fe12  1  0.87332891  0.62620890  0.37533571  1
  Fe  Fe13  1  0.88033246  0.37028410  0.37380052  1
  Fe  Fe14  1  0.12612254  0.62789620  0.87489075  1
  Fe  Fe15  1  0.75308655  0.75442010  0.50492133  1
  Fe  Fe16  1  0.00263400  0.50110649  0.50104320  1
  Fe  Fe17  1  0.62651035  0.12541507  0.87450940  1
  Fe  Fe18  1  0.62321603  0.37431098  0.12360844  1
  Fe  Fe19  1  0.12710505  0.12453102  0.62463729  1
  Fe  Fe20  1  -0.00240709  0.24667623  -0.00054549  1
  Fe  Fe21  1  0.87459074  0.62550556  0.12729178  1
  Fe  Fe22  1  0.37863975  0.87910425  0.62410325  1
  Fe  Fe23  1  0.00379515  0.50232346  0.25148486  1
  Fe  Fe24  1  0.62390815  0.12511158  0.12751649  1
  Fe  Fe25  1  0.12470136  0.37585677  0.12492475  1
  Fe  Fe26  1  0.00092043  0.50100313  0.74738274  1
  Fe  Fe27  1  0.74915056  0.25113247  0.74983917  1
  Fe  Fe28  1  0.37263062  0.12237913  0.37393093  1
  Fe  Fe29  1  0.24617008  0.50096576  0.49888036  1
  Fe  Fe30  1  0.37532601  0.62567993  0.12953770  1
  Fe  Fe31  1  0.49840791  0.24775800  0.49834389  1
  Fe  Fe32  1  0.49955491  0.00123204  -0.00105717  1
  Fe  Fe33  1  0.37497770  0.62252096  0.37155172  1
  Fe  Fe34  1  0.50040743  0.25044767  0.75141313  1
  Fe  Fe35  1  0.50010498  0.25140948  0.25112536  1
  Fe  Fe36  1  0.74751286  0.49890476  0.25193576  1
  Fe  Fe37  1  0.87298988  0.12279663  0.62514382  1
  Fe  Fe38  1  0.75047400  0.49814484  0.49836669  1
  Fe  Fe39  1  0.00112738  0.75015565  0.25095949  1
  Fe  Fe40  1  0.37505178  0.62552737  0.87462396  1
  Fe  Fe41  1  0.12727323  0.12363109  0.12451088  1
  Fe  Fe42  1  -0.00007925  0.24753983  0.75035442  1
  Fe  Fe43  1  0.87322122  0.12580647  0.12990401  1
  Fe  Fe44  1  0.49984584  0.74976170  0.00238871  1
  Fe  Fe45  1  0.50130968  -0.00305136  0.25307680  1
  Fe  Fe46  1  0.37412771  0.37608254  0.62326763  1
  Fe  Fe47  1  -0.00244763  0.74880753  0.50159314  1
  Fe  Fe48  1  0.87561499  0.37432574  0.87408501  1
  Fe  Fe49  1  0.75143969  -0.00121904  0.00243530  1
  Fe  Fe50  1  0.12586019  0.87419008  0.87576860  1
  Fe  Fe51  1  0.87228524  0.62644646  0.87279374  1
  Fe  Fe52  1  0.87642423  0.37385175  0.62308068  1
  Fe  Fe53  1  0.50010829  0.50063354  0.00067532  1
  Fe  Fe54  1  0.24880570  0.24874341  0.49915199  1
  Fe  Fe55  1  0.12524772  0.87439607  0.62273657  1
  Fe  Fe56  1  0.87608572  0.37370504  0.12823415  1
  Fe  Fe57  1  0.37554576  0.37649198  0.12661553  1
  Fe  Fe58  1  0.37474532  0.37882644  0.37418100  1
  Fe  Fe59  1  0.24995689  0.24936279  0.75002440  1
  Fe  Fe60  1  0.75094768  0.24557427  0.49614698  1
  Fe  Fe61  1  0.75058115  0.25040949  0.00015061  1
  Fe  Fe62  1  0.37798801  0.12073985  0.62603089  1
  Fe  Fe63  1  0.87379155  0.87634121  0.87231612  1
  Fe  Fe64  1  0.50111733  0.75011442  0.74983034  1
  Fe  Fe65  1  0.74566307  0.75103672  0.24809210  1
  Fe  Fe66  1  0.25113833  -0.00193191  -0.00006260  1
  Fe  Fe67  1  0.62389807  0.37256825  0.62205666  1
  Fe  Fe68  1  0.37537577  0.87329517  0.12765867  1
  Fe  Fe69  1  0.62616636  0.62676102  0.62220035  1
  Fe  Fe70  1  0.37425426  0.62372445  0.62478390  1
  Fe  Fe71  1  0.37671567  0.37494853  0.87597937  1
  Fe  Fe72  1  0.12877679  0.87406262  0.37723377  1
  Fe  Fe73  1  0.49758653  0.74882910  0.49638139  1
  Fe  Fe74  1  0.37521987  0.87579471  0.87404637  1
  Fe  Fe75  1  0.75162665  0.75240919  0.00363832  1
  Fe  Fe76  1  0.74843741  0.49912125  0.74924091  1
  Fe  Fe77  1  -0.00347946  0.74884884  0.74681932  1
  Fe  Fe78  1  0.74782459  -0.00169170  0.25253867  1
  Fe  Fe79  1  0.62563715  0.87309333  0.87613945  1
  Fe  Fe80  1  0.24949506  0.50261923  0.00096584  1
  Fe  Fe81  1  -0.00082778  0.00349775  0.49710611  1
  Fe  Fe82  1  0.62148944  0.37527818  0.37661561  1
  Fe  Fe83  1  0.24858283  0.49985604  0.74950983  1
  Fe  Fe84  1  0.37361051  0.12374915  0.87376417  1
  Fe  Fe85  1  0.37213424  0.87608912  0.37413198  1
  Fe  Fe86  1  0.25151630  0.25009329  0.00023885  1
  Fe  Fe87  1  -0.00038096  0.50184891  0.00021737  1
  Fe  Fe88  1  0.74489846  -0.00383977  0.74449291  1
  Fe  Fe89  1  0.00242194  0.00225562  0.75222747  1
  Co  Co90  1  0.12526663  0.62900674  0.37785075  1
  Co  Co91  1  0.62220710  0.12681653  0.62436211  1
  Co  Co92  1  0.24851766  -0.00104999  0.24919250  1
  Co  Co93  1  0.50451435  0.50038828  0.25027406  1
  Co  Co94  1  0.62738512  0.62686287  0.37850446  1
  Co  Co95  1  0.25255791  0.75011064  0.00102715  1
  Co  Co96  1  0.00452625  0.24730493  0.24770441  1
  Co  Co97  1  0.12204796  0.37204707  0.37653087  1
  Co  Co98  1  0.24905839  0.74869956  0.25036386  1
  Co  Co99  1  0.50240236  0.00146468  0.49588418  1
  Co  Co100  1  0.61836222  0.87347099  0.62054386  1
  Co  Co101  1  0.12793645  0.12515880  0.87691716  1
  Co  Co102  1  0.25425452  0.74988052  0.50071490  1
  Co  Co103  1  0.25026256  0.00068599  0.50143497  1
  Co  Co104  1  0.12429676  0.62783063  0.12373800  1
  Co  Co105  1  0.50318310  0.75087997  0.25222843  1
  Co  Co106  1  0.87345788  0.62153158  0.62388207  1
  Co  Co107  1  0.87549408  0.12597744  0.37082065  1
  Co  Co108  1  0.62398009  0.12484930  0.37256699  1
  Co  Co109  1  0.50037808  0.50150739  0.50121712  1
  Co  Co110  1  -0.00004594  0.24528188  0.50175021  1
  Co  Co111  1  0.74820248  0.00204451  0.50081687  1
  Co  Co112  1  0.12537083  0.37322099  0.62479947  1
  Co  Co113  1  0.24515570  0.50014293  0.25117198  1
  Co  Co114  1  0.12674473  0.12522746  0.37476709  1
  Co  Co115  1  0.87628419  0.87587775  0.12840274  1
  Co  Co116  1  0.12634727  0.62739721  0.62473694  1
  Co  Co117  1  0.75096179  0.75329982  0.74456602  1
  Co  Co118  1  0.62347906  0.37513872  0.87627574  1
  Co  Co119  1  0.50328049  -0.00022068  0.75258799  1
  Co  Co120  1  0.87053965  0.12281014  0.87259457  1
  Co  Co121  1  0.62225865  0.87710543  0.12429227  1
  Co  Co122  1  0.62543409  0.62483795  0.12362286  1
  Co  Co123  1  0.62787288  0.87284863  0.37873294  1
  Co  Co124  1  0.24910124  -0.00204898  0.74909384  1
  Co  Co125  1  0.49999473  0.24772554  -0.00033256  1
  Co  Co126  1  0.87895013  0.88093439  0.62475785  1
  Co  Co127  1  0.74663260  0.25373825  0.25238676  1
