# generated using pymatgen
data_Fe45Co19
_symmetry_space_group_name_H-M   'P 1'
_cell_length_a   11.41618450
_cell_length_b   11.41583867
_cell_length_c   11.41545343
_cell_angle_alpha   90.00959908
_cell_angle_beta   89.99511700
_cell_angle_gamma   89.99368990
_symmetry_Int_Tables_number   1
_chemical_formula_structural   Fe45Co19
_chemical_formula_sum   'Fe90 Co38'
_cell_volume   1487.72259123
_cell_formula_units_Z   2
loop_
 _symmetry_equiv_pos_site_id
 _symmetry_equiv_pos_as_xyz
  1  'x, y, z'
loop_
 _atom_site_type_symbol
 _atom_site_label
 _atom_site_symmetry_multiplicity
 _atom_site_fract_x
 _atom_site_fract_y
 _atom_site_fract_z
 _atom_site_occupancy
  Fe  Fe0  1  0.75147152  0.74908979  0.24695935  1
  Fe  Fe1  1  0.74950425  0.74961462  0.00007730  1
  Fe  Fe2  1  0.87538224  0.37299900  0.12377224  1
  Fe  Fe3  1  0.37484453  0.62406860  0.62693794  1
  Fe  Fe4  1  0.49922871  0.24890784  0.50056812  1
  Fe  Fe5  1  -0.00060099  0.74768565  0.00093086  1
  Fe  Fe6  1  0.74952673  0.25364919  0.75036919  1
  Fe  Fe7  1  0.49792027  0.50242892  0.25202885  1
  Fe  Fe8  1  0.37288744  0.12746970  0.12721080  1
  Fe  Fe9  1  0.25035554  0.00013661  0.00002124  1
  Fe  Fe10  1  0.87448294  0.12945350  0.87766477  1
  Fe  Fe11  1  0.24751661  0.75101001  0.50423141  1
  Fe  Fe12  1  0.75194693  -0.00124565  0.74876436  1
  Fe  Fe13  1  0.25143038  -0.00219192  0.24944894  1
  Fe  Fe14  1  -0.00260721  0.50046110  0.49685296  1
  Fe  Fe15  1  0.49956218  0.50092614  0.75398544  1
  Fe  Fe16  1  0.12549352  0.62525460  0.37409303  1
  Fe  Fe17  1  0.00172392  0.75000861  0.75022885  1
  Fe  Fe18  1  0.37728067  0.87370533  0.12298212  1
  Fe  Fe19  1  0.74868116  0.00412560  0.00268742  1
  Fe  Fe20  1  0.87418708  0.12881134  0.62228007  1
  Fe  Fe21  1  -0.00345597  0.50171586  0.25075696  1
  Fe  Fe22  1  0.75146302  0.00051299  0.24939391  1
  Fe  Fe23  1  0.12827468  0.62275543  0.87464644  1
  Fe  Fe24  1  0.25138522  0.25197395  0.50150509  1
  Fe  Fe25  1  0.12472279  0.37637469  0.37510240  1
  Fe  Fe26  1  0.50130850  0.25045545  0.75224921  1
  Fe  Fe27  1  0.75178768  0.49640768  0.49965817  1
  Fe  Fe28  1  0.12320109  0.87418486  0.37564497  1
  Fe  Fe29  1  -0.00345979  0.74670011  0.24737291  1
  Fe  Fe30  1  0.00135588  0.50064473  -0.00016233  1
  Fe  Fe31  1  0.24639840  0.25571241  0.74707661  1
  Fe  Fe32  1  0.49519195  0.50206446  -0.00498782  1
  Fe  Fe33  1  -0.00055859  0.00348488  0.75150160  1
  Fe  Fe34  1  0.62601194  0.87825410  0.87458860  1
  Fe  Fe35  1  0.62197604  0.37755139  0.62517408  1
  Fe  Fe36  1  0.87584412  0.87355771  0.37627470  1
  Fe  Fe37  1  0.75044298  0.75103997  0.50191675  1
  Fe  Fe38  1  0.49979790  0.74779673  0.25162672  1
  Fe  Fe39  1  0.62931272  0.62171685  0.62901655  1
  Fe  Fe40  1  0.49825962  0.24892913  0.25153034  1
  Fe  Fe41  1  0.12576929  0.12821457  0.87515631  1
  Fe  Fe42  1  0.25410052  0.50064953  0.24680032  1
  Fe  Fe43  1  0.50075840  0.74499123  0.49992801  1
  Fe  Fe44  1  0.25066295  -0.00339131  0.74713576  1
  Fe  Fe45  1  0.62301437  0.87672758  0.62518481  1
  Fe  Fe46  1  0.75077108  0.49779484  0.24954215  1
  Fe  Fe47  1  0.37260620  0.12670938  0.87072119  1
  Fe  Fe48  1  0.87347968  0.62514746  0.62686458  1
  Fe  Fe49  1  0.00153772  0.00412115  0.00278884  1
  Fe  Fe50  1  0.61888245  0.37337800  0.12057025  1
  Fe  Fe51  1  -0.00046004  0.49599921  0.75093156  1
  Fe  Fe52  1  0.25180716  0.49848023  0.50145012  1
  Fe  Fe53  1  0.87546476  0.87581178  0.87719366  1
  Fe  Fe54  1  0.87139977  0.62451876  0.87270753  1
  Fe  Fe55  1  0.74722484  0.25200348  0.24850207  1
  Fe  Fe56  1  0.25096964  0.25387448  0.00121610  1
  Fe  Fe57  1  0.62575023  0.12399201  0.37583206  1
  Fe  Fe58  1  0.87219946  0.12986528  0.37670157  1
  Fe  Fe59  1  0.50202769  0.74874163  0.75226189  1
  Fe  Fe60  1  0.12511084  0.12574277  0.62513568  1
  Fe  Fe61  1  0.12991373  0.12510713  0.37373016  1
  Fe  Fe62  1  0.00302790  0.24884747  0.24864913  1
  Fe  Fe63  1  0.62499720  0.87614152  0.37601479  1
  Fe  Fe64  1  0.62531972  0.12322067  0.62717382  1
  Fe  Fe65  1  0.87881189  0.87511358  0.62378686  1
  Fe  Fe66  1  0.87793106  0.37020617  0.87780640  1
  Fe  Fe67  1  0.49773002  0.00089684  0.25054831  1
  Fe  Fe68  1  0.24987986  0.74708229  0.00159382  1
  Fe  Fe69  1  0.12316954  0.87446317  0.12479820  1
  Fe  Fe70  1  0.12651293  0.37692930  0.12425579  1
  Fe  Fe71  1  0.49968444  0.00497739  -0.00187512  1
  Fe  Fe72  1  0.62898280  0.62335550  0.37543226  1
  Fe  Fe73  1  0.49662074  0.00267370  0.50180401  1
  Fe  Fe74  1  0.12355402  0.62208206  0.62568794  1
  Fe  Fe75  1  0.62408781  0.87663343  0.12513736  1
  Fe  Fe76  1  0.37544939  0.87328762  0.37784682  1
  Fe  Fe77  1  0.37375189  0.87299350  0.87278256  1
  Fe  Fe78  1  0.74900836  0.49705077  -0.00264324  1
  Fe  Fe79  1  0.87927368  0.37083201  0.62125822  1
  Fe  Fe80  1  0.37650350  0.37624330  0.37676403  1
  Fe  Fe81  1  0.24981872  0.49544761  0.75068755  1
  Fe  Fe82  1  0.50113177  0.74755078  -0.00370200  1
  Fe  Fe83  1  0.62414823  0.62295231  0.12261610  1
  Fe  Fe84  1  0.25155156  0.74909731  0.24814566  1
  Fe  Fe85  1  -0.00028767  0.00281470  0.49837132  1
  Fe  Fe86  1  0.62340851  0.37609964  0.37671498  1
  Fe  Fe87  1  -0.00082734  0.00293683  0.24751962  1
  Fe  Fe88  1  0.25289714  -0.00094377  0.50368953  1
  Fe  Fe89  1  0.12511065  0.87494441  0.87446098  1
  Co  Co90  1  0.36993652  0.62661270  0.87222980  1
  Co  Co91  1  0.00171170  0.74758500  0.50106462  1
  Co  Co92  1  0.74462065  0.25250197  0.50126440  1
  Co  Co93  1  0.75006235  0.75471476  0.74976733  1
  Co  Co94  1  0.24652575  0.75174240  0.74614068  1
  Co  Co95  1  0.37470134  0.12805848  0.62900834  1
  Co  Co96  1  0.00176000  0.25049969  0.74987390  1
  Co  Co97  1  0.87214965  0.62576778  0.37580669  1
  Co  Co98  1  0.37500109  0.37295766  0.87397574  1
  Co  Co99  1  0.87251496  0.62180104  0.12192698  1
  Co  Co100  1  0.00485540  0.24822307  0.49677275  1
  Co  Co101  1  0.49916575  0.24342757  -0.00338137  1
  Co  Co102  1  0.74511474  0.24951859  0.00046179  1
  Co  Co103  1  0.87324562  0.12853652  0.12455897  1
  Co  Co104  1  0.37868817  0.87203626  0.62578508  1
  Co  Co105  1  0.75042179  -0.00071791  0.50041493  1
  Co  Co106  1  0.12421054  0.37529932  0.87731588  1
  Co  Co107  1  0.00417477  0.24853586  0.00411883  1
  Co  Co108  1  0.75317649  0.49182915  0.75074069  1
  Co  Co109  1  0.37271533  0.12574832  0.37475851  1
  Co  Co110  1  0.12491228  0.62350258  0.12540932  1
  Co  Co111  1  0.37184055  0.62534548  0.37633230  1
  Co  Co112  1  0.63035664  0.62282380  0.87248313  1
  Co  Co113  1  0.37879845  0.37623436  0.62546411  1
  Co  Co114  1  0.49824928  -0.00088849  0.75156349  1
  Co  Co115  1  0.50037008  0.50345667  0.49894542  1
  Co  Co116  1  0.37766037  0.62599990  0.12440433  1
  Co  Co117  1  0.87543491  0.37029907  0.37511732  1
  Co  Co118  1  0.62349126  0.12582575  0.12833696  1
  Co  Co119  1  0.37916437  0.37336713  0.12438815  1
  Co  Co120  1  0.12021722  0.87872214  0.62533058  1
  Co  Co121  1  0.12138040  0.37612775  0.62207839  1
  Co  Co122  1  0.62207336  0.37444438  0.87717833  1
  Co  Co123  1  0.62812934  0.12431455  0.87088798  1
  Co  Co124  1  0.25034714  0.25415494  0.25113094  1
  Co  Co125  1  0.87549995  0.87638264  0.12338565  1
  Co  Co126  1  0.25300695  0.49926043  0.00142374  1
  Co  Co127  1  0.13059725  0.12533740  0.12587387  1
