# generated using pymatgen
data_Fe45Co19
_symmetry_space_group_name_H-M   'P 1'
_cell_length_a   11.41400660
_cell_length_b   11.41488958
_cell_length_c   11.41556367
_cell_angle_alpha   89.99575581
_cell_angle_beta   89.99400452
_cell_angle_gamma   90.00133864
_symmetry_Int_Tables_number   1
_chemical_formula_structural   Fe45Co19
_chemical_formula_sum   'Fe90 Co38'
_cell_volume   1487.32949803
_cell_formula_units_Z   2
loop_
 _symmetry_equiv_pos_site_id
 _symmetry_equiv_pos_as_xyz
  1  'x, y, z'
loop_
 _atom_site_type_symbol
 _atom_site_label
 _atom_site_symmetry_multiplicity
 _atom_site_fract_x
 _atom_site_fract_y
 _atom_site_fract_z
 _atom_site_occupancy
  Fe  Fe0  1  0.49875464  0.74919726  0.00039666  1
  Fe  Fe1  1  0.74659575  -0.00357735  0.75116710  1
  Fe  Fe2  1  0.75088243  0.50054647  0.00240336  1
  Fe  Fe3  1  0.49686067  0.75151002  0.25048253  1
  Fe  Fe4  1  0.62420518  0.12418407  0.87561202  1
  Fe  Fe5  1  0.49618325  -0.00015820  -0.00039632  1
  Fe  Fe6  1  -0.00035956  0.49992476  -0.00066307  1
  Fe  Fe7  1  0.87306985  0.12580234  0.87416684  1
  Fe  Fe8  1  0.49554632  0.25040789  0.00071146  1
  Fe  Fe9  1  0.62449835  0.37411124  0.87555397  1
  Fe  Fe10  1  0.62115195  0.37789172  0.12627499  1
  Fe  Fe11  1  0.37669856  0.37579665  0.62458787  1
  Fe  Fe12  1  0.37287991  0.12437029  0.87299437  1
  Fe  Fe13  1  0.62310170  0.87511962  0.12339806  1
  Fe  Fe14  1  0.37461923  0.37760941  0.87452987  1
  Fe  Fe15  1  0.87337351  0.87189946  0.87581615  1
  Fe  Fe16  1  0.12587513  0.62515385  0.37485376  1
  Fe  Fe17  1  0.25133569  -0.00182272  0.24616522  1
  Fe  Fe18  1  0.87655224  0.62662981  0.62730274  1
  Fe  Fe19  1  0.87831590  0.87621886  0.37235866  1
  Fe  Fe20  1  0.12951991  0.12854322  0.12421880  1
  Fe  Fe21  1  0.12845512  0.12911861  0.87553994  1
  Fe  Fe22  1  0.00195378  0.00374502  0.49850198  1
  Fe  Fe23  1  0.87490771  0.37371842  0.87583046  1
  Fe  Fe24  1  0.25002893  0.50025969  -0.00076447  1
  Fe  Fe25  1  -0.00042704  0.74779948  0.00021239  1
  Fe  Fe26  1  0.49728439  0.25263014  0.25050323  1
  Fe  Fe27  1  0.24917020  0.50298346  0.50336429  1
  Fe  Fe28  1  0.87314899  0.37141553  0.37365769  1
  Fe  Fe29  1  0.00052896  0.49974423  0.75107945  1
  Fe  Fe30  1  0.12482088  0.37240010  0.12210693  1
  Fe  Fe31  1  0.50086778  0.50025782  0.49873221  1
  Fe  Fe32  1  0.49607270  0.75301802  0.50057038  1
  Fe  Fe33  1  0.49685120  -0.00266496  0.24941493  1
  Fe  Fe34  1  0.75132429  0.75017918  0.24815801  1
  Fe  Fe35  1  0.00127898  0.24685561  0.25171249  1
  Fe  Fe36  1  0.00229104  0.24627364  0.49898325  1
  Fe  Fe37  1  0.62318748  0.62381161  0.12560354  1
  Fe  Fe38  1  0.12459242  0.37469975  0.62620058  1
  Fe  Fe39  1  0.49811845  0.00031847  0.49923305  1
  Fe  Fe40  1  0.87529764  0.37277495  0.62620958  1
  Fe  Fe41  1  0.74989902  -0.00146928  0.00007132  1
  Fe  Fe42  1  0.12725146  0.87389392  0.12048895  1
  Fe  Fe43  1  0.00249919  0.74884413  0.49905893  1
  Fe  Fe44  1  0.75041267  0.00033489  0.25038970  1
  Fe  Fe45  1  0.87484701  0.12590316  0.12546339  1
  Fe  Fe46  1  0.62285171  0.62675320  0.62561151  1
  Fe  Fe47  1  0.12644319  0.37355760  0.37575249  1
  Fe  Fe48  1  0.62489274  0.62623139  0.37488014  1
  Fe  Fe49  1  0.12586041  0.87594653  0.37471664  1
  Fe  Fe50  1  0.24988248  0.50104967  0.74746082  1
  Fe  Fe51  1  0.87734062  0.87478925  0.12547624  1
  Fe  Fe52  1  0.62599881  0.62780085  0.87380518  1
  Fe  Fe53  1  0.87681892  0.62587263  0.37247312  1
  Fe  Fe54  1  0.62424981  0.12614892  0.37353212  1
  Fe  Fe55  1  0.62314389  0.12276668  0.62722029  1
  Fe  Fe56  1  0.24936304  0.24756018  0.50178784  1
  Fe  Fe57  1  0.37703176  0.62138832  0.12585137  1
  Fe  Fe58  1  0.62238623  0.12383931  0.12453331  1
  Fe  Fe59  1  0.37262595  0.12455192  0.37301865  1
  Fe  Fe60  1  0.37590500  0.62541055  0.87087635  1
  Fe  Fe61  1  0.74912199  0.24776019  0.49988716  1
  Fe  Fe62  1  0.12444515  0.62475707  0.12604904  1
  Fe  Fe63  1  0.87576453  0.12467856  0.62787480  1
  Fe  Fe64  1  0.37322173  0.62560259  0.37642083  1
  Fe  Fe65  1  0.24812611  0.00036462  0.50138660  1
  Fe  Fe66  1  0.75116272  0.75101516  0.50133252  1
  Fe  Fe67  1  0.37018969  0.87385671  0.87820391  1
  Fe  Fe68  1  0.00207896  0.25019854  0.75201909  1
  Fe  Fe69  1  0.00251466  0.00180535  -0.00121689  1
  Fe  Fe70  1  -0.00004581  0.49976588  0.49991976  1
  Fe  Fe71  1  0.37487312  0.37524174  0.37785362  1
  Fe  Fe72  1  0.49995827  0.75604622  0.74821796  1
  Fe  Fe73  1  0.12623640  0.62746976  0.87189589  1
  Fe  Fe74  1  0.24614670  -0.00437003  0.75112860  1
  Fe  Fe75  1  -0.00054524  0.49900601  0.24976578  1
  Fe  Fe76  1  0.87712604  0.87484666  0.62592223  1
  Fe  Fe77  1  0.74799604  0.49920637  0.74910897  1
  Fe  Fe78  1  0.49921362  0.24975630  0.74951846  1
  Fe  Fe79  1  0.25090198  0.75107841  0.24902206  1
  Fe  Fe80  1  0.75035243  0.50010068  0.49981010  1
  Fe  Fe81  1  0.62444399  0.87478614  0.37578484  1
  Fe  Fe82  1  0.87185691  0.62779116  0.87398853  1
  Fe  Fe83  1  0.62364861  0.37341432  0.62377409  1
  Fe  Fe84  1  0.75111888  0.49914907  0.24944311  1
  Fe  Fe85  1  0.00404596  -0.00337558  0.75307173  1
  Fe  Fe86  1  0.75135470  0.00059301  0.49890916  1
  Fe  Fe87  1  0.37396285  0.12244476  0.62853913  1
  Fe  Fe88  1  0.25090274  0.49721589  0.24967688  1
  Fe  Fe89  1  0.75039176  0.25093674  0.00210804  1
  Co  Co90  1  0.25199918  0.74328889  0.00157818  1
  Co  Co91  1  0.37708972  0.38020233  0.12306834  1
  Co  Co92  1  0.12635602  0.37461408  0.87551313  1
  Co  Co93  1  0.74725912  0.75315203  0.74678829  1
  Co  Co94  1  0.37231580  0.87602804  0.37641629  1
  Co  Co95  1  0.25347649  0.25410192  0.24949352  1
  Co  Co96  1  0.00202856  0.75244173  0.75201134  1
  Co  Co97  1  0.12902423  0.87071432  0.88075206  1
  Co  Co98  1  0.74975145  0.74966693  0.00356555  1
  Co  Co99  1  -0.00003701  0.24768654  -0.00285695  1
  Co  Co100  1  0.37323156  0.87827472  0.62486699  1
  Co  Co101  1  0.50026177  -0.00338954  0.75281690  1
  Co  Co102  1  0.12333892  0.87413217  0.62249259  1
  Co  Co103  1  0.49847821  0.24735014  0.50084433  1
  Co  Co104  1  0.24968540  0.74880100  0.50227937  1
  Co  Co105  1  0.24971404  0.75118451  0.74553134  1
  Co  Co106  1  0.37380438  0.87387154  0.12102409  1
  Co  Co107  1  0.87681698  0.62528919  0.12577070  1
  Co  Co108  1  0.13004899  0.12393409  0.37251474  1
  Co  Co109  1  0.50058520  0.50221067  -0.00382067  1
  Co  Co110  1  0.49888972  0.50003657  0.25565342  1
  Co  Co111  1  0.25022535  0.00398227  0.00064277  1
  Co  Co112  1  0.12271988  0.62541806  0.62606468  1
  Co  Co113  1  0.87402761  0.12539446  0.37314775  1
  Co  Co114  1  0.25480357  0.25221638  0.00010556  1
  Co  Co115  1  0.62585796  0.37399389  0.37555314  1
  Co  Co116  1  0.74777557  0.24987065  0.75016515  1
  Co  Co117  1  0.62494187  0.87435989  0.87940460  1
  Co  Co118  1  0.37466986  0.12532952  0.12697557  1
  Co  Co119  1  0.87817645  0.37274235  0.12523322  1
  Co  Co120  1  0.12502818  0.12517330  0.62848920  1
  Co  Co121  1  0.25116188  0.25249495  0.74905097  1
  Co  Co122  1  0.00315904  0.75095423  0.24914640  1
  Co  Co123  1  0.50235953  0.49817920  0.74948058  1
  Co  Co124  1  0.00274075  0.00257691  0.24724153  1
  Co  Co125  1  0.74737388  0.24958910  0.24717553  1
  Co  Co126  1  0.37779989  0.62530890  0.62621429  1
  Co  Co127  1  0.62337615  0.87781052  0.62093620  1
