# generated using pymatgen
data_Fe45Co19
_symmetry_space_group_name_H-M   'P 1'
_cell_length_a   11.41653383
_cell_length_b   11.41495609
_cell_length_c   11.41521962
_cell_angle_alpha   90.00033953
_cell_angle_beta   89.99688138
_cell_angle_gamma   90.00849937
_symmetry_Int_Tables_number   1
_chemical_formula_structural   Fe45Co19
_chemical_formula_sum   'Fe90 Co38'
_cell_volume   1487.62263848
_cell_formula_units_Z   2
loop_
 _symmetry_equiv_pos_site_id
 _symmetry_equiv_pos_as_xyz
  1  'x, y, z'
loop_
 _atom_site_type_symbol
 _atom_site_label
 _atom_site_symmetry_multiplicity
 _atom_site_fract_x
 _atom_site_fract_y
 _atom_site_fract_z
 _atom_site_occupancy
  Fe  Fe0  1  0.62681385  0.37549320  0.62564905  1
  Fe  Fe1  1  0.75031096  -0.00123047  0.00042670  1
  Fe  Fe2  1  0.37757454  0.87686252  0.62588587  1
  Fe  Fe3  1  0.62339677  0.12620455  0.37201907  1
  Fe  Fe4  1  0.75055445  0.25029716  0.75273830  1
  Fe  Fe5  1  0.00085363  0.25014490  -0.00026532  1
  Fe  Fe6  1  0.12656540  0.37739956  0.12690815  1
  Fe  Fe7  1  0.37715781  0.12461171  0.37392869  1
  Fe  Fe8  1  0.87370081  0.62467704  0.87722554  1
  Fe  Fe9  1  0.74804415  0.50159652  0.00887173  1
  Fe  Fe10  1  -0.00273973  0.24933212  0.24836231  1
  Fe  Fe11  1  0.12584384  0.87602236  0.12852439  1
  Fe  Fe12  1  0.12614601  0.12512654  0.12625006  1
  Fe  Fe13  1  0.37482564  0.62386160  0.87677594  1
  Fe  Fe14  1  0.87685261  0.87635323  0.37303647  1
  Fe  Fe15  1  0.12379731  0.12443692  0.37298431  1
  Fe  Fe16  1  0.74781674  0.74855670  0.00057964  1
  Fe  Fe17  1  0.50255885  0.74709375  0.75056749  1
  Fe  Fe18  1  0.87303502  0.12657940  0.12354046  1
  Fe  Fe19  1  0.74959106  -0.00042469  0.24785977  1
  Fe  Fe20  1  0.62565239  0.62446228  0.37354532  1
  Fe  Fe21  1  0.25155286  0.74899732  0.25153530  1
  Fe  Fe22  1  0.62048324  0.87021846  0.12652893  1
  Fe  Fe23  1  0.12615933  0.87537276  0.62478352  1
  Fe  Fe24  1  0.37531019  0.37639438  0.87554464  1
  Fe  Fe25  1  0.62528713  0.87594692  0.87398692  1
  Fe  Fe26  1  0.12575188  0.37363301  0.62383221  1
  Fe  Fe27  1  0.24970917  -0.00031344  0.00147782  1
  Fe  Fe28  1  0.50106637  0.50014799  0.24749712  1
  Fe  Fe29  1  0.87795021  0.12431047  0.87366430  1
  Fe  Fe30  1  0.87423806  0.37784365  0.87766391  1
  Fe  Fe31  1  0.24857890  0.24924859  0.75148439  1
  Fe  Fe32  1  0.87696314  0.12449905  0.62770041  1
  Fe  Fe33  1  0.37638849  0.87986779  0.37180315  1
  Fe  Fe34  1  0.87555970  0.87267298  0.12491895  1
  Fe  Fe35  1  0.50002831  0.25098934  0.75081269  1
  Fe  Fe36  1  0.50159393  0.50165431  0.74876872  1
  Fe  Fe37  1  0.37354789  0.12464899  0.12617583  1
  Fe  Fe38  1  0.37565126  0.12411487  0.62514005  1
  Fe  Fe39  1  0.00236009  0.74764442  0.24977029  1
  Fe  Fe40  1  0.50095737  0.75069353  0.49970498  1
  Fe  Fe41  1  -0.00024838  0.75001964  0.75120650  1
  Fe  Fe42  1  0.00268396  0.74844387  0.00060823  1
  Fe  Fe43  1  0.62498752  0.37351606  0.37050286  1
  Fe  Fe44  1  0.74898441  0.75071317  0.49988555  1
  Fe  Fe45  1  0.87325242  0.62425415  0.62388908  1
  Fe  Fe46  1  0.87810742  0.37870410  0.37183313  1
  Fe  Fe47  1  0.12645464  0.87536170  0.87435445  1
  Fe  Fe48  1  0.24953374  0.25143789  -0.00087853  1
  Fe  Fe49  1  0.87379967  0.37439170  0.62468499  1
  Fe  Fe50  1  0.00129203  0.50337597  0.00494440  1
  Fe  Fe51  1  0.62661549  0.37754568  0.87655447  1
  Fe  Fe52  1  0.25032297  0.74861600  0.74970916  1
  Fe  Fe53  1  0.50269397  0.50197345  0.00334469  1
  Fe  Fe54  1  0.62411632  0.12425497  0.87589713  1
  Fe  Fe55  1  0.62345286  0.87608367  0.37374836  1
  Fe  Fe56  1  0.75036496  0.74853139  0.25097713  1
  Fe  Fe57  1  0.75018127  0.24979852  0.49789781  1
  Fe  Fe58  1  0.37509289  0.62186519  0.37544881  1
  Fe  Fe59  1  0.74739070  0.74842077  0.74934124  1
  Fe  Fe60  1  0.37322485  0.37440804  0.62317632  1
  Fe  Fe61  1  0.50194764  0.49911840  0.50077057  1
  Fe  Fe62  1  0.12598441  0.62536585  0.62285994  1
  Fe  Fe63  1  0.00078904  -0.00222940  0.49921403  1
  Fe  Fe64  1  0.75039036  0.49938314  0.49891695  1
  Fe  Fe65  1  0.25194815  0.25384638  0.25345922  1
  Fe  Fe66  1  0.62713782  0.13101597  0.12572455  1
  Fe  Fe67  1  0.49910625  0.25182538  0.00125874  1
  Fe  Fe68  1  0.87690024  0.62200080  0.37316473  1
  Fe  Fe69  1  0.37409351  0.87569968  0.87545025  1
  Fe  Fe70  1  0.37457477  0.62370006  0.62236032  1
  Fe  Fe71  1  0.12468774  0.37668703  0.87622166  1
  Fe  Fe72  1  0.49944819  -0.00132581  0.00300926  1
  Fe  Fe73  1  0.12311941  0.12444652  0.62825804  1
  Fe  Fe74  1  0.25030062  0.75179692  0.49638872  1
  Fe  Fe75  1  0.24657849  0.49637211  0.49521534  1
  Fe  Fe76  1  0.37383536  0.12478977  0.87570774  1
  Fe  Fe77  1  -0.00004270  0.25063548  0.50058604  1
  Fe  Fe78  1  0.62388625  0.12191480  0.62626406  1
  Fe  Fe79  1  0.87537664  0.12271608  0.37461307  1
  Fe  Fe80  1  -0.00049614  0.50053173  0.74890271  1
  Fe  Fe81  1  0.00025102  0.74999945  0.49863707  1
  Fe  Fe82  1  0.24905461  0.00057069  0.49864541  1
  Fe  Fe83  1  0.37280890  0.37899808  0.12479746  1
  Fe  Fe84  1  -0.00005771  -0.00140626  -0.00034229  1
  Fe  Fe85  1  0.74864666  -0.00058725  0.50066365  1
  Fe  Fe86  1  0.24917880  0.50083505  0.75125294  1
  Fe  Fe87  1  0.87328041  0.87589329  0.62647588  1
  Fe  Fe88  1  0.49978711  0.25036579  0.50015893  1
  Fe  Fe89  1  0.25103639  0.74820345  0.00149201  1
  Co  Co90  1  0.12408324  0.12384582  0.87474932  1
  Co  Co91  1  0.12422417  0.62538110  0.87428767  1
  Co  Co92  1  0.62345131  0.87642869  0.62568123  1
  Co  Co93  1  0.49561302  0.25066491  0.24754717  1
  Co  Co94  1  0.37422441  0.62400184  0.12454517  1
  Co  Co95  1  0.37854797  0.37519242  0.37679275  1
  Co  Co96  1  0.50016274  -0.00053961  0.49816251  1
  Co  Co97  1  0.75097618  0.50034014  0.74869361  1
  Co  Co98  1  0.87280380  0.87193300  0.87640513  1
  Co  Co99  1  0.62707847  0.36884556  0.12681506  1
  Co  Co100  1  0.74960605  0.50110530  0.24486920  1
  Co  Co101  1  0.12338865  0.87601614  0.37243295  1
  Co  Co102  1  0.62752994  0.62170376  0.87665637  1
  Co  Co103  1  0.75128585  0.25023406  -0.00442412  1
  Co  Co104  1  0.75131186  0.00069026  0.75078895  1
  Co  Co105  1  -0.00028332  0.50306918  0.24438286  1
  Co  Co106  1  0.12286430  0.62446607  0.37609838  1
  Co  Co107  1  -0.00199731  0.00095426  0.24743711  1
  Co  Co108  1  0.13131513  0.62349287  0.12642802  1
  Co  Co109  1  0.75466049  0.25070384  0.25293721  1
  Co  Co110  1  0.00018533  0.25398972  0.75127612  1
  Co  Co111  1  0.37621933  0.87261210  0.12568540  1
  Co  Co112  1  0.62573484  0.62447520  0.62213249  1
  Co  Co113  1  0.49895332  0.74892266  -0.00398571  1
  Co  Co114  1  0.50208193  0.00140555  0.24575223  1
  Co  Co115  1  0.49536550  0.74856400  0.25398870  1
  Co  Co116  1  0.25047503  0.00003328  0.24973478  1
  Co  Co117  1  0.87477558  0.62988222  0.12519738  1
  Co  Co118  1  0.24916612  0.24876848  0.49740389  1
  Co  Co119  1  0.62100425  0.63154002  0.12781457  1
  Co  Co120  1  0.87476528  0.37231972  0.12441863  1
  Co  Co121  1  0.25026046  0.00044606  0.74997181  1
  Co  Co122  1  0.24970833  0.49869076  0.25535140  1
  Co  Co123  1  0.24920557  0.50137758  -0.00254497  1
  Co  Co124  1  0.00054239  0.50012159  0.50277022  1
  Co  Co125  1  0.11898330  0.37454849  0.37308187  1
  Co  Co126  1  0.49852610  -0.00034126  0.75291375  1
  Co  Co127  1  -0.00014517  -0.00480718  0.75229001  1
