# generated using pymatgen
data_Fe45Co19
_symmetry_space_group_name_H-M   'P 1'
_cell_length_a   11.41548049
_cell_length_b   11.41608355
_cell_length_c   11.41671664
_cell_angle_alpha   89.99825506
_cell_angle_beta   90.00398348
_cell_angle_gamma   90.00268317
_symmetry_Int_Tables_number   1
_chemical_formula_structural   Fe45Co19
_chemical_formula_sum   'Fe90 Co38'
_cell_volume   1487.82740934
_cell_formula_units_Z   2
loop_
 _symmetry_equiv_pos_site_id
 _symmetry_equiv_pos_as_xyz
  1  'x, y, z'
loop_
 _atom_site_type_symbol
 _atom_site_label
 _atom_site_symmetry_multiplicity
 _atom_site_fract_x
 _atom_site_fract_y
 _atom_site_fract_z
 _atom_site_occupancy
  Fe  Fe0  1  0.12441282  0.12574260  0.87503956  1
  Fe  Fe1  1  0.74950038  0.74883217  0.74935437  1
  Fe  Fe2  1  -0.00093684  0.50222527  0.24896293  1
  Fe  Fe3  1  0.24865696  -0.00387816  0.75105500  1
  Fe  Fe4  1  -0.00004524  -0.00016434  0.00152174  1
  Fe  Fe5  1  -0.00470827  -0.00097575  0.49691308  1
  Fe  Fe6  1  0.25239842  0.50226097  0.00079310  1
  Fe  Fe7  1  0.62708048  0.12388883  0.62260132  1
  Fe  Fe8  1  0.87612105  0.62784355  0.37444681  1
  Fe  Fe9  1  0.37534973  0.62560817  0.37566871  1
  Fe  Fe10  1  0.49796932  -0.00104622  -0.00127885  1
  Fe  Fe11  1  0.62420410  0.37525214  0.87510408  1
  Fe  Fe12  1  0.74844722  0.75024815  0.25073997  1
  Fe  Fe13  1  0.12569180  0.62645330  0.87687326  1
  Fe  Fe14  1  0.75060532  0.50116201  0.00000618  1
  Fe  Fe15  1  0.75567598  -0.00183964  0.49744774  1
  Fe  Fe16  1  0.49955826  -0.00085717  0.25302073  1
  Fe  Fe17  1  0.87612890  0.37612675  0.62496930  1
  Fe  Fe18  1  0.62557152  0.37726925  0.62330879  1
  Fe  Fe19  1  0.75024615  -0.00083907  0.75009853  1
  Fe  Fe20  1  0.49630867  0.75114051  0.50246189  1
  Fe  Fe21  1  0.87664224  0.87319906  0.87403795  1
  Fe  Fe22  1  0.87364741  0.37618167  0.12600121  1
  Fe  Fe23  1  0.12493022  0.62736804  0.37502884  1
  Fe  Fe24  1  0.62358094  0.37800176  0.37602318  1
  Fe  Fe25  1  0.74751957  0.25230911  0.25096603  1
  Fe  Fe26  1  0.75157622  0.50254218  0.75019485  1
  Fe  Fe27  1  0.75134452  -0.00316666  0.25315011  1
  Fe  Fe28  1  -0.00192736  0.24753344  0.50075052  1
  Fe  Fe29  1  0.12618054  0.37619411  0.12390005  1
  Fe  Fe30  1  0.49863900  0.50288814  0.74850099  1
  Fe  Fe31  1  0.37509908  0.37269858  0.37555094  1
  Fe  Fe32  1  0.49884025  0.50041788  0.00121879  1
  Fe  Fe33  1  0.62528060  0.12481109  0.87519888  1
  Fe  Fe34  1  0.12375631  0.12667150  0.37247231  1
  Fe  Fe35  1  0.37432981  0.37364772  0.87422983  1
  Fe  Fe36  1  0.37267368  0.12502866  0.12856364  1
  Fe  Fe37  1  0.25145716  0.50070073  0.49909210  1
  Fe  Fe38  1  0.24797171  0.24998626  0.74855451  1
  Fe  Fe39  1  0.62389516  0.87681758  0.12616740  1
  Fe  Fe40  1  0.25031454  -0.00280997  0.49690645  1
  Fe  Fe41  1  -0.00067327  0.74678648  0.00499077  1
  Fe  Fe42  1  0.12234019  0.87118835  0.37410187  1
  Fe  Fe43  1  0.62547017  0.62256571  0.62166666  1
  Fe  Fe44  1  0.62578440  0.12401329  0.12568605  1
  Fe  Fe45  1  0.87787853  0.37741461  0.87304155  1
  Fe  Fe46  1  0.12267138  0.12347520  0.62525533  1
  Fe  Fe47  1  0.12585952  0.87486896  0.12640230  1
  Fe  Fe48  1  0.37387109  0.37528166  0.62397743  1
  Fe  Fe49  1  0.62194598  0.87549011  0.87331854  1
  Fe  Fe50  1  0.00036839  0.24955522  0.00050387  1
  Fe  Fe51  1  -0.00156254  0.50417927  0.00169870  1
  Fe  Fe52  1  0.49971008  0.75065768  0.24988110  1
  Fe  Fe53  1  0.37377493  0.12481346  0.87369657  1
  Fe  Fe54  1  0.50095018  0.25032061  0.49973525  1
  Fe  Fe55  1  0.49771870  -0.00270771  0.49882300  1
  Fe  Fe56  1  0.37235510  0.12680413  0.37384393  1
  Fe  Fe57  1  0.62362408  0.62332854  0.37653527  1
  Fe  Fe58  1  0.87835226  0.12366192  0.87138919  1
  Fe  Fe59  1  0.37345182  0.12318792  0.62389084  1
  Fe  Fe60  1  0.50077563  0.24917938  0.00160018  1
  Fe  Fe61  1  0.75093799  0.24985331  -0.00042638  1
  Fe  Fe62  1  0.12422034  0.37552833  0.62368367  1
  Fe  Fe63  1  0.12694856  0.62626353  0.62214135  1
  Fe  Fe64  1  0.12596892  0.12566978  0.12717371  1
  Fe  Fe65  1  0.25155055  0.49970918  0.25038421  1
  Fe  Fe66  1  0.50054954  0.24848317  0.74844194  1
  Fe  Fe67  1  -0.00005693  0.74832370  0.74716921  1
  Fe  Fe68  1  0.74979470  0.75039838  0.00051127  1
  Fe  Fe69  1  0.25077284  0.75022712  0.24810869  1
  Fe  Fe70  1  0.49822057  0.75184576  0.00174670  1
  Fe  Fe71  1  0.37365435  0.63005999  0.87344767  1
  Fe  Fe72  1  0.12419484  0.87406303  0.62166035  1
  Fe  Fe73  1  0.12456315  0.37435536  0.37669104  1
  Fe  Fe74  1  0.62397098  0.87666267  0.62431847  1
  Fe  Fe75  1  0.37588987  0.37317495  0.12662316  1
  Fe  Fe76  1  0.75168695  -0.00065985  -0.00037209  1
  Fe  Fe77  1  0.75276005  0.75170359  0.50010245  1
  Fe  Fe78  1  0.87611960  0.12507222  0.12928453  1
  Fe  Fe79  1  0.12456871  0.37569925  0.87599697  1
  Fe  Fe80  1  0.87569490  0.37378991  0.37558994  1
  Fe  Fe81  1  -0.00123352  0.50337262  0.50025147  1
  Fe  Fe82  1  0.62714037  0.12408613  0.37657109  1
  Fe  Fe83  1  0.12472928  0.87162347  0.87711331  1
  Fe  Fe84  1  0.24881009  0.50156507  0.74952931  1
  Fe  Fe85  1  0.62493743  0.62195287  0.12650352  1
  Fe  Fe86  1  0.87563900  0.87435558  0.12788148  1
  Fe  Fe87  1  0.75112898  0.24987510  0.74878108  1
  Fe  Fe88  1  0.62435273  0.62551550  0.87582130  1
  Fe  Fe89  1  0.25183379  -0.00314180  -0.00043073  1
  Co  Co90  1  0.87613632  0.62640926  0.87492698  1
  Co  Co91  1  0.37570185  0.62556825  0.12563254  1
  Co  Co92  1  0.37546321  0.87727834  0.12753005  1
  Co  Co93  1  0.87607757  0.12367312  0.62689561  1
  Co  Co94  1  0.37420905  0.87374093  0.37344992  1
  Co  Co95  1  0.24741383  0.25228753  0.25055101  1
  Co  Co96  1  0.00216533  0.25127218  0.74971087  1
  Co  Co97  1  0.62508024  0.37704225  0.12405043  1
  Co  Co98  1  0.00178559  0.25315119  0.24919040  1
  Co  Co99  1  0.12875536  0.62296368  0.12567204  1
  Co  Co100  1  0.75066596  0.25112803  0.49984737  1
  Co  Co101  1  0.75237195  0.50036213  0.49779644  1
  Co  Co102  1  0.00158416  0.74710521  0.24571384  1
  Co  Co103  1  0.62398084  0.87424938  0.37707258  1
  Co  Co104  1  0.87560134  0.87538203  0.62686863  1
  Co  Co105  1  0.37199391  0.62505797  0.62494921  1
  Co  Co106  1  0.50248870  0.24945186  0.25109758  1
  Co  Co107  1  0.87876431  0.87028667  0.37210037  1
  Co  Co108  1  -0.00175504  0.74939883  0.50235990  1
  Co  Co109  1  0.37695411  0.87205770  0.87124033  1
  Co  Co110  1  0.00188884  0.50354060  0.74809791  1
  Co  Co111  1  0.87367521  0.62459098  0.62422829  1
  Co  Co112  1  0.00060370  -0.00076426  0.25155166  1
  Co  Co113  1  0.24771799  -0.00149283  0.25252968  1
  Co  Co114  1  0.25018352  0.24956116  0.00082288  1
  Co  Co115  1  0.37490990  0.87583033  0.62774224  1
  Co  Co116  1  0.50055821  0.00194460  0.74952268  1
  Co  Co117  1  0.87115409  0.62488257  0.12664707  1
  Co  Co118  1  0.75027632  0.50002309  0.25301051  1
  Co  Co119  1  0.50239694  0.74761417  0.74602441  1
  Co  Co120  1  0.24833583  0.24916664  0.50049515  1
  Co  Co121  1  0.49720242  0.50000295  0.50016818  1
  Co  Co122  1  0.25192766  0.75165940  0.00311277  1
  Co  Co123  1  0.87452507  0.12745027  0.37162822  1
  Co  Co124  1  0.49880574  0.49977530  0.25026431  1
  Co  Co125  1  0.24706641  0.75155301  0.74762865  1
  Co  Co126  1  0.00279708  -0.00376193  0.75051472  1
  Co  Co127  1  0.25253295  0.75159042  0.49940071  1
