# generated using pymatgen
data_Fe45Co19
_symmetry_space_group_name_H-M   'P 1'
_cell_length_a   11.41494609
_cell_length_b   11.41594801
_cell_length_c   11.41453345
_cell_angle_alpha   90.00427268
_cell_angle_beta   90.00986469
_cell_angle_gamma   90.00844398
_symmetry_Int_Tables_number   1
_chemical_formula_structural   Fe45Co19
_chemical_formula_sum   'Fe90 Co38'
_cell_volume   1487.45556085
_cell_formula_units_Z   2
loop_
 _symmetry_equiv_pos_site_id
 _symmetry_equiv_pos_as_xyz
  1  'x, y, z'
loop_
 _atom_site_type_symbol
 _atom_site_label
 _atom_site_symmetry_multiplicity
 _atom_site_fract_x
 _atom_site_fract_y
 _atom_site_fract_z
 _atom_site_occupancy
  Fe  Fe0  1  0.62305193  0.12676425  0.12389412  1
  Fe  Fe1  1  0.37244814  0.62188780  0.37454479  1
  Fe  Fe2  1  0.50110650  0.00087512  -0.00338494  1
  Fe  Fe3  1  0.87668840  0.38043123  0.87712070  1
  Fe  Fe4  1  0.87712109  0.87337408  0.12449866  1
  Fe  Fe5  1  0.87510490  0.87455994  0.37683548  1
  Fe  Fe6  1  0.00031563  0.74707468  0.49976884  1
  Fe  Fe7  1  0.37723815  0.12816251  0.62484914  1
  Fe  Fe8  1  0.87370244  0.12375464  0.37559185  1
  Fe  Fe9  1  0.37395864  0.12569056  0.37751379  1
  Fe  Fe10  1  0.00114796  0.49975851  0.24835811  1
  Fe  Fe11  1  0.74939809  0.50032814  0.00183294  1
  Fe  Fe12  1  0.74909716  0.74879046  0.50193808  1
  Fe  Fe13  1  0.75045186  0.74963302  0.24903966  1
  Fe  Fe14  1  0.49543920  0.49864908  -0.00022457  1
  Fe  Fe15  1  0.25074394  0.49947870  0.74396638  1
  Fe  Fe16  1  0.49883927  0.49903241  0.75016882  1
  Fe  Fe17  1  0.74942059  -0.00175114  0.24988732  1
  Fe  Fe18  1  0.24826095  0.00024812  0.74973032  1
  Fe  Fe19  1  0.75050070  0.74983916  -0.00132834  1
  Fe  Fe20  1  0.00300878  -0.00127963  -0.00220211  1
  Fe  Fe21  1  0.12578051  0.37439644  0.12471003  1
  Fe  Fe22  1  0.49918874  -0.00018420  0.25126247  1
  Fe  Fe23  1  0.87445162  0.12461925  0.62365749  1
  Fe  Fe24  1  0.00269759  0.25159110  0.49726798  1
  Fe  Fe25  1  0.25085596  -0.00058588  0.25006734  1
  Fe  Fe26  1  0.24747646  0.25419727  0.50123757  1
  Fe  Fe27  1  0.25273071  0.24930866  -0.00278171  1
  Fe  Fe28  1  0.50162820  0.25105026  0.25414775  1
  Fe  Fe29  1  0.74807004  0.25173507  0.25126632  1
  Fe  Fe30  1  0.62228078  0.37348225  0.12337858  1
  Fe  Fe31  1  0.87515114  0.37746900  0.37508751  1
  Fe  Fe32  1  0.37296379  0.37705460  0.37650124  1
  Fe  Fe33  1  0.74918911  -0.00373878  0.74862095  1
  Fe  Fe34  1  0.49984893  -0.00096729  0.75015583  1
  Fe  Fe35  1  0.49778332  0.49831126  0.24799063  1
  Fe  Fe36  1  0.25004555  0.25063348  0.75033988  1
  Fe  Fe37  1  0.74990308  0.50028068  0.24703544  1
  Fe  Fe38  1  0.62205328  0.37423284  0.62459886  1
  Fe  Fe39  1  0.62303699  0.12639386  0.62465556  1
  Fe  Fe40  1  0.00126719  0.74844854  -0.00231004  1
  Fe  Fe41  1  0.87464421  0.12554653  0.12467692  1
  Fe  Fe42  1  0.62157492  0.87313379  0.62185750  1
  Fe  Fe43  1  0.12499200  0.87124411  0.62705720  1
  Fe  Fe44  1  0.00083894  0.50312299  0.74834802  1
  Fe  Fe45  1  0.12400139  0.12704200  0.62533374  1
  Fe  Fe46  1  0.74939333  0.25203115  -0.00207673  1
  Fe  Fe47  1  0.00067284  0.00012497  0.50095830  1
  Fe  Fe48  1  0.37593370  0.87607752  0.37899553  1
  Fe  Fe49  1  0.12930478  0.62137385  0.37470251  1
  Fe  Fe50  1  0.74611426  0.25015443  0.49779941  1
  Fe  Fe51  1  0.12567618  0.12567608  0.12524919  1
  Fe  Fe52  1  0.87490405  0.62360410  0.37640503  1
  Fe  Fe53  1  -0.00055474  0.25128830  -0.00135642  1
  Fe  Fe54  1  0.49958554  0.50019031  0.50182785  1
  Fe  Fe55  1  0.25264177  0.50243876  0.00356447  1
  Fe  Fe56  1  -0.00262401  0.74797531  0.75104428  1
  Fe  Fe57  1  0.13044776  0.62728813  0.87328128  1
  Fe  Fe58  1  0.49605966  0.75142525  0.25082332  1
  Fe  Fe59  1  0.00145656  -0.00078288  0.75167109  1
  Fe  Fe60  1  0.74805811  0.50110675  0.50254087  1
  Fe  Fe61  1  0.62229560  0.87338804  0.12390139  1
  Fe  Fe62  1  0.37179487  0.87445732  0.87403434  1
  Fe  Fe63  1  0.24984717  0.00041150  0.50313865  1
  Fe  Fe64  1  0.25123994  0.74907515  0.50129295  1
  Fe  Fe65  1  0.75239144  0.75026728  0.74990885  1
  Fe  Fe66  1  0.12855390  0.62868681  0.12893544  1
  Fe  Fe67  1  0.50019396  0.25150958  0.75747458  1
  Fe  Fe68  1  0.75032866  0.25211406  0.75212452  1
  Fe  Fe69  1  0.62356965  0.87552489  0.37788520  1
  Fe  Fe70  1  0.12557007  0.87440360  0.37409768  1
  Fe  Fe71  1  0.49407387  0.74860357  -0.00031347  1
  Fe  Fe72  1  0.12738557  0.87148036  0.12665478  1
  Fe  Fe73  1  -0.00099034  0.25004462  0.75221840  1
  Fe  Fe74  1  0.49639952  0.74977082  0.74890728  1
  Fe  Fe75  1  0.87719241  0.37619987  0.62312998  1
  Fe  Fe76  1  0.24783830  -0.00038579  -0.00215788  1
  Fe  Fe77  1  0.62340864  0.62452467  0.37433034  1
  Fe  Fe78  1  0.24856550  0.25102970  0.25191886  1
  Fe  Fe79  1  0.12701051  0.37690095  0.87435450  1
  Fe  Fe80  1  0.87674498  0.62492404  0.12361090  1
  Fe  Fe81  1  0.62366565  0.62532509  0.87403966  1
  Fe  Fe82  1  0.74784204  -0.00255719  -0.00149409  1
  Fe  Fe83  1  0.00093460  0.00023257  0.25022016  1
  Fe  Fe84  1  0.87389296  0.12238001  0.87528526  1
  Fe  Fe85  1  0.37699513  0.12667926  0.12341910  1
  Fe  Fe86  1  0.37557701  0.62563316  0.62459966  1
  Fe  Fe87  1  0.62153999  0.62622308  0.12517108  1
  Fe  Fe88  1  0.74970061  0.50090615  0.74831145  1
  Fe  Fe89  1  0.00189063  0.25084196  0.25178182  1
  Co  Co90  1  0.37077391  0.37803531  0.87432409  1
  Co  Co91  1  0.37435126  0.87819624  0.12283318  1
  Co  Co92  1  0.87577302  0.87565200  0.87569759  1
  Co  Co93  1  0.50283639  0.25039900  0.49559701  1
  Co  Co94  1  0.12485577  0.62759433  0.62459341  1
  Co  Co95  1  0.25458501  0.75292131  0.25204508  1
  Co  Co96  1  0.87360119  0.62259452  0.87599444  1
  Co  Co97  1  0.00549596  0.50287756  0.00129367  1
  Co  Co98  1  0.25127168  0.49767678  0.24549245  1
  Co  Co99  1  0.37943467  0.37114937  0.62555174  1
  Co  Co100  1  0.62643484  0.37929518  0.87556401  1
  Co  Co101  1  0.37522770  0.87554140  0.62441430  1
  Co  Co102  1  0.12750996  0.86969812  0.87312616  1
  Co  Co103  1  0.12660261  0.38046114  0.37505968  1
  Co  Co104  1  0.49782842  0.74687952  0.49960240  1
  Co  Co105  1  0.12641635  0.12293162  0.37599219  1
  Co  Co106  1  0.62293186  0.87082030  0.87435902  1
  Co  Co107  1  0.37461171  0.62564691  0.12931297  1
  Co  Co108  1  0.49978087  0.25076093  -0.00687563  1
  Co  Co109  1  0.87624713  0.37547303  0.12474663  1
  Co  Co110  1  0.62505202  0.38094735  0.37504707  1
  Co  Co111  1  0.62587444  0.12089181  0.37482438  1
  Co  Co112  1  0.74882721  -0.00038979  0.50235648  1
  Co  Co113  1  0.12452408  0.12740975  0.87474092  1
  Co  Co114  1  -0.00055788  0.74834416  0.25192162  1
  Co  Co115  1  0.37380681  0.62359530  0.87188322  1
  Co  Co116  1  0.87492701  0.62483266  0.62395503  1
  Co  Co117  1  0.00212059  0.50081058  0.50138995  1
  Co  Co118  1  0.37573173  0.37007480  0.12452167  1
  Co  Co119  1  0.12117727  0.37387965  0.62679462  1
  Co  Co120  1  0.37373959  0.12235869  0.87410006  1
  Co  Co121  1  0.25385219  0.74900674  0.74635114  1
  Co  Co122  1  0.62808066  0.12357388  0.87347556  1
  Co  Co123  1  0.49917302  0.00271944  0.50118064  1
  Co  Co124  1  0.62341193  0.62616819  0.62715735  1
  Co  Co125  1  0.87729381  0.87376375  0.62398992  1
  Co  Co126  1  0.25033910  0.49762065  0.50684084  1
  Co  Co127  1  0.25403469  0.74810120  0.00197168  1
