# generated using pymatgen
data_Fe45Co19
_symmetry_space_group_name_H-M   'P 1'
_cell_length_a   11.41549467
_cell_length_b   11.41474909
_cell_length_c   11.41516783
_cell_angle_alpha   90.00539558
_cell_angle_beta   89.99863487
_cell_angle_gamma   90.00162886
_symmetry_Int_Tables_number   1
_chemical_formula_structural   Fe45Co19
_chemical_formula_sum   'Fe90 Co38'
_cell_volume   1487.45352134
_cell_formula_units_Z   2
loop_
 _symmetry_equiv_pos_site_id
 _symmetry_equiv_pos_as_xyz
  1  'x, y, z'
loop_
 _atom_site_type_symbol
 _atom_site_label
 _atom_site_symmetry_multiplicity
 _atom_site_fract_x
 _atom_site_fract_y
 _atom_site_fract_z
 _atom_site_occupancy
  Fe  Fe0  1  0.25311803  0.24788812  -0.00006965  1
  Fe  Fe1  1  0.37488837  0.37538833  0.87145798  1
  Fe  Fe2  1  0.87611161  0.62490778  0.12507612  1
  Fe  Fe3  1  0.74778504  0.24880741  0.25008176  1
  Fe  Fe4  1  0.49557445  0.25048188  0.50012382  1
  Fe  Fe5  1  0.75232347  0.24859567  0.50181277  1
  Fe  Fe6  1  0.37391886  0.11935407  0.87087240  1
  Fe  Fe7  1  0.62328449  0.62749401  0.62342223  1
  Fe  Fe8  1  0.12273690  0.12779142  0.12372614  1
  Fe  Fe9  1  0.12582732  0.37440231  0.87417188  1
  Fe  Fe10  1  0.12709597  0.36868451  0.37369685  1
  Fe  Fe11  1  0.87409726  0.37479314  0.37330723  1
  Fe  Fe12  1  0.87256180  0.12221074  0.12523842  1
  Fe  Fe13  1  0.00486308  -0.00161727  0.74950799  1
  Fe  Fe14  1  0.24916489  0.74770902  0.24941092  1
  Fe  Fe15  1  0.12744377  0.87671226  0.37718732  1
  Fe  Fe16  1  0.38127183  0.12734757  0.12530123  1
  Fe  Fe17  1  0.75096804  0.75173226  -0.00029267  1
  Fe  Fe18  1  0.12420652  0.37139802  0.12501149  1
  Fe  Fe19  1  -0.00053371  -0.00026150  -0.00105172  1
  Fe  Fe20  1  0.49921152  -0.00209376  0.50152978  1
  Fe  Fe21  1  0.63087275  0.12702952  0.87890943  1
  Fe  Fe22  1  0.37754899  0.37201163  0.12622961  1
  Fe  Fe23  1  0.62918788  0.37294196  0.87633983  1
  Fe  Fe24  1  0.12421335  0.62677721  0.62354874  1
  Fe  Fe25  1  0.74224744  0.00018976  0.74618592  1
  Fe  Fe26  1  0.75096783  0.75083577  0.74783039  1
  Fe  Fe27  1  0.87489790  0.62438579  0.37542620  1
  Fe  Fe28  1  -0.00384970  0.75263027  0.50092542  1
  Fe  Fe29  1  -0.00671709  0.24869745  -0.00398017  1
  Fe  Fe30  1  0.50187656  0.49836422  0.25090302  1
  Fe  Fe31  1  0.25008568  0.00493248  0.24882363  1
  Fe  Fe32  1  0.25426703  0.75142602  0.50265460  1
  Fe  Fe33  1  0.74674325  0.50032969  0.24916187  1
  Fe  Fe34  1  0.87412640  0.87555249  0.12694739  1
  Fe  Fe35  1  0.75062628  0.49960107  0.50179211  1
  Fe  Fe36  1  0.74806208  0.50035365  0.74745621  1
  Fe  Fe37  1  0.37163012  0.37156512  0.37370966  1
  Fe  Fe38  1  0.00361867  0.74909988  0.25188759  1
  Fe  Fe39  1  -0.00488635  0.24985290  0.75506283  1
  Fe  Fe40  1  0.87430411  0.37649706  0.12495734  1
  Fe  Fe41  1  0.00088695  0.49972673  0.49979624  1
  Fe  Fe42  1  0.50242834  -0.00057220  0.25156766  1
  Fe  Fe43  1  0.25110358  0.75203857  0.74832761  1
  Fe  Fe44  1  0.49916584  0.75408427  0.74797370  1
  Fe  Fe45  1  -0.00091049  0.75210984  -0.00178952  1
  Fe  Fe46  1  0.50255028  0.24741318  0.75146182  1
  Fe  Fe47  1  0.62415502  0.62661483  0.87436306  1
  Fe  Fe48  1  -0.00156431  0.24867543  0.49769083  1
  Fe  Fe49  1  0.12905027  0.87655001  0.87681620  1
  Fe  Fe50  1  0.25055290  0.24582949  0.74714355  1
  Fe  Fe51  1  0.62574762  0.37416624  0.37798457  1
  Fe  Fe52  1  0.62424627  0.12477579  0.37874943  1
  Fe  Fe53  1  0.12563911  0.62499447  0.87515368  1
  Fe  Fe54  1  0.24753494  0.50234040  0.24776457  1
  Fe  Fe55  1  0.37638073  0.62336208  0.87191093  1
  Fe  Fe56  1  0.25124961  0.49765998  0.50317972  1
  Fe  Fe57  1  0.87476622  0.12256471  0.62783694  1
  Fe  Fe58  1  0.62167879  0.62804976  0.12433461  1
  Fe  Fe59  1  0.00294965  0.50164151  0.25179886  1
  Fe  Fe60  1  0.74860363  0.75138537  0.25241435  1
  Fe  Fe61  1  -0.00056081  0.75105006  0.74871138  1
  Fe  Fe62  1  0.62414178  0.36942712  0.12081009  1
  Fe  Fe63  1  0.49836590  0.75265140  0.25417819  1
  Fe  Fe64  1  0.87462280  0.62160866  0.87355893  1
  Fe  Fe65  1  0.50400431  -0.00103376  -0.00147798  1
  Fe  Fe66  1  0.62441298  0.62629478  0.37833414  1
  Fe  Fe67  1  0.00061459  0.49936781  -0.00185188  1
  Fe  Fe68  1  0.49700919  0.49886338  0.50276388  1
  Fe  Fe69  1  0.49772303  0.75265243  -0.00188427  1
  Fe  Fe70  1  0.87628918  0.37564762  0.62719717  1
  Fe  Fe71  1  0.37372526  0.62325796  0.37454346  1
  Fe  Fe72  1  0.37335839  0.88177845  0.87093364  1
  Fe  Fe73  1  0.75422692  0.75463727  0.50027262  1
  Fe  Fe74  1  0.74483241  -0.00117483  0.25061303  1
  Fe  Fe75  1  0.37555685  0.87628193  0.12571003  1
  Fe  Fe76  1  0.24854927  0.00642522  0.50448712  1
  Fe  Fe77  1  0.62346392  0.37198554  0.62558060  1
  Fe  Fe78  1  0.87188080  0.87931755  0.87295305  1
  Fe  Fe79  1  0.12674010  0.87496544  0.12323324  1
  Fe  Fe80  1  0.00255839  0.00025151  0.25065373  1
  Fe  Fe81  1  0.50038078  0.49929930  -0.00190763  1
  Fe  Fe82  1  -0.00054525  -0.00042122  0.50029530  1
  Fe  Fe83  1  0.87473249  0.12334645  0.37345044  1
  Fe  Fe84  1  0.49499974  0.75345464  0.50054017  1
  Fe  Fe85  1  0.25299111  0.74917232  0.00069589  1
  Fe  Fe86  1  0.25206461  0.50085396  0.00160698  1
  Fe  Fe87  1  0.24999002  0.50068953  0.74659412  1
  Fe  Fe88  1  0.12609386  0.12470677  0.87640227  1
  Fe  Fe89  1  0.12438440  0.37048330  0.62557359  1
  Co  Co90  1  0.87613129  0.87694790  0.37166482  1
  Co  Co91  1  0.37671760  0.12455897  0.37598621  1
  Co  Co92  1  0.24314957  0.00161759  0.74458961  1
  Co  Co93  1  0.37658343  0.62439335  0.62681770  1
  Co  Co94  1  0.37961281  0.12265410  0.62889562  1
  Co  Co95  1  0.74636511  -0.00271861  0.00322172  1
  Co  Co96  1  -0.00310503  0.24905338  0.24955204  1
  Co  Co97  1  0.87380857  0.87966537  0.62875307  1
  Co  Co98  1  0.12661967  0.62619531  0.38017361  1
  Co  Co99  1  0.25117301  0.00295363  0.00361260  1
  Co  Co100  1  0.11935772  0.12996468  0.62589568  1
  Co  Co101  1  0.37842489  0.62483806  0.12602121  1
  Co  Co102  1  0.62310192  0.12856517  0.12278142  1
  Co  Co103  1  0.62648613  0.87266251  0.87497736  1
  Co  Co104  1  0.75182986  0.24986479  0.74878571  1
  Co  Co105  1  0.50278835  0.25070174  0.25477399  1
  Co  Co106  1  0.62513036  0.87501848  0.37870794  1
  Co  Co107  1  0.12527921  0.87232570  0.62200775  1
  Co  Co108  1  0.12358606  0.12689495  0.37461822  1
  Co  Co109  1  0.75227703  -0.00065416  0.49983471  1
  Co  Co110  1  0.49712471  0.24848132  -0.00623432  1
  Co  Co111  1  0.62417973  0.12731282  0.62037571  1
  Co  Co112  1  0.25155758  0.24485147  0.24840901  1
  Co  Co113  1  0.37032375  0.87846843  0.37509211  1
  Co  Co114  1  0.50886301  0.00080676  0.75134088  1
  Co  Co115  1  0.37540010  0.88169960  0.62916312  1
  Co  Co116  1  0.75767928  0.24844722  -0.00032656  1
  Co  Co117  1  0.25251549  0.24555923  0.50269145  1
  Co  Co118  1  0.62354440  0.87196869  0.12532224  1
  Co  Co119  1  0.00205554  0.50080685  0.74866574  1
  Co  Co120  1  0.12366908  0.62564615  0.12077857  1
  Co  Co121  1  0.87082967  0.11695183  0.87168068  1
  Co  Co122  1  0.50343269  0.49862794  0.74950104  1
  Co  Co123  1  0.87511521  0.62327946  0.62495837  1
  Co  Co124  1  0.87166922  0.38055128  0.87402239  1
  Co  Co125  1  0.74704459  0.50260731  0.00169098  1
  Co  Co126  1  0.37607403  0.37151350  0.62876516  1
  Co  Co127  1  0.62503970  0.87286623  0.62108838  1
