# generated using pymatgen
data_Fe45Co19
_symmetry_space_group_name_H-M   'P 1'
_cell_length_a   11.41430048
_cell_length_b   11.41559600
_cell_length_c   11.41443914
_cell_angle_alpha   90.00032606
_cell_angle_beta   89.98814561
_cell_angle_gamma   90.00363568
_symmetry_Int_Tables_number   1
_chemical_formula_structural   Fe45Co19
_chemical_formula_sum   'Fe90 Co38'
_cell_volume   1487.31328834
_cell_formula_units_Z   2
loop_
 _symmetry_equiv_pos_site_id
 _symmetry_equiv_pos_as_xyz
  1  'x, y, z'
loop_
 _atom_site_type_symbol
 _atom_site_label
 _atom_site_symmetry_multiplicity
 _atom_site_fract_x
 _atom_site_fract_y
 _atom_site_fract_z
 _atom_site_occupancy
  Fe  Fe0  1  0.62415055  0.12418844  0.62564350  1
  Fe  Fe1  1  0.62746766  0.37703285  0.62909551  1
  Fe  Fe2  1  0.50153672  0.25075755  0.24774999  1
  Fe  Fe3  1  0.25097739  0.00161700  0.75005796  1
  Fe  Fe4  1  0.37508477  0.62406517  0.62612791  1
  Fe  Fe5  1  0.75075537  -0.00117029  0.75076367  1
  Fe  Fe6  1  -0.00254192  0.74988411  0.50150014  1
  Fe  Fe7  1  0.24959005  0.49809641  0.24955808  1
  Fe  Fe8  1  0.62504288  0.12465062  0.37425126  1
  Fe  Fe9  1  0.87698386  0.37497747  0.87434623  1
  Fe  Fe10  1  0.12556602  0.12531465  0.62392121  1
  Fe  Fe11  1  0.12300338  0.62362196  0.87533259  1
  Fe  Fe12  1  0.62673171  0.62142153  0.63146596  1
  Fe  Fe13  1  0.37354013  0.87730957  0.62393226  1
  Fe  Fe14  1  0.50576802  0.75061360  0.25181640  1
  Fe  Fe15  1  0.24880348  0.49783147  0.75016277  1
  Fe  Fe16  1  0.74620638  0.74583266  -0.00230863  1
  Fe  Fe17  1  0.12504516  0.62254435  0.62503139  1
  Fe  Fe18  1  0.00012711  0.75066921  0.74845330  1
  Fe  Fe19  1  0.75025354  0.25049165  0.24918130  1
  Fe  Fe20  1  -0.00094424  -0.00071588  0.75229891  1
  Fe  Fe21  1  0.75127454  0.24974149  0.50046819  1
  Fe  Fe22  1  0.49982858  0.25095162  0.75029739  1
  Fe  Fe23  1  0.37561305  0.37328535  0.37403551  1
  Fe  Fe24  1  0.62735851  0.87827849  0.62095316  1
  Fe  Fe25  1  0.49907467  -0.00047373  0.75234953  1
  Fe  Fe26  1  0.87519098  0.12403110  0.62725362  1
  Fe  Fe27  1  0.12784787  0.87372642  0.37450852  1
  Fe  Fe28  1  -0.00210981  0.49923311  0.50024888  1
  Fe  Fe29  1  0.37508681  0.37215253  0.87774730  1
  Fe  Fe30  1  0.37334478  0.37387667  0.62608211  1
  Fe  Fe31  1  -0.00148388  0.25096696  0.24846721  1
  Fe  Fe32  1  0.25178125  -0.00121144  0.00011107  1
  Fe  Fe33  1  0.12470954  0.62444354  0.12613530  1
  Fe  Fe34  1  0.49970962  0.24993650  0.50093940  1
  Fe  Fe35  1  -0.00048786  0.50003216  0.25049284  1
  Fe  Fe36  1  0.49498644  0.00157651  0.49468958  1
  Fe  Fe37  1  0.25096337  0.49971802  0.49921825  1
  Fe  Fe38  1  0.62385990  0.12324032  0.12372740  1
  Fe  Fe39  1  0.24915135  0.49747103  0.00276663  1
  Fe  Fe40  1  0.87294928  0.62536270  0.12386943  1
  Fe  Fe41  1  0.87514466  0.87319715  0.87554768  1
  Fe  Fe42  1  0.62388435  0.87680270  0.12361514  1
  Fe  Fe43  1  0.12414300  0.12691920  0.87897729  1
  Fe  Fe44  1  0.37776387  0.87473135  0.12545711  1
  Fe  Fe45  1  0.86922183  0.87343182  0.37806000  1
  Fe  Fe46  1  0.12233486  0.12341017  0.12249721  1
  Fe  Fe47  1  0.25118231  0.75056255  0.00175225  1
  Fe  Fe48  1  0.12510791  0.87695989  0.62443066  1
  Fe  Fe49  1  0.74903524  -0.00029112  0.25024682  1
  Fe  Fe50  1  0.12672379  0.87498629  0.87530346  1
  Fe  Fe51  1  0.00238121  0.75128000  0.00197318  1
  Fe  Fe52  1  0.62585313  0.12705478  0.87453236  1
  Fe  Fe53  1  0.75146165  0.24959693  -0.00190854  1
  Fe  Fe54  1  0.25002075  0.74991521  0.50109241  1
  Fe  Fe55  1  0.86995571  0.62584573  0.37460459  1
  Fe  Fe56  1  0.62683516  0.37562496  0.37629703  1
  Fe  Fe57  1  0.37779633  0.62352161  0.12598418  1
  Fe  Fe58  1  -0.00081261  -0.00273462  0.24985676  1
  Fe  Fe59  1  0.12326040  0.37425437  0.87794870  1
  Fe  Fe60  1  0.25055437  0.25339525  0.24418258  1
  Fe  Fe61  1  0.50128165  0.50024891  0.50123428  1
  Fe  Fe62  1  0.37651601  0.62629418  0.87396055  1
  Fe  Fe63  1  0.50427931  0.74867530  0.49940502  1
  Fe  Fe64  1  0.12514817  0.62663957  0.37461070  1
  Fe  Fe65  1  0.87187962  0.62422452  0.62994218  1
  Fe  Fe66  1  0.74879973  0.50002633  0.25029823  1
  Fe  Fe67  1  -0.00014113  0.00027471  0.49864865  1
  Fe  Fe68  1  0.24985320  0.74927442  0.74940367  1
  Fe  Fe69  1  0.37833471  0.12500166  0.12455998  1
  Fe  Fe70  1  0.50219121  0.49952357  0.25131670  1
  Fe  Fe71  1  0.49878749  0.75268414  0.74893903  1
  Fe  Fe72  1  0.25269714  -0.00108755  0.25149295  1
  Fe  Fe73  1  0.12294459  0.37309967  0.37673523  1
  Fe  Fe74  1  0.74832787  0.50377519  -0.00742384  1
  Fe  Fe75  1  0.37628209  0.62688891  0.37461904  1
  Fe  Fe76  1  0.25164463  0.24769598  0.50200608  1
  Fe  Fe77  1  0.87277539  0.87473316  0.12305639  1
  Fe  Fe78  1  0.87401292  0.37554190  0.62647840  1
  Fe  Fe79  1  0.12639403  0.12633055  0.37464977  1
  Fe  Fe80  1  0.62267820  0.87294532  0.87651328  1
  Fe  Fe81  1  -0.00130902  0.75169224  0.24906204  1
  Fe  Fe82  1  0.00143172  0.25057047  0.74969684  1
  Fe  Fe83  1  0.87504746  0.37723449  0.12378934  1
  Fe  Fe84  1  0.87493039  0.12600980  0.37436964  1
  Fe  Fe85  1  0.62568799  0.37598555  0.12141891  1
  Fe  Fe86  1  0.37444845  0.12718163  0.87565352  1
  Fe  Fe87  1  0.50334584  0.50117631  -0.00404189  1
  Fe  Fe88  1  0.87643167  0.12293905  0.12219211  1
  Fe  Fe89  1  0.75007323  0.00102920  -0.00246126  1
  Co  Co90  1  0.87457449  0.37512801  0.37412747  1
  Co  Co91  1  0.25024875  0.25182427  0.00447874  1
  Co  Co92  1  -0.00298127  0.25037988  0.00113758  1
  Co  Co93  1  0.75185552  0.00525705  0.50021217  1
  Co  Co94  1  0.49913611  0.00066181  -0.00261309  1
  Co  Co95  1  0.49939089  0.74921417  0.00068123  1
  Co  Co96  1  0.12563386  0.37458110  0.62234141  1
  Co  Co97  1  0.50004006  -0.00100982  0.25350885  1
  Co  Co98  1  0.75080096  0.24915364  0.74961485  1
  Co  Co99  1  0.74748044  0.74646943  0.50401393  1
  Co  Co100  1  -0.00271557  0.24932694  0.50092502  1
  Co  Co101  1  0.50189815  0.24874668  0.00037962  1
  Co  Co102  1  0.87409802  0.87690935  0.62345795  1
  Co  Co103  1  0.62455954  0.62296188  0.12444686  1
  Co  Co104  1  0.62054788  0.62826905  0.86795152  1
  Co  Co105  1  0.74679780  0.75086460  0.24842797  1
  Co  Co106  1  0.87876474  0.62835958  0.87345673  1
  Co  Co107  1  0.49649536  0.49664831  0.75179462  1
  Co  Co108  1  0.25049788  0.74853931  0.24748701  1
  Co  Co109  1  0.62927719  0.87728971  0.37847569  1
  Co  Co110  1  0.00122975  0.49888836  0.74890976  1
  Co  Co111  1  0.62869881  0.62306841  0.37500931  1
  Co  Co112  1  0.24829429  0.25037550  0.75046567  1
  Co  Co113  1  0.12013161  0.37543394  0.12439126  1
  Co  Co114  1  0.37419585  0.87006534  0.37482097  1
  Co  Co115  1  -0.00058029  -0.00265679  -0.00118133  1
  Co  Co116  1  -0.00119456  0.50167358  0.00071070  1
  Co  Co117  1  0.87565152  0.12464530  0.87435558  1
  Co  Co118  1  0.75091666  0.50046073  0.75763020  1
  Co  Co119  1  0.38047073  0.37734426  0.12348100  1
  Co  Co120  1  0.37391905  0.87371882  0.87425644  1
  Co  Co121  1  0.37407121  0.12989105  0.37195428  1
  Co  Co122  1  0.25236266  0.00124899  0.49907678  1
  Co  Co123  1  0.12649920  0.87665395  0.12592317  1
  Co  Co124  1  0.62474564  0.37197373  0.87365640  1
  Co  Co125  1  0.74909357  0.75330156  0.74970603  1
  Co  Co126  1  0.75040107  0.49904974  0.50142425  1
  Co  Co127  1  0.37627293  0.12484166  0.62778390  1
