# generated using pymatgen
data_Fe45Co19
_symmetry_space_group_name_H-M   'P 1'
_cell_length_a   11.41529757
_cell_length_b   11.41420044
_cell_length_c   11.41447980
_cell_angle_alpha   90.00307681
_cell_angle_beta   90.00694212
_cell_angle_gamma   90.00632401
_symmetry_Int_Tables_number   1
_chemical_formula_structural   Fe45Co19
_chemical_formula_sum   'Fe90 Co38'
_cell_volume   1487.26668286
_cell_formula_units_Z   2
loop_
 _symmetry_equiv_pos_site_id
 _symmetry_equiv_pos_as_xyz
  1  'x, y, z'
loop_
 _atom_site_type_symbol
 _atom_site_label
 _atom_site_symmetry_multiplicity
 _atom_site_fract_x
 _atom_site_fract_y
 _atom_site_fract_z
 _atom_site_occupancy
  Fe  Fe0  1  0.62391280  0.62567549  0.37544576  1
  Fe  Fe1  1  -0.00127305  0.49773462  0.25056352  1
  Fe  Fe2  1  0.49842793  0.75315644  0.50072064  1
  Fe  Fe3  1  0.50310918  0.75676504  0.75039978  1
  Fe  Fe4  1  0.24903865  0.74646397  0.74489446  1
  Fe  Fe5  1  0.75390758  0.00475947  0.00082681  1
  Fe  Fe6  1  0.50355803  0.25288271  0.49965171  1
  Fe  Fe7  1  0.74809080  0.75105665  0.24894113  1
  Fe  Fe8  1  -0.00108512  0.00226500  0.74972437  1
  Fe  Fe9  1  0.25749586  0.00634103  0.74971515  1
  Fe  Fe10  1  0.49988053  0.49767199  0.25224351  1
  Fe  Fe11  1  0.25147200  0.24794261  0.74804924  1
  Fe  Fe12  1  0.50199223  0.49660442  0.75036619  1
  Fe  Fe13  1  0.75034427  0.74800593  -0.00001753  1
  Fe  Fe14  1  -0.00000740  0.75122899  0.25160101  1
  Fe  Fe15  1  0.87200501  0.12662977  0.37230735  1
  Fe  Fe16  1  0.37845955  0.37399556  0.62468359  1
  Fe  Fe17  1  0.87530394  0.87669435  0.12559846  1
  Fe  Fe18  1  0.49455899  -0.00418684  -0.00598428  1
  Fe  Fe19  1  0.24919525  0.25089609  0.50088069  1
  Fe  Fe20  1  0.87397899  0.62563685  0.37441333  1
  Fe  Fe21  1  0.74967559  0.49999858  0.75226694  1
  Fe  Fe22  1  0.49851064  -0.00108862  0.25455388  1
  Fe  Fe23  1  0.61930495  0.12019209  0.62425083  1
  Fe  Fe24  1  0.12612819  0.12669179  0.37556299  1
  Fe  Fe25  1  0.50297771  0.25165094  0.00294729  1
  Fe  Fe26  1  0.37590081  0.37288979  0.12772650  1
  Fe  Fe27  1  0.74866772  0.49954281  0.50037596  1
  Fe  Fe28  1  -0.00007054  0.75102758  0.50077545  1
  Fe  Fe29  1  0.74750265  0.24675550  0.50225843  1
  Fe  Fe30  1  0.87503619  0.62421173  0.62656884  1
  Fe  Fe31  1  0.74748060  0.00043099  0.74893230  1
  Fe  Fe32  1  0.12478529  0.62403657  0.87420886  1
  Fe  Fe33  1  0.12568970  0.62372571  0.12541815  1
  Fe  Fe34  1  0.25095325  0.75165591  0.24971274  1
  Fe  Fe35  1  -0.00212290  0.49798649  0.49891960  1
  Fe  Fe36  1  -0.00145245  0.49785718  0.75341646  1
  Fe  Fe37  1  0.25550832  0.00349289  0.50069562  1
  Fe  Fe38  1  0.37714704  0.12569543  0.12558717  1
  Fe  Fe39  1  0.00073783  0.75113625  0.74886402  1
  Fe  Fe40  1  0.25022246  0.49605604  0.25338934  1
  Fe  Fe41  1  0.62187184  0.62237669  0.12340011  1
  Fe  Fe42  1  0.25120629  0.74729057  0.50415739  1
  Fe  Fe43  1  0.62219270  0.12376392  0.87640870  1
  Fe  Fe44  1  -0.00096057  0.24857894  0.50154914  1
  Fe  Fe45  1  -0.00014043  -0.00148256  0.25249202  1
  Fe  Fe46  1  0.37664259  0.13209501  0.37247776  1
  Fe  Fe47  1  0.12531139  0.62380337  0.37604157  1
  Fe  Fe48  1  0.87274821  0.87576242  0.87446518  1
  Fe  Fe49  1  0.74619050  0.24862607  0.75080516  1
  Fe  Fe50  1  0.87300772  0.87739664  0.62415371  1
  Fe  Fe51  1  0.37654420  0.62644366  0.87202931  1
  Fe  Fe52  1  0.62647120  0.37546499  0.88077984  1
  Fe  Fe53  1  0.62394645  0.62403869  0.87706431  1
  Fe  Fe54  1  0.62310063  0.87741998  0.12268211  1
  Fe  Fe55  1  0.25157821  0.75013888  0.00178432  1
  Fe  Fe56  1  0.24829042  0.24913072  0.00137676  1
  Fe  Fe57  1  0.49806014  0.75212819  -0.00055932  1
  Fe  Fe58  1  0.12451281  0.37524052  0.62570275  1
  Fe  Fe59  1  0.25137714  0.50047543  0.74805835  1
  Fe  Fe60  1  0.75033586  0.49911152  0.24777151  1
  Fe  Fe61  1  0.37659918  0.62523343  0.12740820  1
  Fe  Fe62  1  0.87192097  0.37305814  0.62583756  1
  Fe  Fe63  1  0.00171200  0.25122272  0.24914115  1
  Fe  Fe64  1  0.25276354  0.49968315  0.50090531  1
  Fe  Fe65  1  0.25145006  0.49940261  -0.00163971  1
  Fe  Fe66  1  0.25251958  0.00016153  -0.00111490  1
  Fe  Fe67  1  0.74751251  0.75099794  0.74930901  1
  Fe  Fe68  1  0.37693809  0.62562012  0.37532458  1
  Fe  Fe69  1  0.87254197  0.37086415  0.88205511  1
  Fe  Fe70  1  0.12535434  0.87643353  0.12452420  1
  Fe  Fe71  1  0.87658919  0.62329116  0.12353772  1
  Fe  Fe72  1  0.12754004  0.87553653  0.37750471  1
  Fe  Fe73  1  0.12486355  0.12522431  0.87488419  1
  Fe  Fe74  1  0.25199559  0.00075452  0.25073163  1
  Fe  Fe75  1  0.00009353  0.24917641  0.75087970  1
  Fe  Fe76  1  0.12833628  0.87966937  0.62471429  1
  Fe  Fe77  1  0.75086700  0.75115976  0.50100896  1
  Fe  Fe78  1  0.00042096  0.75116142  -0.00167974  1
  Fe  Fe79  1  -0.00302552  0.00266533  0.50019316  1
  Fe  Fe80  1  0.12290799  0.37583910  0.12301698  1
  Fe  Fe81  1  0.62624048  0.37312833  0.37313830  1
  Fe  Fe82  1  0.87157666  0.37128302  0.37307613  1
  Fe  Fe83  1  0.74412161  0.24737374  0.24058113  1
  Fe  Fe84  1  0.12288211  0.12291551  0.12452214  1
  Fe  Fe85  1  0.37513267  0.37161126  0.87452817  1
  Fe  Fe86  1  0.62289181  0.62361630  0.62441380  1
  Fe  Fe87  1  0.12839352  0.87695050  0.87331683  1
  Fe  Fe88  1  0.62619158  0.87700872  0.37807733  1
  Fe  Fe89  1  0.74885059  0.00123523  0.25035911  1
  Co  Co90  1  0.50581121  0.25034504  0.24613260  1
  Co  Co91  1  0.37651554  0.37020453  0.37373221  1
  Co  Co92  1  0.87255472  0.12629981  0.62726300  1
  Co  Co93  1  -0.00065052  -0.00116636  -0.00296142  1
  Co  Co94  1  0.12539702  0.12481572  0.62539718  1
  Co  Co95  1  0.24629555  0.25054137  0.24825354  1
  Co  Co96  1  0.87890860  0.12503353  0.12684333  1
  Co  Co97  1  0.62439496  0.12505799  0.37646271  1
  Co  Co98  1  0.61811205  0.11690076  0.12186137  1
  Co  Co99  1  0.62372110  0.88011993  0.62095373  1
  Co  Co100  1  0.49731035  -0.00286710  0.75510207  1
  Co  Co101  1  0.49378974  -0.00078373  0.49619453  1
  Co  Co102  1  0.12739452  0.37342009  0.87389574  1
  Co  Co103  1  0.36903208  0.87055417  0.87168997  1
  Co  Co104  1  0.75288163  0.00313874  0.49949186  1
  Co  Co105  1  0.37449976  0.87599734  0.62745441  1
  Co  Co106  1  0.37829654  0.13131972  0.87720816  1
  Co  Co107  1  0.00176975  0.50071255  -0.00225747  1
  Co  Co108  1  0.37252410  0.87190086  0.37448027  1
  Co  Co109  1  0.74611207  0.24447950  0.00595936  1
  Co  Co110  1  0.50266685  0.75213253  0.25012102  1
  Co  Co111  1  0.62491557  0.38156485  0.12142741  1
  Co  Co112  1  0.50128220  0.49655210  0.49807233  1
  Co  Co113  1  0.62950189  0.87685830  0.87895295  1
  Co  Co114  1  0.12419446  0.37487434  0.37728933  1
  Co  Co115  1  0.38268556  0.12816859  0.62422191  1
  Co  Co116  1  0.50391749  0.25179686  0.75030332  1
  Co  Co117  1  0.37633057  0.87613120  0.12656780  1
  Co  Co118  1  0.49416853  0.49974685  -0.00161901  1
  Co  Co119  1  0.87373829  0.12704647  0.87406379  1
  Co  Co120  1  0.62682949  0.37555048  0.62518374  1
  Co  Co121  1  0.12073820  0.62096259  0.62489650  1
  Co  Co122  1  0.00175146  0.24695374  -0.00096350  1
  Co  Co123  1  0.87341033  0.87533369  0.37502116  1
  Co  Co124  1  0.38238264  0.62433826  0.62618165  1
  Co  Co125  1  0.75236520  0.50331993  -0.00046675  1
  Co  Co126  1  0.87520317  0.37361038  0.12108165  1
  Co  Co127  1  0.87582909  0.62678708  0.87385560  1
