# generated using pymatgen
data_Fe45Co19
_symmetry_space_group_name_H-M   'P 1'
_cell_length_a   11.41659776
_cell_length_b   11.41439478
_cell_length_c   11.41512256
_cell_angle_alpha   89.99750703
_cell_angle_beta   90.00332544
_cell_angle_gamma   89.99951976
_symmetry_Int_Tables_number   1
_chemical_formula_structural   Fe45Co19
_chemical_formula_sum   'Fe90 Co38'
_cell_volume   1487.54518499
_cell_formula_units_Z   2
loop_
 _symmetry_equiv_pos_site_id
 _symmetry_equiv_pos_as_xyz
  1  'x, y, z'
loop_
 _atom_site_type_symbol
 _atom_site_label
 _atom_site_symmetry_multiplicity
 _atom_site_fract_x
 _atom_site_fract_y
 _atom_site_fract_z
 _atom_site_occupancy
  Fe  Fe0  1  0.75004236  0.74970929  0.74839819  1
  Fe  Fe1  1  0.00232731  0.49900719  0.00033192  1
  Fe  Fe2  1  0.12833774  0.37058223  0.12811299  1
  Fe  Fe3  1  0.12441757  0.37384228  0.37417733  1
  Fe  Fe4  1  0.12663389  0.62670111  0.37693778  1
  Fe  Fe5  1  0.87618132  0.87236703  0.62235069  1
  Fe  Fe6  1  0.12433768  0.12470856  0.12649471  1
  Fe  Fe7  1  0.87650018  0.62495654  0.87564945  1
  Fe  Fe8  1  0.37158741  0.62569850  0.87539082  1
  Fe  Fe9  1  0.37483154  0.12667557  0.12484638  1
  Fe  Fe10  1  0.37407517  0.12181561  0.37965685  1
  Fe  Fe11  1  0.62202145  0.62436371  0.62463232  1
  Fe  Fe12  1  0.00253087  0.49994006  0.74961645  1
  Fe  Fe13  1  0.75080159  0.25025287  0.75096855  1
  Fe  Fe14  1  0.62291813  0.12620725  0.12335835  1
  Fe  Fe15  1  -0.00312417  0.25393058  0.50049019  1
  Fe  Fe16  1  0.50147371  0.00390085  0.74538608  1
  Fe  Fe17  1  0.00145961  0.75173638  -0.00208490  1
  Fe  Fe18  1  0.74796880  0.75148973  0.24948807  1
  Fe  Fe19  1  0.37359429  0.37354723  0.62838186  1
  Fe  Fe20  1  0.00025135  0.75349048  0.25422521  1
  Fe  Fe21  1  0.12354810  0.12670573  0.37489687  1
  Fe  Fe22  1  0.87907497  0.62668736  0.62425188  1
  Fe  Fe23  1  0.24581150  0.50481243  0.74620935  1
  Fe  Fe24  1  0.25435671  0.74885726  0.24795316  1
  Fe  Fe25  1  0.50086050  0.49609801  0.75386932  1
  Fe  Fe26  1  0.37496707  0.37384736  0.37475565  1
  Fe  Fe27  1  0.62562832  0.12604187  0.87444339  1
  Fe  Fe28  1  0.12552219  0.62735731  0.12393402  1
  Fe  Fe29  1  0.25032260  0.00072865  -0.00045876  1
  Fe  Fe30  1  0.25493999  0.74660359  0.50679710  1
  Fe  Fe31  1  0.12378413  0.87025328  0.62485469  1
  Fe  Fe32  1  0.49627932  0.75055659  0.74627148  1
  Fe  Fe33  1  0.00151907  0.50017546  0.24970309  1
  Fe  Fe34  1  0.74920367  -0.00091312  0.74778974  1
  Fe  Fe35  1  0.75273831  0.25194313  0.49888229  1
  Fe  Fe36  1  0.37310705  0.87865951  0.38116185  1
  Fe  Fe37  1  0.25155054  0.49965055  0.00285536  1
  Fe  Fe38  1  0.12474123  0.12509394  0.87347092  1
  Fe  Fe39  1  0.74643832  -0.00121104  0.00087236  1
  Fe  Fe40  1  0.62239596  0.62577921  0.37534202  1
  Fe  Fe41  1  0.87368530  0.87626199  0.87548846  1
  Fe  Fe42  1  0.37661797  0.62456441  0.37546470  1
  Fe  Fe43  1  0.74814146  0.49855886  0.25136297  1
  Fe  Fe44  1  0.62084512  0.62724372  0.12556105  1
  Fe  Fe45  1  0.37350704  0.87558922  0.87102565  1
  Fe  Fe46  1  0.37363200  0.12668905  0.87133109  1
  Fe  Fe47  1  0.62772863  0.87578878  0.37928508  1
  Fe  Fe48  1  0.49735288  0.49654455  -0.00155124  1
  Fe  Fe49  1  0.12068961  0.12702638  0.62429154  1
  Fe  Fe50  1  0.12847081  0.87255411  0.87275222  1
  Fe  Fe51  1  0.87781165  0.12034614  0.12627307  1
  Fe  Fe52  1  0.24911502  0.00176018  0.25139963  1
  Fe  Fe53  1  0.49848798  0.49843135  0.24876859  1
  Fe  Fe54  1  0.62745504  0.12466229  0.37717236  1
  Fe  Fe55  1  0.49671715  0.25382560  -0.00494850  1
  Fe  Fe56  1  0.87454331  0.37517589  0.12608080  1
  Fe  Fe57  1  0.50035129  -0.00080501  -0.00192450  1
  Fe  Fe58  1  0.87497307  0.62491899  0.37494016  1
  Fe  Fe59  1  0.87655094  0.12485571  0.62552132  1
  Fe  Fe60  1  0.50016020  0.24805359  0.50287447  1
  Fe  Fe61  1  -0.00019792  -0.00186192  0.75047368  1
  Fe  Fe62  1  0.62641778  0.37377679  0.62527672  1
  Fe  Fe63  1  0.00020917  0.24883264  -0.00049171  1
  Fe  Fe64  1  0.87398146  0.37533338  0.87479931  1
  Fe  Fe65  1  0.12554773  0.87629941  0.12555063  1
  Fe  Fe66  1  0.74886754  0.50146214  0.00049183  1
  Fe  Fe67  1  0.75021236  0.49948644  0.49905353  1
  Fe  Fe68  1  0.25240987  0.50001923  0.24894140  1
  Fe  Fe69  1  0.49872970  0.75199013  -0.00135346  1
  Fe  Fe70  1  0.49866444  0.24912031  0.25228745  1
  Fe  Fe71  1  0.24887131  0.50036170  0.50306412  1
  Fe  Fe72  1  0.87530998  0.12344824  0.87500945  1
  Fe  Fe73  1  0.62470511  0.37313406  0.12381972  1
  Fe  Fe74  1  0.37676625  0.87595117  0.12527731  1
  Fe  Fe75  1  0.62418613  0.87534750  0.62238217  1
  Fe  Fe76  1  0.50020612  0.49847499  0.49992360  1
  Fe  Fe77  1  0.00051691  0.49806784  0.50098122  1
  Fe  Fe78  1  0.87591641  0.87834734  0.12621591  1
  Fe  Fe79  1  0.50203322  -0.00117957  0.25261814  1
  Fe  Fe80  1  0.87586165  0.62612225  0.12536056  1
  Fe  Fe81  1  0.62441681  0.62703086  0.87454670  1
  Fe  Fe82  1  0.87579659  0.12148683  0.37297742  1
  Fe  Fe83  1  0.00097688  -0.00546090  0.49549758  1
  Fe  Fe84  1  0.24925914  0.00139114  0.74494390  1
  Fe  Fe85  1  0.74962492  0.50147940  0.74999172  1
  Fe  Fe86  1  0.74805316  0.75189148  -0.00045611  1
  Fe  Fe87  1  0.75128396  0.25010914  0.25058993  1
  Fe  Fe88  1  0.25001118  0.24970100  0.50148754  1
  Fe  Fe89  1  0.12806806  0.37312013  0.87293549  1
  Co  Co90  1  0.50128584  0.25098083  0.75113564  1
  Co  Co91  1  0.86812420  0.87692328  0.37432244  1
  Co  Co92  1  0.00391434  -0.00445906  0.25600139  1
  Co  Co93  1  -0.00174035  0.75343512  0.49344483  1
  Co  Co94  1  0.62960006  0.37424644  0.87618121  1
  Co  Co95  1  0.24809195  0.24582140  0.74692198  1
  Co  Co96  1  0.00246002  -0.00091414  -0.00254126  1
  Co  Co97  1  0.74919230  0.74621722  0.50164739  1
  Co  Co98  1  0.37840200  0.62651102  0.12374433  1
  Co  Co99  1  0.62350831  0.37371491  0.37555492  1
  Co  Co100  1  0.25103609  0.75230896  0.00116571  1
  Co  Co101  1  0.62839840  0.12815285  0.62510407  1
  Co  Co102  1  0.24370339  0.00246350  0.50357639  1
  Co  Co103  1  0.12730629  0.62676954  0.87690717  1
  Co  Co104  1  0.49797806  0.74970305  0.50085891  1
  Co  Co105  1  0.36794669  0.37523503  0.87004092  1
  Co  Co106  1  -0.00099773  0.25114698  0.75154380  1
  Co  Co107  1  0.37421901  0.12496062  0.62377735  1
  Co  Co108  1  0.62211852  0.87425427  0.12413033  1
  Co  Co109  1  0.13395718  0.87063319  0.37646233  1
  Co  Co110  1  0.87358406  0.37619184  0.62699324  1
  Co  Co111  1  0.25323764  0.74725537  0.74432431  1
  Co  Co112  1  0.37409884  0.37102106  0.12683023  1
  Co  Co113  1  0.50417449  0.00314815  0.50182693  1
  Co  Co114  1  0.62301768  0.87541065  0.87147440  1
  Co  Co115  1  0.87672201  0.37731732  0.37335087  1
  Co  Co116  1  -0.00194944  0.24988718  0.24898813  1
  Co  Co117  1  0.75150126  0.00196171  0.50277549  1
  Co  Co118  1  0.37973595  0.61930747  0.62598929  1
  Co  Co119  1  -0.00097545  0.74988113  0.75449780  1
  Co  Co120  1  0.74586767  0.00097826  0.24758512  1
  Co  Co121  1  0.24994598  0.24830551  -0.00117661  1
  Co  Co122  1  0.11853099  0.62978554  0.62225721  1
  Co  Co123  1  0.75288248  0.24787578  0.00088909  1
  Co  Co124  1  0.25182410  0.24733321  0.25369251  1
  Co  Co125  1  0.37586183  0.88113755  0.62224206  1
  Co  Co126  1  0.49852705  0.75433295  0.25463287  1
  Co  Co127  1  0.12540855  0.37278528  0.62481752  1
