# generated using pymatgen
data_Fe45Co19
_symmetry_space_group_name_H-M   'P 1'
_cell_length_a   11.41567698
_cell_length_b   11.41490125
_cell_length_c   11.41530394
_cell_angle_alpha   89.99897373
_cell_angle_beta   89.99789553
_cell_angle_gamma   89.99393122
_symmetry_Int_Tables_number   1
_chemical_formula_structural   Fe45Co19
_chemical_formula_sum   'Fe90 Co38'
_cell_volume   1487.51483827
_cell_formula_units_Z   2
loop_
 _symmetry_equiv_pos_site_id
 _symmetry_equiv_pos_as_xyz
  1  'x, y, z'
loop_
 _atom_site_type_symbol
 _atom_site_label
 _atom_site_symmetry_multiplicity
 _atom_site_fract_x
 _atom_site_fract_y
 _atom_site_fract_z
 _atom_site_occupancy
  Fe  Fe0  1  0.62651447  0.12560801  0.87487144  1
  Fe  Fe1  1  0.37373699  0.12808718  0.87467021  1
  Fe  Fe2  1  0.87454098  0.37867976  0.12264823  1
  Fe  Fe3  1  0.24825062  0.00028626  0.24920086  1
  Fe  Fe4  1  0.37443635  0.87461370  0.62505698  1
  Fe  Fe5  1  0.62291007  0.62287623  0.62736280  1
  Fe  Fe6  1  0.87624672  0.87474309  0.87681282  1
  Fe  Fe7  1  0.87385801  0.62345984  0.37450324  1
  Fe  Fe8  1  0.12545747  0.37451365  0.12686453  1
  Fe  Fe9  1  0.87700862  0.37667781  0.37438521  1
  Fe  Fe10  1  0.50037000  0.24923750  0.74779385  1
  Fe  Fe11  1  0.49920477  0.00078137  -0.00199245  1
  Fe  Fe12  1  0.24886135  0.25222636  0.74665217  1
  Fe  Fe13  1  -0.00330750  0.24714623  0.75303404  1
  Fe  Fe14  1  0.50004065  0.75163089  -0.00199958  1
  Fe  Fe15  1  0.50001941  0.74869337  0.50171620  1
  Fe  Fe16  1  0.62591115  0.87563281  0.87258616  1
  Fe  Fe17  1  0.75171944  0.25077059  -0.00059634  1
  Fe  Fe18  1  0.62629432  0.62432972  0.12342276  1
  Fe  Fe19  1  0.37628150  0.62292622  0.37723348  1
  Fe  Fe20  1  0.24928694  0.74730574  0.50281483  1
  Fe  Fe21  1  0.37845950  0.37945771  0.62495762  1
  Fe  Fe22  1  0.12416006  0.87295692  0.12481558  1
  Fe  Fe23  1  0.87549354  0.88143656  0.37367749  1
  Fe  Fe24  1  0.37405487  0.62296293  0.12387712  1
  Fe  Fe25  1  0.62695734  0.62578881  0.37455362  1
  Fe  Fe26  1  0.62233573  0.37282984  0.12667102  1
  Fe  Fe27  1  0.62562211  0.37236909  0.87247648  1
  Fe  Fe28  1  0.37125373  0.12600623  0.37911660  1
  Fe  Fe29  1  0.37204507  0.12605789  0.62271582  1
  Fe  Fe30  1  0.63073396  0.12580683  0.37882323  1
  Fe  Fe31  1  0.50160650  0.00170475  0.50118067  1
  Fe  Fe32  1  0.25156837  0.49673095  -0.00207816  1
  Fe  Fe33  1  0.24420797  0.00070902  0.50112841  1
  Fe  Fe34  1  0.12335543  0.37442538  0.37483925  1
  Fe  Fe35  1  0.62369057  0.87464498  0.12538394  1
  Fe  Fe36  1  0.12313148  0.62558875  0.37491069  1
  Fe  Fe37  1  0.87399815  0.62017740  0.88390356  1
  Fe  Fe38  1  0.24780508  0.00120201  0.75177609  1
  Fe  Fe39  1  0.75410649  0.25121731  0.75145028  1
  Fe  Fe40  1  0.75323215  -0.00009648  0.74725270  1
  Fe  Fe41  1  0.12329394  0.87500208  0.37437896  1
  Fe  Fe42  1  0.62370559  0.62518949  0.87540436  1
  Fe  Fe43  1  0.12133705  0.87340052  0.62803566  1
  Fe  Fe44  1  0.63014812  0.12854152  0.62211467  1
  Fe  Fe45  1  0.87736631  0.37499431  0.62499597  1
  Fe  Fe46  1  -0.00012991  0.00436382  0.75026783  1
  Fe  Fe47  1  0.49773357  0.49526458  -0.00216693  1
  Fe  Fe48  1  0.87668526  0.12217811  0.12683497  1
  Fe  Fe49  1  0.74920717  -0.00104916  0.00164482  1
  Fe  Fe50  1  0.62575438  0.87308378  0.62645344  1
  Fe  Fe51  1  0.25072980  0.74943005  0.25091363  1
  Fe  Fe52  1  0.49799009  0.24874018  0.25233723  1
  Fe  Fe53  1  0.37540862  0.12637192  0.12369382  1
  Fe  Fe54  1  0.75250239  0.49909758  0.75067697  1
  Fe  Fe55  1  0.25128002  0.25205419  -0.00015357  1
  Fe  Fe56  1  0.62651784  0.87510483  0.37555539  1
  Fe  Fe57  1  0.24636404  0.50111669  0.50379385  1
  Fe  Fe58  1  0.75372641  0.24931904  0.25077841  1
  Fe  Fe59  1  0.62393831  0.12713166  0.12404501  1
  Fe  Fe60  1  0.75235840  0.75224443  0.50187396  1
  Fe  Fe61  1  0.37499290  0.87551527  0.12554902  1
  Fe  Fe62  1  0.25066760  0.25100058  0.25146777  1
  Fe  Fe63  1  0.12580104  0.62259650  0.87550962  1
  Fe  Fe64  1  0.25061426  0.74480722  0.74715216  1
  Fe  Fe65  1  0.24795490  -0.00018970  -0.00222927  1
  Fe  Fe66  1  0.37359992  0.87362736  0.87288286  1
  Fe  Fe67  1  0.00385797  0.00002785  -0.00287343  1
  Fe  Fe68  1  -0.00156189  0.75089976  0.49928830  1
  Fe  Fe69  1  0.74957428  0.49718846  0.50123431  1
  Fe  Fe70  1  -0.00045093  0.24453384  0.49645625  1
  Fe  Fe71  1  0.75225200  0.74780328  0.75193872  1
  Fe  Fe72  1  0.75364598  0.75170511  0.24530199  1
  Fe  Fe73  1  -0.00164652  0.25149597  -0.00127852  1
  Fe  Fe74  1  -0.00336071  0.74764313  0.24464339  1
  Fe  Fe75  1  0.24816063  0.75038683  -0.00109503  1
  Fe  Fe76  1  0.74905980  0.49946689  0.24902452  1
  Fe  Fe77  1  0.37506341  0.87593225  0.37616736  1
  Fe  Fe78  1  0.37684446  0.37694713  0.37710672  1
  Fe  Fe79  1  0.25021809  0.49985972  0.25072171  1
  Fe  Fe80  1  0.12387000  0.37566851  0.87211646  1
  Fe  Fe81  1  0.49977225  0.00153368  0.74854981  1
  Fe  Fe82  1  0.49886881  0.74858082  0.25014575  1
  Fe  Fe83  1  0.87674544  0.62365568  0.62278614  1
  Fe  Fe84  1  0.12437977  0.12798793  0.12562978  1
  Fe  Fe85  1  0.50081187  0.00243460  0.25188150  1
  Fe  Fe86  1  0.00029385  0.50203937  0.24689500  1
  Fe  Fe87  1  -0.00173371  0.74497626  0.75343981  1
  Fe  Fe88  1  0.62377400  0.37396492  0.37566344  1
  Fe  Fe89  1  0.11961177  0.37716695  0.62637469  1
  Co  Co90  1  0.74669035  -0.00081117  0.24650602  1
  Co  Co91  1  0.50475276  0.50017024  0.49903688  1
  Co  Co92  1  0.87945475  0.87336389  0.62840276  1
  Co  Co93  1  0.87136172  0.62048605  0.11966576  1
  Co  Co94  1  0.37510735  0.62664293  0.87564049  1
  Co  Co95  1  0.00127379  0.74741663  0.00185923  1
  Co  Co96  1  0.74934930  0.75315556  0.00021526  1
  Co  Co97  1  0.62551648  0.37522123  0.62743777  1
  Co  Co98  1  0.00201095  0.00290903  0.50254697  1
  Co  Co99  1  0.12549766  0.12663346  0.62680865  1
  Co  Co100  1  0.87781973  0.87811635  0.12197696  1
  Co  Co101  1  -0.00246665  0.50259180  0.75229270  1
  Co  Co102  1  0.12405350  0.87204633  0.87140819  1
  Co  Co103  1  0.37973292  0.62161495  0.62466098  1
  Co  Co104  1  0.12621087  0.12651257  0.37274828  1
  Co  Co105  1  0.87270094  0.12746467  0.62252968  1
  Co  Co106  1  -0.00023435  0.50060902  0.49810032  1
  Co  Co107  1  0.74373292  0.49562889  -0.00116972  1
  Co  Co108  1  0.12889816  0.62435847  0.12566414  1
  Co  Co109  1  0.37569225  0.37472696  0.12753300  1
  Co  Co110  1  0.75384271  0.25488563  0.49754293  1
  Co  Co111  1  0.87280467  0.11925330  0.37325268  1
  Co  Co112  1  0.00516400  0.49890521  0.00216726  1
  Co  Co113  1  0.37292043  0.37138744  0.87081735  1
  Co  Co114  1  0.49903276  0.49871492  0.75540644  1
  Co  Co115  1  0.11953773  0.62473636  0.62398493  1
  Co  Co116  1  0.24752911  0.25484555  0.50222361  1
  Co  Co117  1  0.50101598  0.50111647  0.24941625  1
  Co  Co118  1  0.49939057  0.75127153  0.75002682  1
  Co  Co119  1  0.12702632  0.12923160  0.87500629  1
  Co  Co120  1  0.75211772  -0.00373389  0.50429327  1
  Co  Co121  1  0.49945883  0.25198461  -0.00179957  1
  Co  Co122  1  0.24924133  0.50223739  0.74751391  1
  Co  Co123  1  0.49983302  0.25029930  0.50120988  1
  Co  Co124  1  -0.00257460  0.25089158  0.25070895  1
  Co  Co125  1  0.87630640  0.37830996  0.87717058  1
  Co  Co126  1  0.00423550  0.00060889  0.24942544  1
  Co  Co127  1  0.87290302  0.12315731  0.87736593  1
