# generated using pymatgen
data_Fe45Co19
_symmetry_space_group_name_H-M   'P 1'
_cell_length_a   11.41375042
_cell_length_b   11.41499846
_cell_length_c   11.41457570
_cell_angle_alpha   89.99858823
_cell_angle_beta   90.00110585
_cell_angle_gamma   89.99428101
_symmetry_Int_Tables_number   1
_chemical_formula_structural   Fe45Co19
_chemical_formula_sum   'Fe90 Co38'
_cell_volume   1487.18158561
_cell_formula_units_Z   2
loop_
 _symmetry_equiv_pos_site_id
 _symmetry_equiv_pos_as_xyz
  1  'x, y, z'
loop_
 _atom_site_type_symbol
 _atom_site_label
 _atom_site_symmetry_multiplicity
 _atom_site_fract_x
 _atom_site_fract_y
 _atom_site_fract_z
 _atom_site_occupancy
  Fe  Fe0  1  0.62428465  0.37688247  0.87490544  1
  Fe  Fe1  1  0.00156702  0.25370864  -0.00010668  1
  Fe  Fe2  1  0.87523203  0.12415659  0.37644091  1
  Fe  Fe3  1  0.75035914  -0.00181013  0.49756863  1
  Fe  Fe4  1  0.25159766  0.74839290  0.25105395  1
  Fe  Fe5  1  0.25052605  0.25042525  0.50009597  1
  Fe  Fe6  1  0.12271288  0.62323492  0.87623994  1
  Fe  Fe7  1  -0.00062806  0.50013080  0.24837954  1
  Fe  Fe8  1  0.37492395  0.37291156  0.12649385  1
  Fe  Fe9  1  0.75018950  0.25154193  0.75114470  1
  Fe  Fe10  1  0.50146307  0.00041634  0.75003841  1
  Fe  Fe11  1  0.87537317  0.62702697  0.87349229  1
  Fe  Fe12  1  0.87358414  0.37648024  0.12550569  1
  Fe  Fe13  1  0.24816597  0.24883235  0.25242446  1
  Fe  Fe14  1  0.74828742  0.49951856  0.25313664  1
  Fe  Fe15  1  0.25082309  0.25175783  -0.00270252  1
  Fe  Fe16  1  0.49758906  0.00250386  0.00099772  1
  Fe  Fe17  1  -0.00402912  0.75129834  0.49944464  1
  Fe  Fe18  1  0.25165732  0.00188922  -0.00301838  1
  Fe  Fe19  1  0.62792143  0.12571070  0.62417188  1
  Fe  Fe20  1  0.74859585  0.75053481  0.25146633  1
  Fe  Fe21  1  0.12627437  0.12515945  0.12416065  1
  Fe  Fe22  1  0.25339732  0.74858462  0.49926991  1
  Fe  Fe23  1  0.12288980  0.37276008  0.62876066  1
  Fe  Fe24  1  0.24850437  0.49767669  -0.00002072  1
  Fe  Fe25  1  0.50328142  0.74666719  0.74788144  1
  Fe  Fe26  1  0.37793818  0.37717187  0.62466722  1
  Fe  Fe27  1  -0.00089079  -0.00021352  -0.00220622  1
  Fe  Fe28  1  0.24841601  0.49990295  0.75004414  1
  Fe  Fe29  1  0.37629445  0.87357633  0.87205675  1
  Fe  Fe30  1  0.75155337  0.50290836  -0.00185535  1
  Fe  Fe31  1  0.12324014  0.87374734  0.87419219  1
  Fe  Fe32  1  0.87318650  0.87391230  0.12207794  1
  Fe  Fe33  1  0.49934034  0.74871697  0.24877419  1
  Fe  Fe34  1  0.62560249  0.62321785  0.12548540  1
  Fe  Fe35  1  0.37314350  0.12430243  0.62895776  1
  Fe  Fe36  1  0.87140014  0.37796533  0.62699182  1
  Fe  Fe37  1  0.12195379  0.12279397  0.37860770  1
  Fe  Fe38  1  0.50512552  0.24852756  0.24544812  1
  Fe  Fe39  1  -0.00206672  0.50128832  0.50257607  1
  Fe  Fe40  1  -0.00080572  -0.00031004  0.24855493  1
  Fe  Fe41  1  0.12588730  0.62653431  0.62447025  1
  Fe  Fe42  1  -0.00072495  0.74809132  0.74920089  1
  Fe  Fe43  1  0.50038221  0.74813996  0.00105892  1
  Fe  Fe44  1  0.37879215  0.87622617  0.37664397  1
  Fe  Fe45  1  0.12385634  0.87558647  0.37586053  1
  Fe  Fe46  1  0.49986816  0.49944222  0.00350623  1
  Fe  Fe47  1  0.25002474  0.74899540  -0.00223688  1
  Fe  Fe48  1  0.87420150  0.12528056  0.87552860  1
  Fe  Fe49  1  0.50185611  0.24810855  0.50262276  1
  Fe  Fe50  1  0.37325312  0.87495136  0.12445138  1
  Fe  Fe51  1  0.74736244  0.00106973  0.25037505  1
  Fe  Fe52  1  0.87215713  0.87316299  0.62764738  1
  Fe  Fe53  1  0.87714830  0.37768186  0.87273921  1
  Fe  Fe54  1  0.12419779  0.62407647  0.12387747  1
  Fe  Fe55  1  0.37968140  0.62244860  0.37636213  1
  Fe  Fe56  1  0.87256864  0.62606965  0.37647107  1
  Fe  Fe57  1  0.25191375  0.50080436  0.24968032  1
  Fe  Fe58  1  0.62621504  0.87648196  0.12209515  1
  Fe  Fe59  1  0.12635646  0.87400720  0.62490687  1
  Fe  Fe60  1  0.62591508  0.87354299  0.87697834  1
  Fe  Fe61  1  0.87252800  0.12513227  0.12294384  1
  Fe  Fe62  1  0.63251316  0.62527864  0.62032153  1
  Fe  Fe63  1  0.62447253  0.12561200  0.87797249  1
  Fe  Fe64  1  0.37798171  0.37622750  0.87369944  1
  Fe  Fe65  1  0.25061287  0.49919740  0.50142187  1
  Fe  Fe66  1  0.37873164  0.37633832  0.37564070  1
  Fe  Fe67  1  0.62007881  0.87587230  0.37776691  1
  Fe  Fe68  1  0.62601769  0.87440543  0.62348216  1
  Fe  Fe69  1  0.25161530  0.00076714  0.25074368  1
  Fe  Fe70  1  -0.00136521  0.24943413  0.50309852  1
  Fe  Fe71  1  0.25063333  0.00058954  0.50166239  1
  Fe  Fe72  1  0.50114013  0.25007591  0.75064096  1
  Fe  Fe73  1  0.74918002  -0.00159089  0.75404099  1
  Fe  Fe74  1  0.87656540  0.37374775  0.37527555  1
  Fe  Fe75  1  0.37460194  0.87241872  0.62769758  1
  Fe  Fe76  1  0.12446228  0.62465243  0.37588233  1
  Fe  Fe77  1  0.37986132  0.12350716  0.37362639  1
  Fe  Fe78  1  0.12590114  0.87431731  0.12423897  1
  Fe  Fe79  1  0.74830505  0.25176030  -0.00015111  1
  Fe  Fe80  1  0.12676771  0.12922117  0.86919953  1
  Fe  Fe81  1  0.74702227  0.24865933  0.25087838  1
  Fe  Fe82  1  0.62246023  0.37582562  0.37803511  1
  Fe  Fe83  1  0.00098248  0.25013935  0.24848701  1
  Fe  Fe84  1  0.50476575  0.50220983  0.74575277  1
  Fe  Fe85  1  0.12388283  0.37638720  0.37498829  1
  Fe  Fe86  1  0.37685649  0.62431139  0.87326255  1
  Fe  Fe87  1  -0.00096332  0.75006004  0.24892926  1
  Fe  Fe88  1  0.87203544  0.12392500  0.62390840  1
  Fe  Fe89  1  0.00008138  0.00135434  0.74861817  1
  Co  Co90  1  0.12614906  0.37578095  0.12693799  1
  Co  Co91  1  0.25446296  0.25455610  0.74976678  1
  Co  Co92  1  0.37443280  0.12735550  0.12586766  1
  Co  Co93  1  0.62364989  0.62589851  0.37578563  1
  Co  Co94  1  0.87359238  0.62472056  0.12714946  1
  Co  Co95  1  0.62755207  0.37341447  0.62551820  1
  Co  Co96  1  0.75012418  0.49681915  0.49681441  1
  Co  Co97  1  0.62329148  0.12292041  0.37785418  1
  Co  Co98  1  0.74872581  0.50173315  0.75200914  1
  Co  Co99  1  0.74980363  0.74722806  -0.00109659  1
  Co  Co100  1  -0.00111576  -0.00181275  0.50348543  1
  Co  Co101  1  0.12699051  0.12753076  0.62644345  1
  Co  Co102  1  0.75186353  -0.00180616  -0.00339712  1
  Co  Co103  1  0.50149170  -0.00004532  0.24593737  1
  Co  Co104  1  0.62801197  0.37839194  0.12306942  1
  Co  Co105  1  0.75148070  0.75416088  0.49578126  1
  Co  Co106  1  0.49863700  0.00120037  0.50501893  1
  Co  Co107  1  0.50066329  0.25080996  0.00127768  1
  Co  Co108  1  0.49897905  0.74673269  0.50359882  1
  Co  Co109  1  -0.00111255  0.49812368  0.00095763  1
  Co  Co110  1  0.62269125  0.62388181  0.87723635  1
  Co  Co111  1  -0.00178031  0.74968898  0.00144342  1
  Co  Co112  1  0.24904336  -0.00215493  0.75077362  1
  Co  Co113  1  0.74641403  0.74934675  0.75323336  1
  Co  Co114  1  -0.00513893  0.24845449  0.74816887  1
  Co  Co115  1  0.50051940  0.49935829  0.24765386  1
  Co  Co116  1  0.12198864  0.37404271  0.87058894  1
  Co  Co117  1  0.37579344  0.12555541  0.87277210  1
  Co  Co118  1  0.62737830  0.12304205  0.11995092  1
  Co  Co119  1  0.37256311  0.62411158  0.62752340  1
  Co  Co120  1  0.75047335  0.25145098  0.49862160  1
  Co  Co121  1  0.87507712  0.87186814  0.87355133  1
  Co  Co122  1  0.87601558  0.87663409  0.37200331  1
  Co  Co123  1  0.24886605  0.74849790  0.75313968  1
  Co  Co124  1  0.50277202  0.50250602  0.50366692  1
  Co  Co125  1  0.86938265  0.62661514  0.62363761  1
  Co  Co126  1  0.37476332  0.62540249  0.12326303  1
  Co  Co127  1  -0.00111184  0.50354619  0.74808963  1
