# generated using pymatgen
data_Fe45Co19
_symmetry_space_group_name_H-M   'P 1'
_cell_length_a   11.41457312
_cell_length_b   11.41421425
_cell_length_c   11.41362882
_cell_angle_alpha   89.99064497
_cell_angle_beta   90.01031965
_cell_angle_gamma   90.00071370
_symmetry_Int_Tables_number   1
_chemical_formula_structural   Fe45Co19
_chemical_formula_sum   'Fe90 Co38'
_cell_volume   1487.06319998
_cell_formula_units_Z   2
loop_
 _symmetry_equiv_pos_site_id
 _symmetry_equiv_pos_as_xyz
  1  'x, y, z'
loop_
 _atom_site_type_symbol
 _atom_site_label
 _atom_site_symmetry_multiplicity
 _atom_site_fract_x
 _atom_site_fract_y
 _atom_site_fract_z
 _atom_site_occupancy
  Fe  Fe0  1  -0.00025686  0.00063470  0.50123820  1
  Fe  Fe1  1  0.50148132  0.24651589  0.50108932  1
  Fe  Fe2  1  0.25173916  0.49761152  0.75312735  1
  Fe  Fe3  1  0.49982667  0.00127212  0.00235488  1
  Fe  Fe4  1  0.12710109  0.62313130  0.87709297  1
  Fe  Fe5  1  0.87721968  0.62918602  0.87248913  1
  Fe  Fe6  1  0.37346190  0.87485788  0.62233823  1
  Fe  Fe7  1  0.62286473  0.12308736  0.87263272  1
  Fe  Fe8  1  0.75039240  0.00009601  0.25001673  1
  Fe  Fe9  1  -0.00160753  -0.00346776  0.74754756  1
  Fe  Fe10  1  0.37360828  0.62332392  0.37467080  1
  Fe  Fe11  1  0.87444619  0.87540210  0.12330229  1
  Fe  Fe12  1  0.87626564  0.87588566  0.37583572  1
  Fe  Fe13  1  0.49861620  0.24706246  -0.00108299  1
  Fe  Fe14  1  0.00111142  0.25320839  0.75203850  1
  Fe  Fe15  1  0.74698059  0.24558460  0.50012819  1
  Fe  Fe16  1  0.00311317  0.24987995  0.50109409  1
  Fe  Fe17  1  0.87513958  0.37479683  0.62360140  1
  Fe  Fe18  1  0.75116756  -0.00084874  -0.00160382  1
  Fe  Fe19  1  0.37449344  0.12454311  0.37376699  1
  Fe  Fe20  1  0.12660310  0.12657955  0.37131958  1
  Fe  Fe21  1  0.75036264  0.24959375  0.75249559  1
  Fe  Fe22  1  0.37384814  0.37684582  0.37914504  1
  Fe  Fe23  1  0.87914718  0.12189691  0.87679375  1
  Fe  Fe24  1  0.12751029  0.12527755  0.62959415  1
  Fe  Fe25  1  0.12648984  0.62413749  0.62601677  1
  Fe  Fe26  1  0.49930554  0.75078280  0.24687239  1
  Fe  Fe27  1  0.75095002  0.24874460  -0.00166869  1
  Fe  Fe28  1  0.74895103  0.74987872  0.25054803  1
  Fe  Fe29  1  0.37260189  0.37142930  0.11904857  1
  Fe  Fe30  1  0.00183897  0.49936865  0.50200271  1
  Fe  Fe31  1  0.36980805  0.12561817  0.12592390  1
  Fe  Fe32  1  0.87506887  0.12683127  0.62633671  1
  Fe  Fe33  1  0.75130106  0.50199653  0.00002875  1
  Fe  Fe34  1  0.50020442  0.74886550  0.49889973  1
  Fe  Fe35  1  0.12181926  0.87922944  0.87395720  1
  Fe  Fe36  1  0.24912548  0.00099484  0.49847910  1
  Fe  Fe37  1  0.75070446  0.50130841  0.75017340  1
  Fe  Fe38  1  0.62661391  0.12615323  0.12666960  1
  Fe  Fe39  1  0.24986641  0.49816528  0.24634131  1
  Fe  Fe40  1  0.87285139  0.86853173  0.62647950  1
  Fe  Fe41  1  0.37524341  0.87615470  0.37555128  1
  Fe  Fe42  1  0.24901040  0.74870999  0.49821175  1
  Fe  Fe43  1  0.24938392  0.75356300  0.24964908  1
  Fe  Fe44  1  0.62426823  0.37640737  0.37388796  1
  Fe  Fe45  1  0.87508017  0.62620185  0.12645704  1
  Fe  Fe46  1  0.37265432  0.12428674  0.62778393  1
  Fe  Fe47  1  0.87493215  0.37288781  0.12343507  1
  Fe  Fe48  1  0.62459058  0.62539597  0.62485588  1
  Fe  Fe49  1  0.87740857  0.37602835  0.87637654  1
  Fe  Fe50  1  0.62394001  0.87417208  0.12353815  1
  Fe  Fe51  1  0.49844238  0.25086819  0.24974468  1
  Fe  Fe52  1  0.62717887  0.87713811  0.62164887  1
  Fe  Fe53  1  0.00122361  0.50124644  0.00255493  1
  Fe  Fe54  1  0.62253374  0.37617445  0.87585919  1
  Fe  Fe55  1  0.49808161  -0.00048474  0.24813899  1
  Fe  Fe56  1  0.62461989  0.37516209  0.62621537  1
  Fe  Fe57  1  0.49890484  0.25123353  0.75040346  1
  Fe  Fe58  1  0.00056709  0.49479493  0.24908133  1
  Fe  Fe59  1  0.24897930  0.75256341  0.75187296  1
  Fe  Fe60  1  0.00213541  0.00269996  0.24628498  1
  Fe  Fe61  1  0.37604379  0.87374936  0.87913815  1
  Fe  Fe62  1  0.74806348  0.75112669  -0.00258587  1
  Fe  Fe63  1  0.24728302  0.00394032  -0.00175559  1
  Fe  Fe64  1  0.12774017  0.36850478  0.12006989  1
  Fe  Fe65  1  0.00037093  0.49991107  0.74846510  1
  Fe  Fe66  1  0.00295142  0.75148820  0.00061285  1
  Fe  Fe67  1  0.49724508  0.50407742  -0.00029068  1
  Fe  Fe68  1  0.75180063  -0.00222468  0.75155970  1
  Fe  Fe69  1  0.37063442  0.63042846  0.12041247  1
  Fe  Fe70  1  0.62498077  0.37708017  0.12337169  1
  Fe  Fe71  1  0.12617086  0.87494467  0.62296376  1
  Fe  Fe72  1  0.12820910  0.87631370  0.12669197  1
  Fe  Fe73  1  0.00020405  0.74798042  0.50077047  1
  Fe  Fe74  1  0.12791237  0.37337530  0.37695979  1
  Fe  Fe75  1  0.49735521  0.50046419  0.24608021  1
  Fe  Fe76  1  0.87609806  0.62326562  0.37333105  1
  Fe  Fe77  1  0.87559036  0.12586202  0.37365881  1
  Fe  Fe78  1  0.37518668  0.62385154  0.62545708  1
  Fe  Fe79  1  0.49854958  -0.00290830  0.74810705  1
  Fe  Fe80  1  0.12521473  0.62499707  0.37173336  1
  Fe  Fe81  1  0.75051006  0.50154658  0.50022013  1
  Fe  Fe82  1  0.62452377  0.62269552  0.37179089  1
  Fe  Fe83  1  0.50043556  0.75099430  0.75136225  1
  Fe  Fe84  1  0.00104474  0.75205715  0.24858519  1
  Fe  Fe85  1  0.24980508  0.25083457  0.75782686  1
  Fe  Fe86  1  0.37323121  0.37609764  0.62335793  1
  Fe  Fe87  1  0.62453857  0.87849462  0.37802486  1
  Fe  Fe88  1  0.62251640  0.62412301  0.87560510  1
  Fe  Fe89  1  0.75124786  0.25175721  0.25051914  1
  Co  Co90  1  0.24402731  0.75332342  -0.00166866  1
  Co  Co91  1  0.50231812  0.74867678  0.00047812  1
  Co  Co92  1  0.62653463  0.62418594  0.12530439  1
  Co  Co93  1  0.49884142  0.50047825  0.75057507  1
  Co  Co94  1  0.74517307  0.75020568  0.75299659  1
  Co  Co95  1  0.25041918  0.24460196  -0.01003299  1
  Co  Co96  1  0.37928693  0.12095681  0.87240393  1
  Co  Co97  1  0.37259015  0.62824339  0.87571044  1
  Co  Co98  1  0.24933200  -0.00252391  0.25133339  1
  Co  Co99  1  0.00197411  0.00089529  0.00581169  1
  Co  Co100  1  0.75326946  0.00216955  0.50125690  1
  Co  Co101  1  0.62498075  0.12180167  0.62962691  1
  Co  Co102  1  0.12986985  0.13087927  0.12803832  1
  Co  Co103  1  0.00025267  0.24573363  -0.00000883  1
  Co  Co104  1  0.49778043  0.00352020  0.50115375  1
  Co  Co105  1  0.87893804  0.87265422  0.87465120  1
  Co  Co106  1  0.24817486  0.50234189  0.50041422  1
  Co  Co107  1  0.87494057  0.62735762  0.62727468  1
  Co  Co108  1  -0.00151737  0.25211873  0.24997630  1
  Co  Co109  1  0.50063838  0.50047224  0.50042907  1
  Co  Co110  1  0.12529692  0.62566223  0.12699771  1
  Co  Co111  1  0.11912679  0.12145483  0.87120417  1
  Co  Co112  1  0.75246502  0.49801566  0.24899888  1
  Co  Co113  1  0.87427270  0.37353592  0.37980136  1
  Co  Co114  1  0.00547634  0.74944299  0.75013005  1
  Co  Co115  1  0.75004142  0.74852411  0.49713278  1
  Co  Co116  1  0.12819468  0.37354163  0.62647031  1
  Co  Co117  1  0.25120240  -0.00267256  0.75180105  1
  Co  Co118  1  0.37756021  0.37704026  0.87789677  1
  Co  Co119  1  0.25024251  0.24694076  0.50057763  1
  Co  Co120  1  0.37329638  0.87487612  0.12137768  1
  Co  Co121  1  0.25032428  0.49983994  0.00092249  1
  Co  Co122  1  0.12280679  0.87446504  0.37589419  1
  Co  Co123  1  0.62439330  0.12299161  0.37218384  1
  Co  Co124  1  0.87297188  0.12590263  0.12549665  1
  Co  Co125  1  0.62160803  0.87804170  0.87616279  1
  Co  Co126  1  0.25348022  0.25340492  0.25158931  1
  Co  Co127  1  0.12264248  0.37687394  0.87890745  1
