# generated using pymatgen
data_Fe45Co19
_symmetry_space_group_name_H-M   'P 1'
_cell_length_a   11.41487903
_cell_length_b   11.41555776
_cell_length_c   11.41510733
_cell_angle_alpha   90.01172038
_cell_angle_beta   89.99658669
_cell_angle_gamma   90.00542865
_symmetry_Int_Tables_number   1
_chemical_formula_structural   Fe45Co19
_chemical_formula_sum   'Fe90 Co38'
_cell_volume   1487.47075685
_cell_formula_units_Z   2
loop_
 _symmetry_equiv_pos_site_id
 _symmetry_equiv_pos_as_xyz
  1  'x, y, z'
loop_
 _atom_site_type_symbol
 _atom_site_label
 _atom_site_symmetry_multiplicity
 _atom_site_fract_x
 _atom_site_fract_y
 _atom_site_fract_z
 _atom_site_occupancy
  Fe  Fe0  1  0.75152109  -0.00003362  0.25017263  1
  Fe  Fe1  1  0.50350804  0.25334187  0.25070948  1
  Fe  Fe2  1  0.62543489  0.87883128  0.87123205  1
  Fe  Fe3  1  0.00012533  0.00190840  0.49818358  1
  Fe  Fe4  1  0.12501666  0.12706752  0.87782885  1
  Fe  Fe5  1  0.24964256  0.00127052  0.00222259  1
  Fe  Fe6  1  0.87392540  0.62590317  0.62709409  1
  Fe  Fe7  1  0.62399752  0.62473257  0.12477501  1
  Fe  Fe8  1  -0.00036442  0.75058808  0.00142262  1
  Fe  Fe9  1  0.62699422  0.37698434  0.87482563  1
  Fe  Fe10  1  0.50122367  0.49856975  0.49936944  1
  Fe  Fe11  1  0.37539511  0.87372797  0.12510303  1
  Fe  Fe12  1  0.63016542  0.37899370  0.62492953  1
  Fe  Fe13  1  0.37512752  0.62550667  0.12718165  1
  Fe  Fe14  1  0.87402111  0.37553926  0.87486808  1
  Fe  Fe15  1  0.00050201  0.74691067  0.49633539  1
  Fe  Fe16  1  0.87352258  0.87404774  0.87450289  1
  Fe  Fe17  1  0.25047943  0.74992466  0.50016329  1
  Fe  Fe18  1  0.24741110  -0.00082721  0.24915406  1
  Fe  Fe19  1  0.74967696  0.74855616  0.50076032  1
  Fe  Fe20  1  0.50211153  0.49755555  0.25154492  1
  Fe  Fe21  1  0.74915676  0.75089404  0.25000691  1
  Fe  Fe22  1  0.12269751  0.37224330  0.12297588  1
  Fe  Fe23  1  0.24848033  0.49531560  0.49777716  1
  Fe  Fe24  1  0.12610633  0.87243955  0.87676227  1
  Fe  Fe25  1  0.74852168  0.75062192  -0.00053381  1
  Fe  Fe26  1  0.62627929  0.12304569  0.62857095  1
  Fe  Fe27  1  0.37412126  0.37482536  0.87396005  1
  Fe  Fe28  1  0.87379117  0.37547960  0.62473091  1
  Fe  Fe29  1  0.37355621  0.12651495  0.62421703  1
  Fe  Fe30  1  -0.00004162  0.50089665  0.75138026  1
  Fe  Fe31  1  0.49962496  0.49954348  0.00003275  1
  Fe  Fe32  1  0.62570235  0.62457601  0.37599647  1
  Fe  Fe33  1  0.50099049  0.24961450  -0.00125019  1
  Fe  Fe34  1  0.24994112  0.00015729  0.74906607  1
  Fe  Fe35  1  0.87580030  0.12537300  0.62570672  1
  Fe  Fe36  1  0.24989718  0.00158730  0.50016401  1
  Fe  Fe37  1  0.87390729  0.12303944  0.12396562  1
  Fe  Fe38  1  0.37389971  0.37415969  0.62422132  1
  Fe  Fe39  1  0.24931686  0.74854361  0.74976369  1
  Fe  Fe40  1  0.62564697  0.12490476  0.12471048  1
  Fe  Fe41  1  0.87531958  0.62691708  0.12811261  1
  Fe  Fe42  1  0.49912997  0.00019745  0.50063790  1
  Fe  Fe43  1  0.87700242  0.87391205  0.37303341  1
  Fe  Fe44  1  0.12426579  0.37423806  0.87702448  1
  Fe  Fe45  1  0.24824478  0.75140686  0.25161668  1
  Fe  Fe46  1  0.00265430  -0.00095817  0.24812154  1
  Fe  Fe47  1  0.24936927  0.50018734  0.00047061  1
  Fe  Fe48  1  0.37507360  0.87553441  0.37574044  1
  Fe  Fe49  1  0.24806768  0.50005985  0.75100638  1
  Fe  Fe50  1  0.74889160  0.49791434  0.25158061  1
  Fe  Fe51  1  0.62326797  0.87515351  0.62753583  1
  Fe  Fe52  1  0.87221570  0.12334809  0.87525144  1
  Fe  Fe53  1  0.87602070  0.87260569  0.62645623  1
  Fe  Fe54  1  0.00039797  -0.00103432  0.75102090  1
  Fe  Fe55  1  0.62798795  0.12672647  0.37441826  1
  Fe  Fe56  1  0.37526843  0.87517312  0.87345798  1
  Fe  Fe57  1  -0.00229974  0.50153576  0.49644657  1
  Fe  Fe58  1  0.50255416  0.25135900  0.50025204  1
  Fe  Fe59  1  0.37374464  0.12880798  0.37641014  1
  Fe  Fe60  1  0.62391487  0.87573279  0.12631795  1
  Fe  Fe61  1  0.87162016  0.37146023  0.37683534  1
  Fe  Fe62  1  0.50043669  0.75067638  -0.00110043  1
  Fe  Fe63  1  0.12384892  0.62290119  0.62455363  1
  Fe  Fe64  1  0.37691943  0.62328940  0.62643413  1
  Fe  Fe65  1  0.62414593  0.87531629  0.37490650  1
  Fe  Fe66  1  0.00385095  0.24806005  0.50047519  1
  Fe  Fe67  1  0.12578032  0.62685503  0.12467743  1
  Fe  Fe68  1  0.49862315  0.74947725  0.50039274  1
  Fe  Fe69  1  -0.00163912  0.24778611  0.24974863  1
  Fe  Fe70  1  0.37305541  0.62183086  0.37290736  1
  Fe  Fe71  1  0.87447807  0.37607061  0.12412097  1
  Fe  Fe72  1  0.37484516  0.12642343  0.87395504  1
  Fe  Fe73  1  0.37434614  0.12684611  0.12595910  1
  Fe  Fe74  1  0.37611783  0.37529078  0.12538810  1
  Fe  Fe75  1  0.00024457  0.50119126  -0.00020447  1
  Fe  Fe76  1  0.87622323  0.62767973  0.87315026  1
  Fe  Fe77  1  0.00062714  0.25013956  0.75031279  1
  Fe  Fe78  1  0.49996406  0.00172376  -0.00072137  1
  Fe  Fe79  1  0.37764330  0.62403689  0.87319659  1
  Fe  Fe80  1  0.74993609  0.24927334  0.00026865  1
  Fe  Fe81  1  0.49907083  0.00049349  0.25113466  1
  Fe  Fe82  1  0.24899108  0.25306327  0.25170121  1
  Fe  Fe83  1  0.00069636  0.50186306  0.25255155  1
  Fe  Fe84  1  0.12447380  0.87516335  0.62358663  1
  Fe  Fe85  1  0.75086671  0.50310495  -0.00136647  1
  Fe  Fe86  1  0.50243045  0.25094757  0.75010573  1
  Fe  Fe87  1  0.24631052  0.25079400  0.74757130  1
  Fe  Fe88  1  0.75173899  0.00031950  0.50031637  1
  Fe  Fe89  1  0.00104725  -0.00073152  0.00253065  1
  Co  Co90  1  0.25215022  0.25133447  0.00072770  1
  Co  Co91  1  0.12194051  0.37447571  0.37466820  1
  Co  Co92  1  0.74944903  -0.00169323  0.00153249  1
  Co  Co93  1  0.87535602  0.87318083  0.12668141  1
  Co  Co94  1  0.87446950  0.12580236  0.37517968  1
  Co  Co95  1  0.12824022  0.62323068  0.37519226  1
  Co  Co96  1  0.62660688  0.12285537  0.87321628  1
  Co  Co97  1  0.12343444  0.62561854  0.87566754  1
  Co  Co98  1  0.12557602  0.12849679  0.12388691  1
  Co  Co99  1  0.74825899  0.74873741  0.75024730  1
  Co  Co100  1  0.00240776  0.75038420  0.74925031  1
  Co  Co101  1  0.12431066  0.12217595  0.62570965  1
  Co  Co102  1  0.12618679  0.87167593  0.12213375  1
  Co  Co103  1  0.75006603  0.25033581  0.24672930  1
  Co  Co104  1  0.12205163  0.37857154  0.62515956  1
  Co  Co105  1  0.75335590  -0.00077871  0.74722703  1
  Co  Co106  1  0.62169077  0.62329634  0.87380791  1
  Co  Co107  1  0.25321232  0.74761825  -0.00171907  1
  Co  Co108  1  0.12417394  0.87588143  0.37824326  1
  Co  Co109  1  0.49690425  0.00145445  0.74898428  1
  Co  Co110  1  0.62947817  0.37377944  0.37795586  1
  Co  Co111  1  0.24546688  0.25189292  0.50108370  1
  Co  Co112  1  0.24780701  0.49645190  0.24780316  1
  Co  Co113  1  0.00370126  0.75002587  0.25204670  1
  Co  Co114  1  0.62619991  0.37670163  0.12159187  1
  Co  Co115  1  0.37453279  0.87526494  0.62532953  1
  Co  Co116  1  0.37588392  0.37408904  0.37593523  1
  Co  Co117  1  0.87263177  0.62688736  0.37124142  1
  Co  Co118  1  -0.00392913  0.24927365  -0.00053787  1
  Co  Co119  1  0.75169257  0.50329230  0.75121282  1
  Co  Co120  1  0.49927241  0.74964358  0.25194683  1
  Co  Co121  1  0.74960666  0.24660146  0.50320374  1
  Co  Co122  1  0.75270826  0.50343974  0.49927439  1
  Co  Co123  1  0.75076476  0.25011056  0.74984124  1
  Co  Co124  1  0.50055699  0.49736650  0.74862831  1
  Co  Co125  1  0.62350023  0.62370777  0.62534029  1
  Co  Co126  1  0.12587393  0.12510427  0.37360793  1
  Co  Co127  1  0.49979077  0.75067493  0.74906559  1
