# generated using pymatgen
data_Fe45Co19
_symmetry_space_group_name_H-M   'P 1'
_cell_length_a   11.41399017
_cell_length_b   11.41441305
_cell_length_c   11.41515582
_cell_angle_alpha   89.99649986
_cell_angle_beta   90.00617715
_cell_angle_gamma   89.98407499
_symmetry_Int_Tables_number   1
_chemical_formula_structural   Fe45Co19
_chemical_formula_sum   'Fe90 Co38'
_cell_volume   1487.21207288
_cell_formula_units_Z   2
loop_
 _symmetry_equiv_pos_site_id
 _symmetry_equiv_pos_as_xyz
  1  'x, y, z'
loop_
 _atom_site_type_symbol
 _atom_site_label
 _atom_site_symmetry_multiplicity
 _atom_site_fract_x
 _atom_site_fract_y
 _atom_site_fract_z
 _atom_site_occupancy
  Fe  Fe0  1  0.00154064  -0.00221508  0.25013268  1
  Fe  Fe1  1  0.50077294  0.49997676  0.75002295  1
  Fe  Fe2  1  0.00330172  -0.00097027  0.50053571  1
  Fe  Fe3  1  0.49585965  0.00524639  0.25102628  1
  Fe  Fe4  1  0.12458878  0.12898562  0.62833734  1
  Fe  Fe5  1  0.62313285  0.62683229  0.12572564  1
  Fe  Fe6  1  0.75162822  0.74755569  0.50129023  1
  Fe  Fe7  1  0.74711271  0.00168778  0.49925228  1
  Fe  Fe8  1  0.00381747  0.49672772  0.49769200  1
  Fe  Fe9  1  0.75330064  0.24899882  0.75033700  1
  Fe  Fe10  1  0.00049062  0.49977784  0.24931833  1
  Fe  Fe11  1  -0.00191808  0.25153116  0.24921835  1
  Fe  Fe12  1  0.49888612  0.25062206  0.49946063  1
  Fe  Fe13  1  0.37618343  0.62126178  0.62366394  1
  Fe  Fe14  1  0.12240615  0.12754403  0.87349021  1
  Fe  Fe15  1  0.87501652  0.62699398  0.87548807  1
  Fe  Fe16  1  0.12574974  0.12807946  0.37352835  1
  Fe  Fe17  1  0.62667615  0.37386849  0.87366870  1
  Fe  Fe18  1  0.12316340  0.62685278  0.62340805  1
  Fe  Fe19  1  0.12708845  0.62691528  0.37567472  1
  Fe  Fe20  1  0.87745782  0.37544675  0.62337883  1
  Fe  Fe21  1  0.49533307  0.74915839  0.49643294  1
  Fe  Fe22  1  0.74667310  0.50071477  0.50157623  1
  Fe  Fe23  1  0.62191393  0.87599700  0.37446835  1
  Fe  Fe24  1  0.12640645  0.87362821  0.12661240  1
  Fe  Fe25  1  0.25120823  0.74995185  0.74694136  1
  Fe  Fe26  1  0.00044302  0.75168648  0.00086220  1
  Fe  Fe27  1  0.25459353  0.74914561  0.25174664  1
  Fe  Fe28  1  0.49775959  0.75017804  0.75064543  1
  Fe  Fe29  1  0.37445627  0.12488499  0.62429370  1
  Fe  Fe30  1  0.24792207  0.25388769  0.50173540  1
  Fe  Fe31  1  0.49966985  0.75213270  0.00010007  1
  Fe  Fe32  1  0.12817084  0.87214641  0.37777044  1
  Fe  Fe33  1  0.37601607  0.37722062  0.37459619  1
  Fe  Fe34  1  0.74981785  0.24781726  0.00201151  1
  Fe  Fe35  1  -0.00289974  0.75345444  0.74493875  1
  Fe  Fe36  1  0.62357728  0.37250523  0.37138842  1
  Fe  Fe37  1  0.12468584  0.37379232  0.12512696  1
  Fe  Fe38  1  0.62804218  0.87335223  0.87418103  1
  Fe  Fe39  1  0.24508734  0.50455789  -0.00025120  1
  Fe  Fe40  1  0.37568207  0.37302338  0.12220263  1
  Fe  Fe41  1  0.25002275  0.50082776  0.24777223  1
  Fe  Fe42  1  0.87575972  0.62416956  0.37631623  1
  Fe  Fe43  1  0.24783820  0.00003964  0.50087773  1
  Fe  Fe44  1  0.75070502  0.00010867  0.74975238  1
  Fe  Fe45  1  0.62410397  0.87357398  0.62358139  1
  Fe  Fe46  1  0.24646063  0.49801877  0.74991731  1
  Fe  Fe47  1  0.37683714  0.12304646  0.87879723  1
  Fe  Fe48  1  0.37302978  0.62464904  0.87618469  1
  Fe  Fe49  1  0.37648151  0.62567337  0.12495161  1
  Fe  Fe50  1  0.87428272  0.37458802  0.37469218  1
  Fe  Fe51  1  0.50009611  0.00003069  0.75153992  1
  Fe  Fe52  1  0.87724391  0.12323742  0.87748184  1
  Fe  Fe53  1  0.37256553  0.37681738  0.87625543  1
  Fe  Fe54  1  0.87543707  0.62604332  0.12491124  1
  Fe  Fe55  1  -0.00101370  0.75103269  0.25195256  1
  Fe  Fe56  1  0.74981074  0.50153704  0.74761729  1
  Fe  Fe57  1  0.75000701  0.75045777  0.24990934  1
  Fe  Fe58  1  0.62387509  0.12764181  0.37280989  1
  Fe  Fe59  1  0.75113567  0.24953792  0.49945907  1
  Fe  Fe60  1  0.87568561  0.37469749  0.87884804  1
  Fe  Fe61  1  0.87723407  0.12478764  0.37618584  1
  Fe  Fe62  1  0.37417619  0.87870254  0.62344522  1
  Fe  Fe63  1  0.74909740  -0.00092867  0.00124448  1
  Fe  Fe64  1  0.62353358  0.37374367  0.62654497  1
  Fe  Fe65  1  0.25397361  0.24725382  0.24845721  1
  Fe  Fe66  1  0.75063726  0.00222705  0.24961425  1
  Fe  Fe67  1  0.87700232  0.12427767  0.62302732  1
  Fe  Fe68  1  0.75353911  0.74852327  0.74571952  1
  Fe  Fe69  1  0.87863402  0.12245902  0.12402319  1
  Fe  Fe70  1  0.50174163  0.49882092  0.00067912  1
  Fe  Fe71  1  0.00392714  0.50142791  -0.00051160  1
  Fe  Fe72  1  0.00026801  -0.00258149  0.74955471  1
  Fe  Fe73  1  0.49726666  0.24984811  0.75315413  1
  Fe  Fe74  1  0.74854506  0.50059970  0.00179095  1
  Fe  Fe75  1  0.00191160  0.49784956  0.75321733  1
  Fe  Fe76  1  0.62588339  0.62659574  0.87451616  1
  Fe  Fe77  1  0.62432845  0.36896967  0.12839456  1
  Fe  Fe78  1  0.24711599  0.24786588  -0.00028764  1
  Fe  Fe79  1  0.24555967  0.00069091  -0.00020361  1
  Fe  Fe80  1  0.37476317  0.87737330  0.12416069  1
  Fe  Fe81  1  0.62076226  0.62373674  0.37343239  1
  Fe  Fe82  1  0.25171349  0.00369086  0.24921109  1
  Fe  Fe83  1  0.24803066  0.49739210  0.50113289  1
  Fe  Fe84  1  0.37207669  0.87563582  0.87660508  1
  Fe  Fe85  1  0.87418049  0.87606030  0.37682924  1
  Fe  Fe86  1  0.12625831  0.87219812  0.87294327  1
  Fe  Fe87  1  0.62397147  0.87605238  0.12727617  1
  Fe  Fe88  1  0.74965112  0.49876142  0.24882943  1
  Fe  Fe89  1  0.62391807  0.12607647  0.62690640  1
  Co  Co90  1  0.75473239  0.24756219  0.24893277  1
  Co  Co91  1  0.12688234  0.37317257  0.36961791  1
  Co  Co92  1  0.37714395  0.12421252  0.11800746  1
  Co  Co93  1  0.50014233  0.49807966  0.24665029  1
  Co  Co94  1  0.25370746  0.25002172  0.75154173  1
  Co  Co95  1  0.37520263  0.61886450  0.37367716  1
  Co  Co96  1  0.12627375  0.37143708  0.87545104  1
  Co  Co97  1  0.12850662  0.87429559  0.62408847  1
  Co  Co98  1  0.62585364  0.12439988  0.87454911  1
  Co  Co99  1  0.50190507  0.49884012  0.50043525  1
  Co  Co100  1  0.49700325  0.75114899  0.25090439  1
  Co  Co101  1  0.50325478  -0.00335073  -0.00182395  1
  Co  Co102  1  0.87390209  0.87456460  0.87620567  1
  Co  Co103  1  -0.00191180  0.75190641  0.50133774  1
  Co  Co104  1  0.37190682  0.12472495  0.38082444  1
  Co  Co105  1  0.74933401  0.75040710  0.00233646  1
  Co  Co106  1  0.12323585  0.12558193  0.12759204  1
  Co  Co107  1  0.50249170  0.25204114  -0.00291220  1
  Co  Co108  1  0.00150588  0.25097883  0.49839576  1
  Co  Co109  1  0.37603397  0.37598972  0.62593561  1
  Co  Co110  1  0.12417596  0.62794255  0.12814597  1
  Co  Co111  1  0.00375391  -0.00336279  -0.00008283  1
  Co  Co112  1  0.24964833  0.00159401  0.75154389  1
  Co  Co113  1  0.87497957  0.87526699  0.12566726  1
  Co  Co114  1  0.12282142  0.37181021  0.62940387  1
  Co  Co115  1  0.87893258  0.62022614  0.62366032  1
  Co  Co116  1  0.49373324  0.24627963  0.25100467  1
  Co  Co117  1  0.62172654  0.62714940  0.62517920  1
  Co  Co118  1  0.87226629  0.87946585  0.62101540  1
  Co  Co119  1  0.37393347  0.87997214  0.37545508  1
  Co  Co120  1  0.50151120  0.00151386  0.50026788  1
  Co  Co121  1  0.25521746  0.74874535  0.49976957  1
  Co  Co122  1  0.62236712  0.12615406  0.12554412  1
  Co  Co123  1  0.24992720  0.74881747  0.00170631  1
  Co  Co124  1  0.00071123  0.25051881  0.00198885  1
  Co  Co125  1  0.12464016  0.63050961  0.87169114  1
  Co  Co126  1  -0.00415455  0.25094946  0.75155514  1
  Co  Co127  1  0.87582200  0.37677443  0.12318684  1
