# generated using pymatgen
data_Fe45Co19
_symmetry_space_group_name_H-M   'P 1'
_cell_length_a   11.41444829
_cell_length_b   11.41575884
_cell_length_c   11.41344788
_cell_angle_alpha   90.00284692
_cell_angle_beta   90.00104493
_cell_angle_gamma   90.00640771
_symmetry_Int_Tables_number   1
_chemical_formula_structural   Fe45Co19
_chemical_formula_sum   'Fe90 Co38'
_cell_volume   1487.22462227
_cell_formula_units_Z   2
loop_
 _symmetry_equiv_pos_site_id
 _symmetry_equiv_pos_as_xyz
  1  'x, y, z'
loop_
 _atom_site_type_symbol
 _atom_site_label
 _atom_site_symmetry_multiplicity
 _atom_site_fract_x
 _atom_site_fract_y
 _atom_site_fract_z
 _atom_site_occupancy
  Fe  Fe0  1  0.37525087  0.37517016  0.37520471  1
  Fe  Fe1  1  0.37292078  0.87545619  0.37435538  1
  Fe  Fe2  1  0.24939441  0.25034997  0.50014816  1
  Fe  Fe3  1  0.50021924  0.50216189  0.74999543  1
  Fe  Fe4  1  0.87405605  0.12827441  0.37297381  1
  Fe  Fe5  1  0.75290073  0.49937341  0.00065914  1
  Fe  Fe6  1  0.00031860  0.25100963  0.49806098  1
  Fe  Fe7  1  0.87844612  0.62499161  0.36859650  1
  Fe  Fe8  1  -0.00108945  0.00044006  0.75122760  1
  Fe  Fe9  1  0.87828168  0.37353998  0.12240043  1
  Fe  Fe10  1  0.62729655  0.62572160  0.87569643  1
  Fe  Fe11  1  0.12315386  0.37085015  0.12333883  1
  Fe  Fe12  1  0.49910659  0.74847694  0.74780450  1
  Fe  Fe13  1  0.49814200  0.50503174  0.50107085  1
  Fe  Fe14  1  -0.00212897  0.74852343  0.00358076  1
  Fe  Fe15  1  0.24441791  0.75066735  0.24960023  1
  Fe  Fe16  1  -0.00226935  0.25187212  0.75015993  1
  Fe  Fe17  1  0.50058346  -0.00211601  0.49791125  1
  Fe  Fe18  1  0.00123863  0.49748255  0.75372004  1
  Fe  Fe19  1  0.12511907  0.62334282  0.62339830  1
  Fe  Fe20  1  0.62854776  0.87280570  0.87537580  1
  Fe  Fe21  1  0.12716239  0.37581155  0.37461894  1
  Fe  Fe22  1  0.24909545  0.74813403  0.49970133  1
  Fe  Fe23  1  0.62797446  0.12284772  0.62608114  1
  Fe  Fe24  1  0.75117167  0.50050580  0.74853328  1
  Fe  Fe25  1  0.75127746  0.00200902  0.00132964  1
  Fe  Fe26  1  0.11995158  0.62204820  0.12784028  1
  Fe  Fe27  1  0.62744579  0.62919553  0.37666455  1
  Fe  Fe28  1  0.49847714  0.50087240  0.24862794  1
  Fe  Fe29  1  0.50255053  0.75230009  0.25177066  1
  Fe  Fe30  1  0.37330491  0.87453249  0.62495254  1
  Fe  Fe31  1  0.50101528  0.24807613  0.50011465  1
  Fe  Fe32  1  0.12481835  0.12541973  0.37190910  1
  Fe  Fe33  1  0.25036581  0.25050797  0.74884608  1
  Fe  Fe34  1  0.62561440  0.37616714  0.37645221  1
  Fe  Fe35  1  0.87264735  0.87193235  0.36935088  1
  Fe  Fe36  1  0.37502646  0.12400853  0.62659170  1
  Fe  Fe37  1  0.62639986  0.12340627  0.37226196  1
  Fe  Fe38  1  0.25039483  0.24384044  0.00240690  1
  Fe  Fe39  1  0.62747823  0.37376862  0.87667029  1
  Fe  Fe40  1  0.37463123  0.87566715  0.12545483  1
  Fe  Fe41  1  0.62826075  0.87013025  0.61994447  1
  Fe  Fe42  1  0.62815564  0.12629187  0.87268039  1
  Fe  Fe43  1  0.50050401  0.74950400  0.00164774  1
  Fe  Fe44  1  0.24692031  -0.00209697  0.75216323  1
  Fe  Fe45  1  0.25015946  0.50181416  0.00289046  1
  Fe  Fe46  1  0.12265562  0.87617640  0.62274571  1
  Fe  Fe47  1  0.87595328  0.37606536  0.62285204  1
  Fe  Fe48  1  0.49906355  0.25041573  0.24985767  1
  Fe  Fe49  1  0.12054570  0.88012206  0.12359155  1
  Fe  Fe50  1  0.24759397  0.00397019  -0.00085465  1
  Fe  Fe51  1  0.75388986  0.74928584  0.00545473  1
  Fe  Fe52  1  -0.00041345  0.00589735  -0.00164266  1
  Fe  Fe53  1  0.24795732  0.00130628  0.24906113  1
  Fe  Fe54  1  0.00006282  0.75016456  0.49671553  1
  Fe  Fe55  1  0.00164568  0.49871814  0.49686618  1
  Fe  Fe56  1  0.75167847  0.49744582  0.24961944  1
  Fe  Fe57  1  0.75215814  0.50517447  0.50123639  1
  Fe  Fe58  1  0.24820198  0.49859010  0.74943556  1
  Fe  Fe59  1  0.12508524  0.62651954  0.87663517  1
  Fe  Fe60  1  0.50102915  0.25047207  0.74944703  1
  Fe  Fe61  1  0.00140018  0.75079642  0.75040152  1
  Fe  Fe62  1  0.62710373  0.87758348  0.12734285  1
  Fe  Fe63  1  0.62350539  0.37507635  0.12419334  1
  Fe  Fe64  1  0.12473856  0.37138768  0.87849699  1
  Fe  Fe65  1  0.37487197  0.37599683  0.62308437  1
  Fe  Fe66  1  0.24864316  0.00179326  0.49994359  1
  Fe  Fe67  1  0.12227966  0.12575134  0.62522802  1
  Fe  Fe68  1  0.62494279  0.37799105  0.62271299  1
  Fe  Fe69  1  0.49866514  0.24740503  0.00063243  1
  Fe  Fe70  1  -0.00186025  -0.00025020  0.49640168  1
  Fe  Fe71  1  0.37480918  0.12500344  0.37302587  1
  Fe  Fe72  1  0.49952243  0.00071595  -0.00092120  1
  Fe  Fe73  1  0.37327402  0.87422384  0.87540933  1
  Fe  Fe74  1  0.37218545  0.62497185  0.37324432  1
  Fe  Fe75  1  0.25014784  0.49827244  0.24786822  1
  Fe  Fe76  1  0.49678803  0.50247546  0.00064416  1
  Fe  Fe77  1  0.87006599  0.12840046  0.87097552  1
  Fe  Fe78  1  0.75319381  -0.00138018  0.49979219  1
  Fe  Fe79  1  0.24705816  0.75064150  0.00193648  1
  Fe  Fe80  1  0.50265529  -0.00244520  0.75007159  1
  Fe  Fe81  1  0.37214034  0.62747342  0.87483511  1
  Fe  Fe82  1  0.37430817  0.37382094  0.87787831  1
  Fe  Fe83  1  0.87553851  0.87525218  0.87663943  1
  Fe  Fe84  1  0.75430566  0.74894278  0.74646201  1
  Fe  Fe85  1  0.74921878  0.24970874  0.50101745  1
  Fe  Fe86  1  0.62570778  0.62346841  0.12485130  1
  Fe  Fe87  1  0.87565013  0.62365682  0.87612647  1
  Fe  Fe88  1  0.87782910  0.12717588  0.13044514  1
  Fe  Fe89  1  0.62459034  0.12444004  0.12810943  1
  Co  Co90  1  0.87720048  0.87861403  0.12562662  1
  Co  Co91  1  0.24580434  0.75252189  0.74953160  1
  Co  Co92  1  0.62503777  0.62817712  0.62319622  1
  Co  Co93  1  0.87823487  0.62125137  0.12857706  1
  Co  Co94  1  -0.00015112  -0.00136334  0.25420505  1
  Co  Co95  1  0.12060487  0.12673112  0.13005332  1
  Co  Co96  1  0.75040543  0.24890514  0.00381543  1
  Co  Co97  1  0.25037154  0.25079177  0.25014622  1
  Co  Co98  1  0.87596424  0.12550053  0.62444808  1
  Co  Co99  1  0.74987697  0.74912189  0.24492567  1
  Co  Co100  1  0.75001672  0.25322649  0.24977292  1
  Co  Co101  1  0.75141739  0.00067702  0.25017466  1
  Co  Co102  1  0.62995119  0.87215602  0.37788039  1
  Co  Co103  1  -0.00108042  0.25499684  0.25449420  1
  Co  Co104  1  0.49525744  0.74950893  0.49855779  1
  Co  Co105  1  0.37484615  0.62870385  0.12721476  1
  Co  Co106  1  -0.00117964  0.24574769  -0.00237540  1
  Co  Co107  1  0.88190103  0.62218479  0.62586014  1
  Co  Co108  1  0.00000499  0.49302596  0.25152590  1
  Co  Co109  1  0.37548843  0.12346818  0.87269024  1
  Co  Co110  1  0.00049261  0.49943689  -0.00215779  1
  Co  Co111  1  0.87136435  0.37544105  0.37925636  1
  Co  Co112  1  0.37607277  0.12304157  0.12759960  1
  Co  Co113  1  0.12503704  0.12726538  0.87133406  1
  Co  Co114  1  0.12326935  0.62288422  0.37377837  1
  Co  Co115  1  0.74963632  0.25387217  0.74577237  1
  Co  Co116  1  0.50052892  -0.00313772  0.25279801  1
  Co  Co117  1  0.00264457  0.75307644  0.24820273  1
  Co  Co118  1  0.87331194  0.37332817  0.87663908  1
  Co  Co119  1  0.12303850  0.37471242  0.62418715  1
  Co  Co120  1  0.12116445  0.87547232  0.87855752  1
  Co  Co121  1  0.12649362  0.87623149  0.37620626  1
  Co  Co122  1  0.75831173  0.74707556  0.50157854  1
  Co  Co123  1  0.37496328  0.37346382  0.12354146  1
  Co  Co124  1  0.75004793  -0.00400675  0.74857288  1
  Co  Co125  1  0.87840704  0.87628386  0.62506554  1
  Co  Co126  1  0.37070678  0.62391791  0.62674799  1
  Co  Co127  1  0.24943958  0.49889984  0.49934501  1
