# generated using pymatgen
data_Fe45Co19
_symmetry_space_group_name_H-M   'P 1'
_cell_length_a   11.41589779
_cell_length_b   11.41373648
_cell_length_c   11.41551621
_cell_angle_alpha   90.00095152
_cell_angle_beta   90.00142317
_cell_angle_gamma   89.99463192
_symmetry_Int_Tables_number   1
_chemical_formula_structural   Fe45Co19
_chemical_formula_sum   'Fe90 Co38'
_cell_volume   1487.41948344
_cell_formula_units_Z   2
loop_
 _symmetry_equiv_pos_site_id
 _symmetry_equiv_pos_as_xyz
  1  'x, y, z'
loop_
 _atom_site_type_symbol
 _atom_site_label
 _atom_site_symmetry_multiplicity
 _atom_site_fract_x
 _atom_site_fract_y
 _atom_site_fract_z
 _atom_site_occupancy
  Fe  Fe0  1  0.87415385  0.62344181  0.87530609  1
  Fe  Fe1  1  0.37652877  0.11963638  0.12249758  1
  Fe  Fe2  1  0.37672828  0.87717062  0.62271103  1
  Fe  Fe3  1  0.74707750  0.49734282  0.24982957  1
  Fe  Fe4  1  0.24794459  0.49701797  0.49657970  1
  Fe  Fe5  1  0.62319959  0.37084402  0.62959216  1
  Fe  Fe6  1  0.74758655  0.00572469  0.25353337  1
  Fe  Fe7  1  0.37429248  0.62329542  0.62315499  1
  Fe  Fe8  1  0.74849976  0.49495166  0.49940454  1
  Fe  Fe9  1  0.12539600  0.36666375  0.37194314  1
  Fe  Fe10  1  0.12437883  0.62504532  0.62401669  1
  Fe  Fe11  1  0.50160553  0.49851078  0.49820453  1
  Fe  Fe12  1  0.37256145  0.62135015  0.12866556  1
  Fe  Fe13  1  0.37631104  0.87745349  0.87768492  1
  Fe  Fe14  1  0.37499739  0.62382513  0.87495225  1
  Fe  Fe15  1  0.87790272  0.87876819  0.87711202  1
  Fe  Fe16  1  0.62467675  0.87398350  0.87605133  1
  Fe  Fe17  1  0.62313660  0.37392566  0.87351444  1
  Fe  Fe18  1  0.87454429  0.36769062  0.37519234  1
  Fe  Fe19  1  0.00144606  0.49598455  0.49763751  1
  Fe  Fe20  1  0.62659550  0.12614794  0.87332910  1
  Fe  Fe21  1  0.12392583  0.62864876  0.37300147  1
  Fe  Fe22  1  0.12491623  0.12673976  0.12773165  1
  Fe  Fe23  1  -0.00164580  0.75128448  0.74908853  1
  Fe  Fe24  1  0.62455342  0.87662286  0.12578941  1
  Fe  Fe25  1  0.24887962  -0.00150624  0.25054248  1
  Fe  Fe26  1  0.62247426  0.36852589  0.37077283  1
  Fe  Fe27  1  0.50455101  0.00301791  0.25121645  1
  Fe  Fe28  1  0.24991586  0.49877860  0.75052535  1
  Fe  Fe29  1  0.37480153  0.12631165  0.37441003  1
  Fe  Fe30  1  0.25087542  0.75206904  0.00309471  1
  Fe  Fe31  1  0.25010282  0.24853308  0.49964293  1
  Fe  Fe32  1  0.62656909  0.62620706  0.62280752  1
  Fe  Fe33  1  0.37463516  0.12323158  0.62548104  1
  Fe  Fe34  1  0.25354916  0.24923190  0.75157376  1
  Fe  Fe35  1  0.12596558  0.62709858  0.12837717  1
  Fe  Fe36  1  0.87454209  0.62398650  0.12643793  1
  Fe  Fe37  1  0.50601616  0.00255474  0.49768456  1
  Fe  Fe38  1  0.62292133  0.37127791  0.12652167  1
  Fe  Fe39  1  0.75253123  0.75131598  0.00136071  1
  Fe  Fe40  1  0.87306564  0.88067690  0.62072318  1
  Fe  Fe41  1  0.49751864  0.24697240  -0.00051222  1
  Fe  Fe42  1  0.75222661  0.75280202  0.74816153  1
  Fe  Fe43  1  0.49884110  0.75045548  0.00355185  1
  Fe  Fe44  1  -0.00089950  0.00433802  0.25288957  1
  Fe  Fe45  1  0.87689832  0.87897831  0.12443640  1
  Fe  Fe46  1  0.74858561  0.00161399  0.00064339  1
  Fe  Fe47  1  0.25300170  0.25033670  0.00177252  1
  Fe  Fe48  1  0.12086734  0.87232348  0.12832918  1
  Fe  Fe49  1  0.75296613  0.24853850  -0.00019194  1
  Fe  Fe50  1  0.12371051  0.37050753  0.62687289  1
  Fe  Fe51  1  0.12365584  0.37345412  0.87625512  1
  Fe  Fe52  1  0.25038717  0.75279113  0.49796595  1
  Fe  Fe53  1  0.87368746  0.62230742  0.37538177  1
  Fe  Fe54  1  0.87707586  0.36865248  0.62400413  1
  Fe  Fe55  1  0.25036375  0.75216650  0.74876602  1
  Fe  Fe56  1  0.62646454  0.87566586  0.62048037  1
  Fe  Fe57  1  0.24713947  -0.00259425  0.00186877  1
  Fe  Fe58  1  0.74989875  0.49705991  0.74955114  1
  Fe  Fe59  1  0.87495026  0.37451025  0.12476105  1
  Fe  Fe60  1  -0.00022761  0.49758830  0.75050948  1
  Fe  Fe61  1  0.37620874  0.37577553  0.62525265  1
  Fe  Fe62  1  0.62585515  0.62584595  0.87551517  1
  Fe  Fe63  1  -0.00278834  0.75092103  0.49877389  1
  Fe  Fe64  1  0.62693085  0.62795863  0.37549598  1
  Fe  Fe65  1  0.12643649  0.12507939  0.87427328  1
  Fe  Fe66  1  0.12170110  0.87517523  0.87541744  1
  Fe  Fe67  1  0.24696412  0.00150042  0.49749969  1
  Fe  Fe68  1  -0.00326562  0.24625302  -0.00073048  1
  Fe  Fe69  1  0.00106705  0.49736474  0.25079296  1
  Fe  Fe70  1  0.37740854  0.87630219  0.37415778  1
  Fe  Fe71  1  0.00128174  0.50162511  0.00132153  1
  Fe  Fe72  1  0.12566436  0.37339302  0.12559388  1
  Fe  Fe73  1  0.50149521  0.00177889  0.75100211  1
  Fe  Fe74  1  -0.00188880  0.00575738  0.74733136  1
  Fe  Fe75  1  0.12561463  0.62562415  0.87560950  1
  Fe  Fe76  1  0.37727211  0.37681393  0.87432751  1
  Fe  Fe77  1  0.75254489  0.75160887  0.25008650  1
  Fe  Fe78  1  0.87383771  0.87872738  0.37707234  1
  Fe  Fe79  1  0.12351588  0.87743796  0.62198742  1
  Fe  Fe80  1  0.49984233  0.74998670  0.74763688  1
  Fe  Fe81  1  0.87474681  0.62246762  0.62301299  1
  Fe  Fe82  1  0.00121051  0.01010269  0.49856143  1
  Fe  Fe83  1  0.49983736  0.75024934  0.24872099  1
  Fe  Fe84  1  0.50187003  0.50145317  0.00178010  1
  Fe  Fe85  1  0.25074113  -0.00102671  0.75004765  1
  Fe  Fe86  1  0.37597917  0.37928662  0.12869352  1
  Fe  Fe87  1  0.74792372  0.49910895  0.00153446  1
  Fe  Fe88  1  0.50063887  0.24787267  0.50230999  1
  Fe  Fe89  1  0.37480906  0.62335785  0.37382742  1
  Co  Co90  1  0.12758623  0.12934533  0.36999262  1
  Co  Co91  1  0.49518227  0.24632987  0.24641540  1
  Co  Co92  1  0.62550165  0.87134436  0.37450036  1
  Co  Co93  1  0.50079984  0.50201007  0.74915945  1
  Co  Co94  1  0.62457501  0.13309449  0.37243563  1
  Co  Co95  1  0.24652579  0.49708986  0.25359316  1
  Co  Co96  1  0.62680484  0.62689349  0.12572514  1
  Co  Co97  1  0.74509549  0.00516454  0.49431753  1
  Co  Co98  1  0.87451672  0.12246354  0.12510616  1
  Co  Co99  1  0.49711253  0.24543974  0.75076003  1
  Co  Co100  1  0.62915885  0.12539268  0.62893246  1
  Co  Co101  1  -0.00493040  0.75130119  0.25185796  1
  Co  Co102  1  0.75114998  0.24731692  0.24494073  1
  Co  Co103  1  0.49843894  0.74977771  0.49942580  1
  Co  Co104  1  0.25605185  0.24944983  0.24637104  1
  Co  Co105  1  0.24946316  0.49941734  0.00016122  1
  Co  Co106  1  0.87591849  0.37767742  0.87735031  1
  Co  Co107  1  0.75324310  0.75081709  0.49979401  1
  Co  Co108  1  0.12232999  0.87596733  0.37602972  1
  Co  Co109  1  0.86784908  0.12698107  0.62323543  1
  Co  Co110  1  0.87304317  0.13231476  0.37656925  1
  Co  Co111  1  0.50395920  0.50069352  0.25172436  1
  Co  Co112  1  0.12842292  0.12673310  0.62854526  1
  Co  Co113  1  0.37862849  0.88045707  0.12539822  1
  Co  Co114  1  -0.00297590  0.24846048  0.24676609  1
  Co  Co115  1  0.87323528  0.12038111  0.87529311  1
  Co  Co116  1  0.74938420  -0.00287638  0.75060443  1
  Co  Co117  1  0.37238398  0.12135876  0.87727403  1
  Co  Co118  1  0.74474016  0.25009490  0.50076802  1
  Co  Co119  1  0.75395147  0.25155975  0.75427142  1
  Co  Co120  1  0.25263272  0.75404938  0.25041127  1
  Co  Co121  1  -0.00358442  0.24638998  0.75302352  1
  Co  Co122  1  0.37691842  0.37307077  0.37426194  1
  Co  Co123  1  0.50397367  0.00147289  -0.00244071  1
  Co  Co124  1  0.62448141  0.12694204  0.12318110  1
  Co  Co125  1  0.00269122  0.00341950  0.00169316  1
  Co  Co126  1  -0.00113971  0.74862134  0.00085042  1
  Co  Co127  1  0.00360442  0.24393182  0.50160178  1
