# generated using pymatgen
data_Fe45Co19
_symmetry_space_group_name_H-M   'P 1'
_cell_length_a   11.41443735
_cell_length_b   11.41477342
_cell_length_c   11.41442252
_cell_angle_alpha   89.99761534
_cell_angle_beta   90.00031965
_cell_angle_gamma   90.00203340
_symmetry_Int_Tables_number   1
_chemical_formula_structural   Fe45Co19
_chemical_formula_sum   'Fe90 Co38'
_cell_volume   1487.22181700
_cell_formula_units_Z   2
loop_
 _symmetry_equiv_pos_site_id
 _symmetry_equiv_pos_as_xyz
  1  'x, y, z'
loop_
 _atom_site_type_symbol
 _atom_site_label
 _atom_site_symmetry_multiplicity
 _atom_site_fract_x
 _atom_site_fract_y
 _atom_site_fract_z
 _atom_site_occupancy
  Fe  Fe0  1  -0.00273787  0.50007866  0.74636915  1
  Fe  Fe1  1  0.12198942  0.12326950  0.37654266  1
  Fe  Fe2  1  0.12664763  0.87698480  0.62519992  1
  Fe  Fe3  1  0.62237316  0.37638083  0.37806296  1
  Fe  Fe4  1  0.75332601  -0.00175889  0.49672622  1
  Fe  Fe5  1  0.50007894  0.75175049  0.49783044  1
  Fe  Fe6  1  0.87308632  0.12560311  0.12436223  1
  Fe  Fe7  1  -0.00171295  0.24861822  0.24908684  1
  Fe  Fe8  1  0.12477353  0.37338768  0.37651546  1
  Fe  Fe9  1  -0.00045085  -0.00007276  0.00070145  1
  Fe  Fe10  1  0.50060084  0.25132722  0.00195810  1
  Fe  Fe11  1  0.37450083  0.62425261  0.87479469  1
  Fe  Fe12  1  -0.00318022  0.49629191  0.00080092  1
  Fe  Fe13  1  0.62541511  0.87784016  0.62630178  1
  Fe  Fe14  1  0.37763873  0.12660366  0.37399374  1
  Fe  Fe15  1  0.62561896  0.62465536  0.62514343  1
  Fe  Fe16  1  0.12547795  0.62457177  0.37487984  1
  Fe  Fe17  1  0.00241489  0.00409455  0.74970228  1
  Fe  Fe18  1  0.62675616  0.37511736  0.87044620  1
  Fe  Fe19  1  0.37330871  0.62565728  0.37694968  1
  Fe  Fe20  1  0.62513060  0.12397834  0.37568673  1
  Fe  Fe21  1  0.25112600  0.24751340  0.25011923  1
  Fe  Fe22  1  0.75070365  0.25147896  -0.00061629  1
  Fe  Fe23  1  0.62538100  0.37709733  0.12495361  1
  Fe  Fe24  1  0.00034659  0.24749201  0.50323629  1
  Fe  Fe25  1  0.37596640  0.37303127  0.87375108  1
  Fe  Fe26  1  0.74601037  0.00291994  0.75566012  1
  Fe  Fe27  1  0.24978310  0.00086557  0.24808900  1
  Fe  Fe28  1  0.25105553  0.24834143  0.00094047  1
  Fe  Fe29  1  0.50036932  0.50138315  0.25073913  1
  Fe  Fe30  1  0.37684988  0.37372772  0.62107962  1
  Fe  Fe31  1  0.74498888  0.25017065  0.50489739  1
  Fe  Fe32  1  -0.00024509  0.75058332  0.24797818  1
  Fe  Fe33  1  0.87421631  0.37301612  0.37742662  1
  Fe  Fe34  1  0.37635779  0.62508822  0.12343570  1
  Fe  Fe35  1  0.87471713  0.87582486  0.12499572  1
  Fe  Fe36  1  0.12324160  0.37279447  0.87435024  1
  Fe  Fe37  1  0.50051288  -0.00062064  0.25076542  1
  Fe  Fe38  1  0.00004369  0.75159850  -0.00135598  1
  Fe  Fe39  1  0.25037488  0.75276313  0.25131229  1
  Fe  Fe40  1  0.75094293  0.50058252  0.24994816  1
  Fe  Fe41  1  0.62429928  0.62550849  0.12237822  1
  Fe  Fe42  1  0.62536131  0.87327402  0.12699871  1
  Fe  Fe43  1  0.49968143  0.75113023  0.74976966  1
  Fe  Fe44  1  0.25057374  0.00124540  0.49980580  1
  Fe  Fe45  1  0.12620636  0.62461860  0.12399933  1
  Fe  Fe46  1  -0.00110315  0.50058965  0.50228326  1
  Fe  Fe47  1  0.87337321  0.37242973  0.86929134  1
  Fe  Fe48  1  0.12494338  0.87678408  0.87501440  1
  Fe  Fe49  1  0.12180583  0.87873569  0.37448815  1
  Fe  Fe50  1  0.75017840  0.74936275  0.75176046  1
  Fe  Fe51  1  0.74830239  0.25075693  0.25131741  1
  Fe  Fe52  1  0.12601650  0.37350895  0.62439032  1
  Fe  Fe53  1  0.25071103  0.49833485  -0.00087768  1
  Fe  Fe54  1  0.12589063  0.62222600  0.87358996  1
  Fe  Fe55  1  0.12961823  0.62485861  0.62643382  1
  Fe  Fe56  1  0.37839485  0.12561067  0.87508253  1
  Fe  Fe57  1  0.75014542  0.75299199  -0.00199088  1
  Fe  Fe58  1  0.37392564  0.87400417  0.62474372  1
  Fe  Fe59  1  0.24988232  0.49845561  0.25168505  1
  Fe  Fe60  1  0.37805613  0.37318951  0.37789199  1
  Fe  Fe61  1  -0.00193113  0.49906174  0.24974499  1
  Fe  Fe62  1  0.62639665  0.62712040  0.37507232  1
  Fe  Fe63  1  0.75401036  -0.00109717  0.25346756  1
  Fe  Fe64  1  0.87532226  0.12607391  0.87592204  1
  Fe  Fe65  1  0.87346839  0.12533481  0.62537510  1
  Fe  Fe66  1  0.62496097  0.62333409  0.87637340  1
  Fe  Fe67  1  0.37043705  0.62636398  0.62407490  1
  Fe  Fe68  1  0.75045074  0.75409612  0.49913941  1
  Fe  Fe69  1  0.87445061  0.62739658  0.37674388  1
  Fe  Fe70  1  0.87433572  0.87589549  0.62864924  1
  Fe  Fe71  1  0.37677245  0.87519029  0.87416341  1
  Fe  Fe72  1  0.24833286  0.24819556  0.74942417  1
  Fe  Fe73  1  0.25041881  0.00053532  0.00092163  1
  Fe  Fe74  1  0.00132861  0.75158152  0.50266043  1
  Fe  Fe75  1  0.50001713  -0.00085203  0.49935003  1
  Fe  Fe76  1  0.37628072  0.87459208  0.12560810  1
  Fe  Fe77  1  0.00068733  0.74997208  0.75039237  1
  Fe  Fe78  1  0.49832549  0.49997064  0.74862394  1
  Fe  Fe79  1  0.24986606  0.75067297  -0.00193130  1
  Fe  Fe80  1  0.12406581  0.37347644  0.12451786  1
  Fe  Fe81  1  0.87322584  0.62387163  0.12355638  1
  Fe  Fe82  1  0.12346658  0.12534872  0.12294278  1
  Fe  Fe83  1  0.87431556  0.62385145  0.87445757  1
  Fe  Fe84  1  0.25035089  0.00196074  0.75078295  1
  Fe  Fe85  1  0.75160906  0.49941925  0.50446583  1
  Fe  Fe86  1  0.50368793  -0.00184350  -0.00186538  1
  Fe  Fe87  1  0.62549616  0.12464935  0.12453435  1
  Fe  Fe88  1  0.37588577  0.37459121  0.12670985  1
  Fe  Fe89  1  0.37723465  0.12612140  0.62566662  1
  Co  Co90  1  0.24949298  0.75188779  0.75267750  1
  Co  Co91  1  0.75171444  0.49774136  -0.00112281  1
  Co  Co92  1  0.87386134  0.37396666  0.12799829  1
  Co  Co93  1  -0.00362576  0.00221119  0.24880564  1
  Co  Co94  1  0.87388428  0.62887807  0.62363260  1
  Co  Co95  1  0.50410122  0.24736039  0.50209233  1
  Co  Co96  1  0.62422367  0.11859468  0.62454796  1
  Co  Co97  1  0.50052450  -0.00033032  0.75155521  1
  Co  Co98  1  -0.00312177  0.25106420  0.00013782  1
  Co  Co99  1  0.49888680  0.74895368  0.25218775  1
  Co  Co100  1  0.49999032  0.75138177  -0.00102955  1
  Co  Co101  1  0.75067461  0.75028790  0.24910845  1
  Co  Co102  1  0.50263253  0.24936815  0.74655033  1
  Co  Co103  1  0.24773174  0.75193122  0.49742318  1
  Co  Co104  1  0.50203711  0.25032932  0.25001423  1
  Co  Co105  1  -0.00400474  0.00026451  0.50153216  1
  Co  Co106  1  0.37881153  0.12410412  0.12435338  1
  Co  Co107  1  0.49974101  0.49729343  -0.00146492  1
  Co  Co108  1  0.49946077  0.50387810  0.50073380  1
  Co  Co109  1  0.87468579  0.12986115  0.37711611  1
  Co  Co110  1  0.74622368  0.24635094  0.74672837  1
  Co  Co111  1  0.25130528  0.49632218  0.74922014  1
  Co  Co112  1  0.24932983  0.49890068  0.49908521  1
  Co  Co113  1  0.25033609  0.24772289  0.49870823  1
  Co  Co114  1  0.00228492  0.24582545  0.74860131  1
  Co  Co115  1  0.12495044  0.87532010  0.12471339  1
  Co  Co116  1  0.75206567  0.50187260  0.74654954  1
  Co  Co117  1  0.37470466  0.87728726  0.37507596  1
  Co  Co118  1  0.87632846  0.87728830  0.87266062  1
  Co  Co119  1  0.62289410  0.37919448  0.62717501  1
  Co  Co120  1  0.62467426  0.87529634  0.37357429  1
  Co  Co121  1  0.74755420  -0.00130030  -0.00254320  1
  Co  Co122  1  0.12671152  0.12420352  0.62287862  1
  Co  Co123  1  0.62438439  0.87273790  0.87271962  1
  Co  Co124  1  0.62194078  0.12915490  0.87729731  1
  Co  Co125  1  0.87873772  0.87148583  0.37434502  1
  Co  Co126  1  0.87497847  0.37109332  0.62674245  1
  Co  Co127  1  0.12556210  0.12543145  0.87825788  1
