# generated using pymatgen
data_Fe45Co19
_symmetry_space_group_name_H-M   'P 1'
_cell_length_a   11.41424305
_cell_length_b   11.41483188
_cell_length_c   11.41480361
_cell_angle_alpha   89.99848460
_cell_angle_beta   89.99740517
_cell_angle_gamma   90.00150826
_symmetry_Int_Tables_number   1
_chemical_formula_structural   Fe45Co19
_chemical_formula_sum   'Fe90 Co38'
_cell_volume   1487.25377073
_cell_formula_units_Z   2
loop_
 _symmetry_equiv_pos_site_id
 _symmetry_equiv_pos_as_xyz
  1  'x, y, z'
loop_
 _atom_site_type_symbol
 _atom_site_label
 _atom_site_symmetry_multiplicity
 _atom_site_fract_x
 _atom_site_fract_y
 _atom_site_fract_z
 _atom_site_occupancy
  Fe  Fe0  1  0.00400285  0.49861798  0.25031306  1
  Fe  Fe1  1  0.24767993  0.74839508  0.25024381  1
  Fe  Fe2  1  0.12358349  0.62555565  0.12315157  1
  Fe  Fe3  1  0.87566633  0.87309786  0.12607225  1
  Fe  Fe4  1  0.12272462  0.62385317  0.87321979  1
  Fe  Fe5  1  0.75039475  0.25013299  0.50040510  1
  Fe  Fe6  1  0.49475847  0.24942114  0.00018814  1
  Fe  Fe7  1  0.36790610  0.37753364  0.37680047  1
  Fe  Fe8  1  0.00138908  0.24985635  0.25090584  1
  Fe  Fe9  1  0.37720552  0.63030819  0.62626925  1
  Fe  Fe10  1  0.50089361  0.75133586  0.25283696  1
  Fe  Fe11  1  0.62413091  0.37528008  0.87424884  1
  Fe  Fe12  1  -0.00235749  0.75279751  -0.00569234  1
  Fe  Fe13  1  -0.00034733  0.00162011  0.24784139  1
  Fe  Fe14  1  0.00038907  0.75159634  0.49918701  1
  Fe  Fe15  1  0.49869328  0.75169702  -0.00325295  1
  Fe  Fe16  1  0.87569642  0.37415437  0.12600270  1
  Fe  Fe17  1  0.37410707  0.62400596  0.37464794  1
  Fe  Fe18  1  0.87448210  0.87434003  0.63141068  1
  Fe  Fe19  1  0.24795959  0.50329505  0.74560181  1
  Fe  Fe20  1  0.75122096  -0.00070217  0.50109660  1
  Fe  Fe21  1  0.49829984  -0.00095860  0.74852808  1
  Fe  Fe22  1  0.75083080  0.49952778  -0.00112809  1
  Fe  Fe23  1  0.37453313  0.62403991  0.87455685  1
  Fe  Fe24  1  0.62761943  0.87788659  0.87334773  1
  Fe  Fe25  1  0.12899002  0.88135867  0.87715334  1
  Fe  Fe26  1  0.87851140  0.62447570  0.12262161  1
  Fe  Fe27  1  0.75174448  0.25067380  -0.00134231  1
  Fe  Fe28  1  0.12677216  0.87510996  0.62494957  1
  Fe  Fe29  1  0.87655688  0.37581954  0.37637565  1
  Fe  Fe30  1  0.49918174  0.49935548  0.24797571  1
  Fe  Fe31  1  0.62024274  0.62692570  0.62774888  1
  Fe  Fe32  1  0.12390368  0.87334725  0.12322394  1
  Fe  Fe33  1  0.49773225  0.25054801  0.74919041  1
  Fe  Fe34  1  0.74969764  0.49997876  0.24864333  1
  Fe  Fe35  1  0.49770373  -0.00626958  0.49870047  1
  Fe  Fe36  1  0.37148125  0.37512285  0.12656458  1
  Fe  Fe37  1  0.24878341  0.75105186  0.75172208  1
  Fe  Fe38  1  0.62470264  0.12438058  0.37754006  1
  Fe  Fe39  1  0.13001525  0.37098890  0.62394814  1
  Fe  Fe40  1  0.75061348  0.74873488  0.50237695  1
  Fe  Fe41  1  0.12528935  0.62365621  0.37691833  1
  Fe  Fe42  1  0.87949925  0.12450480  0.87617471  1
  Fe  Fe43  1  0.12361148  0.12304120  0.37818480  1
  Fe  Fe44  1  0.24624114  0.23818783  0.74931224  1
  Fe  Fe45  1  0.75060256  0.74727601  0.24980248  1
  Fe  Fe46  1  0.24692627  0.00054250  0.24698422  1
  Fe  Fe47  1  0.75186107  0.00292248  0.25039807  1
  Fe  Fe48  1  0.88028836  0.62639893  0.63311253  1
  Fe  Fe49  1  0.25262739  0.00034226  0.50231860  1
  Fe  Fe50  1  0.62455573  0.12718101  0.12424085  1
  Fe  Fe51  1  0.37153581  0.87946967  0.87254609  1
  Fe  Fe52  1  0.00139802  0.25074907  0.49948972  1
  Fe  Fe53  1  0.37495065  0.12336885  0.37382036  1
  Fe  Fe54  1  0.74980897  0.24697549  0.74957228  1
  Fe  Fe55  1  0.50035958  0.25233753  0.25090553  1
  Fe  Fe56  1  0.49589436  0.25304568  0.49993211  1
  Fe  Fe57  1  0.49535844  0.49784510  0.50386268  1
  Fe  Fe58  1  0.50145480  -0.00203904  0.25075572  1
  Fe  Fe59  1  -0.00191600  -0.00281321  0.49879713  1
  Fe  Fe60  1  0.24646011  0.24987453  0.25124106  1
  Fe  Fe61  1  0.49580872  0.00132812  0.00221665  1
  Fe  Fe62  1  0.87530374  0.87389504  0.37252331  1
  Fe  Fe63  1  0.62670809  0.87435059  0.12371950  1
  Fe  Fe64  1  0.75031272  0.24940310  0.25111590  1
  Fe  Fe65  1  0.75138430  0.50181375  0.50432827  1
  Fe  Fe66  1  0.62488021  0.37562957  0.62672167  1
  Fe  Fe67  1  0.24904746  0.49909311  0.00159249  1
  Fe  Fe68  1  0.62330169  0.62531333  0.12250045  1
  Fe  Fe69  1  0.75387993  0.74855068  -0.00583664  1
  Fe  Fe70  1  0.62181958  0.12476457  0.62307910  1
  Fe  Fe71  1  0.37448334  0.87292110  0.12672699  1
  Fe  Fe72  1  0.12311404  0.12843050  0.11587921  1
  Fe  Fe73  1  0.25073097  0.75134636  0.49822658  1
  Fe  Fe74  1  0.87617517  0.37375710  0.62777697  1
  Fe  Fe75  1  0.00438586  0.00231002  0.75209482  1
  Fe  Fe76  1  0.62399040  0.62422685  0.37704329  1
  Fe  Fe77  1  0.00404948  0.49968794  0.50450329  1
  Fe  Fe78  1  0.00337350  0.49466740  -0.00305565  1
  Fe  Fe79  1  0.62598314  0.37750317  0.37650888  1
  Fe  Fe80  1  0.62547193  0.87195218  0.62772044  1
  Fe  Fe81  1  0.25062595  0.74992951  -0.00025133  1
  Fe  Fe82  1  0.87721984  0.62395258  0.37563198  1
  Fe  Fe83  1  0.75281012  0.00152875  0.00007603  1
  Fe  Fe84  1  0.37039564  0.37447760  0.87020519  1
  Fe  Fe85  1  0.87767922  0.12520207  0.62509317  1
  Fe  Fe86  1  0.49712243  0.49775375  0.00057214  1
  Fe  Fe87  1  0.62331789  0.62165531  0.87298204  1
  Fe  Fe88  1  0.87619314  0.37737577  0.86846475  1
  Fe  Fe89  1  0.62223339  0.12492570  0.87539505  1
  Co  Co90  1  0.37562537  0.62685385  0.12436136  1
  Co  Co91  1  -0.00116132  0.25746997  -0.00365579  1
  Co  Co92  1  -0.00331624  -0.00468537  0.00133143  1
  Co  Co93  1  0.25101895  0.24480978  0.49942923  1
  Co  Co94  1  0.00416589  0.24750627  0.75130833  1
  Co  Co95  1  0.24938504  0.50401538  0.50532713  1
  Co  Co96  1  0.87694138  0.12802936  0.12180504  1
  Co  Co97  1  0.87200026  0.87935247  0.86973812  1
  Co  Co98  1  0.37441701  0.12203809  0.87317442  1
  Co  Co99  1  0.37911826  0.12386492  0.62343631  1
  Co  Co100  1  0.00287592  0.75578804  0.75577367  1
  Co  Co101  1  0.74957313  0.74627202  0.75345413  1
  Co  Co102  1  0.12371154  0.12299504  0.88496686  1
  Co  Co103  1  0.63029456  0.87432820  0.37523227  1
  Co  Co104  1  0.37305216  0.87280358  0.62817760  1
  Co  Co105  1  0.74867671  0.00581689  0.74856490  1
  Co  Co106  1  0.24737416  0.50179083  0.24742224  1
  Co  Co107  1  0.36773535  0.37148933  0.62741793  1
  Co  Co108  1  0.12492156  0.87658683  0.37576194  1
  Co  Co109  1  0.74796100  0.50128154  0.74801588  1
  Co  Co110  1  0.49966647  0.75200478  0.75542694  1
  Co  Co111  1  0.25521112  0.24956225  -0.00061056  1
  Co  Co112  1  0.37485011  0.12665111  0.13005930  1
  Co  Co113  1  0.12656948  0.37237104  0.12413700  1
  Co  Co114  1  0.62514610  0.37356115  0.12329205  1
  Co  Co115  1  0.25517159  0.00190409  0.00464366  1
  Co  Co116  1  0.24701398  0.00616741  0.74679102  1
  Co  Co117  1  0.12691206  0.37622339  0.37902968  1
  Co  Co118  1  0.00758818  0.49576045  0.74657727  1
  Co  Co119  1  0.37063663  0.87634547  0.37193247  1
  Co  Co120  1  0.88060858  0.61942123  0.87042256  1
  Co  Co121  1  0.49694375  0.49782323  0.74866370  1
  Co  Co122  1  0.12319061  0.63184413  0.62622216  1
  Co  Co123  1  0.12068334  0.12277095  0.61913990  1
  Co  Co124  1  0.87599796  0.12551825  0.37751531  1
  Co  Co125  1  0.13143026  0.37188776  0.87150317  1
  Co  Co126  1  0.49906701  0.75382229  0.49653277  1
  Co  Co127  1  0.00223756  0.74905133  0.25155966  1
