# generated using pymatgen
data_Fe45Co19
_symmetry_space_group_name_H-M   'P 1'
_cell_length_a   11.41419877
_cell_length_b   11.41372842
_cell_length_c   11.41556894
_cell_angle_alpha   90.00801260
_cell_angle_beta   90.00320992
_cell_angle_gamma   90.00459364
_symmetry_Int_Tables_number   1
_chemical_formula_structural   Fe45Co19
_chemical_formula_sum   'Fe90 Co38'
_cell_volume   1487.20391658
_cell_formula_units_Z   2
loop_
 _symmetry_equiv_pos_site_id
 _symmetry_equiv_pos_as_xyz
  1  'x, y, z'
loop_
 _atom_site_type_symbol
 _atom_site_label
 _atom_site_symmetry_multiplicity
 _atom_site_fract_x
 _atom_site_fract_y
 _atom_site_fract_z
 _atom_site_occupancy
  Fe  Fe0  1  0.12419321  0.87680591  0.37512042  1
  Fe  Fe1  1  0.74607203  0.25238512  0.75262674  1
  Fe  Fe2  1  0.87582681  0.37402544  0.87523252  1
  Fe  Fe3  1  0.87506013  0.12805506  0.36995332  1
  Fe  Fe4  1  0.87361754  0.12652915  0.12518130  1
  Fe  Fe5  1  0.62405215  0.37513201  0.37429246  1
  Fe  Fe6  1  0.62460050  0.62306994  0.62497932  1
  Fe  Fe7  1  0.50023759  0.75035935  0.75092405  1
  Fe  Fe8  1  -0.00047065  0.00289155  0.75167676  1
  Fe  Fe9  1  0.74904290  0.49779766  0.75108530  1
  Fe  Fe10  1  0.87424110  0.12958701  0.62879526  1
  Fe  Fe11  1  0.37499824  0.62395295  0.37589014  1
  Fe  Fe12  1  0.00124229  0.74908339  0.50150227  1
  Fe  Fe13  1  -0.00066949  0.00364681  0.50196228  1
  Fe  Fe14  1  0.12401179  0.12626436  0.37589770  1
  Fe  Fe15  1  0.50112861  0.74794007  0.49873217  1
  Fe  Fe16  1  0.49934316  0.25019346  0.24684890  1
  Fe  Fe17  1  0.00081465  0.49722501  0.74886082  1
  Fe  Fe18  1  0.75075272  0.75045666  0.24987300  1
  Fe  Fe19  1  0.75144946  0.49988914  0.00193203  1
  Fe  Fe20  1  0.24793088  0.75153997  0.25002304  1
  Fe  Fe21  1  0.75009504  0.74998590  0.75289677  1
  Fe  Fe22  1  0.25208084  0.49429621  0.74743986  1
  Fe  Fe23  1  0.49388024  0.25222308  0.00284481  1
  Fe  Fe24  1  0.74807809  0.25014850  0.00100403  1
  Fe  Fe25  1  0.87702123  0.87357362  0.12155179  1
  Fe  Fe26  1  0.00158304  0.24849498  0.00067673  1
  Fe  Fe27  1  0.75310584  0.25176584  0.49810740  1
  Fe  Fe28  1  0.25221875  0.49971065  -0.00066834  1
  Fe  Fe29  1  0.49667156  0.49598686  0.75059721  1
  Fe  Fe30  1  0.12843007  0.12286020  0.12350441  1
  Fe  Fe31  1  0.87702081  0.62159789  0.37466500  1
  Fe  Fe32  1  0.25341667  0.00257178  0.74959710  1
  Fe  Fe33  1  0.12719620  0.37586887  0.12542527  1
  Fe  Fe34  1  0.12587836  0.62364513  0.62559093  1
  Fe  Fe35  1  0.49887903  -0.00296050  -0.00014855  1
  Fe  Fe36  1  0.75095134  0.49848616  0.24782275  1
  Fe  Fe37  1  0.25094584  0.24947832  0.24844000  1
  Fe  Fe38  1  0.25064287  0.00350799  0.50119737  1
  Fe  Fe39  1  0.62480583  0.87652213  0.37525296  1
  Fe  Fe40  1  -0.00043590  0.50059446  0.00372569  1
  Fe  Fe41  1  0.50092435  0.50056540  0.24779725  1
  Fe  Fe42  1  0.12882619  0.12659788  0.87463230  1
  Fe  Fe43  1  0.50028648  0.75045930  0.25080162  1
  Fe  Fe44  1  0.74937724  0.74859258  0.49908562  1
  Fe  Fe45  1  0.37311009  0.87685150  0.12741228  1
  Fe  Fe46  1  0.62127012  0.37302622  0.62195766  1
  Fe  Fe47  1  0.87731621  0.87453495  0.87769736  1
  Fe  Fe48  1  0.62145717  0.37664564  0.88070775  1
  Fe  Fe49  1  0.37279580  0.62474173  0.87593416  1
  Fe  Fe50  1  0.75231790  0.49731100  0.49873313  1
  Fe  Fe51  1  0.12546871  0.87798844  0.62653205  1
  Fe  Fe52  1  0.00263567  0.74700084  0.24647588  1
  Fe  Fe53  1  0.49985664  0.00286443  0.50257376  1
  Fe  Fe54  1  0.00089911  0.00102212  0.24733686  1
  Fe  Fe55  1  0.62257052  0.12509052  0.12416012  1
  Fe  Fe56  1  0.74810674  -0.00208405  -0.00020787  1
  Fe  Fe57  1  0.87382746  0.12702658  0.87601432  1
  Fe  Fe58  1  0.62410397  0.62332686  0.87668875  1
  Fe  Fe59  1  0.87688828  0.87524776  0.37464370  1
  Fe  Fe60  1  0.37419391  0.62370736  0.62408610  1
  Fe  Fe61  1  0.12300630  0.62246458  0.37564824  1
  Fe  Fe62  1  0.37130686  0.62508232  0.12459194  1
  Fe  Fe63  1  0.00774201  0.74722795  0.00000629  1
  Fe  Fe64  1  0.62504748  0.87671424  0.62614358  1
  Fe  Fe65  1  0.37461598  0.87312722  0.62517230  1
  Fe  Fe66  1  0.87502809  0.37079671  0.12789686  1
  Fe  Fe67  1  0.12372015  0.36697418  0.62290095  1
  Fe  Fe68  1  0.74923372  0.00009131  0.75110706  1
  Fe  Fe69  1  0.25192681  -0.00192871  -0.00184109  1
  Fe  Fe70  1  0.12680412  0.37394985  0.87713122  1
  Fe  Fe71  1  0.37624664  0.13348962  0.62710061  1
  Fe  Fe72  1  0.37710110  0.37452856  0.37678990  1
  Fe  Fe73  1  0.24963441  0.49702030  0.50066300  1
  Fe  Fe74  1  0.24903835  0.75022937  0.49884400  1
  Fe  Fe75  1  0.37519918  0.87758454  0.37451903  1
  Fe  Fe76  1  0.00289053  0.74915954  0.75214028  1
  Fe  Fe77  1  0.11893614  0.37339752  0.37546840  1
  Fe  Fe78  1  0.87582563  0.87448128  0.62525706  1
  Fe  Fe79  1  0.87515310  0.62328114  0.62596587  1
  Fe  Fe80  1  0.62676107  0.62590455  0.12387897  1
  Fe  Fe81  1  0.87632840  0.62420984  0.87648799  1
  Fe  Fe82  1  0.75187610  0.00235220  0.50111895  1
  Fe  Fe83  1  0.37540827  0.12404482  0.37148866  1
  Fe  Fe84  1  0.24899690  0.49844372  0.25300897  1
  Fe  Fe85  1  0.62597653  0.12438654  0.37433688  1
  Fe  Fe86  1  0.74865326  -0.00056874  0.24723908  1
  Fe  Fe87  1  0.50017660  0.75173154  -0.00049247  1
  Fe  Fe88  1  0.61994366  0.12402596  0.87391198  1
  Fe  Fe89  1  0.24773022  0.75054425  0.75377808  1
  Co  Co90  1  0.25243095  0.25327755  0.75185290  1
  Co  Co91  1  0.62504220  0.87396129  0.12660963  1
  Co  Co92  1  0.37297502  0.37427877  0.87821128  1
  Co  Co93  1  0.12473397  0.87948883  0.87374371  1
  Co  Co94  1  0.49745992  0.50189652  0.00163397  1
  Co  Co95  1  0.87285557  0.62795405  0.12232207  1
  Co  Co96  1  0.87878384  0.37398558  0.36889000  1
  Co  Co97  1  -0.00033848  0.50252748  0.24521220  1
  Co  Co98  1  0.37573476  0.87489295  0.87321814  1
  Co  Co99  1  0.24783395  0.75293934  -0.00166383  1
  Co  Co100  1  0.87467260  0.37241517  0.62868540  1
  Co  Co101  1  0.74532008  0.25044818  0.24871482  1
  Co  Co102  1  0.62284162  0.87784433  0.87116444  1
  Co  Co103  1  0.50271080  0.00054542  0.25035532  1
  Co  Co104  1  0.37834553  0.37133505  0.61957938  1
  Co  Co105  1  0.49673228  0.00191274  0.74663641  1
  Co  Co106  1  0.12572045  0.87786875  0.12435368  1
  Co  Co107  1  0.62382367  0.37555640  0.12260429  1
  Co  Co108  1  0.74690532  0.75216411  -0.00346183  1
  Co  Co109  1  0.37401300  0.12061184  0.12604725  1
  Co  Co110  1  0.00388871  0.24707671  0.24580460  1
  Co  Co111  1  0.24722496  0.00072189  0.25232712  1
  Co  Co112  1  0.37617551  0.12670081  0.87595740  1
  Co  Co113  1  0.00019305  0.00430358  -0.00015681  1
  Co  Co114  1  0.00111591  0.24953867  0.75437481  1
  Co  Co115  1  -0.00117737  0.49737924  0.50301215  1
  Co  Co116  1  0.62581606  0.12802327  0.62657374  1
  Co  Co117  1  0.62660474  0.62365317  0.37265205  1
  Co  Co118  1  0.49968462  0.25453209  0.75333011  1
  Co  Co119  1  0.13143238  0.62201342  0.12464025  1
  Co  Co120  1  0.50003546  0.50270802  0.49909560  1
  Co  Co121  1  0.37289303  0.37817287  0.12630819  1
  Co  Co122  1  0.12524805  0.12814750  0.62686324  1
  Co  Co123  1  0.12732120  0.61932986  0.87447787  1
  Co  Co124  1  0.25246320  0.24965443  0.00339850  1
  Co  Co125  1  0.50058268  0.24641604  0.49588079  1
  Co  Co126  1  0.25031123  0.24893577  0.49636357  1
  Co  Co127  1  -0.00489197  0.24833693  0.50014916  1
