# generated using pymatgen
data_Fe45Co19
_symmetry_space_group_name_H-M   'P 1'
_cell_length_a   11.41562892
_cell_length_b   11.41506983
_cell_length_c   11.41414848
_cell_angle_alpha   89.99276063
_cell_angle_beta   90.00435827
_cell_angle_gamma   89.99505577
_symmetry_Int_Tables_number   1
_chemical_formula_structural   Fe45Co19
_chemical_formula_sum   'Fe90 Co38'
_cell_volume   1487.37996385
_cell_formula_units_Z   2
loop_
 _symmetry_equiv_pos_site_id
 _symmetry_equiv_pos_as_xyz
  1  'x, y, z'
loop_
 _atom_site_type_symbol
 _atom_site_label
 _atom_site_symmetry_multiplicity
 _atom_site_fract_x
 _atom_site_fract_y
 _atom_site_fract_z
 _atom_site_occupancy
  Fe  Fe0  1  0.25337685  0.75352861  0.25086994  1
  Fe  Fe1  1  0.74573198  0.74727950  0.24935315  1
  Fe  Fe2  1  0.87111079  0.62254960  0.12654388  1
  Fe  Fe3  1  0.75043736  -0.00273727  0.00079705  1
  Fe  Fe4  1  0.12508740  0.87246112  0.37418145  1
  Fe  Fe5  1  0.24992237  0.25025939  0.49612661  1
  Fe  Fe6  1  0.50056238  0.50111005  0.49912658  1
  Fe  Fe7  1  0.62564870  0.87419887  0.62638197  1
  Fe  Fe8  1  0.12553696  0.12313122  0.62483729  1
  Fe  Fe9  1  0.50359673  0.50584882  0.24935056  1
  Fe  Fe10  1  0.25136569  0.75084828  0.00129446  1
  Fe  Fe11  1  0.24795409  0.49936517  0.00200068  1
  Fe  Fe12  1  0.75026965  0.75277517  0.49906210  1
  Fe  Fe13  1  -0.00221768  0.25192750  0.00234881  1
  Fe  Fe14  1  0.87347990  0.12182771  0.62229146  1
  Fe  Fe15  1  0.87404754  0.87419456  0.37587590  1
  Fe  Fe16  1  0.75107711  0.50005822  0.75102203  1
  Fe  Fe17  1  0.50221503  0.00064654  0.00390665  1
  Fe  Fe18  1  0.50050329  0.24767402  0.24946150  1
  Fe  Fe19  1  0.87654334  0.37732036  0.62065045  1
  Fe  Fe20  1  0.00086776  -0.00013152  0.00461234  1
  Fe  Fe21  1  0.37436355  0.12618010  0.62479646  1
  Fe  Fe22  1  0.00397556  0.50547677  0.49500388  1
  Fe  Fe23  1  0.49978539  0.24988575  0.74969606  1
  Fe  Fe24  1  -0.00240543  0.74930701  0.25035714  1
  Fe  Fe25  1  -0.00680150  0.24833966  0.25131122  1
  Fe  Fe26  1  0.24713719  -0.00010842  0.00753960  1
  Fe  Fe27  1  0.75087510  -0.00041903  0.74984964  1
  Fe  Fe28  1  -0.00146540  -0.00064314  0.24675243  1
  Fe  Fe29  1  0.49780834  0.75179463  0.49878624  1
  Fe  Fe30  1  0.50024065  0.00043319  0.49867843  1
  Fe  Fe31  1  0.00191952  0.75219892  0.74490680  1
  Fe  Fe32  1  0.24875286  0.49853953  0.25235491  1
  Fe  Fe33  1  0.37305462  0.12180092  0.36933557  1
  Fe  Fe34  1  0.37599310  0.37639449  0.12666587  1
  Fe  Fe35  1  0.75101550  0.25314765  0.00058722  1
  Fe  Fe36  1  0.37490871  0.37341771  0.62234027  1
  Fe  Fe37  1  0.12731618  0.62735910  0.12794806  1
  Fe  Fe38  1  0.62943441  0.37904851  0.12889190  1
  Fe  Fe39  1  0.62912499  0.12491067  0.37346996  1
  Fe  Fe40  1  0.12462813  0.12551793  0.37040565  1
  Fe  Fe41  1  0.12265200  0.62340839  0.87503263  1
  Fe  Fe42  1  0.37982178  0.87617133  0.12974061  1
  Fe  Fe43  1  0.50012543  0.50023514  0.74815514  1
  Fe  Fe44  1  0.24934661  0.50122423  0.75013533  1
  Fe  Fe45  1  0.50153153  0.25047922  0.00328803  1
  Fe  Fe46  1  0.24854402  0.25037888  0.75063651  1
  Fe  Fe47  1  0.12395589  0.37269409  0.12934367  1
  Fe  Fe48  1  0.12381856  0.87539192  0.87567107  1
  Fe  Fe49  1  -0.00004777  0.24917533  0.49787072  1
  Fe  Fe50  1  0.87897962  0.62133835  0.87458541  1
  Fe  Fe51  1  0.12502397  0.37712585  0.62286038  1
  Fe  Fe52  1  0.62347704  0.87318680  0.87598792  1
  Fe  Fe53  1  0.87537196  0.62564526  0.62128702  1
  Fe  Fe54  1  0.62589493  0.62560430  0.62328361  1
  Fe  Fe55  1  0.37589163  0.37512051  0.87604873  1
  Fe  Fe56  1  0.25005288  0.25058162  0.00310671  1
  Fe  Fe57  1  0.87083405  0.37981157  0.12805838  1
  Fe  Fe58  1  0.37505271  0.12477929  0.87836778  1
  Fe  Fe59  1  0.00012525  0.50263544  0.25171159  1
  Fe  Fe60  1  0.37590194  0.87620188  0.87715113  1
  Fe  Fe61  1  0.37804249  0.37495819  0.37509066  1
  Fe  Fe62  1  0.25055026  -0.00151872  0.49619631  1
  Fe  Fe63  1  0.75131102  0.25170164  0.49450357  1
  Fe  Fe64  1  0.62364135  0.37323386  0.62126912  1
  Fe  Fe65  1  0.37520858  0.62707442  0.37357239  1
  Fe  Fe66  1  -0.00127419  0.25049865  0.74851639  1
  Fe  Fe67  1  -0.00054994  0.74730500  0.00187043  1
  Fe  Fe68  1  0.63075840  0.12420593  0.12721255  1
  Fe  Fe69  1  0.87598991  0.12464303  0.87606543  1
  Fe  Fe70  1  0.87716419  0.87521380  0.87386561  1
  Fe  Fe71  1  0.12347782  0.12391887  0.87708801  1
  Fe  Fe72  1  0.75244294  0.25232084  0.74996629  1
  Fe  Fe73  1  0.62546879  0.12492673  0.87521036  1
  Fe  Fe74  1  0.24941921  -0.00011822  0.75134013  1
  Fe  Fe75  1  0.00046432  -0.00471405  0.50251319  1
  Fe  Fe76  1  0.62457392  0.37771165  0.87512701  1
  Fe  Fe77  1  0.74837373  0.49902162  0.49369733  1
  Fe  Fe78  1  0.12084842  0.37718526  0.87494000  1
  Fe  Fe79  1  0.87283300  0.87351154  0.12440200  1
  Fe  Fe80  1  0.49898179  0.74950124  0.75078206  1
  Fe  Fe81  1  0.49951857  0.00020528  0.74866400  1
  Fe  Fe82  1  0.62237236  0.87460822  0.37099918  1
  Fe  Fe83  1  0.37803008  0.62418727  0.87863009  1
  Fe  Fe84  1  0.74992505  0.74715606  0.75179863  1
  Fe  Fe85  1  0.24724170  0.50205331  0.49622639  1
  Fe  Fe86  1  0.37070065  0.87322043  0.62425034  1
  Fe  Fe87  1  0.74867976  0.74793078  -0.00151859  1
  Fe  Fe88  1  0.62619627  0.12611906  0.62324459  1
  Fe  Fe89  1  0.37193445  0.62721585  0.62463750  1
  Co  Co90  1  0.62067182  0.62378303  0.87717816  1
  Co  Co91  1  0.75220409  0.50108031  -0.00433123  1
  Co  Co92  1  0.87547912  0.11967532  0.37806046  1
  Co  Co93  1  0.24977882  0.74911174  0.49592262  1
  Co  Co94  1  0.62147022  0.37328806  0.37297306  1
  Co  Co95  1  0.75458299  0.24973632  0.25333381  1
  Co  Co96  1  0.00139920  0.75118353  0.50270607  1
  Co  Co97  1  0.37306518  0.12372907  0.12668604  1
  Co  Co98  1  0.37115871  0.62442010  0.12544729  1
  Co  Co99  1  0.49855749  0.24578554  0.49691741  1
  Co  Co100  1  0.12565407  0.62994304  0.37034167  1
  Co  Co101  1  0.13154108  0.87319485  0.62479981  1
  Co  Co102  1  0.87211640  0.87502781  0.62534002  1
  Co  Co103  1  0.12738408  0.62661986  0.62542248  1
  Co  Co104  1  0.62543939  0.87502313  0.12673911  1
  Co  Co105  1  0.74704056  0.50418687  0.25757855  1
  Co  Co106  1  0.87808318  0.37662719  0.87621981  1
  Co  Co107  1  0.12267990  0.37223193  0.37323893  1
  Co  Co108  1  0.87282778  0.12376352  0.12289188  1
  Co  Co109  1  0.12233723  0.86933955  0.12578894  1
  Co  Co110  1  0.75331371  -0.00118295  0.24951541  1
  Co  Co111  1  0.62394122  0.62841851  0.37968939  1
  Co  Co112  1  0.00118973  0.50062034  0.00644021  1
  Co  Co113  1  0.87769115  0.37853473  0.37451806  1
  Co  Co114  1  0.62807225  0.62196513  0.11926828  1
  Co  Co115  1  0.50366717  0.00370302  0.24953296  1
  Co  Co116  1  -0.00117824  0.49969789  0.74650616  1
  Co  Co117  1  0.12415840  0.12982770  0.12865567  1
  Co  Co118  1  0.50272169  0.74398907  0.24665596  1
  Co  Co119  1  0.49998394  0.75025880  0.00456534  1
  Co  Co120  1  0.74717060  -0.00298135  0.49871513  1
  Co  Co121  1  0.00008312  -0.00128433  0.74762087  1
  Co  Co122  1  0.24521208  -0.00345448  0.24633931  1
  Co  Co123  1  0.37803635  0.87579178  0.37094782  1
  Co  Co124  1  0.49914600  0.49817991  0.00329824  1
  Co  Co125  1  0.25297330  0.25206436  0.25062856  1
  Co  Co126  1  0.25006771  0.74864351  0.75528493  1
  Co  Co127  1  0.87482087  0.62827270  0.37630723  1
