# generated using pymatgen
data_Fe45Co19
_symmetry_space_group_name_H-M   'P 1'
_cell_length_a   11.41517640
_cell_length_b   11.41436676
_cell_length_c   11.41514099
_cell_angle_alpha   89.99445620
_cell_angle_beta   90.00237531
_cell_angle_gamma   89.99960568
_symmetry_Int_Tables_number   1
_chemical_formula_structural   Fe45Co19
_chemical_formula_sum   'Fe90 Co38'
_cell_volume   1487.35873173
_cell_formula_units_Z   2
loop_
 _symmetry_equiv_pos_site_id
 _symmetry_equiv_pos_as_xyz
  1  'x, y, z'
loop_
 _atom_site_type_symbol
 _atom_site_label
 _atom_site_symmetry_multiplicity
 _atom_site_fract_x
 _atom_site_fract_y
 _atom_site_fract_z
 _atom_site_occupancy
  Fe  Fe0  1  0.74981693  0.00226426  0.74560105  1
  Fe  Fe1  1  0.74917429  0.49532780  0.50454677  1
  Fe  Fe2  1  0.12644743  0.37227767  0.37204767  1
  Fe  Fe3  1  -0.00123163  0.49667595  0.24812665  1
  Fe  Fe4  1  0.62480465  0.62492751  0.62525800  1
  Fe  Fe5  1  0.24742638  0.75080311  0.49789240  1
  Fe  Fe6  1  0.25010472  0.24770487  0.75007257  1
  Fe  Fe7  1  0.25073252  0.75031772  0.00038170  1
  Fe  Fe8  1  0.75080411  0.00234358  0.25033739  1
  Fe  Fe9  1  0.49987327  0.49998941  0.74947591  1
  Fe  Fe10  1  0.87711914  0.62166738  0.87275336  1
  Fe  Fe11  1  0.49823278  0.75233960  0.49940024  1
  Fe  Fe12  1  0.87785393  0.62473123  0.62677132  1
  Fe  Fe13  1  0.87494509  0.62327437  0.37562074  1
  Fe  Fe14  1  0.37389950  0.62497217  0.62416850  1
  Fe  Fe15  1  0.00392335  0.00680742  0.25319017  1
  Fe  Fe16  1  0.25213242  0.25000358  0.50195836  1
  Fe  Fe17  1  0.87136224  0.12347300  0.87623785  1
  Fe  Fe18  1  0.62551797  0.62379526  0.87439758  1
  Fe  Fe19  1  0.37398815  0.37595182  0.37284630  1
  Fe  Fe20  1  0.50027452  0.24876609  0.25486018  1
  Fe  Fe21  1  0.75270477  0.75090863  0.49960691  1
  Fe  Fe22  1  0.00218059  0.74857640  0.25437462  1
  Fe  Fe23  1  0.25380770  0.24879102  0.00386646  1
  Fe  Fe24  1  0.49660625  0.50101262  0.00328774  1
  Fe  Fe25  1  0.87939577  0.87381090  0.62470087  1
  Fe  Fe26  1  0.36903318  0.87763277  0.37367069  1
  Fe  Fe27  1  0.37297792  0.87994861  0.87241852  1
  Fe  Fe28  1  0.12463292  0.62162673  0.87776706  1
  Fe  Fe29  1  0.87620675  0.87529687  0.12834566  1
  Fe  Fe30  1  0.49950767  0.75172042  0.75046519  1
  Fe  Fe31  1  0.62590596  0.87533807  0.12506937  1
  Fe  Fe32  1  0.75133685  0.75005634  0.75012522  1
  Fe  Fe33  1  0.24653055  0.74973963  0.25112123  1
  Fe  Fe34  1  0.62841593  0.87756367  0.37750859  1
  Fe  Fe35  1  0.74891026  0.24862084  0.25130133  1
  Fe  Fe36  1  -0.00233489  0.75146035  -0.00196833  1
  Fe  Fe37  1  0.37300187  0.37491112  0.87569215  1
  Fe  Fe38  1  0.50160978  0.74984927  0.25215788  1
  Fe  Fe39  1  0.24699301  0.49780095  0.74953579  1
  Fe  Fe40  1  0.37551978  0.87592171  0.12629503  1
  Fe  Fe41  1  0.74992900  0.49897060  0.24981800  1
  Fe  Fe42  1  0.87768865  0.37723712  0.86941835  1
  Fe  Fe43  1  0.75046271  0.25122415  0.74713630  1
  Fe  Fe44  1  0.25312523  0.49952976  0.24509538  1
  Fe  Fe45  1  0.24779867  0.75132272  0.74992108  1
  Fe  Fe46  1  0.61941322  0.12527838  0.61977720  1
  Fe  Fe47  1  0.12621818  0.12637127  0.87858302  1
  Fe  Fe48  1  0.12500714  0.87679365  0.87575192  1
  Fe  Fe49  1  0.62329780  0.87758474  0.62299231  1
  Fe  Fe50  1  0.87586174  0.37130027  0.37561022  1
  Fe  Fe51  1  0.87614288  0.87662342  0.37503586  1
  Fe  Fe52  1  0.24815048  0.49727702  0.50219291  1
  Fe  Fe53  1  0.12339873  0.62750881  0.62319958  1
  Fe  Fe54  1  0.50157103  0.00314785  -0.00382771  1
  Fe  Fe55  1  0.12451181  0.62404896  0.12363784  1
  Fe  Fe56  1  0.75181416  0.49801259  -0.00011514  1
  Fe  Fe57  1  0.50014138  0.00020950  0.25340679  1
  Fe  Fe58  1  0.75265667  0.75197529  0.00020202  1
  Fe  Fe59  1  0.37275314  0.62439108  0.87446385  1
  Fe  Fe60  1  0.62589619  0.62365616  0.37617200  1
  Fe  Fe61  1  0.25066153  0.00237463  0.00487496  1
  Fe  Fe62  1  0.87611135  0.12684054  0.12518737  1
  Fe  Fe63  1  0.87535921  0.62524470  0.12577807  1
  Fe  Fe64  1  -0.00264100  -0.00046804  -0.00039380  1
  Fe  Fe65  1  0.49825673  0.24487837  0.75272114  1
  Fe  Fe66  1  0.12168138  0.87355103  0.62280807  1
  Fe  Fe67  1  0.62318374  0.37487128  0.12706370  1
  Fe  Fe68  1  0.12470225  0.12682277  0.62351331  1
  Fe  Fe69  1  0.37367430  0.62346309  0.37561178  1
  Fe  Fe70  1  0.74719927  0.25177004  0.49986716  1
  Fe  Fe71  1  0.62449288  0.37509296  0.87313725  1
  Fe  Fe72  1  0.12305985  0.87589029  0.12609668  1
  Fe  Fe73  1  0.62584874  0.62582004  0.12565088  1
  Fe  Fe74  1  0.62938046  0.87839366  0.87459461  1
  Fe  Fe75  1  0.12502150  0.37310229  0.12343814  1
  Fe  Fe76  1  0.75030548  0.25212943  0.00074717  1
  Fe  Fe77  1  0.12048389  0.37043941  0.62751192  1
  Fe  Fe78  1  0.37417208  0.88002153  0.62740253  1
  Fe  Fe79  1  0.00098825  0.00240375  0.75161599  1
  Fe  Fe80  1  0.00163973  0.00431944  0.49576449  1
  Fe  Fe81  1  0.50160285  0.49701634  0.49969478  1
  Fe  Fe82  1  0.49952237  0.24680071  -0.00309398  1
  Fe  Fe83  1  0.49925759  0.75097269  -0.00136097  1
  Fe  Fe84  1  0.36909396  0.12274643  0.37485547  1
  Fe  Fe85  1  -0.00292603  0.25319507  -0.00045593  1
  Fe  Fe86  1  0.00099126  0.49787558  0.50072757  1
  Fe  Fe87  1  0.37821913  0.37296606  0.62584280  1
  Fe  Fe88  1  0.87725350  0.12821224  0.62155687  1
  Fe  Fe89  1  0.62384870  0.12530213  0.12509839  1
  Co  Co90  1  0.00053407  0.74813130  0.49442734  1
  Co  Co91  1  0.62687690  0.12181913  0.37810665  1
  Co  Co92  1  0.24758849  0.00054954  0.50241387  1
  Co  Co93  1  0.37993768  0.37110806  0.12555285  1
  Co  Co94  1  0.25329897  0.49877245  0.00332057  1
  Co  Co95  1  0.00287351  0.24873792  0.49639340  1
  Co  Co96  1  0.37454850  0.63026782  0.12648348  1
  Co  Co97  1  0.50310095  0.00335776  0.75325717  1
  Co  Co98  1  0.12647192  0.37288468  0.87737288  1
  Co  Co99  1  0.75056165  -0.00011923  0.00498313  1
  Co  Co100  1  0.62001576  0.37088754  0.62673192  1
  Co  Co101  1  0.37712819  0.12256042  0.62461488  1
  Co  Co102  1  0.12101779  0.12743552  0.12111563  1
  Co  Co103  1  0.75332246  0.00033363  0.50118917  1
  Co  Co104  1  0.00478635  0.49973306  0.74791753  1
  Co  Co105  1  0.87344545  0.12882428  0.37617977  1
  Co  Co106  1  0.87307643  0.37286591  0.12772717  1
  Co  Co107  1  0.25069954  0.24762417  0.24462937  1
  Co  Co108  1  0.87217158  0.87869953  0.87260525  1
  Co  Co109  1  0.24415082  0.00185922  0.74788105  1
  Co  Co110  1  0.49884525  0.50231457  0.24841762  1
  Co  Co111  1  0.49764055  0.24997713  0.49436203  1
  Co  Co112  1  0.13112689  0.12937869  0.37577176  1
  Co  Co113  1  0.12612676  0.61930483  0.37398659  1
  Co  Co114  1  0.24587108  0.00353067  0.24496355  1
  Co  Co115  1  0.74961664  0.75056185  0.25158436  1
  Co  Co116  1  0.63207767  0.12534628  0.87540547  1
  Co  Co117  1  0.12575997  0.87844866  0.37521804  1
  Co  Co118  1  0.36976987  0.12196239  0.87396822  1
  Co  Co119  1  0.74916550  0.49737142  0.74686082  1
  Co  Co120  1  0.49591629  -0.00099621  0.49608188  1
  Co  Co121  1  0.87962351  0.37203837  0.62531566  1
  Co  Co122  1  0.38073099  0.12331218  0.12663425  1
  Co  Co123  1  0.00097906  0.75027013  0.75408682  1
  Co  Co124  1  0.62537074  0.37647341  0.37287501  1
  Co  Co125  1  0.00119573  0.24863210  0.25035251  1
  Co  Co126  1  -0.00019538  0.24582759  0.75359597  1
  Co  Co127  1  -0.00165627  0.49640062  0.00200144  1
