# generated using pymatgen
data_Fe45Co19
_symmetry_space_group_name_H-M   'P 1'
_cell_length_a   11.41650862
_cell_length_b   11.41483615
_cell_length_c   11.41540435
_cell_angle_alpha   90.00037896
_cell_angle_beta   89.99828646
_cell_angle_gamma   89.99611005
_symmetry_Int_Tables_number   1
_chemical_formula_structural   Fe45Co19
_chemical_formula_sum   'Fe90 Co38'
_cell_volume   1487.62781214
_cell_formula_units_Z   2
loop_
 _symmetry_equiv_pos_site_id
 _symmetry_equiv_pos_as_xyz
  1  'x, y, z'
loop_
 _atom_site_type_symbol
 _atom_site_label
 _atom_site_symmetry_multiplicity
 _atom_site_fract_x
 _atom_site_fract_y
 _atom_site_fract_z
 _atom_site_occupancy
  Fe  Fe0  1  0.12535108  0.87408960  0.87437999  1
  Fe  Fe1  1  0.37438161  0.62719153  0.62140622  1
  Fe  Fe2  1  0.49402619  0.75009198  0.25351820  1
  Fe  Fe3  1  -0.00131331  0.74997973  0.00138136  1
  Fe  Fe4  1  0.24981590  0.49969676  0.00073219  1
  Fe  Fe5  1  0.62446957  0.37549382  0.62102298  1
  Fe  Fe6  1  0.62375866  0.87267242  0.12714944  1
  Fe  Fe7  1  0.62570246  0.12801504  0.12606242  1
  Fe  Fe8  1  0.87366409  0.37548245  0.62295767  1
  Fe  Fe9  1  0.12541809  0.62606920  0.87445891  1
  Fe  Fe10  1  0.00050660  0.24923046  0.50002675  1
  Fe  Fe11  1  0.50006571  0.74902337  0.49664509  1
  Fe  Fe12  1  0.12478283  0.62508062  0.37369890  1
  Fe  Fe13  1  0.62587993  0.87672682  0.87283360  1
  Fe  Fe14  1  0.37262682  0.37664834  0.87221258  1
  Fe  Fe15  1  0.74814162  0.25123131  0.25302510  1
  Fe  Fe16  1  0.12456223  0.12525974  0.87262304  1
  Fe  Fe17  1  0.75159813  0.75040335  0.74946400  1
  Fe  Fe18  1  0.74946962  0.74901885  0.00014827  1
  Fe  Fe19  1  0.62439794  0.87696378  0.37267993  1
  Fe  Fe20  1  0.25122453  0.25038044  -0.00086931  1
  Fe  Fe21  1  0.25041116  0.75149157  0.00338040  1
  Fe  Fe22  1  0.12544121  0.12577690  0.62556997  1
  Fe  Fe23  1  0.75363551  0.75151045  0.25218309  1
  Fe  Fe24  1  0.24884161  0.49849995  0.50242522  1
  Fe  Fe25  1  0.12291044  0.87793257  0.37108264  1
  Fe  Fe26  1  0.87824243  0.62224882  0.37720013  1
  Fe  Fe27  1  0.87532381  0.62351505  0.87492272  1
  Fe  Fe28  1  0.12770249  0.37371769  0.87028855  1
  Fe  Fe29  1  0.12537412  0.12655985  0.12714556  1
  Fe  Fe30  1  -0.00156392  0.75021720  0.74930574  1
  Fe  Fe31  1  0.50039821  0.25237249  0.25039958  1
  Fe  Fe32  1  0.37833623  0.37803176  0.37803789  1
  Fe  Fe33  1  0.37465618  0.12483967  0.12594014  1
  Fe  Fe34  1  0.74757007  0.50164925  0.00008406  1
  Fe  Fe35  1  0.87603678  0.87463479  0.62004356  1
  Fe  Fe36  1  0.74648474  0.49807364  0.25360147  1
  Fe  Fe37  1  0.00154613  0.49906654  0.74736650  1
  Fe  Fe38  1  0.25263569  0.24807203  0.49983133  1
  Fe  Fe39  1  0.49996085  0.24661286  0.49973283  1
  Fe  Fe40  1  0.37636872  0.11714106  0.37527270  1
  Fe  Fe41  1  -0.00161572  -0.00083412  0.74771173  1
  Fe  Fe42  1  0.74612247  0.00090615  0.49934988  1
  Fe  Fe43  1  0.49761439  0.24930631  0.74932518  1
  Fe  Fe44  1  0.12839739  0.37034811  0.62773329  1
  Fe  Fe45  1  0.87487014  0.12479183  0.62494849  1
  Fe  Fe46  1  -0.00138151  0.25167618  -0.00313039  1
  Fe  Fe47  1  0.87391680  0.87677918  0.87590717  1
  Fe  Fe48  1  0.37554382  0.12029919  0.62264068  1
  Fe  Fe49  1  0.87453816  0.12540482  0.12550701  1
  Fe  Fe50  1  0.87342926  0.37534757  0.12518222  1
  Fe  Fe51  1  0.25034485  0.49947736  0.25036386  1
  Fe  Fe52  1  0.87586781  0.37731769  0.37809790  1
  Fe  Fe53  1  0.37448992  0.87563678  0.87692881  1
  Fe  Fe54  1  0.12483113  0.37416680  0.37514326  1
  Fe  Fe55  1  0.25314775  0.24894957  0.25242463  1
  Fe  Fe56  1  0.12500802  0.62842524  0.62334821  1
  Fe  Fe57  1  0.37584168  0.62349576  0.12649363  1
  Fe  Fe58  1  0.62417558  0.62466593  0.87329344  1
  Fe  Fe59  1  0.87417884  0.12147530  0.37484921  1
  Fe  Fe60  1  0.12690890  0.37216941  0.12693549  1
  Fe  Fe61  1  0.75111185  0.24912810  -0.00409283  1
  Fe  Fe62  1  0.12451550  0.62886959  0.12911141  1
  Fe  Fe63  1  0.49819868  0.75126905  0.75053604  1
  Fe  Fe64  1  -0.00129875  0.25000514  0.25172817  1
  Fe  Fe65  1  0.75184514  0.24839424  0.75358509  1
  Fe  Fe66  1  0.74846244  0.24790890  0.49758522  1
  Fe  Fe67  1  0.49904363  0.25384795  0.00096627  1
  Fe  Fe68  1  0.00171765  0.49852210  0.00150468  1
  Fe  Fe69  1  0.87571634  0.87653738  0.12663402  1
  Fe  Fe70  1  0.12685962  0.12199735  0.37429120  1
  Fe  Fe71  1  0.24956733  0.75590886  0.49718955  1
  Fe  Fe72  1  0.49827609  0.50059561  0.74610701  1
  Fe  Fe73  1  0.00228596  -0.00052808  0.00223657  1
  Fe  Fe74  1  0.87565805  0.62347031  0.12729320  1
  Fe  Fe75  1  0.50176542  -0.00024603  0.00163134  1
  Fe  Fe76  1  0.62463144  0.37558984  0.87527699  1
  Fe  Fe77  1  0.62277684  0.62448485  0.12804063  1
  Fe  Fe78  1  0.62363015  0.87429983  0.62694346  1
  Fe  Fe79  1  0.24865043  -0.00209064  0.00436306  1
  Fe  Fe80  1  0.74909489  0.50120210  0.74745846  1
  Fe  Fe81  1  0.37476597  0.62371775  0.87571266  1
  Fe  Fe82  1  0.74828119  0.74779106  0.49796306  1
  Fe  Fe83  1  0.50060687  0.74886935  -0.00099522  1
  Fe  Fe84  1  0.37621680  0.12331804  0.87622429  1
  Fe  Fe85  1  0.25247729  -0.00192970  0.74721006  1
  Fe  Fe86  1  0.62479747  0.12391640  0.62851749  1
  Fe  Fe87  1  0.74773024  0.00145889  0.00008720  1
  Fe  Fe88  1  0.87622323  0.62524460  0.62098130  1
  Fe  Fe89  1  0.25139577  0.75190985  0.74853344  1
  Co  Co90  1  0.49788003  -0.00076667  0.75009220  1
  Co  Co91  1  -0.00420175  0.75090770  0.25298187  1
  Co  Co92  1  0.25055638  0.50343230  0.74704078  1
  Co  Co93  1  0.00174882  0.00170478  0.49995514  1
  Co  Co94  1  0.25073711  -0.00283975  0.24593330  1
  Co  Co95  1  0.37769526  0.87408188  0.12397434  1
  Co  Co96  1  0.87395284  0.87895687  0.37801065  1
  Co  Co97  1  0.00139986  0.49822345  0.24968526  1
  Co  Co98  1  0.75112833  -0.00006504  0.74870861  1
  Co  Co99  1  0.00419398  0.49786131  0.50242303  1
  Co  Co100  1  0.37287830  0.37574483  0.12751059  1
  Co  Co101  1  0.87685452  0.12137158  0.87525449  1
  Co  Co102  1  -0.00339741  0.25054156  0.75063642  1
  Co  Co103  1  0.49944851  0.49839168  0.00066788  1
  Co  Co104  1  0.62355395  0.12425398  0.37260177  1
  Co  Co105  1  0.12267674  0.87118757  0.12822260  1
  Co  Co106  1  0.37121158  0.62244487  0.37685477  1
  Co  Co107  1  0.87431654  0.37891935  0.87453846  1
  Co  Co108  1  0.50132879  0.49821156  0.25125506  1
  Co  Co109  1  0.62723320  0.37475405  0.12430441  1
  Co  Co110  1  0.50338749  0.50567803  0.49983586  1
  Co  Co111  1  0.74602948  0.50388937  0.49897164  1
  Co  Co112  1  0.50134084  0.00064684  0.24675303  1
  Co  Co113  1  0.24680726  -0.00315133  0.50242156  1
  Co  Co114  1  0.62270782  0.12477004  0.87416565  1
  Co  Co115  1  0.37698823  0.88232159  0.37719985  1
  Co  Co116  1  0.62227643  0.37383043  0.38005232  1
  Co  Co117  1  -0.00100496  0.00170106  0.24942511  1
  Co  Co118  1  0.37810653  0.87438640  0.62103519  1
  Co  Co119  1  0.00200116  0.75124885  0.49619639  1
  Co  Co120  1  0.62427918  0.62681251  0.37096539  1
  Co  Co121  1  0.37580404  0.37564092  0.62217539  1
  Co  Co122  1  0.12259064  0.87386684  0.62643023  1
  Co  Co123  1  0.25401976  0.75388788  0.25228935  1
  Co  Co124  1  0.62399132  0.62786041  0.62702928  1
  Co  Co125  1  0.74883761  -0.00020164  0.24918318  1
  Co  Co126  1  0.50549170  0.00020991  0.50136484  1
  Co  Co127  1  0.25507391  0.24530250  0.74880524  1
