# generated using pymatgen
data_Fe45Co19
_symmetry_space_group_name_H-M   'P 1'
_cell_length_a   11.41634098
_cell_length_b   11.41537314
_cell_length_c   11.41486396
_cell_angle_alpha   90.00649438
_cell_angle_beta   90.00581912
_cell_angle_gamma   89.99948533
_symmetry_Int_Tables_number   1
_chemical_formula_structural   Fe45Co19
_chemical_formula_sum   'Fe90 Co38'
_cell_volume   1487.60551156
_cell_formula_units_Z   2
loop_
 _symmetry_equiv_pos_site_id
 _symmetry_equiv_pos_as_xyz
  1  'x, y, z'
loop_
 _atom_site_type_symbol
 _atom_site_label
 _atom_site_symmetry_multiplicity
 _atom_site_fract_x
 _atom_site_fract_y
 _atom_site_fract_z
 _atom_site_occupancy
  Fe  Fe0  1  0.37911534  0.87568830  0.62259556  1
  Fe  Fe1  1  0.87320202  0.87244551  0.62237559  1
  Fe  Fe2  1  0.12733738  0.62634777  0.37740835  1
  Fe  Fe3  1  0.50093263  0.49737066  0.24978483  1
  Fe  Fe4  1  0.12759613  0.37504405  0.37345942  1
  Fe  Fe5  1  0.12441271  0.87524896  0.12553871  1
  Fe  Fe6  1  0.87589923  0.12480855  0.62417542  1
  Fe  Fe7  1  0.37827964  0.62552727  0.12317383  1
  Fe  Fe8  1  0.25137238  0.25212223  0.50157108  1
  Fe  Fe9  1  0.12722745  0.87274374  0.37736338  1
  Fe  Fe10  1  0.74600944  0.50191141  0.50341217  1
  Fe  Fe11  1  0.00092537  0.75191574  -0.00256782  1
  Fe  Fe12  1  0.49942524  0.25311786  0.50055604  1
  Fe  Fe13  1  0.37554014  0.12405890  0.37167199  1
  Fe  Fe14  1  0.37253617  0.12764085  0.87854593  1
  Fe  Fe15  1  0.74635793  0.74907762  0.25253085  1
  Fe  Fe16  1  0.87423694  0.62574707  0.87344822  1
  Fe  Fe17  1  0.74885531  0.50072304  0.74860591  1
  Fe  Fe18  1  0.37998079  0.87794311  0.37591845  1
  Fe  Fe19  1  0.37166118  0.87485693  0.87797272  1
  Fe  Fe20  1  0.62282610  0.12489480  0.37433280  1
  Fe  Fe21  1  0.50223813  0.75006347  0.25055025  1
  Fe  Fe22  1  0.25078178  0.49969764  0.74856220  1
  Fe  Fe23  1  0.00117217  -0.00042235  0.49973065  1
  Fe  Fe24  1  0.62754482  0.37212161  0.87730995  1
  Fe  Fe25  1  0.87482887  0.62732444  0.12484077  1
  Fe  Fe26  1  0.75318855  0.24927885  0.24982173  1
  Fe  Fe27  1  0.12730937  0.12563371  0.37230741  1
  Fe  Fe28  1  -0.00248331  0.25159204  0.25310277  1
  Fe  Fe29  1  0.62387258  0.62622316  0.87487473  1
  Fe  Fe30  1  0.37560716  0.87708688  0.12377399  1
  Fe  Fe31  1  0.25187894  0.00103115  0.49908426  1
  Fe  Fe32  1  0.62799211  0.37364367  0.37344374  1
  Fe  Fe33  1  0.74736022  0.74709604  0.74509033  1
  Fe  Fe34  1  0.37908962  0.62414306  0.37831889  1
  Fe  Fe35  1  0.50362620  0.49883666  0.00024218  1
  Fe  Fe36  1  -0.00023604  0.50156049  -0.00119706  1
  Fe  Fe37  1  0.00138984  0.24802591  -0.00207395  1
  Fe  Fe38  1  0.87578770  0.37472920  0.12379239  1
  Fe  Fe39  1  0.24763862  0.50024305  0.00239039  1
  Fe  Fe40  1  0.75214256  0.00061377  -0.00120897  1
  Fe  Fe41  1  -0.00004509  0.50010964  0.74910402  1
  Fe  Fe42  1  0.12354359  0.12510860  0.62706963  1
  Fe  Fe43  1  0.25246992  0.75005458  0.25071347  1
  Fe  Fe44  1  0.24434040  0.00380456  0.00056333  1
  Fe  Fe45  1  0.49968461  0.25178065  0.75217571  1
  Fe  Fe46  1  0.12685893  0.87420636  0.62363708  1
  Fe  Fe47  1  -0.00201921  0.50078057  0.25280583  1
  Fe  Fe48  1  0.37283833  0.37349893  0.87885218  1
  Fe  Fe49  1  0.74822116  0.00116742  0.24940300  1
  Fe  Fe50  1  0.25134850  0.25108324  0.24206189  1
  Fe  Fe51  1  0.87188206  0.62720708  0.37938387  1
  Fe  Fe52  1  0.87486357  0.87446865  0.12414877  1
  Fe  Fe53  1  0.62475819  0.87415242  0.12523622  1
  Fe  Fe54  1  0.12352864  0.62614498  0.12643359  1
  Fe  Fe55  1  0.62594190  0.12809778  0.12214957  1
  Fe  Fe56  1  0.49774882  0.25039379  0.24498809  1
  Fe  Fe57  1  0.25091569  0.50012580  0.24765931  1
  Fe  Fe58  1  0.25272846  0.49683040  0.50151104  1
  Fe  Fe59  1  0.12557225  0.62603592  0.62245386  1
  Fe  Fe60  1  0.38289224  0.62113833  0.62264153  1
  Fe  Fe61  1  0.87787991  0.12332256  0.12350950  1
  Fe  Fe62  1  0.87089103  0.87343323  0.37784659  1
  Fe  Fe63  1  0.87363503  0.12309009  0.37663147  1
  Fe  Fe64  1  0.74829495  0.74893857  -0.00013272  1
  Fe  Fe65  1  0.75260198  0.00087248  0.75008854  1
  Fe  Fe66  1  0.87359012  0.37513681  0.62319812  1
  Fe  Fe67  1  0.62644017  0.87528171  0.87306965  1
  Fe  Fe68  1  0.75277799  0.25022340  0.75151729  1
  Fe  Fe69  1  0.00031670  0.49935387  0.49939736  1
  Fe  Fe70  1  0.74520349  0.00000662  0.50069165  1
  Fe  Fe71  1  0.37531894  0.62531895  0.87803068  1
  Fe  Fe72  1  0.37566594  0.12700049  0.62569702  1
  Fe  Fe73  1  0.49819330  0.00197000  0.75201634  1
  Fe  Fe74  1  -0.00000245  -0.00199283  0.25231807  1
  Fe  Fe75  1  0.74947231  0.50004508  0.00177857  1
  Fe  Fe76  1  -0.00055396  0.74979145  0.25310747  1
  Fe  Fe77  1  0.25314990  0.74836053  0.74770433  1
  Fe  Fe78  1  0.00023150  0.75174773  0.74966760  1
  Fe  Fe79  1  0.12520712  0.37496493  0.87538110  1
  Fe  Fe80  1  -0.00238827  0.25171449  0.75071303  1
  Fe  Fe81  1  0.75058176  0.50070768  0.24768130  1
  Fe  Fe82  1  0.12700618  0.62758620  0.87416202  1
  Fe  Fe83  1  0.62657297  0.12649625  0.87614370  1
  Fe  Fe84  1  0.49909983  0.75020781  0.75190802  1
  Fe  Fe85  1  0.24943193  0.25206001  0.74967544  1
  Fe  Fe86  1  0.62431522  0.12660689  0.62647770  1
  Fe  Fe87  1  -0.00097088  0.25146735  0.49781007  1
  Fe  Fe88  1  0.25045931  0.00043952  0.74892319  1
  Fe  Fe89  1  0.50168687  0.00063344  -0.00069614  1
  Co  Co90  1  -0.00189765  -0.00491816  0.74981969  1
  Co  Co91  1  0.50047508  0.49619671  0.75671712  1
  Co  Co92  1  0.75427171  0.24951856  -0.00146644  1
  Co  Co93  1  -0.00006749  0.75003744  0.49910951  1
  Co  Co94  1  0.00118086  -0.00210133  -0.00315030  1
  Co  Co95  1  0.12918830  0.87418269  0.87274854  1
  Co  Co96  1  0.12064779  0.12347779  0.12876040  1
  Co  Co97  1  0.50199458  0.00216628  0.24560610  1
  Co  Co98  1  0.37234396  0.37306625  0.37142054  1
  Co  Co99  1  0.12060238  0.37679958  0.12620754  1
  Co  Co100  1  0.24946221  0.74865790  0.00262115  1
  Co  Co101  1  0.37437088  0.12188910  0.12303640  1
  Co  Co102  1  0.49878966  0.24987241  0.00147125  1
  Co  Co103  1  0.61552102  0.62058034  0.62634683  1
  Co  Co104  1  0.87704729  0.12258698  0.87459199  1
  Co  Co105  1  0.87133049  0.37749199  0.37732972  1
  Co  Co106  1  0.62377462  0.62151731  0.37502862  1
  Co  Co107  1  0.62307816  0.87925535  0.37351481  1
  Co  Co108  1  0.87484458  0.37772884  0.87524711  1
  Co  Co109  1  0.62476333  0.37387577  0.62713555  1
  Co  Co110  1  0.50085621  0.00401408  0.50219920  1
  Co  Co111  1  0.62366043  0.62569372  0.12557235  1
  Co  Co112  1  0.24549755  0.24861167  0.00352125  1
  Co  Co113  1  0.12417608  0.37434794  0.62468155  1
  Co  Co114  1  0.37732317  0.37607850  0.62831206  1
  Co  Co115  1  0.24981358  -0.00204577  0.25071915  1
  Co  Co116  1  0.87159435  0.87284024  0.87422187  1
  Co  Co117  1  0.37594259  0.37773894  0.12149206  1
  Co  Co118  1  0.87665605  0.62545834  0.62383093  1
  Co  Co119  1  0.62206365  0.87823020  0.62890963  1
  Co  Co120  1  0.62719892  0.37249428  0.12554216  1
  Co  Co121  1  0.25518207  0.74955355  0.50049733  1
  Co  Co122  1  0.50638635  0.75180241  0.49935833  1
  Co  Co123  1  0.74871937  0.24840935  0.49957962  1
  Co  Co124  1  0.12332327  0.12454623  0.86955369  1
  Co  Co125  1  0.50064151  0.49100277  0.49628174  1
  Co  Co126  1  0.74143452  0.74879167  0.50283206  1
  Co  Co127  1  0.50116729  0.75181820  -0.00114011  1
