# generated using pymatgen
data_Fe45Co19
_symmetry_space_group_name_H-M   'P 1'
_cell_length_a   11.41537176
_cell_length_b   11.41545358
_cell_length_c   11.41550777
_cell_angle_alpha   90.00154463
_cell_angle_beta   89.99133165
_cell_angle_gamma   90.00401050
_symmetry_Int_Tables_number   1
_chemical_formula_structural   Fe45Co19
_chemical_formula_sum   'Fe90 Co38'
_cell_volume   1487.57359066
_cell_formula_units_Z   2
loop_
 _symmetry_equiv_pos_site_id
 _symmetry_equiv_pos_as_xyz
  1  'x, y, z'
loop_
 _atom_site_type_symbol
 _atom_site_label
 _atom_site_symmetry_multiplicity
 _atom_site_fract_x
 _atom_site_fract_y
 _atom_site_fract_z
 _atom_site_occupancy
  Fe  Fe0  1  0.74701926  0.00159556  0.00239348  1
  Fe  Fe1  1  0.49855083  0.75113983  0.25201367  1
  Fe  Fe2  1  0.50165716  0.25104801  0.75209955  1
  Fe  Fe3  1  0.62638397  0.87696827  0.37601198  1
  Fe  Fe4  1  0.74621497  0.50431662  0.75272223  1
  Fe  Fe5  1  0.74635616  0.00090271  0.50405587  1
  Fe  Fe6  1  0.24994791  0.00433639  0.00482099  1
  Fe  Fe7  1  0.12562141  0.87370089  0.12795626  1
  Fe  Fe8  1  0.12741090  0.87521236  0.37131540  1
  Fe  Fe9  1  0.37365881  0.62321653  0.37400695  1
  Fe  Fe10  1  0.74850066  0.25003704  0.75115192  1
  Fe  Fe11  1  0.87230947  0.37544979  0.62388439  1
  Fe  Fe12  1  0.87372264  0.62589710  0.37356583  1
  Fe  Fe13  1  0.86863620  0.12352763  0.37352370  1
  Fe  Fe14  1  0.37608094  0.62219299  0.12769834  1
  Fe  Fe15  1  0.00071366  0.00090567  0.75059793  1
  Fe  Fe16  1  0.00149006  0.74854021  0.00063708  1
  Fe  Fe17  1  0.37667735  0.87775457  0.62030875  1
  Fe  Fe18  1  0.24828718  0.24711595  0.50126224  1
  Fe  Fe19  1  0.50066614  -0.00103742  0.75010845  1
  Fe  Fe20  1  0.62519970  0.87204129  0.87321058  1
  Fe  Fe21  1  -0.00229166  0.24909057  0.49936119  1
  Fe  Fe22  1  -0.00045985  0.25027678  0.75143434  1
  Fe  Fe23  1  0.00075579  0.49954175  0.00112203  1
  Fe  Fe24  1  0.50656985  0.24649685  0.49667265  1
  Fe  Fe25  1  0.12495400  0.37341752  0.12499149  1
  Fe  Fe26  1  0.37902899  0.62385277  0.87175005  1
  Fe  Fe27  1  0.12698764  0.37366772  0.87522892  1
  Fe  Fe28  1  0.25467739  0.25180866  0.24840925  1
  Fe  Fe29  1  -0.00047908  0.49869825  0.24942974  1
  Fe  Fe30  1  0.12492675  0.62519701  0.87391891  1
  Fe  Fe31  1  0.37789324  0.12431123  0.62356530  1
  Fe  Fe32  1  0.50028199  -0.00082471  0.25257649  1
  Fe  Fe33  1  0.74918298  0.74716797  -0.00240686  1
  Fe  Fe34  1  0.87282074  0.12517943  0.87678489  1
  Fe  Fe35  1  0.00120782  0.00083596  0.49874056  1
  Fe  Fe36  1  0.00085146  0.49971182  0.74977013  1
  Fe  Fe37  1  0.25246366  0.74860161  0.74755242  1
  Fe  Fe38  1  0.50108690  0.25225693  0.25471549  1
  Fe  Fe39  1  0.49777779  0.75071353  0.00027856  1
  Fe  Fe40  1  -0.00156377  0.75038067  0.75086213  1
  Fe  Fe41  1  -0.00402205  0.25182990  0.24974421  1
  Fe  Fe42  1  0.87493278  0.87311499  0.12357684  1
  Fe  Fe43  1  0.87430962  0.87499094  0.87547475  1
  Fe  Fe44  1  0.24858916  0.50115662  0.50103867  1
  Fe  Fe45  1  0.50178376  0.50006589  -0.00157458  1
  Fe  Fe46  1  0.25178647  0.24622227  0.00285773  1
  Fe  Fe47  1  0.62425866  0.37261487  0.12404141  1
  Fe  Fe48  1  0.50209627  0.50050474  0.49998611  1
  Fe  Fe49  1  0.25024079  0.24873272  0.74783508  1
  Fe  Fe50  1  0.62643925  0.62386335  0.37452418  1
  Fe  Fe51  1  0.12582695  0.12580611  0.87520885  1
  Fe  Fe52  1  0.00125394  0.00256135  0.00161046  1
  Fe  Fe53  1  0.12701294  0.87527332  0.87568496  1
  Fe  Fe54  1  0.87310443  0.37513382  0.87802665  1
  Fe  Fe55  1  0.24898191  0.00229131  0.74631777  1
  Fe  Fe56  1  0.12668140  0.62575626  0.37030572  1
  Fe  Fe57  1  0.49884400  0.49566661  0.25268521  1
  Fe  Fe58  1  -0.00036905  0.50057132  0.49935058  1
  Fe  Fe59  1  0.87064147  0.37548756  0.37736542  1
  Fe  Fe60  1  0.37513015  0.87692227  0.12690896  1
  Fe  Fe61  1  0.37419924  0.12226678  0.37650717  1
  Fe  Fe62  1  0.87149093  0.12906312  0.12513026  1
  Fe  Fe63  1  0.74966191  0.49742359  0.24913627  1
  Fe  Fe64  1  0.25138060  0.74784883  0.00247913  1
  Fe  Fe65  1  0.74940417  0.75020580  0.50295995  1
  Fe  Fe66  1  0.12629972  0.37385945  0.37535141  1
  Fe  Fe67  1  0.12341919  0.37408008  0.62387938  1
  Fe  Fe68  1  0.25032356  0.50095104  0.00206308  1
  Fe  Fe69  1  0.25110246  0.74988602  0.49991727  1
  Fe  Fe70  1  0.12597252  0.12494147  0.37200793  1
  Fe  Fe71  1  0.74738347  0.50244622  -0.00157824  1
  Fe  Fe72  1  0.62758515  0.37572318  0.62216533  1
  Fe  Fe73  1  0.87562243  0.62505248  0.12559332  1
  Fe  Fe74  1  0.50060006  0.74999889  0.49942539  1
  Fe  Fe75  1  0.37302294  0.87777197  0.87544482  1
  Fe  Fe76  1  0.75096449  0.75275748  0.25043372  1
  Fe  Fe77  1  -0.00112000  0.75069322  0.49781454  1
  Fe  Fe78  1  0.87478858  0.12518811  0.62493426  1
  Fe  Fe79  1  0.87499515  0.62517786  0.62605106  1
  Fe  Fe80  1  0.74942866  -0.00284970  0.74735881  1
  Fe  Fe81  1  0.62361285  0.62584145  0.12647814  1
  Fe  Fe82  1  0.25165439  0.50080438  0.74642198  1
  Fe  Fe83  1  0.37540206  0.37459678  0.87591953  1
  Fe  Fe84  1  0.37648050  0.37377565  0.62120076  1
  Fe  Fe85  1  0.12301131  0.87481248  0.62474032  1
  Fe  Fe86  1  0.62373907  0.87415873  0.12501966  1
  Fe  Fe87  1  0.50330505  0.24512657  -0.00377250  1
  Fe  Fe88  1  -0.00355875  -0.00111566  0.24960863  1
  Fe  Fe89  1  0.50164447  0.00249208  -0.00081692  1
  Co  Co90  1  0.87753553  0.62475488  0.87557415  1
  Co  Co91  1  0.74813620  0.24714800  0.49947326  1
  Co  Co92  1  0.37384185  0.37465028  0.38092243  1
  Co  Co93  1  0.50453830  0.00282599  0.49836029  1
  Co  Co94  1  0.62731795  0.12177920  0.87202060  1
  Co  Co95  1  0.37400689  0.12371259  0.87323044  1
  Co  Co96  1  0.24721198  0.00059689  0.50062814  1
  Co  Co97  1  0.62873352  0.37768547  0.37836851  1
  Co  Co98  1  0.12179654  0.12581961  0.62468349  1
  Co  Co99  1  0.62451915  0.12636675  0.12982354  1
  Co  Co100  1  0.74837030  0.25514235  0.25102252  1
  Co  Co101  1  0.74643176  0.24862776  -0.00116659  1
  Co  Co102  1  0.63078808  0.12154746  0.36947256  1
  Co  Co103  1  0.12247223  0.12731552  0.12960609  1
  Co  Co104  1  0.25441024  0.75031902  0.24871219  1
  Co  Co105  1  -0.00019143  0.24961975  -0.00103067  1
  Co  Co106  1  0.12258104  0.62647243  0.62481688  1
  Co  Co107  1  0.61879693  0.62955193  0.87272883  1
  Co  Co108  1  0.62304967  0.87328967  0.62566615  1
  Co  Co109  1  0.37480274  0.87722044  0.37733269  1
  Co  Co110  1  0.50076126  0.49538960  0.74831049  1
  Co  Co111  1  0.37856798  0.62396654  0.62377925  1
  Co  Co112  1  -0.00348864  0.75226258  0.25089298  1
  Co  Co113  1  0.75068713  0.50357259  0.50072816  1
  Co  Co114  1  0.87734329  0.87580814  0.62460040  1
  Co  Co115  1  0.37908882  0.37307989  0.12118450  1
  Co  Co116  1  0.62522595  0.37550559  0.87626820  1
  Co  Co117  1  0.75187063  0.74905746  0.74979102  1
  Co  Co118  1  0.25231162  0.49531391  0.24890566  1
  Co  Co119  1  0.87311925  0.37457320  0.12158537  1
  Co  Co120  1  0.49653520  0.75369041  0.74842020  1
  Co  Co121  1  0.25223103  0.00104643  0.24862873  1
  Co  Co122  1  0.87173175  0.87749071  0.37833536  1
  Co  Co123  1  0.62283958  0.62583837  0.62732047  1
  Co  Co124  1  0.62404868  0.12618053  0.62880067  1
  Co  Co125  1  0.12456522  0.62479890  0.12857774  1
  Co  Co126  1  0.75113723  -0.00423606  0.24538087  1
  Co  Co127  1  0.38115746  0.12542632  0.12729770  1
