# generated using pymatgen
data_Fe45Co19
_symmetry_space_group_name_H-M   'P 1'
_cell_length_a   11.41447983
_cell_length_b   11.41409210
_cell_length_c   11.41528551
_cell_angle_alpha   89.99321193
_cell_angle_beta   89.99583307
_cell_angle_gamma   89.99945773
_symmetry_Int_Tables_number   1
_chemical_formula_structural   Fe45Co19
_chemical_formula_sum   'Fe90 Co38'
_cell_volume   1487.25100602
_cell_formula_units_Z   2
loop_
 _symmetry_equiv_pos_site_id
 _symmetry_equiv_pos_as_xyz
  1  'x, y, z'
loop_
 _atom_site_type_symbol
 _atom_site_label
 _atom_site_symmetry_multiplicity
 _atom_site_fract_x
 _atom_site_fract_y
 _atom_site_fract_z
 _atom_site_occupancy
  Fe  Fe0  1  0.87770139  0.62377215  0.37516429  1
  Fe  Fe1  1  0.00197390  0.75016747  0.00172259  1
  Fe  Fe2  1  0.24876016  0.50028447  0.74949889  1
  Fe  Fe3  1  0.87565596  0.62341119  0.87796194  1
  Fe  Fe4  1  0.49656361  0.25092156  0.25182474  1
  Fe  Fe5  1  0.74926389  0.74923638  0.24919287  1
  Fe  Fe6  1  0.75114656  0.00129924  -0.00150737  1
  Fe  Fe7  1  0.37535003  0.12664445  0.87643179  1
  Fe  Fe8  1  -0.00184753  0.00105738  0.49762525  1
  Fe  Fe9  1  0.12570105  0.87339079  0.62284382  1
  Fe  Fe10  1  0.37434459  0.62440694  0.62415611  1
  Fe  Fe11  1  0.24949956  0.24910275  0.74962731  1
  Fe  Fe12  1  0.12193504  0.12661434  0.87421641  1
  Fe  Fe13  1  0.12260898  0.12656163  0.62352674  1
  Fe  Fe14  1  0.25016744  0.00112696  0.74959789  1
  Fe  Fe15  1  0.49840937  0.49850565  0.75153268  1
  Fe  Fe16  1  0.62696465  0.37826171  0.87735213  1
  Fe  Fe17  1  0.50297850  -0.00362035  0.24886129  1
  Fe  Fe18  1  0.50098001  0.25180748  0.49835406  1
  Fe  Fe19  1  0.37293220  0.62674328  0.87573433  1
  Fe  Fe20  1  0.12571668  0.37288767  0.62321043  1
  Fe  Fe21  1  0.25026579  0.50121650  0.25150668  1
  Fe  Fe22  1  0.87562825  0.62088920  0.62296506  1
  Fe  Fe23  1  0.00009553  0.25041579  0.24585440  1
  Fe  Fe24  1  0.50221871  0.49865771  0.49986071  1
  Fe  Fe25  1  0.50234096  0.75192499  0.50019400  1
  Fe  Fe26  1  0.37745133  0.62583672  0.37457506  1
  Fe  Fe27  1  0.12592513  0.87301187  0.87457496  1
  Fe  Fe28  1  0.37604877  0.12444218  0.62334060  1
  Fe  Fe29  1  0.37194710  0.37420237  0.87712987  1
  Fe  Fe30  1  0.62482183  0.87500821  0.87451939  1
  Fe  Fe31  1  0.75349156  0.00080730  0.75350682  1
  Fe  Fe32  1  0.87412951  0.87549644  0.62515443  1
  Fe  Fe33  1  0.87383437  0.37814104  0.62210434  1
  Fe  Fe34  1  0.37294420  0.37443344  0.12572441  1
  Fe  Fe35  1  0.75222055  0.25427481  0.24663909  1
  Fe  Fe36  1  -0.00190183  0.00022611  -0.00161045  1
  Fe  Fe37  1  -0.00122291  0.74967376  0.74916841  1
  Fe  Fe38  1  0.49971362  -0.00087812  0.00061567  1
  Fe  Fe39  1  0.75108343  0.74884024  0.75042210  1
  Fe  Fe40  1  -0.00164623  -0.00066368  0.25178513  1
  Fe  Fe41  1  0.37327031  0.37598802  0.62296708  1
  Fe  Fe42  1  0.62394132  0.62227449  0.12577599  1
  Fe  Fe43  1  0.62728708  0.37725694  0.37179867  1
  Fe  Fe44  1  -0.00488153  0.49845944  0.24677586  1
  Fe  Fe45  1  0.12472886  0.37298707  0.37178291  1
  Fe  Fe46  1  0.62310418  0.12573778  0.12581622  1
  Fe  Fe47  1  0.49939115  0.25166568  0.75006792  1
  Fe  Fe48  1  0.74975082  0.74877962  0.50039853  1
  Fe  Fe49  1  0.49855873  0.74879474  0.00332062  1
  Fe  Fe50  1  0.62633369  0.12467775  0.62776653  1
  Fe  Fe51  1  0.75026530  0.00161922  0.49880636  1
  Fe  Fe52  1  0.75387623  0.25114789  0.75168310  1
  Fe  Fe53  1  0.50046098  0.75088015  0.74892005  1
  Fe  Fe54  1  0.25058106  0.00554201  0.25278430  1
  Fe  Fe55  1  0.12368757  0.37404493  0.87739692  1
  Fe  Fe56  1  0.24977367  0.50221526  0.00190873  1
  Fe  Fe57  1  0.24689533  0.50245873  0.49659852  1
  Fe  Fe58  1  0.62517322  0.62143256  0.87587758  1
  Fe  Fe59  1  0.24542425  0.24717997  0.00610672  1
  Fe  Fe60  1  0.50220164  0.25201359  0.00094217  1
  Fe  Fe61  1  0.12383505  0.62682505  0.62274751  1
  Fe  Fe62  1  0.87550106  0.12624517  0.12328591  1
  Fe  Fe63  1  0.37300745  0.87237815  0.87488351  1
  Fe  Fe64  1  0.87439853  0.87285323  0.12362244  1
  Fe  Fe65  1  0.00000314  0.49741604  0.75083011  1
  Fe  Fe66  1  0.24953224  0.74873545  0.25157866  1
  Fe  Fe67  1  0.12523606  0.87369635  0.37666854  1
  Fe  Fe68  1  0.12371203  0.62513515  0.12750039  1
  Fe  Fe69  1  0.75111578  0.24990003  0.49790917  1
  Fe  Fe70  1  0.25031371  0.00118213  0.00038930  1
  Fe  Fe71  1  0.62490832  0.62427976  0.37237011  1
  Fe  Fe72  1  0.25260394  0.24687446  0.49388562  1
  Fe  Fe73  1  0.37237735  0.87504174  0.62404221  1
  Fe  Fe74  1  0.74881358  -0.00147665  0.24819530  1
  Fe  Fe75  1  0.87725128  0.37251151  0.88369731  1
  Fe  Fe76  1  0.12501836  0.87656209  0.12589639  1
  Fe  Fe77  1  0.12608442  0.62700940  0.87476389  1
  Fe  Fe78  1  -0.00412794  0.24929273  0.49841511  1
  Fe  Fe79  1  0.37345009  0.87432534  0.12589597  1
  Fe  Fe80  1  0.87272884  0.87392938  0.37441337  1
  Fe  Fe81  1  0.62398667  0.12435728  0.87329797  1
  Fe  Fe82  1  0.37580413  0.87556800  0.37518304  1
  Fe  Fe83  1  0.62791873  0.37704041  0.62618924  1
  Fe  Fe84  1  -0.00244289  0.00123238  0.75132645  1
  Fe  Fe85  1  0.49844582  0.49938189  0.24825525  1
  Fe  Fe86  1  0.74947431  0.74874934  0.00006609  1
  Fe  Fe87  1  0.50411833  -0.00225908  0.50145017  1
  Fe  Fe88  1  0.62739272  0.62210951  0.62686924  1
  Fe  Fe89  1  0.62568117  0.12503322  0.37296853  1
  Co  Co90  1  0.87482761  0.12447934  0.62543853  1
  Co  Co91  1  0.62762785  0.87408136  0.37500379  1
  Co  Co92  1  0.50138405  0.75225791  0.24845366  1
  Co  Co93  1  0.87779524  0.13119988  0.87843619  1
  Co  Co94  1  0.12335399  0.11982835  0.12775940  1
  Co  Co95  1  0.87375287  0.12585729  0.37113186  1
  Co  Co96  1  0.37796679  0.12499103  0.12497547  1
  Co  Co97  1  0.37400202  0.37777092  0.37500763  1
  Co  Co98  1  0.11969697  0.62521738  0.37251047  1
  Co  Co99  1  0.75507252  0.49921846  0.24668846  1
  Co  Co100  1  0.62717763  0.87371172  0.12204271  1
  Co  Co101  1  0.87660782  0.37257154  0.11753369  1
  Co  Co102  1  0.87541407  0.87151021  0.87567076  1
  Co  Co103  1  -0.00161810  0.75116201  0.49918231  1
  Co  Co104  1  0.74875611  0.50034243  0.49599378  1
  Co  Co105  1  0.74475199  0.24881549  0.00224750  1
  Co  Co106  1  0.00013332  0.75284971  0.25001991  1
  Co  Co107  1  0.00307274  0.49827204  0.49929201  1
  Co  Co108  1  0.24960349  0.75014593  0.74769498  1
  Co  Co109  1  0.38004152  0.12079443  0.37584965  1
  Co  Co110  1  0.24826591  0.74965530  0.00425059  1
  Co  Co111  1  0.24777715  0.00179756  0.49880122  1
  Co  Co112  1  0.49751489  0.49966350  -0.00000374  1
  Co  Co113  1  0.25126757  0.24561365  0.25026996  1
  Co  Co114  1  0.12692200  0.37873493  0.12769229  1
  Co  Co115  1  0.00168652  0.50327434  0.00172773  1
  Co  Co116  1  0.75382197  0.49804491  0.75363554  1
  Co  Co117  1  0.00681415  0.24794640  0.00574586  1
  Co  Co118  1  0.37492542  0.62504207  0.12725030  1
  Co  Co119  1  0.62856680  0.87576992  0.62787555  1
  Co  Co120  1  0.12126744  0.12777595  0.37497070  1
  Co  Co121  1  0.87571326  0.37583180  0.37542795  1
  Co  Co122  1  0.49719718  -0.00070548  0.75013841  1
  Co  Co123  1  0.87628171  0.62941568  0.12437100  1
  Co  Co124  1  -0.00274848  0.25335493  0.74840398  1
  Co  Co125  1  0.75058396  0.50037829  0.00543321  1
  Co  Co126  1  0.62241776  0.37794636  0.12722522  1
  Co  Co127  1  0.25014246  0.74775714  0.49680107  1
