# generated using pymatgen
data_Fe45Co19
_symmetry_space_group_name_H-M   'P 1'
_cell_length_a   11.41584225
_cell_length_b   11.41463492
_cell_length_c   11.41505141
_cell_angle_alpha   90.00521481
_cell_angle_beta   89.99051369
_cell_angle_gamma   90.00381375
_symmetry_Int_Tables_number   1
_chemical_formula_structural   Fe45Co19
_chemical_formula_sum   'Fe90 Co38'
_cell_volume   1487.46874079
_cell_formula_units_Z   2
loop_
 _symmetry_equiv_pos_site_id
 _symmetry_equiv_pos_as_xyz
  1  'x, y, z'
loop_
 _atom_site_type_symbol
 _atom_site_label
 _atom_site_symmetry_multiplicity
 _atom_site_fract_x
 _atom_site_fract_y
 _atom_site_fract_z
 _atom_site_occupancy
  Fe  Fe0  1  0.62766470  0.12664993  0.37545621  1
  Fe  Fe1  1  0.87513815  0.12848991  0.87796393  1
  Fe  Fe2  1  0.24688147  0.00171917  0.75182913  1
  Fe  Fe3  1  0.87302688  0.87407403  0.12624278  1
  Fe  Fe4  1  0.49891244  0.49916735  0.24931762  1
  Fe  Fe5  1  0.75057484  -0.00071119  0.50014291  1
  Fe  Fe6  1  0.37538669  0.87431700  0.87709666  1
  Fe  Fe7  1  0.62388990  0.37252780  0.87278968  1
  Fe  Fe8  1  0.49978931  0.00418734  0.74762010  1
  Fe  Fe9  1  0.50273365  0.49992493  -0.00044723  1
  Fe  Fe10  1  0.87178178  0.12546355  0.12743236  1
  Fe  Fe11  1  0.12629964  0.62085252  0.37074044  1
  Fe  Fe12  1  0.12569933  0.62345644  0.87644887  1
  Fe  Fe13  1  0.12651988  0.12891385  0.12368379  1
  Fe  Fe14  1  0.62333018  0.62494983  0.37535922  1
  Fe  Fe15  1  0.00298977  0.00458161  0.49605706  1
  Fe  Fe16  1  0.50115155  0.00036084  0.00084987  1
  Fe  Fe17  1  0.49883637  0.24986038  0.50637585  1
  Fe  Fe18  1  0.12368388  0.62184128  0.62719168  1
  Fe  Fe19  1  0.24841967  0.00036475  -0.00139457  1
  Fe  Fe20  1  0.74951042  -0.00074839  0.00059996  1
  Fe  Fe21  1  0.87649650  0.62132982  0.37435941  1
  Fe  Fe22  1  0.24926933  0.49687213  0.50032924  1
  Fe  Fe23  1  0.11743063  0.37543700  0.62784147  1
  Fe  Fe24  1  0.75418450  0.25348351  0.49954398  1
  Fe  Fe25  1  -0.00376958  0.24888231  0.25313292  1
  Fe  Fe26  1  0.87643160  0.87558874  0.87487426  1
  Fe  Fe27  1  0.37408309  0.62356438  0.87483531  1
  Fe  Fe28  1  0.37837581  0.37499425  0.12421690  1
  Fe  Fe29  1  0.24981195  0.74924161  0.50021684  1
  Fe  Fe30  1  0.24714523  0.25020769  0.74954502  1
  Fe  Fe31  1  0.00227772  0.00495578  0.75311414  1
  Fe  Fe32  1  0.75180126  0.49749313  0.50148202  1
  Fe  Fe33  1  0.87302153  0.62577028  0.12407221  1
  Fe  Fe34  1  0.12379689  0.87596580  0.62587166  1
  Fe  Fe35  1  0.87896586  0.87601887  0.62446110  1
  Fe  Fe36  1  0.62544453  0.87438085  0.87422350  1
  Fe  Fe37  1  0.25239132  -0.00103634  0.24979601  1
  Fe  Fe38  1  0.62381429  0.37479958  0.37561115  1
  Fe  Fe39  1  0.24922453  0.49643423  -0.00024956  1
  Fe  Fe40  1  0.25289920  0.25304393  0.24934294  1
  Fe  Fe41  1  0.37403016  0.62320246  0.37611475  1
  Fe  Fe42  1  0.37494092  0.12573567  0.12339882  1
  Fe  Fe43  1  0.00019523  0.74816560  0.75104764  1
  Fe  Fe44  1  0.74671173  0.49930285  0.00190291  1
  Fe  Fe45  1  0.12455680  0.37494052  0.12630776  1
  Fe  Fe46  1  0.75150249  0.74914136  0.49961840  1
  Fe  Fe47  1  0.75162324  0.75084770  0.74880687  1
  Fe  Fe48  1  0.87967298  0.12830421  0.62263198  1
  Fe  Fe49  1  0.87755262  0.62193291  0.62531055  1
  Fe  Fe50  1  0.12641335  0.87478863  0.37380898  1
  Fe  Fe51  1  0.62634319  0.62633397  0.87533475  1
  Fe  Fe52  1  0.87220394  0.37438535  0.12584269  1
  Fe  Fe53  1  0.74751771  0.25072299  0.00256732  1
  Fe  Fe54  1  0.37339845  0.12756921  0.37665704  1
  Fe  Fe55  1  0.49902918  0.00261371  0.50082971  1
  Fe  Fe56  1  0.49957572  -0.00151099  0.24987040  1
  Fe  Fe57  1  0.87320064  0.62341102  0.87641201  1
  Fe  Fe58  1  0.62511665  0.62379988  0.62455680  1
  Fe  Fe59  1  0.49779638  0.49753690  0.50291698  1
  Fe  Fe60  1  -0.00008975  0.49615334  -0.00084798  1
  Fe  Fe61  1  0.62371948  0.87218854  0.37658311  1
  Fe  Fe62  1  0.00142551  0.74754239  0.49830971  1
  Fe  Fe63  1  0.62465148  0.12761619  0.87374862  1
  Fe  Fe64  1  0.37385789  0.62541166  0.12207262  1
  Fe  Fe65  1  0.74788817  0.49974479  0.24914717  1
  Fe  Fe66  1  0.24917160  0.75014086  0.75121380  1
  Fe  Fe67  1  0.50013693  0.25045454  0.24925252  1
  Fe  Fe68  1  0.37517455  0.12831934  0.87536004  1
  Fe  Fe69  1  0.12639441  0.87372111  0.12335729  1
  Fe  Fe70  1  0.75185897  0.00187906  0.74900654  1
  Fe  Fe71  1  0.62586895  0.12706350  0.12616032  1
  Fe  Fe72  1  0.24650248  0.25314772  0.50182522  1
  Fe  Fe73  1  0.62414734  0.87518052  0.62466877  1
  Fe  Fe74  1  0.37511615  0.87578664  0.62340592  1
  Fe  Fe75  1  0.49964888  0.74824273  0.74905540  1
  Fe  Fe76  1  0.25129276  0.74972738  0.24823985  1
  Fe  Fe77  1  0.75211122  0.49665369  0.74822909  1
  Fe  Fe78  1  0.37740680  0.37394331  0.87066386  1
  Fe  Fe79  1  0.87552432  0.87637584  0.37346214  1
  Fe  Fe80  1  0.00094480  0.00246328  0.00046267  1
  Fe  Fe81  1  0.00125473  0.00247496  0.25044718  1
  Fe  Fe82  1  0.24860922  0.00119579  0.49915399  1
  Fe  Fe83  1  0.62667564  0.86967201  0.12440211  1
  Fe  Fe84  1  0.00093689  0.74958721  -0.00005037  1
  Fe  Fe85  1  0.12306959  0.37812801  0.37069464  1
  Fe  Fe86  1  0.00073738  0.74752619  0.24914966  1
  Fe  Fe87  1  0.37402503  0.62142299  0.62683375  1
  Fe  Fe88  1  0.75187068  0.25146388  0.74620437  1
  Fe  Fe89  1  0.49684753  0.75083942  0.24976426  1
  Co  Co90  1  0.00248833  0.50110984  0.49914787  1
  Co  Co91  1  -0.00159645  0.49918291  0.75590450  1
  Co  Co92  1  0.36990763  0.12489189  0.62424762  1
  Co  Co93  1  0.24687970  0.49868740  0.75118972  1
  Co  Co94  1  -0.00172018  0.25249659  0.00202858  1
  Co  Co95  1  0.00115250  0.24853238  0.49220341  1
  Co  Co96  1  0.62920738  0.12497929  0.62357525  1
  Co  Co97  1  0.62371658  0.37426459  0.12610344  1
  Co  Co98  1  0.12520374  0.37269440  0.87586363  1
  Co  Co99  1  0.75029737  0.25314411  0.25220785  1
  Co  Co100  1  0.87025322  0.12223137  0.37339823  1
  Co  Co101  1  0.50041677  0.24706641  0.74498569  1
  Co  Co102  1  0.50238276  0.50095663  0.74989982  1
  Co  Co103  1  0.12274305  0.87486628  0.87498555  1
  Co  Co104  1  -0.00211864  0.50088108  0.24556184  1
  Co  Co105  1  0.88267018  0.37451108  0.62389012  1
  Co  Co106  1  0.87068510  0.37311176  0.87662147  1
  Co  Co107  1  0.49996482  0.25029889  0.00018695  1
  Co  Co108  1  0.13022614  0.12634519  0.37144553  1
  Co  Co109  1  0.62497827  0.37556399  0.62515588  1
  Co  Co110  1  0.49973889  0.74904265  -0.00128467  1
  Co  Co111  1  0.37450822  0.37640221  0.62924343  1
  Co  Co112  1  0.25297869  0.25397945  0.00093557  1
  Co  Co113  1  -0.00036425  0.25010733  0.75526334  1
  Co  Co114  1  0.25472576  0.49793896  0.24854539  1
  Co  Co115  1  0.37353661  0.87502705  0.12122560  1
  Co  Co116  1  0.87677130  0.37954572  0.37447875  1
  Co  Co117  1  0.62479028  0.62765984  0.12600695  1
  Co  Co118  1  0.49831931  0.74763914  0.50198401  1
  Co  Co119  1  0.12686747  0.62264160  0.12434165  1
  Co  Co120  1  0.75110147  0.75085189  -0.00196717  1
  Co  Co121  1  0.12256821  0.12667620  0.62527676  1
  Co  Co122  1  0.24813264  0.74972356  -0.00173444  1
  Co  Co123  1  0.37477680  0.87536884  0.37715439  1
  Co  Co124  1  0.37653326  0.37276373  0.37687923  1
  Co  Co125  1  0.74613629  -0.00218667  0.24951976  1
  Co  Co126  1  0.75180061  0.74843984  0.25346299  1
  Co  Co127  1  0.12586259  0.12960127  0.88017606  1
