# generated using pymatgen
data_Fe45Co19
_symmetry_space_group_name_H-M   'P 1'
_cell_length_a   11.41480243
_cell_length_b   11.41336257
_cell_length_c   11.41599340
_cell_angle_alpha   89.99908362
_cell_angle_beta   90.00068597
_cell_angle_gamma   90.00252841
_symmetry_Int_Tables_number   1
_chemical_formula_structural   Fe45Co19
_chemical_formula_sum   'Fe90 Co38'
_cell_volume   1487.29021620
_cell_formula_units_Z   2
loop_
 _symmetry_equiv_pos_site_id
 _symmetry_equiv_pos_as_xyz
  1  'x, y, z'
loop_
 _atom_site_type_symbol
 _atom_site_label
 _atom_site_symmetry_multiplicity
 _atom_site_fract_x
 _atom_site_fract_y
 _atom_site_fract_z
 _atom_site_occupancy
  Fe  Fe0  1  0.74679439  0.49840245  -0.00061329  1
  Fe  Fe1  1  0.25114983  0.74927510  0.50102662  1
  Fe  Fe2  1  0.87076387  0.37555811  0.87319523  1
  Fe  Fe3  1  0.87807167  0.12804164  0.37317245  1
  Fe  Fe4  1  0.62555291  0.87606326  0.37595584  1
  Fe  Fe5  1  0.62550471  0.12911124  0.62087040  1
  Fe  Fe6  1  0.75107738  0.00176070  0.50029178  1
  Fe  Fe7  1  0.00160176  0.50111718  0.25041261  1
  Fe  Fe8  1  0.50143873  0.00096933  0.24970977  1
  Fe  Fe9  1  0.74945619  0.74855252  0.74866202  1
  Fe  Fe10  1  0.62334923  0.62501366  0.37609573  1
  Fe  Fe11  1  0.37250307  0.12459731  0.62597111  1
  Fe  Fe12  1  0.37780171  0.62372665  0.12660095  1
  Fe  Fe13  1  0.37313010  0.12431385  0.37532104  1
  Fe  Fe14  1  0.49972427  0.49697567  0.50349002  1
  Fe  Fe15  1  0.74787957  0.49887863  0.25120441  1
  Fe  Fe16  1  0.62477499  0.87479559  0.87329973  1
  Fe  Fe17  1  0.75097738  0.75085977  -0.00022535  1
  Fe  Fe18  1  0.25353317  0.25239599  -0.00199682  1
  Fe  Fe19  1  0.62250255  0.62572290  0.12570466  1
  Fe  Fe20  1  0.49536628  0.74950541  -0.00267259  1
  Fe  Fe21  1  0.25115662  0.50073230  -0.00082612  1
  Fe  Fe22  1  0.24910146  0.24932389  0.50276390  1
  Fe  Fe23  1  0.12554502  0.87520071  0.87840009  1
  Fe  Fe24  1  0.25301704  0.74922347  0.75316908  1
  Fe  Fe25  1  0.75064047  0.50105772  0.50030413  1
  Fe  Fe26  1  0.74987647  0.74948950  0.24989497  1
  Fe  Fe27  1  0.37760854  0.38219558  0.87061091  1
  Fe  Fe28  1  0.24963991  0.75109536  0.24696871  1
  Fe  Fe29  1  0.12267908  0.62454934  0.62626367  1
  Fe  Fe30  1  0.12583710  0.12486646  0.87641922  1
  Fe  Fe31  1  0.50259839  0.24825833  0.25148159  1
  Fe  Fe32  1  0.49969552  -0.00047160  -0.00148664  1
  Fe  Fe33  1  -0.00261339  0.25182376  -0.00019332  1
  Fe  Fe34  1  0.12444304  0.37380077  0.37554613  1
  Fe  Fe35  1  0.87270716  0.62416570  0.87283640  1
  Fe  Fe36  1  0.37563638  0.12419953  0.12593497  1
  Fe  Fe37  1  0.24854589  0.24938923  0.24876453  1
  Fe  Fe38  1  0.12541910  0.62460374  0.87538939  1
  Fe  Fe39  1  0.12500591  0.87312028  0.37425038  1
  Fe  Fe40  1  0.62289869  0.87361311  0.62499638  1
  Fe  Fe41  1  0.87663158  0.87609347  0.12531570  1
  Fe  Fe42  1  0.62528101  0.37259886  0.12398567  1
  Fe  Fe43  1  0.87340711  0.12724143  0.12638999  1
  Fe  Fe44  1  0.25102324  -0.00132942  0.74921596  1
  Fe  Fe45  1  0.49709122  -0.00013324  0.50225405  1
  Fe  Fe46  1  0.00324901  0.00069355  0.24810887  1
  Fe  Fe47  1  0.37628979  0.62151795  0.62852877  1
  Fe  Fe48  1  0.12528305  0.12600888  0.37649152  1
  Fe  Fe49  1  0.37571437  0.12337544  0.87307411  1
  Fe  Fe50  1  0.62517242  0.12891146  0.87634808  1
  Fe  Fe51  1  0.87696997  0.87438959  0.37487204  1
  Fe  Fe52  1  0.75016358  0.00014222  -0.00115454  1
  Fe  Fe53  1  0.87721175  0.62720971  0.37568402  1
  Fe  Fe54  1  0.62297061  0.87416732  0.12500743  1
  Fe  Fe55  1  0.12474362  0.37513977  0.12294163  1
  Fe  Fe56  1  0.25247936  -0.00379348  0.00201323  1
  Fe  Fe57  1  0.00018452  0.50147466  0.49978568  1
  Fe  Fe58  1  0.37629202  0.37632057  0.12712837  1
  Fe  Fe59  1  0.49851389  0.74765360  0.75233555  1
  Fe  Fe60  1  0.49725375  0.75104804  0.49803774  1
  Fe  Fe61  1  0.12454842  0.62637910  0.12386873  1
  Fe  Fe62  1  0.87278947  0.37624517  0.62617750  1
  Fe  Fe63  1  0.87497921  0.87504469  0.62510418  1
  Fe  Fe64  1  0.37418197  0.37380362  0.37525007  1
  Fe  Fe65  1  0.87743537  0.12575455  0.62544338  1
  Fe  Fe66  1  0.00035075  -0.00127921  0.75191651  1
  Fe  Fe67  1  0.24929856  0.50142702  0.49991919  1
  Fe  Fe68  1  0.87436456  0.12484099  0.87485488  1
  Fe  Fe69  1  -0.00139218  0.49812233  -0.00273192  1
  Fe  Fe70  1  0.00288704  0.00035353  0.50151719  1
  Fe  Fe71  1  0.12607789  0.12516928  0.12137872  1
  Fe  Fe72  1  0.50066063  0.25320668  0.74678515  1
  Fe  Fe73  1  0.12508125  0.37592804  0.62602752  1
  Fe  Fe74  1  0.74830308  0.00162407  0.74947170  1
  Fe  Fe75  1  0.37246591  0.87724389  0.37329044  1
  Fe  Fe76  1  0.24933510  0.25255666  0.75118640  1
  Fe  Fe77  1  0.74682664  0.00298338  0.25051349  1
  Fe  Fe78  1  0.75183863  0.74980410  0.50069020  1
  Fe  Fe79  1  0.74222430  0.50223614  0.74849888  1
  Fe  Fe80  1  0.12669008  0.87462465  0.62462727  1
  Fe  Fe81  1  0.87451140  0.62250823  0.12481446  1
  Fe  Fe82  1  0.37596272  0.62260702  0.37251616  1
  Fe  Fe83  1  -0.00231230  0.75065579  -0.00077085  1
  Fe  Fe84  1  -0.00219916  0.75053159  0.75011466  1
  Fe  Fe85  1  0.24903730  0.49960842  0.25055319  1
  Fe  Fe86  1  0.00077700  0.25200469  0.75090704  1
  Fe  Fe87  1  0.87745422  0.37115253  0.37142450  1
  Fe  Fe88  1  0.62452352  0.37104520  0.37944505  1
  Fe  Fe89  1  0.49798193  0.25190655  -0.00116930  1
  Co  Co90  1  0.12571481  0.12469969  0.62837923  1
  Co  Co91  1  0.37738023  0.87492455  0.12647796  1
  Co  Co92  1  0.00065206  0.25087235  0.50384519  1
  Co  Co93  1  0.24582261  0.50025318  0.75076703  1
  Co  Co94  1  0.37644831  0.61761013  0.87243066  1
  Co  Co95  1  0.62428896  0.62712401  0.87777050  1
  Co  Co96  1  0.00053865  0.49813689  0.75220404  1
  Co  Co97  1  0.62970753  0.37006583  0.62040978  1
  Co  Co98  1  0.25429145  0.74893796  -0.00104798  1
  Co  Co99  1  0.00017400  0.74981197  0.50207065  1
  Co  Co100  1  0.75046785  0.24772017  0.74904333  1
  Co  Co101  1  0.87573366  0.62340201  0.62636051  1
  Co  Co102  1  0.87468199  0.37621933  0.12828952  1
  Co  Co103  1  0.75295400  0.25134870  0.00201958  1
  Co  Co104  1  0.62554816  0.37065753  0.87570929  1
  Co  Co105  1  0.49463103  0.25021818  0.50223583  1
  Co  Co106  1  0.24768715  0.00018827  0.24745582  1
  Co  Co107  1  0.50233360  0.49722374  0.25139514  1
  Co  Co108  1  -0.00151459  0.74889154  0.24833977  1
  Co  Co109  1  0.62337862  0.12529283  0.38034157  1
  Co  Co110  1  0.12253378  0.87390396  0.12259035  1
  Co  Co111  1  0.37600736  0.87421426  0.62733043  1
  Co  Co112  1  0.37228863  0.37820013  0.62748338  1
  Co  Co113  1  0.50255648  0.00293572  0.74813948  1
  Co  Co114  1  0.62323538  0.62895835  0.62014512  1
  Co  Co115  1  0.75605470  0.24781773  0.49738414  1
  Co  Co116  1  0.50246028  0.49895853  0.00006619  1
  Co  Co117  1  0.74552901  0.24860241  0.25121442  1
  Co  Co118  1  0.24977166  -0.00041146  0.50220308  1
  Co  Co119  1  0.12624524  0.37413046  0.87726241  1
  Co  Co120  1  0.50062742  0.75069026  0.25290479  1
  Co  Co121  1  0.12508806  0.62760452  0.37422020  1
  Co  Co122  1  0.50942904  0.49855971  0.74624580  1
  Co  Co123  1  0.00376392  0.24984232  0.24635883  1
  Co  Co124  1  0.87298857  0.87495322  0.87383358  1
  Co  Co125  1  -0.00255827  0.00081338  -0.00036102  1
  Co  Co126  1  0.37584692  0.87816481  0.87292158  1
  Co  Co127  1  0.62421037  0.12576966  0.12060687  1
