# generated using pymatgen
data_Fe45Co19
_symmetry_space_group_name_H-M   'P 1'
_cell_length_a   11.41472012
_cell_length_b   11.41569528
_cell_length_c   11.41603936
_cell_angle_alpha   90.00147529
_cell_angle_beta   89.99844124
_cell_angle_gamma   89.99806501
_symmetry_Int_Tables_number   1
_chemical_formula_structural   Fe45Co19
_chemical_formula_sum   'Fe90 Co38'
_cell_volume   1487.58945791
_cell_formula_units_Z   2
loop_
 _symmetry_equiv_pos_site_id
 _symmetry_equiv_pos_as_xyz
  1  'x, y, z'
loop_
 _atom_site_type_symbol
 _atom_site_label
 _atom_site_symmetry_multiplicity
 _atom_site_fract_x
 _atom_site_fract_y
 _atom_site_fract_z
 _atom_site_occupancy
  Fe  Fe0  1  0.87530189  0.87344398  0.87385906  1
  Fe  Fe1  1  0.12123393  0.12332499  0.12968540  1
  Fe  Fe2  1  0.37524545  0.37376700  0.12366487  1
  Fe  Fe3  1  0.00152651  0.75136460  0.00061807  1
  Fe  Fe4  1  0.62406806  0.62238371  0.37424641  1
  Fe  Fe5  1  0.37208390  0.87570507  0.37549023  1
  Fe  Fe6  1  0.24847592  0.25091508  0.25099723  1
  Fe  Fe7  1  0.62551241  0.62546309  0.12488571  1
  Fe  Fe8  1  0.12116504  0.37563159  0.37830369  1
  Fe  Fe9  1  0.74858651  0.75039830  0.25118079  1
  Fe  Fe10  1  -0.00315987  0.49824091  0.74812102  1
  Fe  Fe11  1  0.62323348  0.37774187  0.37404309  1
  Fe  Fe12  1  0.12832197  0.87482133  0.87234759  1
  Fe  Fe13  1  0.50352446  0.25255447  0.49994713  1
  Fe  Fe14  1  0.62607726  0.87645549  0.37725388  1
  Fe  Fe15  1  0.50047190  0.75122920  0.25143638  1
  Fe  Fe16  1  0.87681946  0.37019567  0.37901942  1
  Fe  Fe17  1  -0.00155166  0.50084176  -0.00015743  1
  Fe  Fe18  1  0.50413716  0.24928464  -0.00228386  1
  Fe  Fe19  1  0.24989376  0.50016048  0.74966361  1
  Fe  Fe20  1  0.50167621  0.75160280  -0.00159390  1
  Fe  Fe21  1  0.12541845  0.62603002  0.12737604  1
  Fe  Fe22  1  0.12517727  0.12255441  0.62390998  1
  Fe  Fe23  1  0.00404711  0.75241661  0.49621337  1
  Fe  Fe24  1  0.75462377  0.00044320  0.50025677  1
  Fe  Fe25  1  0.75424709  -0.00046139  0.74726515  1
  Fe  Fe26  1  0.37647693  0.37467800  0.62476562  1
  Fe  Fe27  1  0.37370647  0.12716421  0.37643549  1
  Fe  Fe28  1  0.25101980  0.49866518  0.49945375  1
  Fe  Fe29  1  0.00264413  0.75224044  0.25470395  1
  Fe  Fe30  1  0.12251616  0.62071504  0.62256691  1
  Fe  Fe31  1  0.74995930  0.49835989  0.50188856  1
  Fe  Fe32  1  0.62649182  0.87680865  0.12482382  1
  Fe  Fe33  1  0.74985753  0.24740588  0.74975778  1
  Fe  Fe34  1  0.87523928  0.36930842  0.62137270  1
  Fe  Fe35  1  0.37425330  0.62645448  0.12543130  1
  Fe  Fe36  1  -0.00231397  0.00147897  0.49453460  1
  Fe  Fe37  1  0.87362619  0.37301389  0.87790221  1
  Fe  Fe38  1  0.87424226  0.87504556  0.12618181  1
  Fe  Fe39  1  0.49461462  -0.00060651  0.74629900  1
  Fe  Fe40  1  0.37598619  0.62526881  0.62536792  1
  Fe  Fe41  1  0.25032387  0.49859475  0.25207672  1
  Fe  Fe42  1  0.12343883  0.12541195  0.87537413  1
  Fe  Fe43  1  0.87272672  0.62761844  0.87434397  1
  Fe  Fe44  1  0.87467657  0.62935131  0.62335320  1
  Fe  Fe45  1  0.62940975  0.62376239  0.87197430  1
  Fe  Fe46  1  0.50125482  0.50040391  -0.00096235  1
  Fe  Fe47  1  0.75395989  0.00101187  0.25351304  1
  Fe  Fe48  1  0.75252028  0.49899638  0.24984324  1
  Fe  Fe49  1  0.62457591  0.12343127  0.62536393  1
  Fe  Fe50  1  0.62772642  0.37504639  0.12364182  1
  Fe  Fe51  1  0.12452990  0.62479022  0.87519698  1
  Fe  Fe52  1  0.49824621  0.00040066  0.25102717  1
  Fe  Fe53  1  0.49542791  -0.00052939  0.50258567  1
  Fe  Fe54  1  0.37810216  0.62129576  0.37444924  1
  Fe  Fe55  1  0.37253500  0.87299310  0.12644941  1
  Fe  Fe56  1  0.37296394  0.62787853  0.87467990  1
  Fe  Fe57  1  0.62596249  0.12406514  0.12520777  1
  Fe  Fe58  1  0.24762610  0.74852421  0.49774479  1
  Fe  Fe59  1  0.50247616  0.75125718  0.74791222  1
  Fe  Fe60  1  0.24890202  0.50035994  0.00003610  1
  Fe  Fe61  1  0.37456753  0.12642308  0.87524461  1
  Fe  Fe62  1  0.87509074  0.62745004  0.37769336  1
  Fe  Fe63  1  0.00174820  0.75037962  0.74872348  1
  Fe  Fe64  1  0.50108201  0.25056192  0.75037285  1
  Fe  Fe65  1  -0.00180653  0.00052115  0.74840205  1
  Fe  Fe66  1  0.50283452  0.75045286  0.50166001  1
  Fe  Fe67  1  0.62854760  0.37751112  0.87334310  1
  Fe  Fe68  1  0.12758833  0.87552322  0.13095957  1
  Fe  Fe69  1  0.24789108  0.24917204  0.74885102  1
  Fe  Fe70  1  -0.00282824  0.24836213  0.00345928  1
  Fe  Fe71  1  -0.00037902  -0.00095826  0.00035216  1
  Fe  Fe72  1  0.62573951  0.12348704  0.37586464  1
  Fe  Fe73  1  0.12422594  0.37414174  0.87538986  1
  Fe  Fe74  1  0.24713919  0.25020998  0.50008185  1
  Fe  Fe75  1  0.24953916  0.00136516  0.00030926  1
  Fe  Fe76  1  0.37655803  0.12728883  0.12386422  1
  Fe  Fe77  1  -0.00243359  0.49818195  0.25169483  1
  Fe  Fe78  1  0.87509781  0.62610664  0.12487175  1
  Fe  Fe79  1  0.50029010  0.25042609  0.25133562  1
  Fe  Fe80  1  0.12728108  0.87763282  0.62382314  1
  Fe  Fe81  1  0.62646221  0.87739061  0.87287749  1
  Fe  Fe82  1  0.00102926  0.24996222  0.74703744  1
  Fe  Fe83  1  0.75208342  0.00365210  -0.00221407  1
  Fe  Fe84  1  0.62611227  0.62044275  0.62821510  1
  Fe  Fe85  1  0.37000266  0.87267258  0.87115278  1
  Fe  Fe86  1  0.12335757  0.37545496  0.12450015  1
  Fe  Fe87  1  0.37265764  0.37337830  0.87648412  1
  Fe  Fe88  1  0.49886103  -0.00048209  -0.00108794  1
  Fe  Fe89  1  0.75265992  0.24974168  0.24915596  1
  Co  Co90  1  0.87368514  0.37580500  0.12199755  1
  Co  Co91  1  0.87456590  0.12752269  0.62291237  1
  Co  Co92  1  0.00579969  0.24515892  0.50197728  1
  Co  Co93  1  0.74489082  0.74907301  0.50257337  1
  Co  Co94  1  0.24765733  0.75109864  0.00080072  1
  Co  Co95  1  0.25421589  0.00426729  0.24817617  1
  Co  Co96  1  0.75661583  0.49780985  0.74716329  1
  Co  Co97  1  0.12579343  0.12296991  0.37244315  1
  Co  Co98  1  0.25181908  0.00430868  0.74869917  1
  Co  Co99  1  0.74921814  0.75377889  0.74697432  1
  Co  Co100  1  0.62547847  0.87982440  0.62378099  1
  Co  Co101  1  0.87830982  0.12572973  0.87363508  1
  Co  Co102  1  0.12482628  0.37837694  0.62422577  1
  Co  Co103  1  0.49646407  0.49979028  0.75236837  1
  Co  Co104  1  0.12260586  0.61980351  0.37600719  1
  Co  Co105  1  0.25366707  0.00243545  0.50324519  1
  Co  Co106  1  -0.00509556  -0.00219781  0.25628300  1
  Co  Co107  1  0.62419639  0.37690572  0.62877311  1
  Co  Co108  1  -0.00507110  0.49891029  0.50194959  1
  Co  Co109  1  0.74388335  0.25065808  0.50021178  1
  Co  Co110  1  0.87198339  0.87020935  0.37731971  1
  Co  Co111  1  0.37648739  0.13096113  0.62366228  1
  Co  Co112  1  0.50203689  0.49870296  0.50220549  1
  Co  Co113  1  0.87848202  0.87270415  0.62225531  1
  Co  Co114  1  0.87595491  0.13177121  0.37623638  1
  Co  Co115  1  0.37708290  0.37541810  0.37592225  1
  Co  Co116  1  0.49962042  0.49867182  0.24628154  1
  Co  Co117  1  0.75042534  0.50201407  0.00054634  1
  Co  Co118  1  0.62387323  0.12151690  0.87094952  1
  Co  Co119  1  -0.00150518  0.25171487  0.24879969  1
  Co  Co120  1  0.24484714  0.74628638  0.74660643  1
  Co  Co121  1  0.74965522  0.24540498  -0.00125783  1
  Co  Co122  1  0.24992368  0.74647020  0.25486902  1
  Co  Co123  1  0.87570268  0.12248425  0.12669948  1
  Co  Co124  1  0.74964219  0.75115300  -0.00054754  1
  Co  Co125  1  0.24727974  0.24749565  0.00182374  1
  Co  Co126  1  0.37082855  0.87006293  0.62627547  1
  Co  Co127  1  0.13129177  0.88130258  0.37369122  1
