# generated using pymatgen
data_Fe45Co19
_symmetry_space_group_name_H-M   'P 1'
_cell_length_a   11.41512355
_cell_length_b   11.41591085
_cell_length_c   11.41586890
_cell_angle_alpha   90.00122142
_cell_angle_beta   90.00380180
_cell_angle_gamma   89.99981709
_symmetry_Int_Tables_number   1
_chemical_formula_structural   Fe45Co19
_chemical_formula_sum   'Fe90 Co38'
_cell_volume   1487.64791030
_cell_formula_units_Z   2
loop_
 _symmetry_equiv_pos_site_id
 _symmetry_equiv_pos_as_xyz
  1  'x, y, z'
loop_
 _atom_site_type_symbol
 _atom_site_label
 _atom_site_symmetry_multiplicity
 _atom_site_fract_x
 _atom_site_fract_y
 _atom_site_fract_z
 _atom_site_occupancy
  Fe  Fe0  1  0.62473701  0.37405737  0.62311457  1
  Fe  Fe1  1  0.25062857  0.74930218  0.25088453  1
  Fe  Fe2  1  0.25111356  0.75189833  -0.00307922  1
  Fe  Fe3  1  0.49973354  -0.00181528  -0.00235529  1
  Fe  Fe4  1  0.75330536  0.74975507  0.50054996  1
  Fe  Fe5  1  0.12361052  0.87579181  0.12354477  1
  Fe  Fe6  1  0.75014344  0.50053654  0.49959097  1
  Fe  Fe7  1  0.12876397  0.37235879  0.12185169  1
  Fe  Fe8  1  0.49909096  0.75268133  0.75031884  1
  Fe  Fe9  1  -0.00027992  0.74807623  0.74579866  1
  Fe  Fe10  1  0.37140461  0.37381311  0.12607692  1
  Fe  Fe11  1  -0.00087813  -0.00225386  0.50101002  1
  Fe  Fe12  1  0.11712808  0.12641246  0.12189692  1
  Fe  Fe13  1  0.37221999  0.37415205  0.87578907  1
  Fe  Fe14  1  0.25313534  0.00411920  0.50352872  1
  Fe  Fe15  1  0.74785959  0.50330393  0.25111645  1
  Fe  Fe16  1  0.12472669  0.62634256  0.87532394  1
  Fe  Fe17  1  0.62555048  0.62691183  0.87608157  1
  Fe  Fe18  1  -0.00164627  0.75187096  0.00000891  1
  Fe  Fe19  1  0.62423129  0.87165143  0.12349952  1
  Fe  Fe20  1  0.49865056  0.49860158  0.49810926  1
  Fe  Fe21  1  0.49680967  0.00241577  0.50187262  1
  Fe  Fe22  1  0.87378327  0.37541264  0.37193504  1
  Fe  Fe23  1  0.50335636  0.00210377  0.25081455  1
  Fe  Fe24  1  0.12495774  0.37224126  0.87716015  1
  Fe  Fe25  1  0.87717678  0.87626654  0.12845783  1
  Fe  Fe26  1  0.37520041  0.62383940  0.62610432  1
  Fe  Fe27  1  0.62287512  0.62749808  0.37532240  1
  Fe  Fe28  1  0.75678478  0.24715692  0.00362625  1
  Fe  Fe29  1  0.00082919  0.00203424  0.74936170  1
  Fe  Fe30  1  0.62749114  0.87383156  0.87724240  1
  Fe  Fe31  1  0.62239681  0.12661128  0.62476577  1
  Fe  Fe32  1  0.37426194  0.87755532  0.37375161  1
  Fe  Fe33  1  0.75029545  0.24946451  0.74959290  1
  Fe  Fe34  1  0.74937160  0.50129197  -0.00061100  1
  Fe  Fe35  1  0.74992030  0.24580900  0.24724786  1
  Fe  Fe36  1  0.75153063  0.24891571  0.50039962  1
  Fe  Fe37  1  0.24756927  0.49979744  0.74991711  1
  Fe  Fe38  1  0.62508516  0.12685049  0.87736858  1
  Fe  Fe39  1  0.49605539  0.24714379  0.49781491  1
  Fe  Fe40  1  0.37640698  0.12429339  0.12671171  1
  Fe  Fe41  1  0.12480405  0.62622144  0.37740496  1
  Fe  Fe42  1  0.37190042  0.37126315  0.37083365  1
  Fe  Fe43  1  -0.00182349  0.25268486  0.50027221  1
  Fe  Fe44  1  0.37723019  0.12329447  0.86988240  1
  Fe  Fe45  1  0.74956895  0.00310033  0.74867559  1
  Fe  Fe46  1  0.75423830  0.00138812  0.00172277  1
  Fe  Fe47  1  0.00254971  0.49907138  0.74696310  1
  Fe  Fe48  1  0.87440509  0.37604714  0.62645802  1
  Fe  Fe49  1  0.87510939  0.62310129  0.87364304  1
  Fe  Fe50  1  0.00056465  0.49755300  0.00122455  1
  Fe  Fe51  1  0.24571386  0.00348806  0.24906861  1
  Fe  Fe52  1  0.12769510  0.87379415  0.62752511  1
  Fe  Fe53  1  0.24790174  0.24792985  0.74947629  1
  Fe  Fe54  1  0.00350558  0.49811999  0.24895727  1
  Fe  Fe55  1  0.74860692  0.00180292  0.24925371  1
  Fe  Fe56  1  0.49860348  0.50075602  0.25043289  1
  Fe  Fe57  1  0.12209801  0.12923156  0.62276161  1
  Fe  Fe58  1  0.12857011  0.37285551  0.37612843  1
  Fe  Fe59  1  0.25233943  0.75042642  0.50226699  1
  Fe  Fe60  1  0.49677700  0.75107892  0.50059823  1
  Fe  Fe61  1  0.25080346  0.49880654  0.50044943  1
  Fe  Fe62  1  0.87866477  0.62704460  0.37514892  1
  Fe  Fe63  1  0.37391664  0.37248798  0.62636803  1
  Fe  Fe64  1  0.11836090  0.12825142  0.87859737  1
  Fe  Fe65  1  0.62443411  0.87472059  0.37543269  1
  Fe  Fe66  1  0.37497216  0.87643693  0.12579835  1
  Fe  Fe67  1  0.12578470  0.87362755  0.37622987  1
  Fe  Fe68  1  0.87763174  0.87270352  0.37350753  1
  Fe  Fe69  1  0.12748616  0.62523362  0.12309297  1
  Fe  Fe70  1  0.62582275  0.62364607  0.62556906  1
  Fe  Fe71  1  0.75211717  0.00097176  0.50082846  1
  Fe  Fe72  1  0.62333989  0.63044556  0.12310891  1
  Fe  Fe73  1  0.49774607  0.25062191  -0.00012818  1
  Fe  Fe74  1  0.87601149  0.87633867  0.87210825  1
  Fe  Fe75  1  0.24685719  0.00199758  -0.00246521  1
  Fe  Fe76  1  0.87402163  0.37604792  0.87339139  1
  Fe  Fe77  1  0.87670829  0.12520580  0.37376418  1
  Fe  Fe78  1  0.12437546  0.12740019  0.37645441  1
  Fe  Fe79  1  0.50029234  0.49883156  -0.00088987  1
  Fe  Fe80  1  0.37493380  0.62369267  0.87458878  1
  Fe  Fe81  1  0.75172307  0.74897055  0.74874149  1
  Fe  Fe82  1  0.87536611  0.62455732  0.12633040  1
  Fe  Fe83  1  0.62574585  0.37344152  0.12420331  1
  Fe  Fe84  1  0.62509325  0.37225558  0.37367785  1
  Fe  Fe85  1  0.62588378  0.87480612  0.62351153  1
  Fe  Fe86  1  0.37084458  0.87886910  0.86965763  1
  Fe  Fe87  1  0.37417503  0.62513208  0.12465036  1
  Fe  Fe88  1  0.50361463  0.49555026  0.75256813  1
  Fe  Fe89  1  0.00055870  0.49930563  0.50271492  1
  Co  Co90  1  0.88252693  0.12064873  0.12816757  1
  Co  Co91  1  0.24622347  0.24581239  0.24756206  1
  Co  Co92  1  0.00324868  -0.00111846  0.25450916  1
  Co  Co93  1  0.62297964  0.12494099  0.12069418  1
  Co  Co94  1  0.87327398  0.62152442  0.62504901  1
  Co  Co95  1  0.49808662  0.75031604  0.25132273  1
  Co  Co96  1  0.62556818  0.12523071  0.37732175  1
  Co  Co97  1  0.00114383  0.25380088  0.25004675  1
  Co  Co98  1  0.37389772  0.12415870  0.37039103  1
  Co  Co99  1  -0.00065477  0.25143713  0.74905673  1
  Co  Co100  1  0.87156363  0.37877176  0.12875471  1
  Co  Co101  1  0.62896201  0.37095059  0.88068996  1
  Co  Co102  1  0.74994357  0.75013520  0.25076793  1
  Co  Co103  1  0.37225225  0.87732418  0.62887309  1
  Co  Co104  1  0.12753615  0.62480109  0.62332257  1
  Co  Co105  1  0.87716646  0.12470614  0.87418011  1
  Co  Co106  1  0.24864657  0.50070414  0.25083705  1
  Co  Co107  1  0.74665846  0.49780237  0.75069456  1
  Co  Co108  1  0.12653732  0.37305044  0.62382124  1
  Co  Co109  1  0.25380285  0.24633342  0.50177212  1
  Co  Co110  1  -0.00126444  -0.00414158  -0.00311206  1
  Co  Co111  1  0.37355958  0.62474794  0.37588915  1
  Co  Co112  1  0.12434504  0.87292362  0.87212772  1
  Co  Co113  1  0.49527940  0.75260881  -0.00358334  1
  Co  Co114  1  -0.00053142  0.75178370  0.50456357  1
  Co  Co115  1  0.75493448  0.75079891  0.00002670  1
  Co  Co116  1  0.25121158  0.74694375  0.75079097  1
  Co  Co117  1  0.50153960  0.24905991  0.24931745  1
  Co  Co118  1  0.50536537  -0.00310864  0.74989399  1
  Co  Co119  1  0.24968065  0.50095332  -0.00232308  1
  Co  Co120  1  0.00268197  0.74926144  0.24839634  1
  Co  Co121  1  -0.00700528  0.25512251  0.00259032  1
  Co  Co122  1  0.24302709  0.00602091  0.75013468  1
  Co  Co123  1  0.87478040  0.87744912  0.62715977  1
  Co  Co124  1  0.25235011  0.24447356  -0.00075642  1
  Co  Co125  1  0.50238321  0.25439056  0.75250781  1
  Co  Co126  1  0.87700010  0.12559680  0.62433457  1
  Co  Co127  1  0.37826757  0.12507458  0.63213009  1
