# generated using pymatgen
data_Fe45Co19
_symmetry_space_group_name_H-M   'P 1'
_cell_length_a   11.41382919
_cell_length_b   11.41411830
_cell_length_c   11.41565584
_cell_angle_alpha   89.99421610
_cell_angle_beta   89.99809475
_cell_angle_gamma   89.99592379
_symmetry_Int_Tables_number   1
_chemical_formula_structural   Fe45Co19
_chemical_formula_sum   'Fe90 Co38'
_cell_volume   1487.21789274
_cell_formula_units_Z   2
loop_
 _symmetry_equiv_pos_site_id
 _symmetry_equiv_pos_as_xyz
  1  'x, y, z'
loop_
 _atom_site_type_symbol
 _atom_site_label
 _atom_site_symmetry_multiplicity
 _atom_site_fract_x
 _atom_site_fract_y
 _atom_site_fract_z
 _atom_site_occupancy
  Fe  Fe0  1  0.37413074  0.87418078  0.37681602  1
  Fe  Fe1  1  0.12357517  0.37534439  0.87318765  1
  Fe  Fe2  1  0.62212971  0.87772773  0.62303385  1
  Fe  Fe3  1  0.25257109  0.00239723  0.00152168  1
  Fe  Fe4  1  0.24799287  0.24916193  0.24938762  1
  Fe  Fe5  1  -0.00295805  0.49967204  -0.00243932  1
  Fe  Fe6  1  0.12453247  0.12477044  0.12415405  1
  Fe  Fe7  1  0.87386746  0.87461532  0.62502266  1
  Fe  Fe8  1  0.37683654  0.87681279  0.12407435  1
  Fe  Fe9  1  0.25077552  0.49963768  0.49907860  1
  Fe  Fe10  1  0.12622008  0.87529770  0.37501227  1
  Fe  Fe11  1  0.12351214  0.37230000  0.37691438  1
  Fe  Fe12  1  0.87457626  0.87415962  0.12534130  1
  Fe  Fe13  1  0.87746579  0.12280627  0.62390047  1
  Fe  Fe14  1  0.75044047  0.00085690  0.49823521  1
  Fe  Fe15  1  0.74998661  -0.00091671  0.00081762  1
  Fe  Fe16  1  0.87530929  0.62525646  0.12603068  1
  Fe  Fe17  1  0.25171126  0.24909502  -0.00067555  1
  Fe  Fe18  1  0.87365633  0.37323151  0.12771083  1
  Fe  Fe19  1  -0.00107730  -0.00056316  -0.00141341  1
  Fe  Fe20  1  0.62317651  0.12441844  0.87394388  1
  Fe  Fe21  1  0.75074739  0.00366681  0.25122515  1
  Fe  Fe22  1  0.74909583  0.74860464  0.24924717  1
  Fe  Fe23  1  0.37625107  0.37668226  0.87343364  1
  Fe  Fe24  1  0.75048571  0.25031208  -0.00023855  1
  Fe  Fe25  1  0.24894028  0.50042705  0.24981408  1
  Fe  Fe26  1  0.25080889  0.00317992  0.25041456  1
  Fe  Fe27  1  0.12856705  0.87532060  0.87497606  1
  Fe  Fe28  1  -0.00076787  0.25011858  0.00037981  1
  Fe  Fe29  1  0.00128035  0.75104671  0.74956638  1
  Fe  Fe30  1  0.87392120  0.62537569  0.62626187  1
  Fe  Fe31  1  0.25089281  0.50050554  -0.00133751  1
  Fe  Fe32  1  0.50019347  0.25205393  0.74695976  1
  Fe  Fe33  1  0.87188126  0.62957777  0.87266745  1
  Fe  Fe34  1  0.74755430  0.49834363  0.49764007  1
  Fe  Fe35  1  0.12570712  0.12405018  0.87214686  1
  Fe  Fe36  1  0.62751207  0.37496221  0.86993757  1
  Fe  Fe37  1  0.49579281  0.75275973  0.75113904  1
  Fe  Fe38  1  -0.00023101  0.00198539  0.25093885  1
  Fe  Fe39  1  0.50043305  0.74908183  0.24958712  1
  Fe  Fe40  1  0.74765995  0.49873888  0.25398294  1
  Fe  Fe41  1  0.37775100  0.12315919  0.87458379  1
  Fe  Fe42  1  0.49936948  0.25147619  0.25022388  1
  Fe  Fe43  1  0.25604672  -0.00171741  0.74645243  1
  Fe  Fe44  1  0.00116468  0.49922497  0.24964312  1
  Fe  Fe45  1  0.12841945  0.87401540  0.62357259  1
  Fe  Fe46  1  0.62447624  0.12495670  0.12492837  1
  Fe  Fe47  1  0.25048098  0.24840486  0.74717939  1
  Fe  Fe48  1  0.49995915  0.25124571  0.00001830  1
  Fe  Fe49  1  0.00088724  0.75108232  0.49932287  1
  Fe  Fe50  1  0.87454965  0.12563079  0.87475065  1
  Fe  Fe51  1  0.49943711  0.00160368  0.25132874  1
  Fe  Fe52  1  0.50045968  0.74921967  0.49824930  1
  Fe  Fe53  1  0.87461917  0.62518082  0.37571012  1
  Fe  Fe54  1  0.12531115  0.62556436  0.87498781  1
  Fe  Fe55  1  0.37477027  0.62545893  0.62424544  1
  Fe  Fe56  1  0.62565327  0.87520960  0.87580652  1
  Fe  Fe57  1  0.25134138  0.74810230  -0.00030536  1
  Fe  Fe58  1  0.37447278  0.12835297  0.37713020  1
  Fe  Fe59  1  0.74880858  0.00043148  0.74939929  1
  Fe  Fe60  1  0.62365309  0.62518354  0.87381395  1
  Fe  Fe61  1  0.75148490  0.25257508  0.50047855  1
  Fe  Fe62  1  0.25155333  0.50252649  0.75230692  1
  Fe  Fe63  1  0.37801366  0.62187399  0.37538265  1
  Fe  Fe64  1  0.12311693  0.62528354  0.37500232  1
  Fe  Fe65  1  0.87423473  0.87302277  0.37478235  1
  Fe  Fe66  1  -0.00087883  -0.00296348  0.75091623  1
  Fe  Fe67  1  0.87160627  0.37759902  0.62962994  1
  Fe  Fe68  1  0.88084257  0.13064479  0.37635890  1
  Fe  Fe69  1  0.74817119  0.74956036  0.50137830  1
  Fe  Fe70  1  0.12537083  0.37619309  0.12243512  1
  Fe  Fe71  1  0.00051776  0.25113069  0.74730618  1
  Fe  Fe72  1  0.62162842  0.12416905  0.62311504  1
  Fe  Fe73  1  0.24720650  0.24905080  0.50450927  1
  Fe  Fe74  1  0.62380916  0.12835827  0.37763458  1
  Fe  Fe75  1  0.24958811  0.74713916  0.24937876  1
  Fe  Fe76  1  0.49828670  0.25711436  0.50267696  1
  Fe  Fe77  1  0.12477918  0.87343803  0.12589153  1
  Fe  Fe78  1  0.37594029  0.37654610  0.12590626  1
  Fe  Fe79  1  0.62334231  0.62206375  0.62549518  1
  Fe  Fe80  1  0.62572913  0.87427364  0.37408065  1
  Fe  Fe81  1  0.25124026  0.00274234  0.50142031  1
  Fe  Fe82  1  0.12589770  0.62477119  0.62580519  1
  Fe  Fe83  1  -0.00071301  0.75020200  0.00021899  1
  Fe  Fe84  1  0.37729298  0.62103332  0.12328999  1
  Fe  Fe85  1  0.50103582  0.75095357  0.00091676  1
  Fe  Fe86  1  0.62518433  0.37498727  0.12719914  1
  Fe  Fe87  1  -0.00112970  0.49703955  0.50153537  1
  Fe  Fe88  1  0.62402420  0.62293920  0.12532969  1
  Fe  Fe89  1  0.75019826  0.49900613  -0.00295849  1
  Co  Co90  1  0.12232904  0.12113001  0.62631536  1
  Co  Co91  1  0.50311063  0.49668696  -0.00169236  1
  Co  Co92  1  0.62540139  0.87654221  0.12732742  1
  Co  Co93  1  0.37118648  0.37753912  0.62584754  1
  Co  Co94  1  0.00102901  0.74947612  0.25137810  1
  Co  Co95  1  0.37546701  0.87228141  0.61946833  1
  Co  Co96  1  0.25346843  0.75030747  0.75181264  1
  Co  Co97  1  0.74818363  0.74938588  0.00248786  1
  Co  Co98  1  0.37430808  0.87712751  0.87962526  1
  Co  Co99  1  0.87407237  0.37160788  0.87151376  1
  Co  Co100  1  0.12220576  0.12694250  0.37805240  1
  Co  Co101  1  0.00338060  0.24994626  0.24644815  1
  Co  Co102  1  0.50171596  0.49840467  0.25273101  1
  Co  Co103  1  0.62430646  0.37363539  0.37504937  1
  Co  Co104  1  0.87155532  0.87242955  0.87454736  1
  Co  Co105  1  -0.00011094  -0.00296027  0.49881459  1
  Co  Co106  1  0.50145627  0.00067827  0.00106430  1
  Co  Co107  1  0.49787650  -0.00309460  0.74973177  1
  Co  Co108  1  0.12421657  0.62473946  0.12324765  1
  Co  Co109  1  0.74660182  0.75121402  0.74679242  1
  Co  Co110  1  0.75028580  0.50277156  0.75299775  1
  Co  Co111  1  0.49894433  -0.00080820  0.49645956  1
  Co  Co112  1  0.50046828  0.49628983  0.50092967  1
  Co  Co113  1  0.37760429  0.62353886  0.87685905  1
  Co  Co114  1  0.62400867  0.62569190  0.37595828  1
  Co  Co115  1  0.87679092  0.37263406  0.37302156  1
  Co  Co116  1  0.74907524  0.24827538  0.25140927  1
  Co  Co117  1  0.00136333  0.25451168  0.50705760  1
  Co  Co118  1  0.12745686  0.37958531  0.62828665  1
  Co  Co119  1  0.24889671  0.74742173  0.49710970  1
  Co  Co120  1  -0.00165642  0.50177165  0.75178452  1
  Co  Co121  1  0.38001002  0.12548105  0.62399005  1
  Co  Co122  1  0.74993367  0.24495052  0.74765887  1
  Co  Co123  1  0.37214117  0.37432690  0.37470176  1
  Co  Co124  1  0.87438659  0.12574666  0.12377709  1
  Co  Co125  1  0.62876522  0.37683933  0.62742733  1
  Co  Co126  1  0.37693507  0.12636906  0.12476034  1
  Co  Co127  1  0.49866813  0.49846697  0.74838679  1
