# generated using pymatgen
data_Fe45Co19
_symmetry_space_group_name_H-M   'P 1'
_cell_length_a   11.41374506
_cell_length_b   11.41423825
_cell_length_c   11.41396036
_cell_angle_alpha   89.99651226
_cell_angle_beta   90.00829476
_cell_angle_gamma   90.01484787
_symmetry_Int_Tables_number   1
_chemical_formula_structural   Fe45Co19
_chemical_formula_sum   'Fe90 Co38'
_cell_volume   1487.00161943
_cell_formula_units_Z   2
loop_
 _symmetry_equiv_pos_site_id
 _symmetry_equiv_pos_as_xyz
  1  'x, y, z'
loop_
 _atom_site_type_symbol
 _atom_site_label
 _atom_site_symmetry_multiplicity
 _atom_site_fract_x
 _atom_site_fract_y
 _atom_site_fract_z
 _atom_site_occupancy
  Fe  Fe0  1  0.12477152  0.62464587  0.12640923  1
  Fe  Fe1  1  0.75152673  0.50028182  0.24925833  1
  Fe  Fe2  1  0.37540963  0.12452923  0.37729903  1
  Fe  Fe3  1  0.37613917  0.37419460  0.62556134  1
  Fe  Fe4  1  0.37566028  0.62543844  0.37721883  1
  Fe  Fe5  1  0.24951377  0.49845799  -0.00178364  1
  Fe  Fe6  1  0.87426330  0.62409343  0.62364170  1
  Fe  Fe7  1  0.37483559  0.12482856  0.62352114  1
  Fe  Fe8  1  0.74517592  0.74914510  -0.00266751  1
  Fe  Fe9  1  0.00115978  -0.00071346  0.50332392  1
  Fe  Fe10  1  0.12277026  0.37420886  0.12594860  1
  Fe  Fe11  1  0.87003808  0.12524064  0.37866139  1
  Fe  Fe12  1  0.00367639  0.00163103  0.75000837  1
  Fe  Fe13  1  0.62477103  0.62344102  0.62678400  1
  Fe  Fe14  1  0.75405099  0.25373584  0.74996507  1
  Fe  Fe15  1  -0.00085571  0.74960408  0.50186007  1
  Fe  Fe16  1  0.62581905  0.12768008  0.62073212  1
  Fe  Fe17  1  0.87353443  0.37430149  0.12116130  1
  Fe  Fe18  1  0.62398228  0.87653626  0.37778167  1
  Fe  Fe19  1  0.87358858  0.62557185  0.12456015  1
  Fe  Fe20  1  0.25080891  0.49984060  0.25009017  1
  Fe  Fe21  1  -0.00053716  0.74968800  -0.00244980  1
  Fe  Fe22  1  0.37690785  0.87760808  0.62277972  1
  Fe  Fe23  1  0.74967856  0.75238492  0.50225923  1
  Fe  Fe24  1  0.50200605  0.00323716  0.25220721  1
  Fe  Fe25  1  0.87424504  0.37509823  0.37538776  1
  Fe  Fe26  1  0.25160336  -0.00007860  0.25104412  1
  Fe  Fe27  1  0.37284522  0.12440511  0.87488679  1
  Fe  Fe28  1  0.87366227  0.12478467  0.62514891  1
  Fe  Fe29  1  0.74731507  0.49503984  0.50198996  1
  Fe  Fe30  1  0.12322275  0.37480340  0.62485555  1
  Fe  Fe31  1  0.12250654  0.87574418  0.12484775  1
  Fe  Fe32  1  0.50371246  0.24581156  0.25074184  1
  Fe  Fe33  1  0.37597383  0.37441803  0.37446182  1
  Fe  Fe34  1  0.62436635  0.87476028  0.12413370  1
  Fe  Fe35  1  0.12090469  0.37057973  0.87486029  1
  Fe  Fe36  1  0.12499295  0.12474333  0.37659909  1
  Fe  Fe37  1  0.37648139  0.62616021  0.12312367  1
  Fe  Fe38  1  0.75210920  0.49625634  0.74950677  1
  Fe  Fe39  1  -0.00027408  0.00291590  -0.00288134  1
  Fe  Fe40  1  0.25104421  0.24910475  0.24926623  1
  Fe  Fe41  1  0.62920782  0.12253180  0.87532480  1
  Fe  Fe42  1  0.62505990  0.37705597  0.87325078  1
  Fe  Fe43  1  0.62665496  0.62412365  0.37634184  1
  Fe  Fe44  1  0.24656661  -0.00110372  0.74844450  1
  Fe  Fe45  1  0.49950077  0.75050158  0.75030360  1
  Fe  Fe46  1  0.50229748  0.00127499  -0.00064943  1
  Fe  Fe47  1  -0.00154315  0.24900541  0.50174527  1
  Fe  Fe48  1  0.37719380  0.37389617  0.12396809  1
  Fe  Fe49  1  0.50079799  0.50060064  0.25003365  1
  Fe  Fe50  1  0.37733151  0.87549284  0.12520141  1
  Fe  Fe51  1  0.49811938  0.49913588  0.75012570  1
  Fe  Fe52  1  0.50180749  0.24793357  -0.00155340  1
  Fe  Fe53  1  0.62211481  0.87660692  0.62477126  1
  Fe  Fe54  1  0.25008944  0.75079546  0.50158967  1
  Fe  Fe55  1  0.24935066  0.25090223  0.74987181  1
  Fe  Fe56  1  0.25020936  0.49850849  0.75078153  1
  Fe  Fe57  1  -0.00003067  0.50108408  0.74992726  1
  Fe  Fe58  1  0.87486958  0.87416293  0.12412687  1
  Fe  Fe59  1  0.49988774  0.24759915  0.75110948  1
  Fe  Fe60  1  0.37773574  0.87695118  0.87437778  1
  Fe  Fe61  1  -0.00170269  0.74836664  0.25204935  1
  Fe  Fe62  1  -0.00312821  0.24888967  0.24858365  1
  Fe  Fe63  1  0.12615052  0.12518051  0.12445243  1
  Fe  Fe64  1  0.87466123  0.87628354  0.37690738  1
  Fe  Fe65  1  0.25059601  0.75202030  -0.00116801  1
  Fe  Fe66  1  0.12379540  0.37521976  0.37339568  1
  Fe  Fe67  1  0.50397802  0.50211749  0.00036628  1
  Fe  Fe68  1  0.12511612  0.62318566  0.37440027  1
  Fe  Fe69  1  0.62752015  0.37231769  0.12601072  1
  Fe  Fe70  1  0.24989427  0.75096903  0.24982618  1
  Fe  Fe71  1  0.50181969  0.49650958  0.50034795  1
  Fe  Fe72  1  0.25024734  0.25112723  0.49998802  1
  Fe  Fe73  1  0.37662198  0.62497703  0.87607280  1
  Fe  Fe74  1  0.37416470  0.62315369  0.62372423  1
  Fe  Fe75  1  0.87220912  0.62286487  0.87529823  1
  Fe  Fe76  1  0.12465425  0.87672811  0.37558858  1
  Fe  Fe77  1  0.75102513  0.75001819  0.25171634  1
  Fe  Fe78  1  0.74996651  0.75141741  0.74951274  1
  Fe  Fe79  1  0.86890197  0.12587855  0.12178466  1
  Fe  Fe80  1  0.00176447  0.50211662  0.49959685  1
  Fe  Fe81  1  0.87461829  0.87706938  0.87341945  1
  Fe  Fe82  1  -0.00279304  0.00230020  0.24908088  1
  Fe  Fe83  1  0.12641903  0.62975738  0.87094374  1
  Fe  Fe84  1  0.25083813  0.25040059  0.00034082  1
  Fe  Fe85  1  0.74808345  0.00131916  0.25056884  1
  Fe  Fe86  1  0.00083832  0.50108555  -0.00015182  1
  Fe  Fe87  1  0.24830731  -0.00062906  -0.00079732  1
  Fe  Fe88  1  0.74799607  -0.00161304  0.74785002  1
  Fe  Fe89  1  0.49994706  0.74992813  0.25196051  1
  Co  Co90  1  0.12369479  0.87224173  0.87326538  1
  Co  Co91  1  0.75011530  0.24782247  0.25071489  1
  Co  Co92  1  0.75013006  -0.00316854  -0.00035085  1
  Co  Co93  1  0.62885494  0.12665111  0.38084063  1
  Co  Co94  1  0.62473378  0.62316765  0.86934734  1
  Co  Co95  1  -0.00254291  0.24551474  0.00050417  1
  Co  Co96  1  0.24919850  -0.00119226  0.50125107  1
  Co  Co97  1  0.50131562  0.00299457  0.74860406  1
  Co  Co98  1  0.62529108  0.62704699  0.12887185  1
  Co  Co99  1  0.62623157  0.37355121  0.37241640  1
  Co  Co100  1  -0.00321296  0.50027358  0.24968640  1
  Co  Co101  1  0.50022617  0.00198003  0.49882814  1
  Co  Co102  1  0.74621868  0.50158879  0.00069106  1
  Co  Co103  1  0.50332102  0.74939563  -0.00267417  1
  Co  Co104  1  0.12588012  0.12712298  0.62399843  1
  Co  Co105  1  0.50152360  0.74937197  0.50160282  1
  Co  Co106  1  0.49984568  0.25217598  0.49995129  1
  Co  Co107  1  0.24956564  0.49871466  0.50010460  1
  Co  Co108  1  0.75003242  0.25146698  -0.00559248  1
  Co  Co109  1  0.87972843  0.37667073  0.62454485  1
  Co  Co110  1  0.74945847  -0.00271475  0.50259058  1
  Co  Co111  1  0.25597666  0.75189076  0.74942183  1
  Co  Co112  1  0.87657003  0.87650263  0.62681035  1
  Co  Co113  1  0.87220786  0.62438372  0.37868831  1
  Co  Co114  1  0.12408692  0.87096745  0.62751448  1
  Co  Co115  1  0.12668352  0.12828057  0.87449421  1
  Co  Co116  1  0.62399668  0.87646179  0.87305130  1
  Co  Co117  1  0.37537914  0.87460087  0.37605298  1
  Co  Co118  1  0.62835646  0.12523869  0.12223206  1
  Co  Co119  1  0.62173450  0.37358805  0.62935881  1
  Co  Co120  1  0.12617320  0.62673368  0.62811581  1
  Co  Co121  1  0.37545185  0.12457909  0.12393275  1
  Co  Co122  1  -0.00269586  0.24797708  0.74901781  1
  Co  Co123  1  0.87252311  0.12279290  0.87205717  1
  Co  Co124  1  0.37758665  0.37406256  0.87611449  1
  Co  Co125  1  -0.00508492  0.74875309  0.74957839  1
  Co  Co126  1  0.87776737  0.37647513  0.87805986  1
  Co  Co127  1  0.75053843  0.25585810  0.50343646  1
