# generated using pymatgen
data_Fe45Co19
_symmetry_space_group_name_H-M   'P 1'
_cell_length_a   11.41499997
_cell_length_b   11.41591169
_cell_length_c   11.41502584
_cell_angle_alpha   90.00000497
_cell_angle_beta   90.00538990
_cell_angle_gamma   89.99141121
_symmetry_Int_Tables_number   1
_chemical_formula_structural   Fe45Co19
_chemical_formula_sum   'Fe90 Co38'
_cell_volume   1487.52203401
_cell_formula_units_Z   2
loop_
 _symmetry_equiv_pos_site_id
 _symmetry_equiv_pos_as_xyz
  1  'x, y, z'
loop_
 _atom_site_type_symbol
 _atom_site_label
 _atom_site_symmetry_multiplicity
 _atom_site_fract_x
 _atom_site_fract_y
 _atom_site_fract_z
 _atom_site_occupancy
  Fe  Fe0  1  0.37510156  0.62422271  0.12543538  1
  Fe  Fe1  1  0.50123232  -0.00120225  0.24713548  1
  Fe  Fe2  1  0.74922385  0.25098031  0.49942289  1
  Fe  Fe3  1  0.12343090  0.12399978  0.87525052  1
  Fe  Fe4  1  0.12196278  0.37492885  0.87320212  1
  Fe  Fe5  1  0.87366085  0.87650141  0.12707437  1
  Fe  Fe6  1  0.12504369  0.37044236  0.62466496  1
  Fe  Fe7  1  0.75302882  0.25078460  0.75746248  1
  Fe  Fe8  1  0.75179212  -0.00007013  0.25215631  1
  Fe  Fe9  1  0.74995356  0.74945520  0.75135541  1
  Fe  Fe10  1  0.75062618  0.74980216  -0.00112133  1
  Fe  Fe11  1  0.87638848  0.87736323  0.87615341  1
  Fe  Fe12  1  0.37326176  0.12327064  0.62169408  1
  Fe  Fe13  1  0.00041693  0.74859553  0.49917823  1
  Fe  Fe14  1  0.87384307  0.12795999  0.12365101  1
  Fe  Fe15  1  0.50424767  0.24764037  -0.00020796  1
  Fe  Fe16  1  -0.00252288  0.00195215  0.49725357  1
  Fe  Fe17  1  0.37790351  0.37668281  0.87588896  1
  Fe  Fe18  1  0.25074736  0.75147968  -0.00375294  1
  Fe  Fe19  1  0.25122291  0.75004464  0.49480027  1
  Fe  Fe20  1  0.62195926  0.62330659  0.87530772  1
  Fe  Fe21  1  0.37361051  0.87588339  0.62231320  1
  Fe  Fe22  1  0.74906123  0.50047239  0.75186097  1
  Fe  Fe23  1  0.87458740  0.87375533  0.62351441  1
  Fe  Fe24  1  0.49948721  0.50138690  0.74710745  1
  Fe  Fe25  1  0.12552298  0.87483769  0.12766273  1
  Fe  Fe26  1  0.49957410  0.75079904  0.00088689  1
  Fe  Fe27  1  -0.00046718  0.00197545  0.74843019  1
  Fe  Fe28  1  0.87754711  0.62147072  0.87510297  1
  Fe  Fe29  1  0.75096199  0.25291183  0.25117997  1
  Fe  Fe30  1  0.24911763  0.24953032  -0.00213159  1
  Fe  Fe31  1  0.25011047  0.24746737  0.75005728  1
  Fe  Fe32  1  0.75172563  -0.00104386  0.75004329  1
  Fe  Fe33  1  0.37402196  0.87748736  0.12362689  1
  Fe  Fe34  1  0.37926928  0.12512857  0.37693155  1
  Fe  Fe35  1  0.24703426  0.50001760  0.49730040  1
  Fe  Fe36  1  0.00283110  0.49979394  0.50114788  1
  Fe  Fe37  1  0.37336544  0.37483821  0.62303437  1
  Fe  Fe38  1  0.24760098  0.50248358  0.75101069  1
  Fe  Fe39  1  0.62522894  0.62542389  0.12670883  1
  Fe  Fe40  1  0.24915973  -0.00122563  0.75144157  1
  Fe  Fe41  1  0.75041406  -0.00004239  0.49760368  1
  Fe  Fe42  1  0.75139902  0.74965713  0.25087239  1
  Fe  Fe43  1  0.25303852  0.25107283  0.25280368  1
  Fe  Fe44  1  0.12704573  0.62569699  0.12625012  1
  Fe  Fe45  1  0.49820184  0.24929502  0.74858747  1
  Fe  Fe46  1  0.62588675  0.37442806  0.62615654  1
  Fe  Fe47  1  0.00179374  0.74779420  0.75068753  1
  Fe  Fe48  1  0.87614416  0.37451433  0.37561015  1
  Fe  Fe49  1  0.50007064  0.49703052  0.24885115  1
  Fe  Fe50  1  0.87387237  0.12593924  0.62412200  1
  Fe  Fe51  1  0.87270803  0.37288838  0.12128838  1
  Fe  Fe52  1  0.62361176  0.87445004  0.37426842  1
  Fe  Fe53  1  0.87313988  0.62319067  0.12537675  1
  Fe  Fe54  1  0.00061024  0.49853617  0.24916631  1
  Fe  Fe55  1  0.25073636  0.49988930  -0.00140013  1
  Fe  Fe56  1  -0.00041306  0.75039181  0.00105068  1
  Fe  Fe57  1  0.37229609  0.62489643  0.62355290  1
  Fe  Fe58  1  0.62540953  0.87336448  0.62368236  1
  Fe  Fe59  1  0.12085072  0.13115116  0.37514193  1
  Fe  Fe60  1  0.62273603  0.62298905  0.37326423  1
  Fe  Fe61  1  0.37489400  0.12530315  0.12352282  1
  Fe  Fe62  1  0.49843033  0.74999259  0.75035704  1
  Fe  Fe63  1  0.62668544  0.12587490  0.62696188  1
  Fe  Fe64  1  0.12512814  0.87525870  0.62434963  1
  Fe  Fe65  1  0.00189925  0.49889307  0.00175221  1
  Fe  Fe66  1  0.74743281  0.50008924  0.49929671  1
  Fe  Fe67  1  0.74987283  0.74869938  0.49858711  1
  Fe  Fe68  1  0.62321938  0.12839065  0.37352660  1
  Fe  Fe69  1  0.24911234  0.00224050  0.25102402  1
  Fe  Fe70  1  0.74761058  0.49758980  -0.00198460  1
  Fe  Fe71  1  0.87410049  0.62442277  0.62566843  1
  Fe  Fe72  1  0.00225525  0.00031245  0.00326787  1
  Fe  Fe73  1  0.74561002  0.00315639  0.00112027  1
  Fe  Fe74  1  0.24961344  0.75037040  0.75445171  1
  Fe  Fe75  1  0.12506504  0.12831961  0.12727900  1
  Fe  Fe76  1  0.24996347  0.49792888  0.25232304  1
  Fe  Fe77  1  0.87694322  0.62393914  0.37326835  1
  Fe  Fe78  1  0.49915970  -0.00117601  0.74772073  1
  Fe  Fe79  1  0.49796482  0.74865136  0.49815560  1
  Fe  Fe80  1  0.37688501  0.12118590  0.87814821  1
  Fe  Fe81  1  0.25322668  0.74969719  0.25292483  1
  Fe  Fe82  1  0.37849864  0.37451362  0.37917690  1
  Fe  Fe83  1  0.62605461  0.37260101  0.12526091  1
  Fe  Fe84  1  0.62354964  0.87734256  0.87599808  1
  Fe  Fe85  1  0.12155471  0.87389552  0.37151523  1
  Fe  Fe86  1  0.37546991  0.37338811  0.12255780  1
  Fe  Fe87  1  0.87605001  0.37557509  0.62851225  1
  Fe  Fe88  1  0.12683193  0.37258972  0.12671294  1
  Fe  Fe89  1  0.24797119  0.00088484  0.49687256  1
  Co  Co90  1  0.50118273  0.24955718  0.50417465  1
  Co  Co91  1  -0.00266141  0.25090033  0.50329817  1
  Co  Co92  1  0.37622200  0.62248073  0.87527325  1
  Co  Co93  1  0.00365888  0.50219990  0.74643512  1
  Co  Co94  1  0.62564701  0.62619096  0.62506864  1
  Co  Co95  1  0.62366755  0.37361284  0.37537394  1
  Co  Co96  1  0.50309230  0.00092909  0.50184485  1
  Co  Co97  1  0.87913711  0.37749625  0.87493896  1
  Co  Co98  1  0.49743859  0.25268315  0.24931585  1
  Co  Co99  1  0.12556299  0.12512044  0.62291678  1
  Co  Co100  1  0.87616963  0.12352304  0.87884540  1
  Co  Co101  1  0.12845949  0.62770445  0.62278378  1
  Co  Co102  1  -0.00257565  0.25277037  0.24741589  1
  Co  Co103  1  0.37678729  0.62056126  0.37414137  1
  Co  Co104  1  0.12427732  0.62452289  0.87781613  1
  Co  Co105  1  -0.00247517  0.74866412  0.24639876  1
  Co  Co106  1  0.74629657  0.25003559  -0.00471034  1
  Co  Co107  1  0.00176460  0.25058604  -0.00073266  1
  Co  Co108  1  0.50094754  0.49984868  0.00385970  1
  Co  Co109  1  0.62065280  0.37638261  0.87351530  1
  Co  Co110  1  0.62785769  0.87259816  0.12607258  1
  Co  Co111  1  -0.00166142  0.00227486  0.25038531  1
  Co  Co112  1  0.12264141  0.87603762  0.87463279  1
  Co  Co113  1  0.50234957  0.49977576  0.50301077  1
  Co  Co114  1  0.12414678  0.62543790  0.37226294  1
  Co  Co115  1  0.62350728  0.12239652  0.87113948  1
  Co  Co116  1  0.37671901  0.87924453  0.37461660  1
  Co  Co117  1  -0.00099132  0.24678274  0.74954158  1
  Co  Co118  1  0.49765926  0.75141059  0.24955192  1
  Co  Co119  1  0.37729030  0.87885734  0.87771046  1
  Co  Co120  1  0.87462383  0.12939137  0.37429928  1
  Co  Co121  1  0.24680206  0.00016748  0.00061479  1
  Co  Co122  1  0.12376063  0.37155684  0.37496825  1
  Co  Co123  1  0.75010160  0.49815326  0.25034248  1
  Co  Co124  1  0.62696948  0.12850829  0.13027636  1
  Co  Co125  1  0.25181616  0.24881712  0.49881010  1
  Co  Co126  1  0.87614782  0.87265273  0.37448701  1
  Co  Co127  1  0.50452695  0.00156832  0.00480422  1
