# generated using pymatgen
data_Fe45Co19
_symmetry_space_group_name_H-M   'P 1'
_cell_length_a   11.41365090
_cell_length_b   11.41491249
_cell_length_c   11.41413028
_cell_angle_alpha   89.99261801
_cell_angle_beta   89.99871111
_cell_angle_gamma   90.00433748
_symmetry_Int_Tables_number   1
_chemical_formula_structural   Fe45Co19
_chemical_formula_sum   'Fe90 Co38'
_cell_volume   1487.09937764
_cell_formula_units_Z   2
loop_
 _symmetry_equiv_pos_site_id
 _symmetry_equiv_pos_as_xyz
  1  'x, y, z'
loop_
 _atom_site_type_symbol
 _atom_site_label
 _atom_site_symmetry_multiplicity
 _atom_site_fract_x
 _atom_site_fract_y
 _atom_site_fract_z
 _atom_site_occupancy
  Fe  Fe0  1  0.49690703  0.00192152  0.25361892  1
  Fe  Fe1  1  0.74845878  -0.00087574  -0.00085880  1
  Fe  Fe2  1  0.75015721  0.49859080  0.00007990  1
  Fe  Fe3  1  0.25385463  -0.00210575  0.49733779  1
  Fe  Fe4  1  0.50317304  0.74693356  0.75213019  1
  Fe  Fe5  1  0.00022882  0.74974360  0.74908047  1
  Fe  Fe6  1  0.37513076  0.12597165  0.12254451  1
  Fe  Fe7  1  0.37753637  0.87433785  0.62461341  1
  Fe  Fe8  1  0.37889578  0.87323564  0.12276492  1
  Fe  Fe9  1  0.12385947  0.37615810  0.37424010  1
  Fe  Fe10  1  0.75125486  0.49880312  0.75154426  1
  Fe  Fe11  1  0.49559525  0.50036630  -0.00076399  1
  Fe  Fe12  1  0.00163346  0.50361198  -0.00010150  1
  Fe  Fe13  1  0.50215565  0.00102491  -0.00287677  1
  Fe  Fe14  1  0.87815210  0.37499388  0.12387938  1
  Fe  Fe15  1  0.49598506  0.50146127  0.75178768  1
  Fe  Fe16  1  0.37640234  0.62847925  0.37756241  1
  Fe  Fe17  1  0.12721281  0.37760402  0.87434464  1
  Fe  Fe18  1  0.50407926  0.25021542  0.49994406  1
  Fe  Fe19  1  0.87607675  0.37380534  0.37561020  1
  Fe  Fe20  1  0.25167929  0.24955064  0.75088598  1
  Fe  Fe21  1  0.74868407  0.25039972  0.74998982  1
  Fe  Fe22  1  0.50199767  0.74788178  0.24683844  1
  Fe  Fe23  1  0.62411825  0.62330213  0.37380127  1
  Fe  Fe24  1  0.74741878  0.49692684  0.49936818  1
  Fe  Fe25  1  -0.00091685  0.75003721  0.24848434  1
  Fe  Fe26  1  -0.00015462  -0.00057654  0.50046134  1
  Fe  Fe27  1  0.49955022  0.00420248  0.75255412  1
  Fe  Fe28  1  0.24950394  0.75099047  0.75007011  1
  Fe  Fe29  1  0.62563015  0.62188390  0.62627121  1
  Fe  Fe30  1  0.62146790  0.87644192  0.37368780  1
  Fe  Fe31  1  0.12512251  0.87635458  0.37386053  1
  Fe  Fe32  1  0.24773821  0.24950232  0.49831094  1
  Fe  Fe33  1  0.87338367  0.62461974  0.62398627  1
  Fe  Fe34  1  0.87424678  0.12681994  0.62436245  1
  Fe  Fe35  1  -0.00105394  -0.00091321  0.74990550  1
  Fe  Fe36  1  0.12535907  0.37801257  0.12556229  1
  Fe  Fe37  1  0.87301469  0.12701652  0.87603753  1
  Fe  Fe38  1  0.87368622  0.62675343  0.12454548  1
  Fe  Fe39  1  0.87302167  0.87364306  0.62534194  1
  Fe  Fe40  1  0.12668723  0.37703820  0.62489196  1
  Fe  Fe41  1  0.25148954  -0.00216812  -0.00061799  1
  Fe  Fe42  1  0.74938129  0.24976292  0.24875887  1
  Fe  Fe43  1  0.00091913  0.24922273  -0.00081696  1
  Fe  Fe44  1  0.25255826  0.25279733  0.00025689  1
  Fe  Fe45  1  0.12517313  0.12350334  0.12369421  1
  Fe  Fe46  1  0.12719271  0.62278967  0.62593158  1
  Fe  Fe47  1  0.49992755  0.24640132  0.75177799  1
  Fe  Fe48  1  0.00068577  0.25015625  0.75008605  1
  Fe  Fe49  1  0.74679614  0.75179954  0.24950274  1
  Fe  Fe50  1  0.62626044  0.12163979  0.12638392  1
  Fe  Fe51  1  0.37446894  0.37565081  0.62477413  1
  Fe  Fe52  1  0.12413559  0.87478480  0.12437673  1
  Fe  Fe53  1  0.37371983  0.62503592  0.62353872  1
  Fe  Fe54  1  0.62215651  0.37483058  0.87451384  1
  Fe  Fe55  1  0.24923989  0.75157711  0.50033525  1
  Fe  Fe56  1  0.75202916  0.49930435  0.25021417  1
  Fe  Fe57  1  0.00146989  0.75046238  0.50059651  1
  Fe  Fe58  1  0.87250846  0.87456483  0.12465500  1
  Fe  Fe59  1  -0.00006110  0.50094810  0.75203726  1
  Fe  Fe60  1  0.74482545  0.25229121  0.50041724  1
  Fe  Fe61  1  0.37490754  0.12380146  0.62326241  1
  Fe  Fe62  1  0.74783993  -0.00051057  0.49882505  1
  Fe  Fe63  1  0.74790129  0.25183416  0.00223192  1
  Fe  Fe64  1  0.62088763  0.37942734  0.12765319  1
  Fe  Fe65  1  0.50059731  0.49907250  0.49883118  1
  Fe  Fe66  1  0.24937450  0.24780572  0.25014343  1
  Fe  Fe67  1  0.87296479  0.62719139  0.87589280  1
  Fe  Fe68  1  0.37662715  0.37335969  0.37396928  1
  Fe  Fe69  1  0.12461337  0.62402285  0.37291903  1
  Fe  Fe70  1  0.74649615  0.75089724  0.50069138  1
  Fe  Fe71  1  0.50084401  0.24863987  0.24874916  1
  Fe  Fe72  1  0.25088047  0.75104786  0.24791014  1
  Fe  Fe73  1  0.12845960  0.12290905  0.87441799  1
  Fe  Fe74  1  0.00039496  0.24781432  0.24946310  1
  Fe  Fe75  1  0.87436219  0.12632947  0.37599718  1
  Fe  Fe76  1  0.74163783  0.75098490  0.00063648  1
  Fe  Fe77  1  0.25339710  0.00051055  0.25142493  1
  Fe  Fe78  1  0.87460415  0.62634943  0.37552631  1
  Fe  Fe79  1  0.12687671  0.12214505  0.62523925  1
  Fe  Fe80  1  0.37450575  0.62694410  0.11989611  1
  Fe  Fe81  1  -0.00353468  0.00088008  0.24922629  1
  Fe  Fe82  1  -0.00209672  -0.00072746  -0.00088747  1
  Fe  Fe83  1  0.87534173  0.37445090  0.62480346  1
  Fe  Fe84  1  0.12473782  0.87347208  0.87503054  1
  Fe  Fe85  1  0.87127015  0.87227965  0.87359652  1
  Fe  Fe86  1  0.25263569  0.50108460  0.24898528  1
  Fe  Fe87  1  0.62428350  0.87770204  0.62862060  1
  Fe  Fe88  1  0.00019509  0.49920909  0.49936122  1
  Fe  Fe89  1  0.37737429  0.87199674  0.87641043  1
  Co  Co90  1  0.12437824  0.12176583  0.37496242  1
  Co  Co91  1  0.62523527  0.12425432  0.37438333  1
  Co  Co92  1  0.50712866  0.74986420  -0.00079817  1
  Co  Co93  1  0.49843011  -0.00037888  0.49871371  1
  Co  Co94  1  0.62264334  0.37648864  0.37028657  1
  Co  Co95  1  0.25186341  0.49813442  -0.00048284  1
  Co  Co96  1  0.25298121  -0.00222399  0.75120067  1
  Co  Co97  1  0.87581464  0.37425602  0.87613974  1
  Co  Co98  1  0.50133667  0.24968248  0.00197847  1
  Co  Co99  1  0.62478928  0.61995674  0.12531055  1
  Co  Co100  1  0.37596522  0.37403440  0.12711236  1
  Co  Co101  1  0.74770956  0.74748573  0.74871463  1
  Co  Co102  1  0.37596699  0.12879257  0.37675183  1
  Co  Co103  1  0.12652585  0.62503537  0.12458192  1
  Co  Co104  1  0.49483265  0.50364694  0.25095940  1
  Co  Co105  1  0.62320600  0.37632406  0.62953903  1
  Co  Co106  1  0.25142898  0.49981643  0.49763628  1
  Co  Co107  1  -0.00180313  0.50109700  0.24905959  1
  Co  Co108  1  -0.00049972  0.74958541  0.00092399  1
  Co  Co109  1  0.50382664  0.74934374  0.50297428  1
  Co  Co110  1  0.75162931  0.00277211  0.74976432  1
  Co  Co111  1  0.37756307  0.86988533  0.37478852  1
  Co  Co112  1  0.24852139  0.75238142  0.00081399  1
  Co  Co113  1  0.62552083  0.62095458  0.87531196  1
  Co  Co114  1  0.75288222  -0.00062557  0.25266736  1
  Co  Co115  1  0.12732107  0.62716289  0.87544834  1
  Co  Co116  1  0.37277098  0.62940804  0.87789262  1
  Co  Co117  1  0.12612810  0.87683685  0.62425535  1
  Co  Co118  1  0.62449920  0.12303155  0.62447218  1
  Co  Co119  1  0.37671999  0.37245644  0.87407401  1
  Co  Co120  1  0.62787000  0.12690705  0.87630061  1
  Co  Co121  1  0.37304933  0.12603658  0.87799880  1
  Co  Co122  1  0.87563889  0.87317804  0.37652003  1
  Co  Co123  1  0.62261534  0.88008062  0.12805506  1
  Co  Co124  1  0.00241903  0.25027432  0.50097063  1
  Co  Co125  1  0.25307981  0.50040117  0.75217537  1
  Co  Co126  1  0.62580971  0.87665510  0.87051720  1
  Co  Co127  1  0.87401163  0.12479863  0.12308329  1
