# generated using pymatgen
data_Fe45Co19
_symmetry_space_group_name_H-M   'P 1'
_cell_length_a   11.41507043
_cell_length_b   11.41428997
_cell_length_c   11.41521418
_cell_angle_alpha   89.98956476
_cell_angle_beta   90.00433032
_cell_angle_gamma   90.00854538
_symmetry_Int_Tables_number   1
_chemical_formula_structural   Fe45Co19
_chemical_formula_sum   'Fe90 Co38'
_cell_volume   1487.34441721
_cell_formula_units_Z   2
loop_
 _symmetry_equiv_pos_site_id
 _symmetry_equiv_pos_as_xyz
  1  'x, y, z'
loop_
 _atom_site_type_symbol
 _atom_site_label
 _atom_site_symmetry_multiplicity
 _atom_site_fract_x
 _atom_site_fract_y
 _atom_site_fract_z
 _atom_site_occupancy
  Fe  Fe0  1  0.37468506  0.87642827  0.37704051  1
  Fe  Fe1  1  0.74910703  0.49786539  0.50059356  1
  Fe  Fe2  1  0.62568249  0.12614599  0.37614399  1
  Fe  Fe3  1  0.49483932  0.25103226  0.75244607  1
  Fe  Fe4  1  0.87399683  0.37329924  0.37617005  1
  Fe  Fe5  1  0.24869095  -0.00039017  0.00085062  1
  Fe  Fe6  1  0.62323872  0.12457987  0.12455418  1
  Fe  Fe7  1  -0.00123209  0.49990403  0.25084234  1
  Fe  Fe8  1  0.12700416  0.37417576  0.62641018  1
  Fe  Fe9  1  0.37342593  0.12485455  0.37438287  1
  Fe  Fe10  1  0.74748745  0.50092214  0.00134348  1
  Fe  Fe11  1  0.49940415  0.49809107  0.49856621  1
  Fe  Fe12  1  0.12975929  0.37415899  0.37155778  1
  Fe  Fe13  1  0.00123154  -0.00156095  0.74818263  1
  Fe  Fe14  1  0.25250392  0.74849214  0.74894559  1
  Fe  Fe15  1  0.50166432  -0.00129849  -0.00166744  1
  Fe  Fe16  1  0.49987047  -0.00141813  0.75016141  1
  Fe  Fe17  1  -0.00158852  0.75273382  0.49927968  1
  Fe  Fe18  1  0.50095273  0.74966647  0.50108251  1
  Fe  Fe19  1  0.62382074  0.87145480  0.62893621  1
  Fe  Fe20  1  0.12444698  0.62663428  0.62458360  1
  Fe  Fe21  1  0.62837653  0.62934931  0.87197270  1
  Fe  Fe22  1  0.37432339  0.87570827  0.87439646  1
  Fe  Fe23  1  0.37634848  0.87466147  0.12508816  1
  Fe  Fe24  1  0.37325266  0.12445931  0.62597356  1
  Fe  Fe25  1  0.50286397  0.75136253  -0.00163562  1
  Fe  Fe26  1  0.50129461  -0.00062723  0.25111509  1
  Fe  Fe27  1  0.12379219  0.87369309  0.12840428  1
  Fe  Fe28  1  0.87493624  0.37459950  0.12320653  1
  Fe  Fe29  1  0.49846423  0.25159249  0.49935326  1
  Fe  Fe30  1  0.37428671  0.62342958  0.62284377  1
  Fe  Fe31  1  0.75384135  0.25094476  0.75005499  1
  Fe  Fe32  1  0.00023999  0.75121320  0.00196254  1
  Fe  Fe33  1  0.87501125  0.87610371  0.12534606  1
  Fe  Fe34  1  0.12582287  0.62731560  0.37164580  1
  Fe  Fe35  1  0.37081740  0.37737855  0.62587797  1
  Fe  Fe36  1  0.75181727  0.24779565  0.24939538  1
  Fe  Fe37  1  0.25276711  0.50317563  0.24604608  1
  Fe  Fe38  1  0.74766568  -0.00181358  -0.00051203  1
  Fe  Fe39  1  0.62359997  0.12578178  0.87383255  1
  Fe  Fe40  1  0.12463977  0.62566864  0.87566986  1
  Fe  Fe41  1  -0.00138327  0.25202361  0.75211667  1
  Fe  Fe42  1  0.50020808  0.00031311  0.50156536  1
  Fe  Fe43  1  0.00249780  0.24846788  0.49748282  1
  Fe  Fe44  1  0.74960212  0.75281659  0.25042338  1
  Fe  Fe45  1  0.75078873  0.00013699  0.75097978  1
  Fe  Fe46  1  0.37359102  0.62086059  0.88004128  1
  Fe  Fe47  1  0.62569292  0.12724380  0.62577336  1
  Fe  Fe48  1  0.62633185  0.62444063  0.37489904  1
  Fe  Fe49  1  0.62366133  0.37399645  0.12511504  1
  Fe  Fe50  1  0.87389521  0.62586394  0.37385773  1
  Fe  Fe51  1  0.25004920  0.75169279  0.49944399  1
  Fe  Fe52  1  0.12382795  0.87704134  0.37574958  1
  Fe  Fe53  1  0.75001800  -0.00181797  0.50002919  1
  Fe  Fe54  1  0.25063243  0.00067798  0.25002133  1
  Fe  Fe55  1  0.62462085  0.37449294  0.62659275  1
  Fe  Fe56  1  0.24836583  0.74811372  0.00459601  1
  Fe  Fe57  1  0.00270604  0.49848160  0.00031425  1
  Fe  Fe58  1  0.37358899  0.62452116  0.37513210  1
  Fe  Fe59  1  0.87878011  0.12462122  0.87940652  1
  Fe  Fe60  1  0.62457364  0.62675630  0.12717240  1
  Fe  Fe61  1  -0.00298523  0.00313181  0.25151534  1
  Fe  Fe62  1  -0.00158244  0.24671121  0.24992434  1
  Fe  Fe63  1  0.87606482  0.12645586  0.62171971  1
  Fe  Fe64  1  0.12999403  0.37553611  0.87444488  1
  Fe  Fe65  1  0.75126160  0.24880805  -0.00033040  1
  Fe  Fe66  1  0.12681622  0.37352261  0.12625643  1
  Fe  Fe67  1  0.75221365  0.49857598  0.74820269  1
  Fe  Fe68  1  0.62521857  0.37378657  0.87415294  1
  Fe  Fe69  1  0.49957041  0.50187301  0.75138376  1
  Fe  Fe70  1  0.74984049  0.75107642  0.50192086  1
  Fe  Fe71  1  0.49834770  0.49900378  0.24991741  1
  Fe  Fe72  1  0.49580042  0.25101661  0.24944126  1
  Fe  Fe73  1  0.74996655  0.00076330  0.25054606  1
  Fe  Fe74  1  0.62548560  0.37439899  0.37346112  1
  Fe  Fe75  1  0.12443072  0.12485294  0.87528470  1
  Fe  Fe76  1  0.24921995  0.24800983  0.49901501  1
  Fe  Fe77  1  0.87463612  0.62450478  0.87661555  1
  Fe  Fe78  1  0.12346630  0.12539364  0.12351599  1
  Fe  Fe79  1  0.25438132  0.24805706  -0.00040687  1
  Fe  Fe80  1  0.24795808  -0.00069880  0.74613926  1
  Fe  Fe81  1  0.87383948  0.87386100  0.87554599  1
  Fe  Fe82  1  0.00029327  0.49785142  0.75043443  1
  Fe  Fe83  1  0.00292968  0.49983315  0.49773355  1
  Fe  Fe84  1  0.87613725  0.62303220  0.62381962  1
  Fe  Fe85  1  0.12577807  0.87306132  0.87359128  1
  Fe  Fe86  1  0.49952020  0.75162342  0.25182130  1
  Fe  Fe87  1  -0.00186896  0.75127202  0.74860142  1
  Fe  Fe88  1  0.87618546  0.62492510  0.12578630  1
  Fe  Fe89  1  0.49520565  0.24921830  -0.00263797  1
  Co  Co90  1  0.12347755  0.12723868  0.62636425  1
  Co  Co91  1  0.24925613  0.00137150  0.50219123  1
  Co  Co92  1  0.50681667  0.50131576  -0.00118357  1
  Co  Co93  1  0.87636153  0.12369988  0.12036047  1
  Co  Co94  1  0.37547786  0.87463121  0.62469566  1
  Co  Co95  1  0.87364818  0.37693744  0.87795001  1
  Co  Co96  1  0.49492695  0.74695682  0.75130563  1
  Co  Co97  1  0.37035430  0.37513783  0.37410810  1
  Co  Co98  1  0.12498743  0.87280158  0.62393926  1
  Co  Co99  1  0.74717755  0.25253329  0.50066624  1
  Co  Co100  1  0.75051862  0.49878098  0.24941149  1
  Co  Co101  1  0.87259838  0.12559509  0.37919758  1
  Co  Co102  1  0.00283926  -0.00447801  -0.00029853  1
  Co  Co103  1  0.12625477  0.12307437  0.37337599  1
  Co  Co104  1  0.37663693  0.12145036  0.12505005  1
  Co  Co105  1  0.87780034  0.37493704  0.62150226  1
  Co  Co106  1  0.00043531  0.00050140  0.50085177  1
  Co  Co107  1  0.00162647  0.25323523  -0.00094803  1
  Co  Co108  1  -0.00111248  0.75096807  0.25039493  1
  Co  Co109  1  0.87531838  0.87666972  0.62490476  1
  Co  Co110  1  0.75024683  0.75099134  0.00251091  1
  Co  Co111  1  0.37420771  0.11931824  0.87410530  1
  Co  Co112  1  0.12130775  0.62599062  0.12826485  1
  Co  Co113  1  0.25320453  0.24826252  0.75278292  1
  Co  Co114  1  0.24695035  0.50117067  0.49934693  1
  Co  Co115  1  0.37932618  0.62602434  0.12255479  1
  Co  Co116  1  0.24548653  0.50291134  0.00528344  1
  Co  Co117  1  0.62576257  0.87194638  0.87053307  1
  Co  Co118  1  0.62421417  0.87504440  0.37663879  1
  Co  Co119  1  0.87577993  0.87528602  0.37446525  1
  Co  Co120  1  0.37619358  0.37850562  0.12063392  1
  Co  Co121  1  0.62499709  0.62488832  0.62550135  1
  Co  Co122  1  0.24869849  0.50394245  0.74866310  1
  Co  Co123  1  0.25184708  0.75032705  0.24944168  1
  Co  Co124  1  0.62359600  0.87560943  0.12579850  1
  Co  Co125  1  0.25279669  0.24764265  0.24627338  1
  Co  Co126  1  0.75409057  0.74941390  0.74726354  1
  Co  Co127  1  0.37256687  0.38160051  0.87752679  1
