# generated using pymatgen
data_Fe45Co19
_symmetry_space_group_name_H-M   'P 1'
_cell_length_a   11.41473664
_cell_length_b   11.41546742
_cell_length_c   11.41593101
_cell_angle_alpha   89.99534602
_cell_angle_beta   90.01219716
_cell_angle_gamma   90.00390996
_symmetry_Int_Tables_number   1
_chemical_formula_structural   Fe45Co19
_chemical_formula_sum   'Fe90 Co38'
_cell_volume   1487.54775928
_cell_formula_units_Z   2
loop_
 _symmetry_equiv_pos_site_id
 _symmetry_equiv_pos_as_xyz
  1  'x, y, z'
loop_
 _atom_site_type_symbol
 _atom_site_label
 _atom_site_symmetry_multiplicity
 _atom_site_fract_x
 _atom_site_fract_y
 _atom_site_fract_z
 _atom_site_occupancy
  Fe  Fe0  1  0.62499230  0.12422597  0.62437395  1
  Fe  Fe1  1  0.49843149  0.24964519  0.25220836  1
  Fe  Fe2  1  0.37578959  0.87577208  0.12240944  1
  Fe  Fe3  1  0.12010218  0.37360353  0.12465734  1
  Fe  Fe4  1  0.87631641  0.62355037  0.87528705  1
  Fe  Fe5  1  0.62677094  0.12819525  0.12349281  1
  Fe  Fe6  1  0.38010490  0.87750316  0.62313441  1
  Fe  Fe7  1  -0.00007164  0.00352619  -0.00127639  1
  Fe  Fe8  1  -0.00297867  0.50036683  0.25088903  1
  Fe  Fe9  1  0.24700749  0.74949710  0.00004043  1
  Fe  Fe10  1  0.63107702  0.12246953  0.37462350  1
  Fe  Fe11  1  0.50047996  0.49918229  0.49907481  1
  Fe  Fe12  1  0.24799997  0.75022144  0.50150433  1
  Fe  Fe13  1  0.37479279  0.87650694  0.87633692  1
  Fe  Fe14  1  0.25221163  0.25280929  0.24816932  1
  Fe  Fe15  1  -0.00070627  0.25027591  0.75142456  1
  Fe  Fe16  1  0.37990973  0.37734233  0.12404260  1
  Fe  Fe17  1  0.50195756  0.74667649  -0.00021706  1
  Fe  Fe18  1  0.12422191  0.62585370  0.37391991  1
  Fe  Fe19  1  0.37714481  0.37232868  0.62375145  1
  Fe  Fe20  1  0.12154651  0.87562066  0.12665252  1
  Fe  Fe21  1  0.87592840  0.87491463  0.12209969  1
  Fe  Fe22  1  0.75266330  0.49668138  0.24698327  1
  Fe  Fe23  1  0.74617798  0.49494519  0.00338590  1
  Fe  Fe24  1  0.62571112  0.62159563  0.87315871  1
  Fe  Fe25  1  0.12264442  0.87690123  0.62549446  1
  Fe  Fe26  1  -0.00348370  0.24615074  0.25431916  1
  Fe  Fe27  1  0.12279033  0.37469535  0.87636433  1
  Fe  Fe28  1  0.74967057  0.49713417  0.50155802  1
  Fe  Fe29  1  0.12254589  0.87716365  0.37289757  1
  Fe  Fe30  1  0.12337322  0.62596768  0.12723085  1
  Fe  Fe31  1  0.75016645  -0.00002055  0.74933582  1
  Fe  Fe32  1  0.87490366  0.62637800  0.12275560  1
  Fe  Fe33  1  -0.00341918  0.00231310  0.75158844  1
  Fe  Fe34  1  0.50019888  0.74937075  0.75016217  1
  Fe  Fe35  1  0.24858432  0.49975541  0.50062383  1
  Fe  Fe36  1  0.37499071  0.62525360  0.37501180  1
  Fe  Fe37  1  0.87629965  0.37127303  0.62020223  1
  Fe  Fe38  1  0.87219711  0.12625540  0.12210736  1
  Fe  Fe39  1  0.24622175  0.24697823  0.50325991  1
  Fe  Fe40  1  0.87354586  0.12793749  0.62261147  1
  Fe  Fe41  1  0.37457415  0.12380093  0.12241701  1
  Fe  Fe42  1  0.24917937  0.75058313  0.74720722  1
  Fe  Fe43  1  0.37827606  0.37674602  0.87624023  1
  Fe  Fe44  1  0.75074472  0.75062192  0.74937467  1
  Fe  Fe45  1  0.74949642  0.25288216  0.75004805  1
  Fe  Fe46  1  0.62131654  0.87693360  0.62425989  1
  Fe  Fe47  1  0.87713107  0.62477977  0.62670825  1
  Fe  Fe48  1  0.12549423  0.87657414  0.87319916  1
  Fe  Fe49  1  0.49902352  0.24817848  0.75249550  1
  Fe  Fe50  1  0.75093182  0.75096117  0.50098642  1
  Fe  Fe51  1  0.12290175  0.37362263  0.62533741  1
  Fe  Fe52  1  0.87554336  0.87958924  0.37368227  1
  Fe  Fe53  1  0.12178959  0.62409689  0.87019683  1
  Fe  Fe54  1  0.62591933  0.87635856  0.37673605  1
  Fe  Fe55  1  0.25466332  0.00280151  0.74736170  1
  Fe  Fe56  1  0.50079182  0.75021709  0.25062691  1
  Fe  Fe57  1  0.25084017  0.25121905  -0.00048174  1
  Fe  Fe58  1  0.62721403  0.87380072  0.12217699  1
  Fe  Fe59  1  0.87341084  0.87479928  0.87724977  1
  Fe  Fe60  1  0.25029856  0.75147386  0.24982823  1
  Fe  Fe61  1  0.24955119  0.00325201  0.50193637  1
  Fe  Fe62  1  0.24746501  0.49988616  0.00066453  1
  Fe  Fe63  1  0.12401179  0.37278451  0.37440599  1
  Fe  Fe64  1  -0.00016984  0.50037582  0.49959442  1
  Fe  Fe65  1  0.62517404  0.62318419  0.62642790  1
  Fe  Fe66  1  0.75239745  0.75148017  0.25007324  1
  Fe  Fe67  1  0.62742058  0.62465080  0.37340209  1
  Fe  Fe68  1  0.37682894  0.87519846  0.37717785  1
  Fe  Fe69  1  0.24970769  0.49810158  0.74842035  1
  Fe  Fe70  1  0.25101043  -0.00158154  0.24926116  1
  Fe  Fe71  1  -0.00045112  0.74872457  0.49894205  1
  Fe  Fe72  1  0.50184047  0.00083252  0.25049907  1
  Fe  Fe73  1  0.62598506  0.37626337  0.37274020  1
  Fe  Fe74  1  0.25154723  0.49732100  0.25096616  1
  Fe  Fe75  1  0.75137990  0.49477015  0.74960202  1
  Fe  Fe76  1  0.00109415  0.00687754  0.49765821  1
  Fe  Fe77  1  0.50344364  0.24871139  0.49777128  1
  Fe  Fe78  1  0.87744692  0.37336090  0.88069434  1
  Fe  Fe79  1  0.75338936  0.25274769  0.24970807  1
  Fe  Fe80  1  0.12843112  0.12565769  0.87231535  1
  Fe  Fe81  1  0.37555674  0.62319375  0.87524556  1
  Fe  Fe82  1  0.37666839  0.62327969  0.12570124  1
  Fe  Fe83  1  0.50138061  0.00232559  -0.00165516  1
  Fe  Fe84  1  0.62681792  0.87518218  0.87577116  1
  Fe  Fe85  1  0.37543136  0.62512517  0.62454778  1
  Fe  Fe86  1  0.37202080  0.12579692  0.37594924  1
  Fe  Fe87  1  0.12716162  0.12527553  0.12635448  1
  Fe  Fe88  1  0.87670075  0.87561174  0.62495923  1
  Fe  Fe89  1  0.62891930  0.12717016  0.87711368  1
  Co  Co90  1  0.50517414  0.50143814  0.00195985  1
  Co  Co91  1  0.62233907  0.37470518  0.62687865  1
  Co  Co92  1  -0.00268190  0.00529826  0.24904909  1
  Co  Co93  1  0.62178495  0.37491452  0.87408300  1
  Co  Co94  1  0.00141601  0.50283576  0.00124646  1
  Co  Co95  1  0.75003525  -0.00209389  0.50362774  1
  Co  Co96  1  0.00289822  0.24490576  0.49617535  1
  Co  Co97  1  0.87240270  0.62334572  0.37596093  1
  Co  Co98  1  -0.00317646  0.74888104  0.25086248  1
  Co  Co99  1  0.37324950  0.37214835  0.37852443  1
  Co  Co100  1  0.00182206  0.74964166  -0.00220120  1
  Co  Co101  1  0.49856583  0.50006833  0.74789668  1
  Co  Co102  1  0.50068108  0.00392024  0.49655534  1
  Co  Co103  1  0.49921388  0.24924235  -0.00093418  1
  Co  Co104  1  -0.00120565  0.75167876  0.75097730  1
  Co  Co105  1  0.50098825  0.00228347  0.75406576  1
  Co  Co106  1  0.12190986  0.62445135  0.62727140  1
  Co  Co107  1  0.74861285  0.25579575  0.00072514  1
  Co  Co108  1  0.50161316  0.74752329  0.49992342  1
  Co  Co109  1  0.62557190  0.62511565  0.12895073  1
  Co  Co110  1  0.87572668  0.37421932  0.37818621  1
  Co  Co111  1  0.86807849  0.12368417  0.37793088  1
  Co  Co112  1  0.25133516  0.25209112  0.75061492  1
  Co  Co113  1  0.88055358  0.37262252  0.12229932  1
  Co  Co114  1  0.12311164  0.12506610  0.63094224  1
  Co  Co115  1  0.62049545  0.37174869  0.12807139  1
  Co  Co116  1  0.00193718  0.24399855  -0.00116883  1
  Co  Co117  1  0.37194859  0.12436510  0.87722453  1
  Co  Co118  1  0.74980711  -0.00139419  0.24622145  1
  Co  Co119  1  0.37859921  0.12679413  0.62439272  1
  Co  Co120  1  0.87091207  0.12751276  0.87438433  1
  Co  Co121  1  0.75033354  0.00156684  -0.00002754  1
  Co  Co122  1  0.24778878  -0.00006403  0.00077406  1
  Co  Co123  1  0.49864331  0.49907255  0.25336945  1
  Co  Co124  1  0.12988202  0.12538185  0.37017313  1
  Co  Co125  1  -0.00230869  0.49540255  0.74911982  1
  Co  Co126  1  0.74620959  0.25252000  0.49951876  1
  Co  Co127  1  0.74921804  0.74689535  -0.00117378  1
