# generated using pymatgen
data_Fe45Co19
_symmetry_space_group_name_H-M   'P 1'
_cell_length_a   11.41669849
_cell_length_b   11.41506759
_cell_length_c   11.41455388
_cell_angle_alpha   89.98807357
_cell_angle_beta   90.00645887
_cell_angle_gamma   90.00272919
_symmetry_Int_Tables_number   1
_chemical_formula_structural   Fe45Co19
_chemical_formula_sum   'Fe90 Co38'
_cell_volume   1487.57184086
_cell_formula_units_Z   2
loop_
 _symmetry_equiv_pos_site_id
 _symmetry_equiv_pos_as_xyz
  1  'x, y, z'
loop_
 _atom_site_type_symbol
 _atom_site_label
 _atom_site_symmetry_multiplicity
 _atom_site_fract_x
 _atom_site_fract_y
 _atom_site_fract_z
 _atom_site_occupancy
  Fe  Fe0  1  0.49882755  0.00077304  0.75102829  1
  Fe  Fe1  1  0.87981910  0.62694461  0.37630702  1
  Fe  Fe2  1  0.37229594  0.37534564  0.37306977  1
  Fe  Fe3  1  0.62572764  0.87218548  0.87460498  1
  Fe  Fe4  1  0.75135789  0.00108275  0.75281541  1
  Fe  Fe5  1  0.87495481  0.87390568  0.37433910  1
  Fe  Fe6  1  0.87321952  0.37442628  0.87322033  1
  Fe  Fe7  1  0.75155380  0.25081396  0.49848103  1
  Fe  Fe8  1  0.87439278  0.12599605  0.12294150  1
  Fe  Fe9  1  0.62674177  0.87593682  0.12552628  1
  Fe  Fe10  1  0.62358510  0.62409614  0.37411296  1
  Fe  Fe11  1  0.12183227  0.12510302  0.12197808  1
  Fe  Fe12  1  0.50017338  0.00023323  0.49869191  1
  Fe  Fe13  1  0.12645738  0.37513433  0.12533399  1
  Fe  Fe14  1  0.49896617  0.74897236  0.24914647  1
  Fe  Fe15  1  0.75134957  0.50085472  0.49923431  1
  Fe  Fe16  1  0.37683946  0.62471795  0.87793636  1
  Fe  Fe17  1  -0.00166551  0.75095509  0.74854885  1
  Fe  Fe18  1  0.75019925  0.24882965  0.74891513  1
  Fe  Fe19  1  -0.00034536  -0.00036540  0.75180067  1
  Fe  Fe20  1  0.87254818  0.87480096  0.12385553  1
  Fe  Fe21  1  0.24703676  0.50286671  0.49852419  1
  Fe  Fe22  1  0.24990399  0.00271059  0.24865931  1
  Fe  Fe23  1  0.74992399  0.00115366  -0.00132228  1
  Fe  Fe24  1  0.74893093  0.50337025  0.74785233  1
  Fe  Fe25  1  0.62462020  0.12533422  0.62397097  1
  Fe  Fe26  1  0.75287493  0.74621058  0.24888731  1
  Fe  Fe27  1  0.24990179  0.24780075  -0.00151532  1
  Fe  Fe28  1  0.37857647  0.12423760  0.12156383  1
  Fe  Fe29  1  0.25126819  0.75052575  0.75252866  1
  Fe  Fe30  1  0.37421872  0.87568645  0.37390798  1
  Fe  Fe31  1  0.24884349  0.49996214  0.75051044  1
  Fe  Fe32  1  0.12300673  0.87359885  0.37280476  1
  Fe  Fe33  1  0.24967906  0.74711513  0.25040357  1
  Fe  Fe34  1  0.50273188  0.00149948  0.24978695  1
  Fe  Fe35  1  0.37595205  0.87368636  0.88035203  1
  Fe  Fe36  1  0.37367602  0.37650569  0.12554111  1
  Fe  Fe37  1  0.87399623  0.62627629  0.87412716  1
  Fe  Fe38  1  -0.00165407  0.25075799  0.24985683  1
  Fe  Fe39  1  0.25034538  0.00311627  0.75626065  1
  Fe  Fe40  1  0.74863240  0.49763741  -0.00047253  1
  Fe  Fe41  1  0.25023427  0.24793203  0.25057693  1
  Fe  Fe42  1  0.24884571  0.00332202  0.49704227  1
  Fe  Fe43  1  0.62257851  0.12776738  0.87600782  1
  Fe  Fe44  1  0.37508449  0.62569490  0.62425553  1
  Fe  Fe45  1  0.12695490  0.87503526  0.12296092  1
  Fe  Fe46  1  0.62774661  0.87534512  0.37298370  1
  Fe  Fe47  1  0.49875844  0.25003066  0.49896844  1
  Fe  Fe48  1  0.62616566  0.37688874  0.37198463  1
  Fe  Fe49  1  0.87682334  0.37683422  0.62499055  1
  Fe  Fe50  1  0.37522189  0.62335057  0.12516854  1
  Fe  Fe51  1  0.75005527  0.74769363  0.50359708  1
  Fe  Fe52  1  0.37383753  0.87541736  0.12185183  1
  Fe  Fe53  1  0.12708980  0.87603955  0.62593712  1
  Fe  Fe54  1  0.37324211  0.87540989  0.62441120  1
  Fe  Fe55  1  0.50402856  0.25565078  -0.00072475  1
  Fe  Fe56  1  0.49978149  0.75078523  0.49940476  1
  Fe  Fe57  1  0.37195255  0.37380682  0.62569800  1
  Fe  Fe58  1  0.00226325  0.25109985  0.74886706  1
  Fe  Fe59  1  0.87310367  0.87439425  0.62644553  1
  Fe  Fe60  1  0.12335207  0.62523722  0.87424801  1
  Fe  Fe61  1  0.24705867  0.74750470  0.49799492  1
  Fe  Fe62  1  0.12293785  0.62426410  0.12663389  1
  Fe  Fe63  1  0.75029733  0.00099173  0.49834361  1
  Fe  Fe64  1  -0.00221881  -0.00075388  0.24870054  1
  Fe  Fe65  1  0.24895777  0.50074104  0.00017133  1
  Fe  Fe66  1  0.50258256  0.49605841  -0.00057682  1
  Fe  Fe67  1  0.12492872  0.87587299  0.87859420  1
  Fe  Fe68  1  0.50152615  0.74847358  0.74994023  1
  Fe  Fe69  1  0.74851456  0.74846520  0.00020313  1
  Fe  Fe70  1  0.37345102  0.12584467  0.62483728  1
  Fe  Fe71  1  0.62460995  0.37522324  0.62582790  1
  Fe  Fe72  1  0.49835512  0.49930146  0.49791281  1
  Fe  Fe73  1  -0.00029344  0.75049713  0.00137906  1
  Fe  Fe74  1  0.12532633  0.37408107  0.87572311  1
  Fe  Fe75  1  0.75048385  0.24734059  0.25272334  1
  Fe  Fe76  1  0.62558214  0.62085783  0.12641380  1
  Fe  Fe77  1  0.50046410  0.49859726  0.75173883  1
  Fe  Fe78  1  0.00096082  0.00018225  0.49969948  1
  Fe  Fe79  1  0.12527255  0.37461181  0.37437205  1
  Fe  Fe80  1  -0.00185412  0.49895274  0.24857283  1
  Fe  Fe81  1  0.00281416  0.24825852  0.50058968  1
  Fe  Fe82  1  0.50163285  0.24974801  0.24988580  1
  Fe  Fe83  1  0.00329513  0.50183892  0.50314661  1
  Fe  Fe84  1  0.62588660  0.87528028  0.62650481  1
  Fe  Fe85  1  0.24853322  0.24735354  0.75218944  1
  Fe  Fe86  1  0.87852584  0.12717916  0.87852908  1
  Fe  Fe87  1  0.87016647  0.37518175  0.12601603  1
  Fe  Fe88  1  -0.00122174  0.49716507  -0.00040039  1
  Fe  Fe89  1  0.87622645  0.12420973  0.62398088  1
  Co  Co90  1  0.12002229  0.62596315  0.37116948  1
  Co  Co91  1  0.62513255  0.12590479  0.12293586  1
  Co  Co92  1  0.37985957  0.12725854  0.87766811  1
  Co  Co93  1  0.49786031  0.49948292  0.24968893  1
  Co  Co94  1  0.37616380  0.12422495  0.37348399  1
  Co  Co95  1  0.12309290  0.12528444  0.37223337  1
  Co  Co96  1  0.24924912  0.24841064  0.49762989  1
  Co  Co97  1  0.87775277  0.37536830  0.37672023  1
  Co  Co98  1  0.50147351  0.74911958  0.00289327  1
  Co  Co99  1  0.37564678  0.62501341  0.37488041  1
  Co  Co100  1  -0.00174791  0.25608478  0.00189693  1
  Co  Co101  1  0.62776352  0.37442059  0.87086637  1
  Co  Co102  1  0.62508813  0.62476983  0.87659223  1
  Co  Co103  1  0.00216491  0.75137408  0.50411466  1
  Co  Co104  1  -0.00211240  0.75194082  0.24573083  1
  Co  Co105  1  0.87351309  0.87133026  0.87522928  1
  Co  Co106  1  0.74803036  0.74735618  0.74703732  1
  Co  Co107  1  0.49957462  0.25134635  0.74855400  1
  Co  Co108  1  0.74853310  0.25149061  -0.00034109  1
  Co  Co109  1  0.87648450  0.12423992  0.37564395  1
  Co  Co110  1  0.50232756  -0.00239903  -0.00036727  1
  Co  Co111  1  0.37275875  0.37492700  0.87499123  1
  Co  Co112  1  0.24901567  0.50156625  0.25065055  1
  Co  Co113  1  -0.00198652  -0.00334165  0.00158795  1
  Co  Co114  1  0.12581568  0.62664403  0.62946882  1
  Co  Co115  1  0.11891397  0.12599257  0.87926787  1
  Co  Co116  1  0.87550223  0.62347405  0.12151664  1
  Co  Co117  1  0.87740948  0.62397610  0.62629974  1
  Co  Co118  1  0.00094392  0.49793519  0.75124012  1
  Co  Co119  1  0.12653318  0.12310493  0.62587588  1
  Co  Co120  1  0.62174206  0.62326375  0.62324761  1
  Co  Co121  1  0.25021868  0.00359971  -0.00189682  1
  Co  Co122  1  0.24899680  0.74712529  0.00108595  1
  Co  Co123  1  0.75057728  0.00292552  0.24918127  1
  Co  Co124  1  0.62927453  0.37663051  0.13040228  1
  Co  Co125  1  0.12684146  0.37451100  0.62466408  1
  Co  Co126  1  0.75487731  0.50305827  0.25326806  1
  Co  Co127  1  0.62547439  0.12476947  0.37644949  1
