# generated using pymatgen
data_Fe45Co19
_symmetry_space_group_name_H-M   'P 1'
_cell_length_a   11.41476122
_cell_length_b   11.41418467
_cell_length_c   11.41660187
_cell_angle_alpha   89.99451222
_cell_angle_beta   90.00229343
_cell_angle_gamma   89.99281833
_symmetry_Int_Tables_number   1
_chemical_formula_structural   Fe45Co19
_chemical_formula_sum   'Fe90 Co38'
_cell_volume   1487.47123593
_cell_formula_units_Z   2
loop_
 _symmetry_equiv_pos_site_id
 _symmetry_equiv_pos_as_xyz
  1  'x, y, z'
loop_
 _atom_site_type_symbol
 _atom_site_label
 _atom_site_symmetry_multiplicity
 _atom_site_fract_x
 _atom_site_fract_y
 _atom_site_fract_z
 _atom_site_occupancy
  Fe  Fe0  1  0.25061478  0.74977502  0.49906626  1
  Fe  Fe1  1  0.37817042  0.12726357  0.37457130  1
  Fe  Fe2  1  -0.00140619  0.25047574  0.50331040  1
  Fe  Fe3  1  0.37859649  0.62338744  0.87389436  1
  Fe  Fe4  1  -0.00221738  0.49755915  0.24782204  1
  Fe  Fe5  1  0.74959666  0.25085998  0.49493333  1
  Fe  Fe6  1  0.87539489  0.62489851  0.12363518  1
  Fe  Fe7  1  0.87294069  0.62629404  0.62598545  1
  Fe  Fe8  1  0.62495985  0.87505095  0.37398285  1
  Fe  Fe9  1  0.12312711  0.62449567  0.37466812  1
  Fe  Fe10  1  0.12304824  0.87642516  0.37614103  1
  Fe  Fe11  1  0.75384480  0.25099929  0.25465733  1
  Fe  Fe12  1  0.24984847  0.00182356  -0.00044537  1
  Fe  Fe13  1  0.50419511  0.74716901  -0.00152957  1
  Fe  Fe14  1  0.12454485  0.87584870  0.12403553  1
  Fe  Fe15  1  0.50182164  0.25211028  0.00039600  1
  Fe  Fe16  1  0.75172418  0.00175425  0.25249272  1
  Fe  Fe17  1  0.86864179  0.87476138  0.62667462  1
  Fe  Fe18  1  0.62714474  0.87619504  0.62679861  1
  Fe  Fe19  1  0.24900604  0.24998160  0.75151170  1
  Fe  Fe20  1  0.62437923  0.62015091  0.37438331  1
  Fe  Fe21  1  0.37708386  0.62585887  0.12488228  1
  Fe  Fe22  1  0.62806784  0.12664209  0.62427222  1
  Fe  Fe23  1  -0.00095853  0.49968591  0.50434090  1
  Fe  Fe24  1  0.25172990  0.49847365  0.49976565  1
  Fe  Fe25  1  0.50343389  0.25500768  0.49775795  1
  Fe  Fe26  1  0.37742467  0.12702919  0.62614632  1
  Fe  Fe27  1  0.87178089  0.37433932  0.12085309  1
  Fe  Fe28  1  0.25054164  0.50071678  0.25087279  1
  Fe  Fe29  1  0.50180952  0.25272462  0.25066034  1
  Fe  Fe30  1  0.37605548  0.37468700  0.87568618  1
  Fe  Fe31  1  -0.00109786  0.75123185  0.25021625  1
  Fe  Fe32  1  0.87339891  0.87461189  0.12238221  1
  Fe  Fe33  1  0.62335824  0.12384260  0.87648089  1
  Fe  Fe34  1  -0.00467572  0.00018931  0.50509611  1
  Fe  Fe35  1  0.87709860  0.12423703  0.87325516  1
  Fe  Fe36  1  0.37732498  0.12601488  0.87503393  1
  Fe  Fe37  1  0.49946876  0.49717584  0.24917668  1
  Fe  Fe38  1  0.50153176  0.00007733  0.75088943  1
  Fe  Fe39  1  0.87748499  0.37798606  0.87643218  1
  Fe  Fe40  1  0.87411151  0.87509005  0.37646252  1
  Fe  Fe41  1  0.24914802  0.24925115  0.49891802  1
  Fe  Fe42  1  0.62257631  0.62101992  0.62759947  1
  Fe  Fe43  1  0.12579022  0.37523929  0.12420516  1
  Fe  Fe44  1  0.74573188  0.74356811  -0.00230071  1
  Fe  Fe45  1  0.74851777  0.74687945  0.24953133  1
  Fe  Fe46  1  0.37791285  0.87603329  0.87642278  1
  Fe  Fe47  1  0.00290428  0.74745914  -0.00071553  1
  Fe  Fe48  1  0.12397071  0.12487829  0.62894127  1
  Fe  Fe49  1  0.62577703  0.87433530  0.12320012  1
  Fe  Fe50  1  0.12137068  0.37789139  0.87341217  1
  Fe  Fe51  1  -0.00084795  0.75033239  0.50202708  1
  Fe  Fe52  1  0.50071474  0.00093002  0.24756925  1
  Fe  Fe53  1  0.25019748  0.00290693  0.50004356  1
  Fe  Fe54  1  0.12388360  0.87755046  0.87335185  1
  Fe  Fe55  1  0.75049576  0.00239224  -0.00120731  1
  Fe  Fe56  1  0.37905138  0.62643855  0.62436318  1
  Fe  Fe57  1  0.87419732  0.62247164  0.37636425  1
  Fe  Fe58  1  0.37695555  0.87368844  0.12345188  1
  Fe  Fe59  1  0.74518312  0.74700734  0.75447597  1
  Fe  Fe60  1  0.37662264  0.87461878  0.62438284  1
  Fe  Fe61  1  0.12278564  0.37463677  0.37586083  1
  Fe  Fe62  1  0.62420469  0.38057204  0.87423987  1
  Fe  Fe63  1  0.11845881  0.12493016  0.37248820  1
  Fe  Fe64  1  0.00045916  0.24686879  0.00241983  1
  Fe  Fe65  1  0.25057279  0.49862358  0.74935856  1
  Fe  Fe66  1  0.24736408  0.74645220  -0.00113089  1
  Fe  Fe67  1  0.25054701  0.75023490  0.25086174  1
  Fe  Fe68  1  0.12646665  0.62496925  0.62714063  1
  Fe  Fe69  1  0.24776529  0.24897307  0.25077079  1
  Fe  Fe70  1  0.74908527  0.25097831  0.75387926  1
  Fe  Fe71  1  0.37466367  0.12761711  0.12396606  1
  Fe  Fe72  1  0.62928600  0.37632890  0.12427425  1
  Fe  Fe73  1  0.37927678  0.62538868  0.37669589  1
  Fe  Fe74  1  0.74657026  0.74794182  0.49890554  1
  Fe  Fe75  1  0.00026068  0.75083969  0.74916469  1
  Fe  Fe76  1  0.25031177  0.00035171  0.25069894  1
  Fe  Fe77  1  0.62849124  0.12788273  0.12501463  1
  Fe  Fe78  1  0.37475588  0.37161308  0.62491457  1
  Fe  Fe79  1  0.50299580  0.00007546  0.49962331  1
  Fe  Fe80  1  0.12196211  0.12237605  0.87155573  1
  Fe  Fe81  1  0.87139061  0.37318882  0.62531711  1
  Fe  Fe82  1  0.87334245  0.87492299  0.87513715  1
  Fe  Fe83  1  0.24745857  0.24857092  -0.00168310  1
  Fe  Fe84  1  0.25175512  0.75087851  0.75129965  1
  Fe  Fe85  1  0.37265003  0.37399581  0.12415693  1
  Fe  Fe86  1  0.24773392  0.50280313  -0.00012900  1
  Fe  Fe87  1  0.87860597  0.62185529  0.87423228  1
  Fe  Fe88  1  0.12691784  0.87622205  0.62648189  1
  Fe  Fe89  1  0.37748070  0.87423842  0.37622117  1
  Co  Co90  1  -0.00193271  0.25180864  0.74867126  1
  Co  Co91  1  0.00125453  0.50149342  0.00291166  1
  Co  Co92  1  -0.00456883  -0.00157402  0.74668533  1
  Co  Co93  1  0.12725819  0.37423519  0.62485787  1
  Co  Co94  1  -0.00334819  0.25294529  0.24591273  1
  Co  Co95  1  0.12294504  0.62254359  0.87028174  1
  Co  Co96  1  0.37339189  0.37315768  0.37416753  1
  Co  Co97  1  -0.00204946  0.00173506  0.00069117  1
  Co  Co98  1  0.50394052  0.75060755  0.50018523  1
  Co  Co99  1  0.62864809  0.37430380  0.62717480  1
  Co  Co100  1  0.50212948  0.75213370  0.75203822  1
  Co  Co101  1  -0.00176069  0.49838093  0.74468234  1
  Co  Co102  1  0.75355725  0.50045697  0.24760259  1
  Co  Co103  1  0.49695370  0.49587579  0.74613134  1
  Co  Co104  1  0.50263402  0.25065278  0.75140939  1
  Co  Co105  1  0.25354931  0.00050689  0.75021618  1
  Co  Co106  1  0.12432635  0.62560752  0.12860282  1
  Co  Co107  1  0.75006871  0.25037085  -0.00470552  1
  Co  Co108  1  0.49987856  0.49463489  0.50106166  1
  Co  Co109  1  0.74935110  0.00239721  0.75270241  1
  Co  Co110  1  0.87655815  0.37762067  0.37763160  1
  Co  Co111  1  0.62370640  0.12596549  0.37473094  1
  Co  Co112  1  0.50096088  0.00281782  0.00255547  1
  Co  Co113  1  0.74950761  0.50009849  0.50289422  1
  Co  Co114  1  0.87149141  0.12616949  0.12560521  1
  Co  Co115  1  0.62883116  0.38000371  0.37301252  1
  Co  Co116  1  0.86900452  0.12766603  0.62568742  1
  Co  Co117  1  0.62589452  0.87706136  0.87751802  1
  Co  Co118  1  0.75318723  0.49968712  0.75044501  1
  Co  Co119  1  0.62070522  0.61753835  0.87169841  1
  Co  Co120  1  -0.00338444  -0.00194229  0.24658769  1
  Co  Co121  1  0.50189089  0.75022083  0.24989224  1
  Co  Co122  1  0.75055601  0.00099617  0.49691802  1
  Co  Co123  1  0.74947984  0.50341061  -0.00129463  1
  Co  Co124  1  0.87966182  0.12507498  0.37495916  1
  Co  Co125  1  0.12513602  0.12339887  0.12687328  1
  Co  Co126  1  0.49990415  0.49786322  0.00276354  1
  Co  Co127  1  0.62395985  0.62195178  0.12681970  1
