# generated using pymatgen
data_Fe45Co19
_symmetry_space_group_name_H-M   'P 1'
_cell_length_a   11.41419409
_cell_length_b   11.41465112
_cell_length_c   11.41469932
_cell_angle_alpha   89.99847645
_cell_angle_beta   90.00124326
_cell_angle_gamma   89.98989402
_symmetry_Int_Tables_number   1
_chemical_formula_structural   Fe45Co19
_chemical_formula_sum   'Fe90 Co38'
_cell_volume   1487.21023057
_cell_formula_units_Z   2
loop_
 _symmetry_equiv_pos_site_id
 _symmetry_equiv_pos_as_xyz
  1  'x, y, z'
loop_
 _atom_site_type_symbol
 _atom_site_label
 _atom_site_symmetry_multiplicity
 _atom_site_fract_x
 _atom_site_fract_y
 _atom_site_fract_z
 _atom_site_occupancy
  Fe  Fe0  1  0.50151437  0.74980507  0.74793072  1
  Fe  Fe1  1  0.12385453  0.62494281  0.37665652  1
  Fe  Fe2  1  0.37820092  0.37524539  0.62590621  1
  Fe  Fe3  1  0.62394593  0.12217246  0.12673003  1
  Fe  Fe4  1  0.87075508  0.37240556  0.37298615  1
  Fe  Fe5  1  0.12493549  0.12391382  0.87828548  1
  Fe  Fe6  1  -0.00291353  0.74926199  0.25281133  1
  Fe  Fe7  1  0.75312890  0.75032335  0.25249711  1
  Fe  Fe8  1  0.37434677  0.62819241  0.37528335  1
  Fe  Fe9  1  0.49734195  0.75305364  0.49785192  1
  Fe  Fe10  1  0.37454177  0.62768740  0.87406478  1
  Fe  Fe11  1  0.37451804  0.62718065  0.12604275  1
  Fe  Fe12  1  0.37576509  0.12357807  0.37404959  1
  Fe  Fe13  1  0.00065374  0.24986791  0.49865377  1
  Fe  Fe14  1  0.37437246  0.87367322  0.62460785  1
  Fe  Fe15  1  0.62832149  0.62745759  0.87546024  1
  Fe  Fe16  1  0.74572915  0.24785838  0.50007557  1
  Fe  Fe17  1  0.12401211  0.62615104  0.62289959  1
  Fe  Fe18  1  0.50076303  0.75141793  0.00158518  1
  Fe  Fe19  1  0.50340011  0.24619223  0.50168794  1
  Fe  Fe20  1  0.62455693  0.37344186  0.87342851  1
  Fe  Fe21  1  0.62625658  0.12317320  0.87362881  1
  Fe  Fe22  1  0.25113767  0.25035065  0.50074434  1
  Fe  Fe23  1  0.12543567  0.37474296  0.87586578  1
  Fe  Fe24  1  0.50435250  0.25152052  0.24995928  1
  Fe  Fe25  1  0.75670986  0.75125534  0.49822181  1
  Fe  Fe26  1  0.24707680  0.24766540  0.24698617  1
  Fe  Fe27  1  0.12515400  0.12435468  0.62314111  1
  Fe  Fe28  1  0.75312783  -0.00001183  0.25299811  1
  Fe  Fe29  1  -0.00265830  0.74960704  -0.00056556  1
  Fe  Fe30  1  0.24718838  0.75016645  0.75018197  1
  Fe  Fe31  1  0.87492511  0.12465805  0.62356006  1
  Fe  Fe32  1  0.37356726  0.12238156  0.87553013  1
  Fe  Fe33  1  -0.00028450  0.49838299  0.25038020  1
  Fe  Fe34  1  -0.00015619  0.25297027  0.00351928  1
  Fe  Fe35  1  0.62852816  0.62573535  0.12374041  1
  Fe  Fe36  1  0.74892368  0.49903576  0.50106285  1
  Fe  Fe37  1  0.24993903  0.50080716  -0.00001939  1
  Fe  Fe38  1  0.24888281  0.50104283  0.74860136  1
  Fe  Fe39  1  0.74894844  0.24959760  0.00246982  1
  Fe  Fe40  1  0.37715557  0.37409967  0.37534765  1
  Fe  Fe41  1  0.50215271  0.50365009  0.74687678  1
  Fe  Fe42  1  0.25049541  0.50072144  0.25037443  1
  Fe  Fe43  1  0.25013814  -0.00188936  0.49894503  1
  Fe  Fe44  1  0.87552273  0.62436538  0.62418887  1
  Fe  Fe45  1  0.75447395  -0.00187605  0.75000601  1
  Fe  Fe46  1  0.87326607  0.62569823  0.87585192  1
  Fe  Fe47  1  0.12168528  0.87683857  0.12575471  1
  Fe  Fe48  1  0.74808735  0.24950042  0.74701683  1
  Fe  Fe49  1  -0.00138407  0.49797163  0.49934025  1
  Fe  Fe50  1  0.75295496  -0.00167966  0.00128661  1
  Fe  Fe51  1  0.12155609  0.87526813  0.37762446  1
  Fe  Fe52  1  0.87504672  0.12601958  0.87546633  1
  Fe  Fe53  1  0.37576892  0.37454319  0.12604389  1
  Fe  Fe54  1  0.12709992  0.37439716  0.37519470  1
  Fe  Fe55  1  0.00134999  0.24888259  0.74803661  1
  Fe  Fe56  1  0.50068725  0.24845537  0.00043515  1
  Fe  Fe57  1  0.62624349  0.62783138  0.37638495  1
  Fe  Fe58  1  0.37603716  0.12271771  0.62491089  1
  Fe  Fe59  1  0.12042907  0.87570120  0.87370481  1
  Fe  Fe60  1  0.74867131  0.49872161  0.74740443  1
  Fe  Fe61  1  0.62623965  0.87527267  0.87552401  1
  Fe  Fe62  1  0.25018252  0.24709606  0.00442376  1
  Fe  Fe63  1  0.24661814  0.00225830  0.24921631  1
  Fe  Fe64  1  0.37424296  0.87525325  0.12736978  1
  Fe  Fe65  1  0.50083219  -0.00428844  0.25450904  1
  Fe  Fe66  1  0.87204813  0.62375714  0.12458482  1
  Fe  Fe67  1  0.25156434  0.50048238  0.50064431  1
  Fe  Fe68  1  0.50170028  0.50064360  -0.00006224  1
  Fe  Fe69  1  0.87790250  0.12647127  0.13049013  1
  Fe  Fe70  1  0.37590673  0.37433967  0.87357644  1
  Fe  Fe71  1  0.49827814  -0.00167202  -0.00005822  1
  Fe  Fe72  1  0.24794022  -0.00193115  0.75067883  1
  Fe  Fe73  1  0.87435115  0.37390026  0.87254911  1
  Fe  Fe74  1  0.12448828  0.62495931  0.12422157  1
  Fe  Fe75  1  0.50307006  0.50086839  0.25060165  1
  Fe  Fe76  1  0.62774551  0.87394831  0.12720105  1
  Fe  Fe77  1  0.75421620  0.75385846  0.74878726  1
  Fe  Fe78  1  -0.00314244  -0.00086111  0.00009622  1
  Fe  Fe79  1  0.87028113  0.37518066  0.12914489  1
  Fe  Fe80  1  -0.00108904  0.49912222  0.00012560  1
  Fe  Fe81  1  0.75176323  0.00193252  0.49607970  1
  Fe  Fe82  1  0.24979377  0.75298931  -0.00167688  1
  Fe  Fe83  1  0.00081126  0.49946451  0.74914045  1
  Fe  Fe84  1  0.11725979  0.87486883  0.62377527  1
  Fe  Fe85  1  0.24982435  0.25034149  0.74885173  1
  Fe  Fe86  1  0.24851452  0.75017481  0.25181672  1
  Fe  Fe87  1  0.50017311  -0.00042400  0.74882060  1
  Fe  Fe88  1  0.50158897  0.50334531  0.50216875  1
  Fe  Fe89  1  0.62717415  0.87604882  0.62102091  1
  Co  Co90  1  0.87542600  0.13064854  0.37176347  1
  Co  Co91  1  0.37221150  0.87491146  0.37274046  1
  Co  Co92  1  0.37661810  0.87398404  0.87327930  1
  Co  Co93  1  0.74604948  0.50110186  0.25141992  1
  Co  Co94  1  0.37820727  0.12266888  0.12775465  1
  Co  Co95  1  0.87470702  0.62065009  0.37455501  1
  Co  Co96  1  0.87611951  0.87538495  0.12767543  1
  Co  Co97  1  -0.00308376  0.74732602  0.49784722  1
  Co  Co98  1  0.12608760  0.12653987  0.37606801  1
  Co  Co99  1  0.50031106  0.24589178  0.74984703  1
  Co  Co100  1  0.87743679  0.87513978  0.87488040  1
  Co  Co101  1  -0.00292469  0.74773784  0.74956946  1
  Co  Co102  1  0.62849771  0.63047888  0.62243227  1
  Co  Co103  1  0.62290211  0.12201124  0.37357147  1
  Co  Co104  1  0.62280422  0.37401562  0.62542506  1
  Co  Co105  1  0.25081501  -0.00223235  0.00085636  1
  Co  Co106  1  0.87443644  0.37316293  0.62376466  1
  Co  Co107  1  0.12682241  0.37805681  0.12488658  1
  Co  Co108  1  0.00444319  0.25287944  0.24997208  1
  Co  Co109  1  0.62538426  0.37607424  0.37831171  1
  Co  Co110  1  0.87822422  0.87705819  0.37630452  1
  Co  Co111  1  0.75023266  0.49719059  -0.00236030  1
  Co  Co112  1  0.37269486  0.62769876  0.62438004  1
  Co  Co113  1  0.87938834  0.87801451  0.62165533  1
  Co  Co114  1  0.00006042  0.00109721  0.25419317  1
  Co  Co115  1  0.12512126  0.37531985  0.62399461  1
  Co  Co116  1  0.75164226  0.75359789  -0.00010484  1
  Co  Co117  1  0.12439093  0.62512646  0.87618397  1
  Co  Co118  1  0.49835879  -0.00194383  0.49861632  1
  Co  Co119  1  0.24829074  0.75221971  0.49991328  1
  Co  Co120  1  0.62574144  0.12007315  0.62639269  1
  Co  Co121  1  0.62611186  0.37638976  0.12346361  1
  Co  Co122  1  -0.00194290  0.00441176  0.75021389  1
  Co  Co123  1  0.12019728  0.12186558  0.12312545  1
  Co  Co124  1  0.62791986  0.87297615  0.37651630  1
  Co  Co125  1  0.50118625  0.74970754  0.25040726  1
  Co  Co126  1  -0.00113340  0.00538908  0.49720732  1
  Co  Co127  1  0.74372702  0.24877778  0.24995886  1
