# generated using pymatgen
data_Fe45Co19
_symmetry_space_group_name_H-M   'P 1'
_cell_length_a   11.41425490
_cell_length_b   11.41484084
_cell_length_c   11.41474042
_cell_angle_alpha   90.00469571
_cell_angle_beta   89.99628175
_cell_angle_gamma   89.99696156
_symmetry_Int_Tables_number   1
_chemical_formula_structural   Fe45Co19
_chemical_formula_sum   'Fe90 Co38'
_cell_volume   1487.24824182
_cell_formula_units_Z   2
loop_
 _symmetry_equiv_pos_site_id
 _symmetry_equiv_pos_as_xyz
  1  'x, y, z'
loop_
 _atom_site_type_symbol
 _atom_site_label
 _atom_site_symmetry_multiplicity
 _atom_site_fract_x
 _atom_site_fract_y
 _atom_site_fract_z
 _atom_site_occupancy
  Fe  Fe0  1  0.50229659  -0.00096688  0.74944845  1
  Fe  Fe1  1  0.12168179  0.12451387  0.12396161  1
  Fe  Fe2  1  0.50123029  0.49758772  0.75019831  1
  Fe  Fe3  1  0.37511890  0.37263045  0.62238292  1
  Fe  Fe4  1  0.62491334  0.12662123  0.87628163  1
  Fe  Fe5  1  0.25109556  0.49952795  0.25156962  1
  Fe  Fe6  1  0.87361922  0.87501296  0.37667661  1
  Fe  Fe7  1  0.62477613  0.62472952  0.37676570  1
  Fe  Fe8  1  0.75420901  0.25015874  0.00242952  1
  Fe  Fe9  1  0.49974330  0.74998074  0.25236510  1
  Fe  Fe10  1  0.12367511  0.62720747  0.87256864  1
  Fe  Fe11  1  0.62859387  0.37553812  0.87511844  1
  Fe  Fe12  1  0.24591429  0.24913752  0.50102736  1
  Fe  Fe13  1  0.37877784  0.62618534  0.62249719  1
  Fe  Fe14  1  0.25104649  0.74863159  0.25033005  1
  Fe  Fe15  1  0.12100968  0.62352304  0.12486864  1
  Fe  Fe16  1  0.87257630  0.62535603  0.87465995  1
  Fe  Fe17  1  0.62828241  0.87408865  0.37646747  1
  Fe  Fe18  1  0.75238748  0.24827842  0.75132926  1
  Fe  Fe19  1  0.37793804  0.62776279  0.87472237  1
  Fe  Fe20  1  -0.00075605  0.00154645  0.50149939  1
  Fe  Fe21  1  0.12606881  0.37449994  0.87522072  1
  Fe  Fe22  1  0.49684781  0.25084443  0.24741310  1
  Fe  Fe23  1  0.62619251  0.37569012  0.12698112  1
  Fe  Fe24  1  0.87331966  0.62253515  0.37620332  1
  Fe  Fe25  1  0.74819526  0.50305501  0.74656344  1
  Fe  Fe26  1  0.11938401  0.37817101  0.12464681  1
  Fe  Fe27  1  0.62546541  0.12872949  0.37141356  1
  Fe  Fe28  1  -0.00174995  0.00062653  0.25075705  1
  Fe  Fe29  1  0.50071184  0.25138391  0.75012205  1
  Fe  Fe30  1  0.62667920  0.87531975  0.12661865  1
  Fe  Fe31  1  0.50259464  0.50036527  -0.00165012  1
  Fe  Fe32  1  0.25018994  0.74944684  -0.00048399  1
  Fe  Fe33  1  0.62632150  0.12550413  0.62647134  1
  Fe  Fe34  1  0.12173153  0.12481004  0.87431146  1
  Fe  Fe35  1  0.75117847  0.74630804  0.24827949  1
  Fe  Fe36  1  0.50204553  0.49382095  0.49742072  1
  Fe  Fe37  1  0.37471757  0.37432475  0.87698299  1
  Fe  Fe38  1  0.74945571  0.25143182  0.50009782  1
  Fe  Fe39  1  0.37595145  0.12572065  0.62500330  1
  Fe  Fe40  1  0.74826928  0.49542115  0.49922741  1
  Fe  Fe41  1  0.12260071  0.62479696  0.62634440  1
  Fe  Fe42  1  0.50513896  0.75086685  0.74644768  1
  Fe  Fe43  1  0.12389930  0.87451829  0.12638352  1
  Fe  Fe44  1  0.50203667  -0.00040847  0.00019222  1
  Fe  Fe45  1  0.87712917  0.12735338  0.37507975  1
  Fe  Fe46  1  0.50156633  -0.00036933  0.50083453  1
  Fe  Fe47  1  0.12430353  0.87550171  0.37592382  1
  Fe  Fe48  1  0.24807121  -0.00059192  0.74914508  1
  Fe  Fe49  1  0.75023675  0.00405669  0.49932470  1
  Fe  Fe50  1  0.63127703  0.87205942  0.87197835  1
  Fe  Fe51  1  0.74867112  0.74571329  0.00313600  1
  Fe  Fe52  1  0.24915009  0.00179020  0.25026640  1
  Fe  Fe53  1  -0.00255516  0.74964934  0.50106114  1
  Fe  Fe54  1  0.00125298  0.49678376  0.49735758  1
  Fe  Fe55  1  0.24931079  0.25118411  0.74973624  1
  Fe  Fe56  1  0.11912144  0.12799900  0.62838174  1
  Fe  Fe57  1  0.24908429  -0.00062828  -0.00114004  1
  Fe  Fe58  1  0.24909772  0.49910958  0.49981398  1
  Fe  Fe59  1  0.24858245  0.00092984  0.50170587  1
  Fe  Fe60  1  0.37498104  0.12556985  0.87591829  1
  Fe  Fe61  1  0.37472874  0.12754840  0.37624732  1
  Fe  Fe62  1  -0.00177300  0.74889129  0.25176556  1
  Fe  Fe63  1  0.24928474  0.50231271  -0.00142814  1
  Fe  Fe64  1  0.50187006  0.00115162  0.25018165  1
  Fe  Fe65  1  0.74947320  0.50317793  0.00464029  1
  Fe  Fe66  1  0.87661084  0.37319849  0.62526148  1
  Fe  Fe67  1  -0.00712325  0.75325130  0.74812320  1
  Fe  Fe68  1  0.25084963  0.25035119  0.00220165  1
  Fe  Fe69  1  0.74910937  0.00226826  0.00084216  1
  Fe  Fe70  1  0.75013255  0.74703659  0.50585040  1
  Fe  Fe71  1  0.12361406  0.87385072  0.87305015  1
  Fe  Fe72  1  0.12605748  0.62668304  0.37583238  1
  Fe  Fe73  1  0.49849411  0.49802213  0.25370831  1
  Fe  Fe74  1  0.37585337  0.87555265  0.12441074  1
  Fe  Fe75  1  0.87375545  0.87650895  0.12485831  1
  Fe  Fe76  1  0.37793314  0.62481030  0.12389839  1
  Fe  Fe77  1  0.50013500  0.25012185  0.00256756  1
  Fe  Fe78  1  0.25210342  0.74989960  0.50077521  1
  Fe  Fe79  1  -0.00079320  0.49677978  0.75262971  1
  Fe  Fe80  1  0.75560813  0.25129576  0.24668739  1
  Fe  Fe81  1  0.87892564  0.12023726  0.87336049  1
  Fe  Fe82  1  0.25012510  0.24996320  0.24687873  1
  Fe  Fe83  1  0.25122587  0.50057018  0.74916038  1
  Fe  Fe84  1  0.37405355  0.87577438  0.37638138  1
  Fe  Fe85  1  -0.00468865  0.25280620  -0.00067064  1
  Fe  Fe86  1  0.37481133  0.87347591  0.87264556  1
  Fe  Fe87  1  0.12315765  0.37150236  0.37331026  1
  Fe  Fe88  1  -0.00229865  0.75100153  -0.00082038  1
  Fe  Fe89  1  0.12467807  0.87272879  0.62501155  1
  Co  Co90  1  0.37496871  0.87507414  0.62615568  1
  Co  Co91  1  0.62649600  0.37200472  0.37018143  1
  Co  Co92  1  0.12410449  0.12538492  0.37353021  1
  Co  Co93  1  0.75167323  0.74531688  0.74411579  1
  Co  Co94  1  0.75089626  0.00271889  0.74987324  1
  Co  Co95  1  0.62129325  0.62242099  0.62097678  1
  Co  Co96  1  0.37494071  0.12227152  0.12353468  1
  Co  Co97  1  0.75098442  0.00048227  0.25233494  1
  Co  Co98  1  0.63082313  0.87703401  0.62437664  1
  Co  Co99  1  0.00062576  0.50285239  0.25595226  1
  Co  Co100  1  0.00085549  -0.00295956  0.00028479  1
  Co  Co101  1  0.50103649  0.75449443  0.50001751  1
  Co  Co102  1  0.62685805  0.37312161  0.62817825  1
  Co  Co103  1  0.88039568  0.62179897  0.12545711  1
  Co  Co104  1  0.87865112  0.38193136  0.12743773  1
  Co  Co105  1  0.50272097  0.75253254  -0.00117928  1
  Co  Co106  1  0.86906153  0.37902061  0.87442869  1
  Co  Co107  1  0.62638624  0.12599769  0.12640538  1
  Co  Co108  1  0.12321272  0.37558986  0.62621006  1
  Co  Co109  1  0.37489171  0.37864602  0.12311000  1
  Co  Co110  1  0.74919723  0.50299176  0.24944368  1
  Co  Co111  1  0.50452789  0.25004912  0.50080985  1
  Co  Co112  1  0.87675659  0.12748156  0.62585494  1
  Co  Co113  1  0.62670670  0.62564220  0.87315103  1
  Co  Co114  1  0.86967926  0.87524159  0.87625898  1
  Co  Co115  1  0.37586167  0.62526700  0.37767366  1
  Co  Co116  1  -0.00045774  -0.00434315  0.74763559  1
  Co  Co117  1  -0.00280061  0.24826866  0.24802492  1
  Co  Co118  1  0.61965572  0.62442520  0.12772588  1
  Co  Co119  1  0.37281066  0.37003586  0.37772841  1
  Co  Co120  1  0.87548259  0.37513162  0.37319543  1
  Co  Co121  1  -0.00247266  0.25426648  0.75417491  1
  Co  Co122  1  0.87560076  0.12115950  0.12433359  1
  Co  Co123  1  -0.00088753  0.49966884  -0.00607449  1
  Co  Co124  1  0.00008240  0.25106234  0.49927319  1
  Co  Co125  1  0.25066669  0.74820305  0.74855400  1
  Co  Co126  1  0.87848443  0.61907044  0.62326604  1
  Co  Co127  1  0.86966000  0.87892634  0.62356772  1
