# generated using pymatgen
data_Fe45Co19
_symmetry_space_group_name_H-M   'P 1'
_cell_length_a   11.41457013
_cell_length_b   11.41573046
_cell_length_c   11.41519116
_cell_angle_alpha   90.00512136
_cell_angle_beta   90.00078227
_cell_angle_gamma   89.99857059
_symmetry_Int_Tables_number   1
_chemical_formula_structural   Fe45Co19
_chemical_formula_sum   'Fe90 Co38'
_cell_volume   1487.46396461
_cell_formula_units_Z   2
loop_
 _symmetry_equiv_pos_site_id
 _symmetry_equiv_pos_as_xyz
  1  'x, y, z'
loop_
 _atom_site_type_symbol
 _atom_site_label
 _atom_site_symmetry_multiplicity
 _atom_site_fract_x
 _atom_site_fract_y
 _atom_site_fract_z
 _atom_site_occupancy
  Fe  Fe0  1  0.25395707  0.75093525  0.74882382  1
  Fe  Fe1  1  0.12402638  0.62651680  0.62829459  1
  Fe  Fe2  1  0.37295061  0.87596119  0.37797763  1
  Fe  Fe3  1  0.37608851  0.62459838  0.62611026  1
  Fe  Fe4  1  0.37157337  0.62282886  0.12700501  1
  Fe  Fe5  1  0.87587069  0.87655480  0.62429799  1
  Fe  Fe6  1  0.25080606  0.74953108  0.00094156  1
  Fe  Fe7  1  0.49785505  0.74896176  0.24969618  1
  Fe  Fe8  1  0.49960885  0.50140416  -0.00086553  1
  Fe  Fe9  1  -0.00089207  0.24939348  0.50115693  1
  Fe  Fe10  1  0.75054305  0.49935184  0.50072337  1
  Fe  Fe11  1  0.12322095  0.87242264  0.12516710  1
  Fe  Fe12  1  0.49601001  -0.00231998  0.75326781  1
  Fe  Fe13  1  0.75287842  0.50186412  -0.00261127  1
  Fe  Fe14  1  0.24904606  0.24406927  0.75300185  1
  Fe  Fe15  1  0.87628634  0.12340444  0.62514794  1
  Fe  Fe16  1  0.37562405  0.12448164  0.37360906  1
  Fe  Fe17  1  0.74817797  -0.00036788  0.49945688  1
  Fe  Fe18  1  0.12386512  0.37709776  0.12335002  1
  Fe  Fe19  1  0.49630163  0.75106707  0.50187063  1
  Fe  Fe20  1  0.24638113  0.50043265  -0.00222736  1
  Fe  Fe21  1  0.00260388  0.50310224  0.49948564  1
  Fe  Fe22  1  0.87551706  0.12201043  0.37386658  1
  Fe  Fe23  1  0.12567723  0.87211519  0.37513755  1
  Fe  Fe24  1  0.37469231  0.37316711  0.62561579  1
  Fe  Fe25  1  0.00049847  -0.00086975  0.00096265  1
  Fe  Fe26  1  0.62223516  0.37409931  0.62591018  1
  Fe  Fe27  1  0.87531511  0.87343729  0.12432992  1
  Fe  Fe28  1  0.25045104  0.50101525  0.75084554  1
  Fe  Fe29  1  0.62575660  0.62712878  0.37581142  1
  Fe  Fe30  1  0.75080560  0.75022669  0.74852686  1
  Fe  Fe31  1  0.12525688  0.37292880  0.62686028  1
  Fe  Fe32  1  0.87440283  0.87231845  0.87674011  1
  Fe  Fe33  1  0.62356159  0.62610366  0.62534778  1
  Fe  Fe34  1  0.62500319  0.37307838  0.87470427  1
  Fe  Fe35  1  0.62437184  0.62806223  0.87387117  1
  Fe  Fe36  1  0.12691074  0.12590995  0.12186149  1
  Fe  Fe37  1  -0.00043677  0.50021211  0.75504770  1
  Fe  Fe38  1  0.62642641  0.12395524  0.12419257  1
  Fe  Fe39  1  0.49952274  0.50000056  0.75104264  1
  Fe  Fe40  1  0.12743395  0.87381854  0.87563193  1
  Fe  Fe41  1  0.24922418  0.25034881  0.49854877  1
  Fe  Fe42  1  0.75012726  0.24988119  0.74984494  1
  Fe  Fe43  1  0.24688562  -0.00227343  0.24850815  1
  Fe  Fe44  1  0.74807764  0.50059194  0.25074645  1
  Fe  Fe45  1  0.49853477  0.50054406  0.49823519  1
  Fe  Fe46  1  0.37010442  0.62466764  0.37215851  1
  Fe  Fe47  1  0.00257700  -0.00044869  0.49927597  1
  Fe  Fe48  1  0.49876295  0.25077446  0.00070737  1
  Fe  Fe49  1  0.50091684  -0.00215857  -0.00252832  1
  Fe  Fe50  1  0.37387829  0.12091732  0.62433854  1
  Fe  Fe51  1  0.50026497  0.24695328  0.50048961  1
  Fe  Fe52  1  0.62148977  0.87479596  0.62684464  1
  Fe  Fe53  1  0.75054060  0.25075353  0.24873350  1
  Fe  Fe54  1  0.62561031  0.62639164  0.12436121  1
  Fe  Fe55  1  0.75286030  0.74980976  0.25020372  1
  Fe  Fe56  1  0.87771191  0.37722457  0.37408943  1
  Fe  Fe57  1  0.37201345  0.12359559  0.12187648  1
  Fe  Fe58  1  0.37658075  0.37826110  0.12787573  1
  Fe  Fe59  1  0.75080090  0.50065210  0.75005972  1
  Fe  Fe60  1  0.87493976  0.12455693  0.12287944  1
  Fe  Fe61  1  0.13019531  0.87769561  0.62433806  1
  Fe  Fe62  1  0.62395534  0.12331073  0.62698942  1
  Fe  Fe63  1  0.00070049  0.25415565  -0.00225164  1
  Fe  Fe64  1  0.25048950  0.25387136  0.24994932  1
  Fe  Fe65  1  0.62562255  0.87405679  0.12283493  1
  Fe  Fe66  1  0.00403903  0.50405901  0.25085031  1
  Fe  Fe67  1  0.62470862  0.12550840  0.87610694  1
  Fe  Fe68  1  0.37410861  0.37369759  0.87405637  1
  Fe  Fe69  1  0.75356271  0.74995301  0.50065843  1
  Fe  Fe70  1  0.49907045  0.75012769  -0.00272218  1
  Fe  Fe71  1  0.37622108  0.87601876  0.12352703  1
  Fe  Fe72  1  0.75138245  -0.00078240  0.75290567  1
  Fe  Fe73  1  -0.00070637  0.74821379  0.50086158  1
  Fe  Fe74  1  0.00029415  0.74341893  -0.00015076  1
  Fe  Fe75  1  0.62439267  0.87466327  0.37522301  1
  Fe  Fe76  1  0.62333178  0.37586335  0.12537872  1
  Fe  Fe77  1  0.75115136  -0.00171179  0.24892491  1
  Fe  Fe78  1  0.87657765  0.37589875  0.62692722  1
  Fe  Fe79  1  -0.00162901  0.74692713  0.25132300  1
  Fe  Fe80  1  0.00242817  0.24772380  0.75230459  1
  Fe  Fe81  1  0.75020229  0.25013757  0.49992487  1
  Fe  Fe82  1  0.87517916  0.12599978  0.87745971  1
  Fe  Fe83  1  0.62033385  0.37265289  0.37288961  1
  Fe  Fe84  1  0.50046606  0.00031058  0.25095168  1
  Fe  Fe85  1  0.12377205  0.12638811  0.37338470  1
  Fe  Fe86  1  0.00379728  0.00021932  0.75202035  1
  Fe  Fe87  1  0.24830696  0.49853184  0.49778653  1
  Fe  Fe88  1  0.87661075  0.37943770  0.12257041  1
  Fe  Fe89  1  -0.00048056  0.24987335  0.24818336  1
  Co  Co90  1  0.00276468  -0.00015369  0.24729037  1
  Co  Co91  1  0.50172623  0.00029412  0.49916288  1
  Co  Co92  1  0.24748003  0.00273077  0.49667968  1
  Co  Co93  1  0.25122080  0.74757296  0.50378200  1
  Co  Co94  1  0.12600624  0.12453632  0.88252069  1
  Co  Co95  1  0.87654944  0.62451832  0.62700957  1
  Co  Co96  1  0.12636875  0.62852749  0.87174779  1
  Co  Co97  1  0.62631138  0.87292515  0.87430920  1
  Co  Co98  1  0.75031744  0.74935899  0.00066948  1
  Co  Co99  1  0.37918475  0.37446775  0.37393907  1
  Co  Co100  1  0.37259195  0.88003676  0.62338680  1
  Co  Co101  1  0.37418093  0.62467910  0.87610484  1
  Co  Co102  1  0.12407452  0.12477216  0.62323516  1
  Co  Co103  1  0.49593665  0.75118303  0.75028319  1
  Co  Co104  1  0.87690527  0.87717394  0.37497100  1
  Co  Co105  1  0.24810695  -0.00451576  0.00178910  1
  Co  Co106  1  0.12923937  0.62944109  0.37321239  1
  Co  Co107  1  0.25146860  0.75444779  0.24691826  1
  Co  Co108  1  0.00192416  0.50312882  -0.00452673  1
  Co  Co109  1  0.37163268  0.87512689  0.87565867  1
  Co  Co110  1  0.49885379  0.24650252  0.24623166  1
  Co  Co111  1  0.12865567  0.62459533  0.12676459  1
  Co  Co112  1  0.25106535  0.25520318  0.00112519  1
  Co  Co113  1  0.87375505  0.37363237  0.87525120  1
  Co  Co114  1  0.87563956  0.62885414  0.87183757  1
  Co  Co115  1  0.62657896  0.12527223  0.37291069  1
  Co  Co116  1  0.00108576  0.75489234  0.74776810  1
  Co  Co117  1  0.37301697  0.12422471  0.88113874  1
  Co  Co118  1  0.75092559  -0.00139036  -0.00066117  1
  Co  Co119  1  0.50105799  0.50478951  0.25070396  1
  Co  Co120  1  0.49756217  0.24844232  0.75078384  1
  Co  Co121  1  0.74917908  0.25102033  0.00146415  1
  Co  Co122  1  0.87472219  0.62266863  0.12501626  1
  Co  Co123  1  0.24822945  0.00386159  0.75328995  1
  Co  Co124  1  0.12154680  0.37252996  0.37648685  1
  Co  Co125  1  0.24648778  0.49506199  0.25356223  1
  Co  Co126  1  0.87406160  0.62279640  0.37514867  1
  Co  Co127  1  0.12741417  0.37472131  0.87259235  1
