# generated using pymatgen
data_Fe45Co19
_symmetry_space_group_name_H-M   'P 1'
_cell_length_a   11.41507374
_cell_length_b   11.41610082
_cell_length_c   11.41535670
_cell_angle_alpha   90.00023133
_cell_angle_beta   89.99330089
_cell_angle_gamma   90.00140855
_symmetry_Int_Tables_number   1
_chemical_formula_structural   Fe45Co19
_chemical_formula_sum   'Fe90 Co38'
_cell_volume   1487.59942048
_cell_formula_units_Z   2
loop_
 _symmetry_equiv_pos_site_id
 _symmetry_equiv_pos_as_xyz
  1  'x, y, z'
loop_
 _atom_site_type_symbol
 _atom_site_label
 _atom_site_symmetry_multiplicity
 _atom_site_fract_x
 _atom_site_fract_y
 _atom_site_fract_z
 _atom_site_occupancy
  Fe  Fe0  1  0.00088819  0.75066535  0.25070545  1
  Fe  Fe1  1  0.87976688  0.12533985  0.37330005  1
  Fe  Fe2  1  0.50094198  0.49868279  0.25000978  1
  Fe  Fe3  1  0.12348797  0.62750999  0.37931779  1
  Fe  Fe4  1  0.87479952  0.87484786  0.63023169  1
  Fe  Fe5  1  0.00080071  0.49711565  0.25180493  1
  Fe  Fe6  1  0.24562157  0.49902457  0.25038962  1
  Fe  Fe7  1  0.62606637  0.87602689  0.37607563  1
  Fe  Fe8  1  0.62893238  0.87404455  0.87493180  1
  Fe  Fe9  1  0.37602339  0.37420564  0.62546686  1
  Fe  Fe10  1  0.50055191  0.24925140  0.24956260  1
  Fe  Fe11  1  0.24869718  0.75042454  0.25171868  1
  Fe  Fe12  1  0.37438298  0.12312964  0.87358083  1
  Fe  Fe13  1  0.62546958  0.62627019  0.37592135  1
  Fe  Fe14  1  0.62469449  0.62567052  0.12278329  1
  Fe  Fe15  1  0.00051554  0.00036907  0.50274868  1
  Fe  Fe16  1  0.75054720  0.49945154  0.25083044  1
  Fe  Fe17  1  0.62573546  0.12514153  0.37441646  1
  Fe  Fe18  1  0.75077459  -0.00000569  0.24733579  1
  Fe  Fe19  1  0.24954704  0.49903783  0.50082731  1
  Fe  Fe20  1  0.50341651  0.25251194  0.75127722  1
  Fe  Fe21  1  0.87392194  0.62463858  0.87153508  1
  Fe  Fe22  1  0.49643086  0.75090072  0.49940021  1
  Fe  Fe23  1  0.49789852  0.75108980  -0.00105016  1
  Fe  Fe24  1  0.24789252  0.00411493  0.50216333  1
  Fe  Fe25  1  -0.00361632  0.50059577  0.49836561  1
  Fe  Fe26  1  0.00763172  0.00108850  0.24636882  1
  Fe  Fe27  1  0.62753302  0.12565120  0.87505925  1
  Fe  Fe28  1  0.75415853  0.24825573  0.50157004  1
  Fe  Fe29  1  0.50251613  -0.00119234  0.75024526  1
  Fe  Fe30  1  0.24313413  0.24756238  0.24726375  1
  Fe  Fe31  1  -0.00012396  0.25139565  0.75331871  1
  Fe  Fe32  1  0.74945388  0.75131738  0.24827666  1
  Fe  Fe33  1  0.86999905  0.37613539  0.87203033  1
  Fe  Fe34  1  0.37163088  0.87616137  0.87277391  1
  Fe  Fe35  1  0.12404075  0.37161929  0.62278283  1
  Fe  Fe36  1  0.37492955  0.62533626  0.12688619  1
  Fe  Fe37  1  0.37383005  0.62459740  0.37444414  1
  Fe  Fe38  1  0.12268779  0.62580127  0.12280246  1
  Fe  Fe39  1  0.37263845  0.87684870  0.12697638  1
  Fe  Fe40  1  0.00280916  0.49868876  0.75106519  1
  Fe  Fe41  1  0.37212493  0.37952442  0.87362676  1
  Fe  Fe42  1  0.62616136  0.87383914  0.62383984  1
  Fe  Fe43  1  0.49943895  0.00171883  0.49963248  1
  Fe  Fe44  1  0.88242552  0.12440164  0.12110706  1
  Fe  Fe45  1  0.49682838  0.24998273  -0.00052397  1
  Fe  Fe46  1  0.50023871  -0.00109697  -0.00035450  1
  Fe  Fe47  1  0.75340260  0.24957481  0.24807208  1
  Fe  Fe48  1  0.37269483  0.12426551  0.37271831  1
  Fe  Fe49  1  0.37148079  0.37558730  0.12500876  1
  Fe  Fe50  1  0.62452385  0.12335239  0.12383085  1
  Fe  Fe51  1  0.87244062  0.37756814  0.62768588  1
  Fe  Fe52  1  0.24673848  -0.00032421  0.00088876  1
  Fe  Fe53  1  0.87742121  0.37499208  0.12570013  1
  Fe  Fe54  1  0.75610366  0.74807347  0.50195798  1
  Fe  Fe55  1  0.50209291  0.74894744  0.75171601  1
  Fe  Fe56  1  0.24876397  0.24931167  0.75062329  1
  Fe  Fe57  1  0.00238305  0.74998861  0.75266718  1
  Fe  Fe58  1  0.75358646  0.50414567  0.50081143  1
  Fe  Fe59  1  0.37630795  0.62321360  0.62680438  1
  Fe  Fe60  1  0.87706215  0.87604508  0.37268411  1
  Fe  Fe61  1  0.37257844  0.87654351  0.62753907  1
  Fe  Fe62  1  0.24862092  0.74633135  0.75058780  1
  Fe  Fe63  1  0.50146437  0.75318501  0.24948925  1
  Fe  Fe64  1  0.75518861  -0.00181405  -0.00090140  1
  Fe  Fe65  1  0.37209507  0.87892401  0.37342781  1
  Fe  Fe66  1  0.75265776  0.00047801  0.50138342  1
  Fe  Fe67  1  0.75511076  0.75278254  0.00184006  1
  Fe  Fe68  1  0.13031899  0.37835348  0.87842148  1
  Fe  Fe69  1  0.24976723  0.74567792  -0.00356332  1
  Fe  Fe70  1  0.37271902  0.37172731  0.37516022  1
  Fe  Fe71  1  0.62461400  0.37373049  0.12279388  1
  Fe  Fe72  1  0.12300867  0.12434177  0.87865019  1
  Fe  Fe73  1  -0.00002112  0.49957131  -0.00105421  1
  Fe  Fe74  1  0.87560033  0.12412404  0.63145190  1
  Fe  Fe75  1  0.62758686  0.37313395  0.37737380  1
  Fe  Fe76  1  0.12659134  0.87583280  0.62666661  1
  Fe  Fe77  1  0.49900081  0.50036677  -0.00117363  1
  Fe  Fe78  1  0.37545257  0.12585963  0.62727571  1
  Fe  Fe79  1  0.12574700  0.87444563  0.37843792  1
  Fe  Fe80  1  0.49954706  0.49846958  0.49862460  1
  Fe  Fe81  1  0.37332186  0.12231713  0.12680924  1
  Fe  Fe82  1  0.12133155  0.36895554  0.37914922  1
  Fe  Fe83  1  0.12252476  0.62586641  0.62219956  1
  Fe  Fe84  1  0.87716841  0.62515255  0.12681101  1
  Fe  Fe85  1  0.00130391  -0.00039419  0.75462845  1
  Fe  Fe86  1  0.75331452  0.24903359  -0.00022960  1
  Fe  Fe87  1  0.75025423  0.49999283  -0.00061074  1
  Fe  Fe88  1  0.50843550  0.49984451  0.75182415  1
  Fe  Fe89  1  0.62519932  0.12653360  0.62548663  1
  Co  Co90  1  0.62283270  0.62647379  0.62107353  1
  Co  Co91  1  0.25207160  0.74995880  0.50209109  1
  Co  Co92  1  0.87651573  0.62707577  0.37192425  1
  Co  Co93  1  -0.00106736  -0.00732345  -0.00270196  1
  Co  Co94  1  0.62731992  0.62858953  0.88040590  1
  Co  Co95  1  0.74823996  0.74612721  0.74703373  1
  Co  Co96  1  0.25105676  0.50421979  0.00292862  1
  Co  Co97  1  0.00128384  0.25156899  0.24755551  1
  Co  Co98  1  0.74317497  0.50255234  0.74993870  1
  Co  Co99  1  0.87248558  0.87354099  0.86967483  1
  Co  Co100  1  0.24826761  0.00313590  0.75057022  1
  Co  Co101  1  0.12502355  0.37425900  0.12036844  1
  Co  Co102  1  -0.00392467  0.75250329  0.50185146  1
  Co  Co103  1  0.24134608  0.00246631  0.24793691  1
  Co  Co104  1  0.12438783  0.62171477  0.87547869  1
  Co  Co105  1  0.74804606  0.00024807  0.75008780  1
  Co  Co106  1  -0.00637339  0.24801655  0.50497602  1
  Co  Co107  1  0.87921425  0.87535293  0.12861365  1
  Co  Co108  1  -0.00268141  0.75120810  -0.00426998  1
  Co  Co109  1  0.62690865  0.37440443  0.62001401  1
  Co  Co110  1  0.87513803  0.37317404  0.37553059  1
  Co  Co111  1  0.25074933  0.24722395  0.50314035  1
  Co  Co112  1  0.50177744  -0.00078941  0.25027230  1
  Co  Co113  1  0.37503699  0.62077965  0.87086336  1
  Co  Co114  1  0.24669486  0.50103262  0.74461892  1
  Co  Co115  1  0.11983208  0.12899266  0.11591761  1
  Co  Co116  1  0.12553806  0.86945789  0.12169724  1
  Co  Co117  1  0.12237293  0.12625573  0.62772829  1
  Co  Co118  1  0.62701396  0.37232059  0.87927458  1
  Co  Co119  1  0.62521735  0.87726588  0.12322166  1
  Co  Co120  1  0.87924105  0.62319154  0.63064208  1
  Co  Co121  1  0.12056302  0.12903171  0.37919753  1
  Co  Co122  1  0.12817725  0.87498836  0.87480365  1
  Co  Co123  1  0.87558630  0.12488404  0.87444895  1
  Co  Co124  1  0.74864337  0.25075589  0.74957388  1
  Co  Co125  1  -0.00219416  0.25571868  -0.00563617  1
  Co  Co126  1  0.49916554  0.24840556  0.49845142  1
  Co  Co127  1  0.25353711  0.24941669  -0.00180782  1
