# generated using pymatgen
data_Fe45Co19
_symmetry_space_group_name_H-M   'P 1'
_cell_length_a   11.41473799
_cell_length_b   11.41514370
_cell_length_c   11.41480823
_cell_angle_alpha   89.99871670
_cell_angle_beta   89.99508551
_cell_angle_gamma   89.99811253
_symmetry_Int_Tables_number   1
_chemical_formula_structural   Fe45Co19
_chemical_formula_sum   'Fe90 Co38'
_cell_volume   1487.35948806
_cell_formula_units_Z   2
loop_
 _symmetry_equiv_pos_site_id
 _symmetry_equiv_pos_as_xyz
  1  'x, y, z'
loop_
 _atom_site_type_symbol
 _atom_site_label
 _atom_site_symmetry_multiplicity
 _atom_site_fract_x
 _atom_site_fract_y
 _atom_site_fract_z
 _atom_site_occupancy
  Fe  Fe0  1  -0.00431644  0.74813453  0.74941475  1
  Fe  Fe1  1  0.74971786  0.00126721  0.50070588  1
  Fe  Fe2  1  0.49950056  -0.00085518  0.24680593  1
  Fe  Fe3  1  0.62350193  0.87572481  0.37518108  1
  Fe  Fe4  1  0.49869599  0.75065595  0.74950237  1
  Fe  Fe5  1  -0.00306400  0.74747492  0.24922876  1
  Fe  Fe6  1  0.62374073  0.37445713  0.12556744  1
  Fe  Fe7  1  0.37741016  0.62505096  0.62154242  1
  Fe  Fe8  1  -0.00230531  0.75050210  0.50148684  1
  Fe  Fe9  1  0.62340255  0.12470693  0.37430799  1
  Fe  Fe10  1  0.62282701  0.87742287  0.87458264  1
  Fe  Fe11  1  0.37503102  0.37733872  0.87556727  1
  Fe  Fe12  1  0.12628044  0.37741825  0.12699834  1
  Fe  Fe13  1  0.75122518  0.24892738  0.24853706  1
  Fe  Fe14  1  0.12416731  0.62640778  0.62419414  1
  Fe  Fe15  1  0.49919852  0.74679767  0.24777229  1
  Fe  Fe16  1  0.00079879  0.50002593  0.49960748  1
  Fe  Fe17  1  0.75049194  0.00086474  0.75168188  1
  Fe  Fe18  1  0.87682426  0.12473377  0.37520257  1
  Fe  Fe19  1  0.75101803  0.75121597  0.50113952  1
  Fe  Fe20  1  0.12247966  0.37753956  0.37215616  1
  Fe  Fe21  1  0.24738290  0.50040444  -0.00077991  1
  Fe  Fe22  1  0.00069218  0.74953027  0.00012523  1
  Fe  Fe23  1  0.00238450  -0.00073899  0.50099440  1
  Fe  Fe24  1  0.37679802  0.87586533  0.37596564  1
  Fe  Fe25  1  0.25206449  0.50304622  0.74880680  1
  Fe  Fe26  1  0.25073855  0.74888746  0.49782330  1
  Fe  Fe27  1  0.25079701  0.24992034  0.25392342  1
  Fe  Fe28  1  0.12675604  0.12712612  0.12348526  1
  Fe  Fe29  1  0.62022327  0.12265252  0.87408099  1
  Fe  Fe30  1  0.12412913  0.87344267  0.37402001  1
  Fe  Fe31  1  0.12680496  0.62237135  0.12831684  1
  Fe  Fe32  1  0.00543567  0.25239466  -0.00395417  1
  Fe  Fe33  1  0.62346457  0.37576700  0.87411665  1
  Fe  Fe34  1  0.12563865  0.87262064  0.62613198  1
  Fe  Fe35  1  0.62622741  0.87602776  0.62695282  1
  Fe  Fe36  1  0.87433902  0.37559702  0.37456876  1
  Fe  Fe37  1  0.37291257  0.12466195  0.12414609  1
  Fe  Fe38  1  0.75426732  0.74944101  0.75083111  1
  Fe  Fe39  1  0.37268118  0.87343531  0.12366197  1
  Fe  Fe40  1  0.25070039  0.25241052  0.75358639  1
  Fe  Fe41  1  0.87860329  0.12438651  0.87646587  1
  Fe  Fe42  1  0.87668698  0.37615884  0.12252157  1
  Fe  Fe43  1  0.62232982  0.37078194  0.62668649  1
  Fe  Fe44  1  0.24978790  -0.00312339  0.75105154  1
  Fe  Fe45  1  0.62385927  0.12472238  0.12273291  1
  Fe  Fe46  1  0.62128741  0.62496804  0.37625916  1
  Fe  Fe47  1  0.24880888  0.00088556  0.25306067  1
  Fe  Fe48  1  0.25294513  0.74508918  0.25258134  1
  Fe  Fe49  1  0.49848347  0.00445392  0.50513097  1
  Fe  Fe50  1  0.12513445  0.87349111  0.12625312  1
  Fe  Fe51  1  0.49743701  0.24980077  -0.00030289  1
  Fe  Fe52  1  0.00153963  0.25066029  0.50098587  1
  Fe  Fe53  1  0.87010374  0.62562201  0.12090464  1
  Fe  Fe54  1  0.74901593  0.50062210  0.24889957  1
  Fe  Fe55  1  0.37964020  0.37773802  0.37688991  1
  Fe  Fe56  1  0.75173428  0.00018391  0.24723239  1
  Fe  Fe57  1  0.12685478  0.62817206  0.87323221  1
  Fe  Fe58  1  0.24994283  0.50066879  0.49780715  1
  Fe  Fe59  1  0.75076165  0.25039805  0.75186379  1
  Fe  Fe60  1  0.87653385  0.37855122  0.87484126  1
  Fe  Fe61  1  -0.00035511  0.00039756  0.24771624  1
  Fe  Fe62  1  0.74935678  0.24823392  0.50076102  1
  Fe  Fe63  1  0.62267382  0.37382924  0.37480551  1
  Fe  Fe64  1  0.49900493  0.49958479  0.74777418  1
  Fe  Fe65  1  0.87563316  0.37602632  0.62651522  1
  Fe  Fe66  1  0.37513918  0.12320727  0.87530907  1
  Fe  Fe67  1  0.74895775  0.24984205  -0.00200410  1
  Fe  Fe68  1  0.37373914  0.62726394  0.87739352  1
  Fe  Fe69  1  0.62543090  0.62658470  0.62630219  1
  Fe  Fe70  1  0.24659637  -0.00211907  -0.00210321  1
  Fe  Fe71  1  0.87778652  0.87784991  0.87770695  1
  Fe  Fe72  1  0.62813532  0.62338685  0.87478858  1
  Fe  Fe73  1  0.62913540  0.87256052  0.12408521  1
  Fe  Fe74  1  0.12945253  0.12742885  0.62398396  1
  Fe  Fe75  1  0.00411580  0.00100426  0.75100432  1
  Fe  Fe76  1  0.37274338  0.87151968  0.87661931  1
  Fe  Fe77  1  0.87476840  0.62351159  0.37733688  1
  Fe  Fe78  1  0.00005008  0.24986854  0.25008617  1
  Fe  Fe79  1  0.87512906  0.87599286  0.37405094  1
  Fe  Fe80  1  0.49823392  0.24890880  0.25033329  1
  Fe  Fe81  1  0.00003910  0.50171254  0.75105904  1
  Fe  Fe82  1  0.87558204  0.12456817  0.62626479  1
  Fe  Fe83  1  0.37384977  0.87420942  0.62367598  1
  Fe  Fe84  1  0.50208377  0.50233381  0.00259843  1
  Fe  Fe85  1  0.50085952  0.74910004  0.00162550  1
  Fe  Fe86  1  0.12725604  0.37477088  0.62703210  1
  Fe  Fe87  1  0.87709386  0.12428755  0.12029090  1
  Fe  Fe88  1  0.37354530  0.37789087  0.12556050  1
  Fe  Fe89  1  0.74734146  0.49940234  0.50264944  1
  Co  Co90  1  0.12311298  0.12424658  0.37556414  1
  Co  Co91  1  0.12690163  0.12653962  0.87415407  1
  Co  Co92  1  0.12251304  0.62579283  0.37513476  1
  Co  Co93  1  0.37272477  0.62250815  0.12287007  1
  Co  Co94  1  0.25243431  0.50230983  0.25505011  1
  Co  Co95  1  0.00593189  -0.00190521  -0.00028431  1
  Co  Co96  1  0.37268718  0.37285356  0.62397356  1
  Co  Co97  1  0.87211919  0.62072909  0.87745968  1
  Co  Co98  1  0.74884522  0.49868172  0.74745264  1
  Co  Co99  1  0.12558015  0.86909259  0.87223172  1
  Co  Co100  1  0.25304780  0.74847281  0.74598255  1
  Co  Co101  1  0.25041204  0.25218370  -0.00163767  1
  Co  Co102  1  0.62922897  0.62782720  0.12341911  1
  Co  Co103  1  0.36816761  0.12850631  0.62619384  1
  Co  Co104  1  0.49550765  -0.00142484  0.74660085  1
  Co  Co105  1  0.38066174  0.62335007  0.37870538  1
  Co  Co106  1  0.50234097  0.49775131  0.50465689  1
  Co  Co107  1  0.24709832  0.74925125  0.00325056  1
  Co  Co108  1  0.87327566  0.87381096  0.12302893  1
  Co  Co109  1  0.50151670  0.50330127  0.24677628  1
  Co  Co110  1  0.50079446  0.75274389  0.50215089  1
  Co  Co111  1  0.74896005  0.00067191  -0.00014487  1
  Co  Co112  1  0.49843733  -0.00274086  0.00182531  1
  Co  Co113  1  0.74776979  0.49682836  0.00141277  1
  Co  Co114  1  0.87444743  0.62235922  0.62402102  1
  Co  Co115  1  0.00102701  0.25030408  0.74998710  1
  Co  Co116  1  0.87441625  0.87820950  0.62631636  1
  Co  Co117  1  0.49697713  0.25034664  0.75039014  1
  Co  Co118  1  0.12612748  0.37788418  0.87211159  1
  Co  Co119  1  0.37609110  0.12257945  0.37453821  1
  Co  Co120  1  0.24990734  -0.00162943  0.49852510  1
  Co  Co121  1  0.24941420  0.25233616  0.49414607  1
  Co  Co122  1  0.62609592  0.12604955  0.62940796  1
  Co  Co123  1  0.00385252  0.50176037  -0.00072775  1
  Co  Co124  1  0.75034151  0.75289412  -0.00592011  1
  Co  Co125  1  0.75033120  0.74927802  0.25429808  1
  Co  Co126  1  -0.00399471  0.50239641  0.24905099  1
  Co  Co127  1  0.49896349  0.24578447  0.50172217  1
