# generated using pymatgen
data_Fe45Co19
_symmetry_space_group_name_H-M   'P 1'
_cell_length_a   11.41587443
_cell_length_b   11.41426932
_cell_length_c   11.41475921
_cell_angle_alpha   89.99618262
_cell_angle_beta   90.00005308
_cell_angle_gamma   90.00331552
_symmetry_Int_Tables_number   1
_chemical_formula_structural   Fe45Co19
_chemical_formula_sum   'Fe90 Co38'
_cell_volume   1487.38724124
_cell_formula_units_Z   2
loop_
 _symmetry_equiv_pos_site_id
 _symmetry_equiv_pos_as_xyz
  1  'x, y, z'
loop_
 _atom_site_type_symbol
 _atom_site_label
 _atom_site_symmetry_multiplicity
 _atom_site_fract_x
 _atom_site_fract_y
 _atom_site_fract_z
 _atom_site_occupancy
  Fe  Fe0  1  0.74916324  0.25211823  -0.00021258  1
  Fe  Fe1  1  0.62482554  0.87770883  0.62395615  1
  Fe  Fe2  1  0.25077583  0.25135109  0.24879687  1
  Fe  Fe3  1  0.87573470  0.37501688  0.62283723  1
  Fe  Fe4  1  0.12196424  0.37422148  0.37574311  1
  Fe  Fe5  1  0.49893474  0.00193670  0.25079863  1
  Fe  Fe6  1  0.62130574  0.87501123  0.37539203  1
  Fe  Fe7  1  0.12930979  0.12556682  0.12122529  1
  Fe  Fe8  1  0.74832082  -0.00050139  0.25200613  1
  Fe  Fe9  1  0.37479362  0.12423584  0.62454194  1
  Fe  Fe10  1  0.62688009  0.12317452  0.12287106  1
  Fe  Fe11  1  0.37600608  0.37579853  0.37667837  1
  Fe  Fe12  1  0.00022641  0.24987156  0.00100278  1
  Fe  Fe13  1  0.62408310  0.37296421  0.62636204  1
  Fe  Fe14  1  0.75097345  0.24877596  0.25151495  1
  Fe  Fe15  1  -0.00311669  0.75421813  0.00160685  1
  Fe  Fe16  1  0.12626729  0.12624781  0.62398412  1
  Fe  Fe17  1  0.87810533  0.87501152  0.37265635  1
  Fe  Fe18  1  0.87464878  0.37526143  0.12522734  1
  Fe  Fe19  1  0.24521813  0.49942384  0.50280097  1
  Fe  Fe20  1  0.00268306  -0.00025709  0.24854811  1
  Fe  Fe21  1  0.62258585  0.37508301  0.87226833  1
  Fe  Fe22  1  0.24946855  0.49805332  -0.00012524  1
  Fe  Fe23  1  -0.00052936  0.00089349  0.50044495  1
  Fe  Fe24  1  0.62671800  0.62591255  0.62206500  1
  Fe  Fe25  1  0.50082029  0.74765487  0.74705561  1
  Fe  Fe26  1  0.25311640  0.75429519  -0.00088619  1
  Fe  Fe27  1  0.37174125  0.12257302  0.12024876  1
  Fe  Fe28  1  0.49903122  0.24788299  0.24802361  1
  Fe  Fe29  1  0.12348434  0.37446355  0.87279849  1
  Fe  Fe30  1  0.49563145  0.74677404  0.25192759  1
  Fe  Fe31  1  0.00173152  0.50147529  0.74632532  1
  Fe  Fe32  1  0.49744869  0.75327087  0.00282967  1
  Fe  Fe33  1  0.12523060  0.62589197  0.12471251  1
  Fe  Fe34  1  0.74743113  0.49909260  0.00063250  1
  Fe  Fe35  1  0.37682728  0.62476474  0.87661394  1
  Fe  Fe36  1  0.50014605  0.25166005  0.00009078  1
  Fe  Fe37  1  0.24884665  0.50124393  0.74820928  1
  Fe  Fe38  1  -0.00053784  0.24977586  0.24889583  1
  Fe  Fe39  1  0.12415526  0.62689376  0.87536493  1
  Fe  Fe40  1  0.25008727  0.00007781  0.75160764  1
  Fe  Fe41  1  0.75186782  0.75763012  0.00029768  1
  Fe  Fe42  1  0.87378649  0.62398487  0.62178599  1
  Fe  Fe43  1  0.12678121  0.12320687  0.87878101  1
  Fe  Fe44  1  0.74912036  0.24827503  0.75186776  1
  Fe  Fe45  1  0.74976090  0.24715466  0.49661209  1
  Fe  Fe46  1  0.25304485  0.24917277  0.75262297  1
  Fe  Fe47  1  0.87528239  0.62657958  0.12613773  1
  Fe  Fe48  1  0.12552508  0.87539761  0.62477800  1
  Fe  Fe49  1  0.37345155  0.62555434  0.62231023  1
  Fe  Fe50  1  -0.00281564  0.74983213  0.74899724  1
  Fe  Fe51  1  0.62368838  0.37426181  0.37272544  1
  Fe  Fe52  1  0.62530946  0.62806240  0.87612294  1
  Fe  Fe53  1  0.25104117  0.75085299  0.75125098  1
  Fe  Fe54  1  0.12445535  0.12523385  0.37655015  1
  Fe  Fe55  1  0.37472499  0.12503378  0.37632169  1
  Fe  Fe56  1  0.00045066  0.75013468  0.49902429  1
  Fe  Fe57  1  0.87314483  0.87715617  0.62656088  1
  Fe  Fe58  1  0.87833180  0.37801069  0.37818004  1
  Fe  Fe59  1  0.37541878  0.87669343  0.37750498  1
  Fe  Fe60  1  0.24957945  0.49907380  0.24856897  1
  Fe  Fe61  1  0.75138750  0.74957090  0.25173913  1
  Fe  Fe62  1  0.75116938  0.50138047  0.25170897  1
  Fe  Fe63  1  -0.00181275  0.24622922  0.74996773  1
  Fe  Fe64  1  0.74936725  0.75107946  0.49798169  1
  Fe  Fe65  1  0.24985701  0.25007756  0.49966871  1
  Fe  Fe66  1  0.74834909  0.50123100  0.74895521  1
  Fe  Fe67  1  0.37632780  0.87635478  0.62413210  1
  Fe  Fe68  1  0.74791576  -0.00107410  0.75489118  1
  Fe  Fe69  1  0.87125202  0.12277482  0.62379331  1
  Fe  Fe70  1  0.87590948  0.37660189  0.87352753  1
  Fe  Fe71  1  0.62483705  0.62692376  0.12516451  1
  Fe  Fe72  1  0.50244194  0.24572807  0.50071088  1
  Fe  Fe73  1  -0.00009654  0.49995805  0.00166051  1
  Fe  Fe74  1  0.37926509  0.37682485  0.87241570  1
  Fe  Fe75  1  0.37582164  0.37660974  0.12435697  1
  Fe  Fe76  1  0.50107114  -0.00462167  -0.00149901  1
  Fe  Fe77  1  0.87337202  0.62600068  0.87442333  1
  Fe  Fe78  1  0.50179800  0.00446659  0.75209123  1
  Fe  Fe79  1  0.24964335  -0.00052271  0.25198775  1
  Fe  Fe80  1  0.12119788  0.87632584  0.87307283  1
  Fe  Fe81  1  0.49922117  0.50307386  0.24919631  1
  Fe  Fe82  1  0.37731921  0.37485693  0.62606301  1
  Fe  Fe83  1  0.25156135  0.75015945  0.25195033  1
  Fe  Fe84  1  0.12617187  0.87428714  0.12669077  1
  Fe  Fe85  1  0.87253036  0.12120657  0.12381208  1
  Fe  Fe86  1  0.87466578  0.12003321  0.87901207  1
  Fe  Fe87  1  0.50219542  0.50253981  0.49921969  1
  Fe  Fe88  1  0.24973303  0.75155923  0.49811463  1
  Fe  Fe89  1  0.12247143  0.62459492  0.37352566  1
  Co  Co90  1  0.00108942  0.00276177  0.74754143  1
  Co  Co91  1  0.37426924  0.12356517  0.87959757  1
  Co  Co92  1  0.62577780  0.37450976  0.12879299  1
  Co  Co93  1  0.12382329  0.37411282  0.12529154  1
  Co  Co94  1  0.25084572  -0.00701445  -0.00223660  1
  Co  Co95  1  0.50017895  0.00272687  0.49971358  1
  Co  Co96  1  0.25148978  0.25518794  -0.00142256  1
  Co  Co97  1  0.87741217  0.62356644  0.37752984  1
  Co  Co98  1  0.12427400  0.87601377  0.37607540  1
  Co  Co99  1  0.25039269  0.00052522  0.49979052  1
  Co  Co100  1  0.62975925  0.12242420  0.62399626  1
  Co  Co101  1  0.87760838  0.87712569  0.87166943  1
  Co  Co102  1  0.12597356  0.63058813  0.62673476  1
  Co  Co103  1  0.87714923  0.12309720  0.37275252  1
  Co  Co104  1  -0.00145560  0.50047386  0.24778281  1
  Co  Co105  1  0.50318133  0.49965037  0.00175067  1
  Co  Co106  1  0.00032159  0.74987435  0.24930218  1
  Co  Co107  1  0.37208211  0.62250236  0.37796689  1
  Co  Co108  1  0.37473205  0.87649218  0.12914924  1
  Co  Co109  1  0.75048026  0.74942988  0.74800082  1
  Co  Co110  1  0.37816156  0.87451773  0.87024804  1
  Co  Co111  1  0.62284636  0.87401570  0.12984258  1
  Co  Co112  1  0.75055032  -0.00141710  0.49449091  1
  Co  Co113  1  0.62530385  0.62600865  0.37372929  1
  Co  Co114  1  0.62456724  0.12477304  0.37362800  1
  Co  Co115  1  0.50030000  0.74938245  0.49984943  1
  Co  Co116  1  0.62310484  0.87057830  0.87190456  1
  Co  Co117  1  0.37285062  0.62455625  0.12306537  1
  Co  Co118  1  0.62619510  0.12612236  0.87963498  1
  Co  Co119  1  0.74775719  -0.00780428  -0.00134082  1
  Co  Co120  1  0.50049132  0.24459157  0.74965084  1
  Co  Co121  1  0.50169940  0.50485688  0.74782493  1
  Co  Co122  1  0.74660477  0.49969054  0.49882344  1
  Co  Co123  1  -0.00173730  0.24643413  0.50107691  1
  Co  Co124  1  0.87430893  0.87770832  0.12956589  1
  Co  Co125  1  0.12459089  0.36911374  0.62737820  1
  Co  Co126  1  0.00509174  0.50129358  0.50442884  1
  Co  Co127  1  0.00049642  -0.00245633  0.00364244  1
