# generated using pymatgen
data_Fe45Co19
_symmetry_space_group_name_H-M   'P 1'
_cell_length_a   11.41482583
_cell_length_b   11.41655852
_cell_length_c   11.41551235
_cell_angle_alpha   89.99799556
_cell_angle_beta   90.00228829
_cell_angle_gamma   90.00551662
_symmetry_Int_Tables_number   1
_chemical_formula_structural   Fe45Co19
_chemical_formula_sum   'Fe90 Co38'
_cell_volume   1487.64703741
_cell_formula_units_Z   2
loop_
 _symmetry_equiv_pos_site_id
 _symmetry_equiv_pos_as_xyz
  1  'x, y, z'
loop_
 _atom_site_type_symbol
 _atom_site_label
 _atom_site_symmetry_multiplicity
 _atom_site_fract_x
 _atom_site_fract_y
 _atom_site_fract_z
 _atom_site_occupancy
  Fe  Fe0  1  0.62488572  0.38279086  0.37877710  1
  Fe  Fe1  1  0.37528006  0.62152004  0.87449137  1
  Fe  Fe2  1  0.75034246  0.49828941  0.74779819  1
  Fe  Fe3  1  0.37841204  0.37001237  0.62239505  1
  Fe  Fe4  1  0.37275342  0.62714405  0.62329257  1
  Fe  Fe5  1  0.62812918  0.12804176  0.12289426  1
  Fe  Fe6  1  0.62683969  0.37671767  0.12263938  1
  Fe  Fe7  1  0.25048719  -0.00007387  0.00174239  1
  Fe  Fe8  1  0.25052865  0.25052712  0.75204275  1
  Fe  Fe9  1  0.12372737  0.37479420  0.87766931  1
  Fe  Fe10  1  0.24949801  0.49811674  0.74579843  1
  Fe  Fe11  1  0.74920638  0.75153712  0.75205188  1
  Fe  Fe12  1  0.00097453  0.00048055  0.24700838  1
  Fe  Fe13  1  0.00175349  0.75012902  0.49632370  1
  Fe  Fe14  1  0.12253506  0.87674640  0.87668349  1
  Fe  Fe15  1  0.25017289  0.00056519  0.50108371  1
  Fe  Fe16  1  0.00115760  0.50155094  0.74808154  1
  Fe  Fe17  1  0.87471930  0.62385613  0.87342176  1
  Fe  Fe18  1  0.37518915  0.12609323  0.37508283  1
  Fe  Fe19  1  0.12447063  0.87448038  0.62285614  1
  Fe  Fe20  1  -0.00177185  0.00126873  0.74807633  1
  Fe  Fe21  1  0.12738681  0.62093628  0.87655062  1
  Fe  Fe22  1  -0.00090424  0.74756507  -0.00016264  1
  Fe  Fe23  1  0.87362896  0.62815378  0.62395601  1
  Fe  Fe24  1  0.12661551  0.62667542  0.62218053  1
  Fe  Fe25  1  0.74700962  0.74992516  0.25401668  1
  Fe  Fe26  1  0.00231561  0.74923348  0.25204729  1
  Fe  Fe27  1  0.50173952  0.00025486  0.00089255  1
  Fe  Fe28  1  0.87343226  0.12515617  0.37494567  1
  Fe  Fe29  1  0.37622773  0.87633635  0.37479966  1
  Fe  Fe30  1  0.12457570  0.12258144  0.37480461  1
  Fe  Fe31  1  0.50020814  0.49921757  0.74691498  1
  Fe  Fe32  1  0.24903201  0.75064464  0.75160553  1
  Fe  Fe33  1  0.24843110  0.25065024  0.25078686  1
  Fe  Fe34  1  0.37575699  0.12501715  0.87467363  1
  Fe  Fe35  1  -0.00194852  0.50037287  0.50156617  1
  Fe  Fe36  1  0.50367878  0.74741691  0.25383372  1
  Fe  Fe37  1  0.87172325  0.62319104  0.37574935  1
  Fe  Fe38  1  0.12458908  0.12571599  0.62478930  1
  Fe  Fe39  1  0.50306212  0.74775488  0.49656915  1
  Fe  Fe40  1  0.75692709  0.25232648  -0.00382597  1
  Fe  Fe41  1  0.62446638  0.87398755  0.12498116  1
  Fe  Fe42  1  0.75001001  -0.00130008  0.50216004  1
  Fe  Fe43  1  -0.00352226  0.24750142  0.75326230  1
  Fe  Fe44  1  0.37031685  0.62186135  0.37448819  1
  Fe  Fe45  1  0.24846113  -0.00032989  0.24671194  1
  Fe  Fe46  1  0.12420947  0.12702821  0.87858939  1
  Fe  Fe47  1  0.37714722  0.12978543  0.62421043  1
  Fe  Fe48  1  0.12370115  0.37147617  0.12264003  1
  Fe  Fe49  1  0.24573409  0.75058349  0.25243448  1
  Fe  Fe50  1  0.87434568  0.87315772  0.12416611  1
  Fe  Fe51  1  -0.00219143  0.24909909  0.24768382  1
  Fe  Fe52  1  0.74902593  -0.00090716  0.24750945  1
  Fe  Fe53  1  0.25080614  0.75022974  -0.00141407  1
  Fe  Fe54  1  -0.00063374  0.24724981  0.49938399  1
  Fe  Fe55  1  0.25082764  0.00020339  0.74963569  1
  Fe  Fe56  1  0.49752511  0.25364274  -0.00287188  1
  Fe  Fe57  1  0.50125762  0.00204785  0.24755165  1
  Fe  Fe58  1  0.62692955  0.12234253  0.37498026  1
  Fe  Fe59  1  0.12450333  0.37828505  0.37568530  1
  Fe  Fe60  1  0.37396451  0.37536677  0.37607134  1
  Fe  Fe61  1  0.37765200  0.87315148  0.62622138  1
  Fe  Fe62  1  -0.00369343  0.50025950  0.24777180  1
  Fe  Fe63  1  0.74953968  0.25401197  0.25269801  1
  Fe  Fe64  1  0.62751504  0.62204529  0.12471121  1
  Fe  Fe65  1  0.62692562  0.12534582  0.87507606  1
  Fe  Fe66  1  0.12345267  0.37228237  0.62459121  1
  Fe  Fe67  1  0.87457130  0.87672570  0.37591372  1
  Fe  Fe68  1  0.00199606  0.74904933  0.75230945  1
  Fe  Fe69  1  0.87590343  0.87359863  0.62434104  1
  Fe  Fe70  1  0.50377750  0.25062537  0.25317290  1
  Fe  Fe71  1  0.62766129  0.62301235  0.62013564  1
  Fe  Fe72  1  0.50065426  0.74772032  -0.00071383  1
  Fe  Fe73  1  0.37994681  0.87486167  0.87183513  1
  Fe  Fe74  1  0.62404364  0.62180849  0.87593055  1
  Fe  Fe75  1  0.37533586  0.12904708  0.12560524  1
  Fe  Fe76  1  0.87537721  0.37204146  0.62685975  1
  Fe  Fe77  1  0.62529063  0.37796610  0.87481150  1
  Fe  Fe78  1  0.12573010  0.62486805  0.12575474  1
  Fe  Fe79  1  0.25537133  0.49717522  0.00594589  1
  Fe  Fe80  1  0.37564571  0.87211093  0.12616784  1
  Fe  Fe81  1  0.49888442  0.50104534  0.24736145  1
  Fe  Fe82  1  0.74898072  0.25322268  0.49911378  1
  Fe  Fe83  1  0.62617772  0.13021171  0.62757722  1
  Fe  Fe84  1  -0.00196374  0.00366626  0.00456067  1
  Fe  Fe85  1  0.62219922  0.87345835  0.62707811  1
  Fe  Fe86  1  0.50131520  0.00238197  0.50127754  1
  Fe  Fe87  1  -0.00508105  0.50033204  0.00298419  1
  Fe  Fe88  1  0.74990951  -0.00178595  0.75235006  1
  Fe  Fe89  1  0.74958480  0.75138029  -0.00325886  1
  Co  Co90  1  0.50109506  0.00465078  0.74905691  1
  Co  Co91  1  0.49690335  0.49901515  0.00348994  1
  Co  Co92  1  0.12456423  0.87929057  0.37633204  1
  Co  Co93  1  0.61997338  0.87469572  0.87236405  1
  Co  Co94  1  0.62899074  0.61767407  0.37730188  1
  Co  Co95  1  0.62317675  0.87949651  0.37492431  1
  Co  Co96  1  0.87116886  0.62830840  0.12673442  1
  Co  Co97  1  -0.00128464  0.00208332  0.50105613  1
  Co  Co98  1  0.74709514  0.75244405  0.49740581  1
  Co  Co99  1  0.24870605  0.75131233  0.49711332  1
  Co  Co100  1  0.74853762  -0.00327289  -0.00118067  1
  Co  Co101  1  0.87758608  0.37422942  0.37576409  1
  Co  Co102  1  0.50146252  0.74406057  0.74910704  1
  Co  Co103  1  0.37395853  0.37931208  0.87213760  1
  Co  Co104  1  0.75184898  0.25247186  0.75308360  1
  Co  Co105  1  0.12442180  0.87268211  0.12328516  1
  Co  Co106  1  0.87796749  0.37951753  0.87183683  1
  Co  Co107  1  0.50423496  0.24882489  0.49535921  1
  Co  Co108  1  0.75371725  0.50053313  -0.00025995  1
  Co  Co109  1  0.25377334  0.25188574  -0.00142268  1
  Co  Co110  1  0.62298393  0.37351169  0.62437013  1
  Co  Co111  1  0.50032805  0.25142340  0.75417965  1
  Co  Co112  1  0.37791374  0.36940768  0.12950651  1
  Co  Co113  1  0.75539842  0.49618954  0.50298248  1
  Co  Co114  1  0.86971402  0.12597690  0.12758311  1
  Co  Co115  1  0.12698727  0.12925428  0.12309073  1
  Co  Co116  1  0.75272840  0.49784020  0.24921349  1
  Co  Co117  1  0.87256081  0.37401043  0.12567739  1
  Co  Co118  1  0.87150275  0.12694134  0.62464489  1
  Co  Co119  1  -0.00642697  0.24872546  0.00040104  1
  Co  Co120  1  0.49586472  0.50217603  0.50132037  1
  Co  Co121  1  0.25012772  0.49771592  0.24527942  1
  Co  Co122  1  0.37482715  0.62931306  0.12782876  1
  Co  Co123  1  0.87401874  0.12086075  0.87486602  1
  Co  Co124  1  0.12638390  0.61858171  0.37524219  1
  Co  Co125  1  0.24677402  0.24961015  0.49827037  1
  Co  Co126  1  0.24944410  0.49696072  0.50345008  1
  Co  Co127  1  0.87860531  0.87564052  0.87565706  1
