# generated using pymatgen
data_Fe45Co19
_symmetry_space_group_name_H-M   'P 1'
_cell_length_a   11.41515336
_cell_length_b   11.41434384
_cell_length_c   11.41554067
_cell_angle_alpha   89.99947203
_cell_angle_beta   90.00601007
_cell_angle_gamma   89.99606269
_symmetry_Int_Tables_number   1
_chemical_formula_structural   Fe45Co19
_chemical_formula_sum   'Fe90 Co38'
_cell_volume   1487.40481616
_cell_formula_units_Z   2
loop_
 _symmetry_equiv_pos_site_id
 _symmetry_equiv_pos_as_xyz
  1  'x, y, z'
loop_
 _atom_site_type_symbol
 _atom_site_label
 _atom_site_symmetry_multiplicity
 _atom_site_fract_x
 _atom_site_fract_y
 _atom_site_fract_z
 _atom_site_occupancy
  Fe  Fe0  1  0.62367263  0.87622187  0.87779349  1
  Fe  Fe1  1  0.50278580  -0.00506416  0.25184142  1
  Fe  Fe2  1  0.50009014  0.50327379  0.50249597  1
  Fe  Fe3  1  0.62346016  0.62866891  0.37567755  1
  Fe  Fe4  1  0.12743406  0.87643615  0.87951958  1
  Fe  Fe5  1  0.12504158  0.87876337  0.62155227  1
  Fe  Fe6  1  0.62201048  0.37399764  0.37760794  1
  Fe  Fe7  1  0.12513391  0.12520838  0.87538156  1
  Fe  Fe8  1  0.25094425  -0.00175381  0.75289971  1
  Fe  Fe9  1  0.62566442  0.12684074  0.87734960  1
  Fe  Fe10  1  0.87639208  0.87608032  0.37458703  1
  Fe  Fe11  1  0.62253912  0.37270693  0.62413748  1
  Fe  Fe12  1  0.37581420  0.12583551  0.13106119  1
  Fe  Fe13  1  0.12403290  0.12389444  0.12581576  1
  Fe  Fe14  1  0.00072240  0.49936601  0.24997375  1
  Fe  Fe15  1  0.74631269  0.75416703  0.24832378  1
  Fe  Fe16  1  0.62501289  0.12626976  0.12418370  1
  Fe  Fe17  1  0.24892286  0.75201668  0.25049332  1
  Fe  Fe18  1  0.37497956  0.12703767  0.87220022  1
  Fe  Fe19  1  0.74822884  0.24712796  0.74683965  1
  Fe  Fe20  1  0.12426173  0.87793679  0.12096166  1
  Fe  Fe21  1  0.00178531  0.24492431  0.50245436  1
  Fe  Fe22  1  -0.00352177  0.24693855  -0.00047140  1
  Fe  Fe23  1  0.49776637  0.49999722  -0.00322981  1
  Fe  Fe24  1  0.25123744  0.75056041  0.50057433  1
  Fe  Fe25  1  0.24970864  0.00407090  0.49568900  1
  Fe  Fe26  1  0.49590173  0.24518575  0.50045842  1
  Fe  Fe27  1  0.50123651  0.00273282  0.74940797  1
  Fe  Fe28  1  0.87430328  0.37209994  0.87307762  1
  Fe  Fe29  1  0.87501070  0.87634588  0.87428650  1
  Fe  Fe30  1  0.24931752  0.49658107  0.25393780  1
  Fe  Fe31  1  0.87336692  0.62495866  0.12681118  1
  Fe  Fe32  1  0.25072623  0.49983672  -0.00117993  1
  Fe  Fe33  1  -0.00003938  0.00236647  0.74983045  1
  Fe  Fe34  1  0.00258923  0.49856402  0.75011576  1
  Fe  Fe35  1  0.00383778  0.75093332  0.75023096  1
  Fe  Fe36  1  0.12631619  0.62357861  0.12412138  1
  Fe  Fe37  1  0.62478180  0.87517450  0.62276430  1
  Fe  Fe38  1  0.24924725  0.25028546  0.74674794  1
  Fe  Fe39  1  0.24667821  -0.00175656  0.25322615  1
  Fe  Fe40  1  0.75116728  0.75040015  0.50054027  1
  Fe  Fe41  1  0.74872450  0.00251733  0.74766393  1
  Fe  Fe42  1  0.74985733  -0.00272847  0.24793992  1
  Fe  Fe43  1  0.75049465  0.49934219  0.49899322  1
  Fe  Fe44  1  0.49703370  0.74948259  0.00031811  1
  Fe  Fe45  1  0.12606318  0.37398640  0.12449363  1
  Fe  Fe46  1  0.87429480  0.62392651  0.37317375  1
  Fe  Fe47  1  0.37361624  0.87599109  0.12487219  1
  Fe  Fe48  1  0.74818351  0.25127043  0.25175859  1
  Fe  Fe49  1  0.37638873  0.37454442  0.62551213  1
  Fe  Fe50  1  0.37745264  0.62769004  0.37361221  1
  Fe  Fe51  1  0.37296408  0.62373577  0.62817928  1
  Fe  Fe52  1  0.25063973  0.49726969  0.49750801  1
  Fe  Fe53  1  0.50152259  0.49931380  0.25022750  1
  Fe  Fe54  1  0.75262617  0.00169125  0.50168196  1
  Fe  Fe55  1  0.87785687  0.37562721  0.37675292  1
  Fe  Fe56  1  0.00100691  0.74859272  -0.00133464  1
  Fe  Fe57  1  0.12432987  0.62435096  0.37621970  1
  Fe  Fe58  1  0.74720605  0.75007010  0.75050173  1
  Fe  Fe59  1  0.87664691  0.12404601  0.37378340  1
  Fe  Fe60  1  0.00022809  0.50053727  -0.00091147  1
  Fe  Fe61  1  0.87489557  0.62443510  0.87327033  1
  Fe  Fe62  1  0.74991432  0.49908855  -0.00075382  1
  Fe  Fe63  1  0.37579241  0.37370200  0.12745759  1
  Fe  Fe64  1  0.62228299  0.37181415  0.87480636  1
  Fe  Fe65  1  0.87520723  0.37286186  0.62433985  1
  Fe  Fe66  1  0.00055118  0.25053456  0.24966155  1
  Fe  Fe67  1  0.75558134  0.00232745  0.00182924  1
  Fe  Fe68  1  0.25325485  0.24706119  0.00151301  1
  Fe  Fe69  1  0.62463959  0.12381929  0.37612368  1
  Fe  Fe70  1  0.37499916  0.87713301  0.62503737  1
  Fe  Fe71  1  0.87378168  0.62448429  0.62743512  1
  Fe  Fe72  1  0.37642319  0.37304024  0.87175397  1
  Fe  Fe73  1  0.12654550  0.62324222  0.62643810  1
  Fe  Fe74  1  0.75118835  0.75141037  0.00032183  1
  Fe  Fe75  1  0.87604172  0.87636452  0.62598683  1
  Fe  Fe76  1  0.00201161  0.75257051  0.25058850  1
  Fe  Fe77  1  0.25018735  0.25243765  0.25687819  1
  Fe  Fe78  1  0.12516783  0.37340143  0.62094683  1
  Fe  Fe79  1  0.74591739  0.50032473  0.74932585  1
  Fe  Fe80  1  0.62484442  0.62501587  0.12463373  1
  Fe  Fe81  1  -0.00067730  0.74971864  0.50096007  1
  Fe  Fe82  1  0.50173981  0.74864704  0.74822607  1
  Fe  Fe83  1  0.49811760  -0.00016152  0.49900375  1
  Fe  Fe84  1  0.37461855  0.62526787  0.12804990  1
  Fe  Fe85  1  0.36961482  0.62685184  0.87041750  1
  Fe  Fe86  1  0.62415071  0.37363019  0.12313328  1
  Fe  Fe87  1  0.87317584  0.37472366  0.12601331  1
  Fe  Fe88  1  0.49561441  0.00269473  -0.00079383  1
  Fe  Fe89  1  0.12505165  0.37303607  0.87672127  1
  Co  Co90  1  0.37410689  0.87388151  0.37524215  1
  Co  Co91  1  0.50224106  0.75532305  0.24871423  1
  Co  Co92  1  -0.00128849  0.50280973  0.50182810  1
  Co  Co93  1  0.12477483  0.87421347  0.37858107  1
  Co  Co94  1  0.62584315  0.87492352  0.38023609  1
  Co  Co95  1  0.87787893  0.87397705  0.12485918  1
  Co  Co96  1  0.87592226  0.12590380  0.62583982  1
  Co  Co97  1  0.24731728  0.49521446  0.74979910  1
  Co  Co98  1  0.50247065  0.50297649  0.75052765  1
  Co  Co99  1  0.75195723  0.24912927  0.00107697  1
  Co  Co100  1  0.00134773  -0.00273291  0.25043760  1
  Co  Co101  1  0.37949210  0.37522712  0.37626614  1
  Co  Co102  1  0.37651929  0.12358091  0.37116974  1
  Co  Co103  1  0.37155858  0.12283445  0.62585198  1
  Co  Co104  1  0.50285332  0.25075319  0.25057310  1
  Co  Co105  1  0.12293971  0.12588600  0.37367190  1
  Co  Co106  1  0.25228426  0.24887575  0.49714235  1
  Co  Co107  1  0.12803041  0.12298055  0.62567799  1
  Co  Co108  1  0.37639264  0.87283778  0.87388309  1
  Co  Co109  1  0.25110344  0.74946208  0.00165225  1
  Co  Co110  1  0.49747792  0.75061955  0.50260720  1
  Co  Co111  1  0.87373084  0.12645741  0.87056081  1
  Co  Co112  1  0.62485474  0.12546819  0.62058834  1
  Co  Co113  1  0.62763717  0.62632390  0.62246604  1
  Co  Co114  1  0.12853916  0.62484066  0.87347444  1
  Co  Co115  1  0.24707307  0.75526484  0.74709967  1
  Co  Co116  1  0.50060911  0.24570597  0.74781573  1
  Co  Co117  1  -0.00109686  0.00165462  0.49954543  1
  Co  Co118  1  0.74782192  0.49761124  0.25242775  1
  Co  Co119  1  0.75076887  0.24967932  0.49804749  1
  Co  Co120  1  0.49684478  0.24848844  0.00110935  1
  Co  Co121  1  0.62399283  0.87697494  0.11827986  1
  Co  Co122  1  0.25448348  0.00353348  -0.00040571  1
  Co  Co123  1  -0.00382547  0.00336836  -0.00092518  1
  Co  Co124  1  0.87581380  0.12558681  0.12926444  1
  Co  Co125  1  0.00196126  0.24961543  0.74882303  1
  Co  Co126  1  0.62570284  0.62637320  0.87766419  1
  Co  Co127  1  0.12122102  0.37483134  0.37816522  1
