# generated using pymatgen
data_Fe45Co19
_symmetry_space_group_name_H-M   'P 1'
_cell_length_a   11.41477626
_cell_length_b   11.41486023
_cell_length_c   11.41522272
_cell_angle_alpha   90.00214313
_cell_angle_beta   90.00201876
_cell_angle_gamma   89.98749231
_symmetry_Int_Tables_number   1
_chemical_formula_structural   Fe45Co19
_chemical_formula_sum   'Fe90 Co38'
_cell_volume   1487.38151505
_cell_formula_units_Z   2
loop_
 _symmetry_equiv_pos_site_id
 _symmetry_equiv_pos_as_xyz
  1  'x, y, z'
loop_
 _atom_site_type_symbol
 _atom_site_label
 _atom_site_symmetry_multiplicity
 _atom_site_fract_x
 _atom_site_fract_y
 _atom_site_fract_z
 _atom_site_occupancy
  Fe  Fe0  1  0.12787039  0.37392997  0.37332663  1
  Fe  Fe1  1  0.75033935  -0.00197967  0.00084811  1
  Fe  Fe2  1  0.62290401  0.62575266  0.87652939  1
  Fe  Fe3  1  0.62594048  0.37445286  0.62283026  1
  Fe  Fe4  1  0.75020718  0.25030068  0.24957883  1
  Fe  Fe5  1  0.12602447  0.62600533  0.37481284  1
  Fe  Fe6  1  0.62632478  0.37822896  0.37333285  1
  Fe  Fe7  1  0.24814740  0.75117089  0.00110102  1
  Fe  Fe8  1  0.37986612  0.37568418  0.12750687  1
  Fe  Fe9  1  0.00179530  -0.00094758  0.49917282  1
  Fe  Fe10  1  0.62000652  0.37800320  0.12689732  1
  Fe  Fe11  1  0.25040950  0.50127668  0.00288099  1
  Fe  Fe12  1  0.62441455  0.87320815  0.87582598  1
  Fe  Fe13  1  0.12299012  0.62746348  0.87562141  1
  Fe  Fe14  1  0.00382404  -0.00268521  -0.00166176  1
  Fe  Fe15  1  0.24583611  -0.00164837  -0.00055661  1
  Fe  Fe16  1  0.87024733  0.37896490  0.37632387  1
  Fe  Fe17  1  0.37485228  0.12397263  0.87646202  1
  Fe  Fe18  1  0.00309643  0.00066933  0.75071154  1
  Fe  Fe19  1  0.74849388  -0.00187887  0.50117757  1
  Fe  Fe20  1  0.75150818  0.74890381  0.00204744  1
  Fe  Fe21  1  0.24962597  -0.00059819  0.49839123  1
  Fe  Fe22  1  0.49937358  0.75221310  0.24984056  1
  Fe  Fe23  1  0.24819627  -0.00011826  0.75124314  1
  Fe  Fe24  1  0.37381100  0.87497030  0.62288604  1
  Fe  Fe25  1  -0.00152677  0.25253358  0.74930630  1
  Fe  Fe26  1  0.49743193  0.75115268  0.75077456  1
  Fe  Fe27  1  0.74929129  0.25101855  0.00245640  1
  Fe  Fe28  1  0.00209222  0.49801132  0.49894179  1
  Fe  Fe29  1  0.62412662  0.12450608  0.62404536  1
  Fe  Fe30  1  0.25147034  0.25034540  0.49973565  1
  Fe  Fe31  1  0.37668070  0.12420491  0.12797993  1
  Fe  Fe32  1  0.25220848  0.49987854  0.25017701  1
  Fe  Fe33  1  0.49871737  0.50215144  0.49811780  1
  Fe  Fe34  1  0.62049725  0.62443844  0.12398348  1
  Fe  Fe35  1  0.62510831  0.12553324  0.87583699  1
  Fe  Fe36  1  0.87768352  0.12482953  0.12525431  1
  Fe  Fe37  1  0.49936368  -0.00115593  0.74960185  1
  Fe  Fe38  1  0.12697929  0.37389216  0.87404032  1
  Fe  Fe39  1  0.49808769  0.24938135  0.74955131  1
  Fe  Fe40  1  0.74864980  0.75022926  0.50191395  1
  Fe  Fe41  1  0.12734551  0.87416517  0.37340485  1
  Fe  Fe42  1  0.12414861  0.12670129  0.12788104  1
  Fe  Fe43  1  0.75009312  0.50088921  0.00151856  1
  Fe  Fe44  1  0.37518436  0.62683087  0.87811624  1
  Fe  Fe45  1  0.24857019  0.75109696  0.24937152  1
  Fe  Fe46  1  0.49812418  0.50010490  0.75089748  1
  Fe  Fe47  1  0.37434349  0.12459828  0.37127329  1
  Fe  Fe48  1  0.87254067  0.87420261  0.37435854  1
  Fe  Fe49  1  0.37335454  0.87512059  0.12606287  1
  Fe  Fe50  1  0.25133295  0.24992807  0.00297136  1
  Fe  Fe51  1  0.50046119  -0.00384119  0.49606167  1
  Fe  Fe52  1  0.74916659  -0.00086294  0.74972941  1
  Fe  Fe53  1  0.50095726  -0.00277910  0.00137372  1
  Fe  Fe54  1  0.87769458  0.37945650  0.12587515  1
  Fe  Fe55  1  0.87558332  0.12589111  0.87663619  1
  Fe  Fe56  1  0.37224573  0.62658022  0.37616473  1
  Fe  Fe57  1  0.75138341  0.25107664  0.74951431  1
  Fe  Fe58  1  0.87642845  0.87527322  0.62570519  1
  Fe  Fe59  1  0.62379214  0.37458819  0.87739921  1
  Fe  Fe60  1  0.37384054  0.37707844  0.62171233  1
  Fe  Fe61  1  0.12594162  0.12710774  0.37169746  1
  Fe  Fe62  1  0.00085091  -0.00122504  0.25086845  1
  Fe  Fe63  1  0.75112996  0.49930264  0.74918337  1
  Fe  Fe64  1  0.25223930  0.24852042  0.74827592  1
  Fe  Fe65  1  0.50014034  0.24868485  0.49700350  1
  Fe  Fe66  1  0.87595276  0.62287582  0.62205153  1
  Fe  Fe67  1  0.12617248  0.62396185  0.62317300  1
  Fe  Fe68  1  0.62260577  0.62601232  0.62641355  1
  Fe  Fe69  1  0.62730453  0.62535116  0.37370418  1
  Fe  Fe70  1  0.00138885  0.75120831  0.49957202  1
  Fe  Fe71  1  -0.00094350  0.49741890  0.74964031  1
  Fe  Fe72  1  0.87709424  0.87403487  0.12604847  1
  Fe  Fe73  1  0.37513202  0.37474335  0.87756499  1
  Fe  Fe74  1  0.25023334  0.75011265  0.74723661  1
  Fe  Fe75  1  0.12238892  0.37573327  0.12819878  1
  Fe  Fe76  1  0.11989318  0.62548808  0.12704693  1
  Fe  Fe77  1  0.00062363  0.25207460  -0.00082953  1
  Fe  Fe78  1  -0.00058620  0.25178148  0.49905976  1
  Fe  Fe79  1  0.12552402  0.12649709  0.62453308  1
  Fe  Fe80  1  0.50020235  0.75241747  0.49825986  1
  Fe  Fe81  1  0.75446901  0.74524660  0.24769630  1
  Fe  Fe82  1  0.87354297  0.12410561  0.37435065  1
  Fe  Fe83  1  0.87844347  0.87265434  0.87355288  1
  Fe  Fe84  1  0.25122940  0.50183765  0.74839242  1
  Fe  Fe85  1  0.87429530  0.12616081  0.62330850  1
  Fe  Fe86  1  0.62671694  0.12045596  0.37126070  1
  Fe  Fe87  1  0.87796736  0.62473984  0.87720823  1
  Fe  Fe88  1  0.75109942  0.74924092  0.74908070  1
  Fe  Fe89  1  0.62379039  0.12242670  0.12791097  1
  Co  Co90  1  0.49919746  0.75259624  0.00126414  1
  Co  Co91  1  0.49688032  0.50348844  0.25351537  1
  Co  Co92  1  0.37104109  0.87291240  0.37406106  1
  Co  Co93  1  0.49726458  0.50176962  -0.00151763  1
  Co  Co94  1  0.12593732  0.87612023  0.62511501  1
  Co  Co95  1  0.24970981  0.50030752  0.49861560  1
  Co  Co96  1  0.37544326  0.62705011  0.12585229  1
  Co  Co97  1  0.00083171  0.75220606  0.00176852  1
  Co  Co98  1  0.87402188  0.62339492  0.37892008  1
  Co  Co99  1  0.24878551  0.00014260  0.24967104  1
  Co  Co100  1  0.24804630  0.75060061  0.50187275  1
  Co  Co101  1  -0.00204996  0.75001299  0.25334432  1
  Co  Co102  1  -0.00058414  0.50113147  0.25517365  1
  Co  Co103  1  0.12759032  0.37446737  0.62577559  1
  Co  Co104  1  0.37546014  0.12277746  0.62280583  1
  Co  Co105  1  0.50156159  0.24930718  0.25277450  1
  Co  Co106  1  0.62716238  0.87398333  0.12766298  1
  Co  Co107  1  0.00319036  0.49887159  -0.00314362  1
  Co  Co108  1  0.12419761  0.87355531  0.12818751  1
  Co  Co109  1  0.50015022  0.24803233  0.00076569  1
  Co  Co110  1  0.37569487  0.62538367  0.62257069  1
  Co  Co111  1  0.74618474  0.50329701  0.50224413  1
  Co  Co112  1  0.00025350  0.74751277  0.74586823  1
  Co  Co113  1  0.87415856  0.37544216  0.87747219  1
  Co  Co114  1  0.88198713  0.62177620  0.12251150  1
  Co  Co115  1  0.87254072  0.37483658  0.62078169  1
  Co  Co116  1  0.12373389  0.87073776  0.87233377  1
  Co  Co117  1  0.12561256  0.12882396  0.87546026  1
  Co  Co118  1  0.75063321  0.50369497  0.24694546  1
  Co  Co119  1  -0.00314285  0.25152817  0.25266741  1
  Co  Co120  1  0.62369401  0.87394042  0.62607331  1
  Co  Co121  1  0.63021454  0.87384689  0.37067279  1
  Co  Co122  1  0.37350101  0.87541535  0.87592047  1
  Co  Co123  1  0.75354114  0.00017966  0.24771197  1
  Co  Co124  1  0.74793663  0.24749672  0.49699791  1
  Co  Co125  1  0.37462621  0.37528299  0.37545451  1
  Co  Co126  1  0.49824763  -0.00490968  0.25123487  1
  Co  Co127  1  0.25234419  0.25165177  0.24825553  1
