# generated using pymatgen
data_Fe45Co19
_symmetry_space_group_name_H-M   'P 1'
_cell_length_a   11.41505904
_cell_length_b   11.41409002
_cell_length_c   11.41433636
_cell_angle_alpha   90.01204980
_cell_angle_beta   89.99722683
_cell_angle_gamma   90.00454490
_symmetry_Int_Tables_number   1
_chemical_formula_structural   Fe45Co19
_chemical_formula_sum   'Fe90 Co38'
_cell_volume   1487.20251141
_cell_formula_units_Z   2
loop_
 _symmetry_equiv_pos_site_id
 _symmetry_equiv_pos_as_xyz
  1  'x, y, z'
loop_
 _atom_site_type_symbol
 _atom_site_label
 _atom_site_symmetry_multiplicity
 _atom_site_fract_x
 _atom_site_fract_y
 _atom_site_fract_z
 _atom_site_occupancy
  Fe  Fe0  1  0.12401439  0.87476679  0.62624885  1
  Fe  Fe1  1  0.49861574  0.49934251  0.24869347  1
  Fe  Fe2  1  0.12486403  0.37340889  0.12349557  1
  Fe  Fe3  1  0.87401627  0.87594753  0.37666389  1
  Fe  Fe4  1  0.12355301  0.12411598  0.62766118  1
  Fe  Fe5  1  0.62675601  0.87560781  0.12273309  1
  Fe  Fe6  1  0.74914048  0.24822680  -0.00262757  1
  Fe  Fe7  1  0.25166111  0.00216750  0.50135173  1
  Fe  Fe8  1  0.37496263  0.12392609  0.37449893  1
  Fe  Fe9  1  0.12189942  0.62625683  0.87680524  1
  Fe  Fe10  1  0.87410378  0.87549203  0.12435154  1
  Fe  Fe11  1  0.87187053  0.87350308  0.62497882  1
  Fe  Fe12  1  0.12575006  0.62675735  0.37457962  1
  Fe  Fe13  1  -0.00045619  0.00241345  0.25169781  1
  Fe  Fe14  1  -0.00205653  0.75183206  0.75142786  1
  Fe  Fe15  1  0.12169879  0.12443008  0.87252331  1
  Fe  Fe16  1  0.49924488  0.74932684  0.24977723  1
  Fe  Fe17  1  0.25008384  0.24902155  -0.00104221  1
  Fe  Fe18  1  0.62701071  0.62517988  0.62526069  1
  Fe  Fe19  1  0.00029141  0.75031598  0.24999536  1
  Fe  Fe20  1  0.87283230  0.12536982  0.86776910  1
  Fe  Fe21  1  0.87000162  0.87721310  0.87331608  1
  Fe  Fe22  1  0.50306520  -0.00195096  -0.00527074  1
  Fe  Fe23  1  0.12631172  0.37460486  0.37491330  1
  Fe  Fe24  1  0.74951606  0.75079190  0.25112486  1
  Fe  Fe25  1  0.25209557  0.50467077  0.24720137  1
  Fe  Fe26  1  0.12340336  0.12513471  0.12400408  1
  Fe  Fe27  1  0.87363408  0.62610620  0.37673718  1
  Fe  Fe28  1  0.12482198  0.87503841  0.37561645  1
  Fe  Fe29  1  0.75075381  0.49769065  0.25059933  1
  Fe  Fe30  1  0.49943945  0.25052510  0.24691803  1
  Fe  Fe31  1  0.50077896  0.49966706  0.49957761  1
  Fe  Fe32  1  0.37577062  0.37527125  0.37427383  1
  Fe  Fe33  1  0.50530125  0.75488609  0.75435282  1
  Fe  Fe34  1  0.62559043  0.62370989  0.37534279  1
  Fe  Fe35  1  0.37558795  0.37454820  0.62598744  1
  Fe  Fe36  1  0.25094586  0.74963967  0.50022144  1
  Fe  Fe37  1  0.12497480  0.62667719  0.62693671  1
  Fe  Fe38  1  0.37767655  0.62845797  0.87653369  1
  Fe  Fe39  1  0.37591932  0.87514794  0.37585822  1
  Fe  Fe40  1  -0.00115367  0.24697629  0.50059320  1
  Fe  Fe41  1  0.87471556  0.37313461  0.87425652  1
  Fe  Fe42  1  0.62434295  0.12373949  0.12233350  1
  Fe  Fe43  1  0.37691311  0.62660438  0.62678606  1
  Fe  Fe44  1  0.50184288  0.75016185  0.50003258  1
  Fe  Fe45  1  -0.00176419  0.49795289  0.24899254  1
  Fe  Fe46  1  -0.00275180  0.00040253  -0.00263159  1
  Fe  Fe47  1  -0.00055512  0.24889354  0.25237532  1
  Fe  Fe48  1  0.25105557  0.50147958  0.50120429  1
  Fe  Fe49  1  0.25014103  -0.00141525  0.24855659  1
  Fe  Fe50  1  0.74905092  0.49534588  0.74827971  1
  Fe  Fe51  1  0.74947941  0.25080856  0.24873075  1
  Fe  Fe52  1  0.25020844  0.75146606  0.75249610  1
  Fe  Fe53  1  0.12431928  0.37538766  0.62547807  1
  Fe  Fe54  1  0.25126939  -0.00164950  0.75200030  1
  Fe  Fe55  1  0.25035087  0.50335813  0.00118928  1
  Fe  Fe56  1  0.37499766  0.87020510  0.12012750  1
  Fe  Fe57  1  0.62615789  0.12607849  0.37435348  1
  Fe  Fe58  1  0.37553148  0.37454810  0.87679303  1
  Fe  Fe59  1  0.37887345  0.87730443  0.62582979  1
  Fe  Fe60  1  0.87192868  0.37302500  0.37808271  1
  Fe  Fe61  1  0.62480420  0.87717735  0.37638890  1
  Fe  Fe62  1  0.62036072  0.12415489  0.63178724  1
  Fe  Fe63  1  0.62738495  0.62180225  0.87532813  1
  Fe  Fe64  1  0.87286320  0.62478116  0.62379814  1
  Fe  Fe65  1  0.49936425  0.00019001  0.24923561  1
  Fe  Fe66  1  0.74936185  0.25061454  0.50611236  1
  Fe  Fe67  1  0.00116851  0.49768939  0.75051811  1
  Fe  Fe68  1  0.25093152  0.24806067  0.24898970  1
  Fe  Fe69  1  0.87498874  0.62477133  0.12491223  1
  Fe  Fe70  1  0.00019068  0.50151002  0.49974865  1
  Fe  Fe71  1  0.37988037  0.12621399  0.87254045  1
  Fe  Fe72  1  -0.00196770  0.00258527  0.50090524  1
  Fe  Fe73  1  0.87375188  0.62328580  0.87416081  1
  Fe  Fe74  1  0.49961377  0.49932438  0.00167378  1
  Fe  Fe75  1  0.24929057  0.25097208  0.75059154  1
  Fe  Fe76  1  0.50051878  0.49742425  0.75020074  1
  Fe  Fe77  1  0.37625336  0.12378679  0.12195506  1
  Fe  Fe78  1  0.62614176  0.62416428  0.12418290  1
  Fe  Fe79  1  0.24949307  -0.00055829  -0.00294603  1
  Fe  Fe80  1  0.12444980  0.87173370  0.12151246  1
  Fe  Fe81  1  0.75019910  0.00106193  0.24909856  1
  Fe  Fe82  1  0.87606176  0.12662792  0.12537704  1
  Fe  Fe83  1  0.49888580  0.24831954  0.50141211  1
  Fe  Fe84  1  -0.00193845  0.49756399  0.00165977  1
  Fe  Fe85  1  0.62689740  0.37558452  0.12194422  1
  Fe  Fe86  1  0.74868373  0.00188248  0.50350730  1
  Fe  Fe87  1  0.24990694  0.50044625  0.75188466  1
  Fe  Fe88  1  0.25133320  0.24739085  0.50159497  1
  Fe  Fe89  1  0.75037182  0.74813074  -0.00079382  1
  Co  Co90  1  0.74787315  0.25541258  0.74753734  1
  Co  Co91  1  0.12653491  0.12361836  0.37531866  1
  Co  Co92  1  0.87424773  0.37158435  0.12390165  1
  Co  Co93  1  0.12093615  0.62660372  0.12325343  1
  Co  Co94  1  0.50170795  0.25441319  0.75160602  1
  Co  Co95  1  0.74706305  0.00005082  0.74569887  1
  Co  Co96  1  -0.00109388  0.24853031  -0.00276465  1
  Co  Co97  1  0.74860201  0.74988265  0.49864357  1
  Co  Co98  1  0.37587981  0.62470016  0.37641861  1
  Co  Co99  1  0.87826299  0.37687006  0.62401659  1
  Co  Co100  1  0.50073992  0.25044936  0.00101567  1
  Co  Co101  1  0.74918181  0.74840745  0.75104795  1
  Co  Co102  1  0.12382038  0.87453426  0.87606920  1
  Co  Co103  1  0.37390198  0.87193509  0.87794620  1
  Co  Co104  1  0.50749454  0.75164211  -0.00382410  1
  Co  Co105  1  0.50130557  -0.00573516  0.75479024  1
  Co  Co106  1  0.50144166  0.00325231  0.49995777  1
  Co  Co107  1  0.37283976  0.37483486  0.12397391  1
  Co  Co108  1  -0.00530615  0.75146952  -0.00268090  1
  Co  Co109  1  0.24734985  0.74666453  -0.00196020  1
  Co  Co110  1  0.87607171  0.12596896  0.63064563  1
  Co  Co111  1  0.62506026  0.87423701  0.62378282  1
  Co  Co112  1  -0.00009021  0.74940331  0.50076157  1
  Co  Co113  1  0.75194027  0.00392640  0.00116774  1
  Co  Co114  1  0.75239431  0.49919792  -0.00009004  1
  Co  Co115  1  0.74872930  0.49903253  0.50047310  1
  Co  Co116  1  0.62469990  0.37288094  0.37515248  1
  Co  Co117  1  0.63450579  0.87827559  0.87611718  1
  Co  Co118  1  -0.00112565  -0.00331388  0.74969443  1
  Co  Co119  1  0.12575883  0.37586698  0.87741265  1
  Co  Co120  1  0.25079801  0.74897502  0.24982428  1
  Co  Co121  1  0.37746854  0.12367626  0.63032543  1
  Co  Co122  1  0.37801600  0.63014640  0.12152411  1
  Co  Co123  1  0.62445604  0.37548560  0.87756307  1
  Co  Co124  1  0.87031106  0.12546720  0.37561693  1
  Co  Co125  1  0.62530111  0.12602192  0.87171980  1
  Co  Co126  1  0.00139745  0.25325409  0.75019168  1
  Co  Co127  1  0.62187951  0.37663842  0.62392272  1
