# generated using pymatgen
data_Fe45Co19
_symmetry_space_group_name_H-M   'P 1'
_cell_length_a   11.41465439
_cell_length_b   11.41596602
_cell_length_c   11.41531138
_cell_angle_alpha   90.00465882
_cell_angle_beta   89.99495174
_cell_angle_gamma   90.00511240
_symmetry_Int_Tables_number   1
_chemical_formula_structural   Fe45Co19
_chemical_formula_sum   'Fe90 Co38'
_cell_volume   1487.52129383
_cell_formula_units_Z   2
loop_
 _symmetry_equiv_pos_site_id
 _symmetry_equiv_pos_as_xyz
  1  'x, y, z'
loop_
 _atom_site_type_symbol
 _atom_site_label
 _atom_site_symmetry_multiplicity
 _atom_site_fract_x
 _atom_site_fract_y
 _atom_site_fract_z
 _atom_site_occupancy
  Fe  Fe0  1  0.74833521  0.75057421  0.50022540  1
  Fe  Fe1  1  0.87938710  0.12553200  0.87274262  1
  Fe  Fe2  1  0.62507689  0.62465707  0.12431546  1
  Fe  Fe3  1  0.62396760  0.12542911  0.37422172  1
  Fe  Fe4  1  0.50012099  0.24800187  0.74974890  1
  Fe  Fe5  1  0.24966678  0.75153491  0.25255589  1
  Fe  Fe6  1  0.37214327  0.62667468  0.12513157  1
  Fe  Fe7  1  0.37369699  0.37624002  0.12650349  1
  Fe  Fe8  1  0.12657496  0.37802375  0.87473380  1
  Fe  Fe9  1  0.49663640  -0.00180819  0.00094418  1
  Fe  Fe10  1  0.25060876  -0.00030311  0.49919752  1
  Fe  Fe11  1  0.12365713  0.37841384  0.12677597  1
  Fe  Fe12  1  0.49753632  0.49995092  0.00052186  1
  Fe  Fe13  1  -0.00098766  0.00051798  0.50112481  1
  Fe  Fe14  1  0.62381655  0.37550899  0.62438225  1
  Fe  Fe15  1  0.50004431  0.25171206  0.25027305  1
  Fe  Fe16  1  0.62252997  0.37567376  0.87563596  1
  Fe  Fe17  1  0.50133100  0.74814928  0.50150420  1
  Fe  Fe18  1  0.49807680  -0.00230964  0.24942487  1
  Fe  Fe19  1  0.12955033  0.88038599  0.87382918  1
  Fe  Fe20  1  0.74862935  0.74861755  -0.00270936  1
  Fe  Fe21  1  -0.00011509  0.74960518  0.25045076  1
  Fe  Fe22  1  0.24974458  0.75032592  0.49797641  1
  Fe  Fe23  1  0.87771230  0.37579991  0.37354439  1
  Fe  Fe24  1  0.74869206  0.24936774  0.00108741  1
  Fe  Fe25  1  0.49821424  0.75150664  -0.00159343  1
  Fe  Fe26  1  0.75098561  0.24953945  0.74976791  1
  Fe  Fe27  1  0.12512584  0.37662028  0.62552262  1
  Fe  Fe28  1  0.49993203  0.75014848  0.75044813  1
  Fe  Fe29  1  0.37343077  0.12564752  0.12643639  1
  Fe  Fe30  1  0.25001097  0.25198649  0.25205600  1
  Fe  Fe31  1  0.87691518  0.37572199  0.62433007  1
  Fe  Fe32  1  -0.00081234  0.75170309  0.75265778  1
  Fe  Fe33  1  0.00242436  0.75050606  -0.00382712  1
  Fe  Fe34  1  0.12606583  0.12444772  0.12564040  1
  Fe  Fe35  1  0.62517553  0.87572123  0.87426501  1
  Fe  Fe36  1  0.37028452  0.12587788  0.87784872  1
  Fe  Fe37  1  0.37597887  0.62311288  0.37478155  1
  Fe  Fe38  1  0.62583678  0.62226991  0.37501478  1
  Fe  Fe39  1  0.62057695  0.37820546  0.37697079  1
  Fe  Fe40  1  0.87610059  0.87507939  0.37416157  1
  Fe  Fe41  1  0.87481388  0.87301707  0.12375815  1
  Fe  Fe42  1  0.49898383  0.25012280  0.00122453  1
  Fe  Fe43  1  0.12395946  0.12248619  0.37271943  1
  Fe  Fe44  1  0.75023300  0.50019350  0.00003463  1
  Fe  Fe45  1  0.75182625  0.00073972  0.74999842  1
  Fe  Fe46  1  0.87360362  0.87559709  0.62475753  1
  Fe  Fe47  1  0.74755197  0.25194348  0.24764570  1
  Fe  Fe48  1  0.25055655  0.75011117  0.75149334  1
  Fe  Fe49  1  0.37507948  0.37252940  0.62298750  1
  Fe  Fe50  1  0.12358767  0.37842388  0.37384775  1
  Fe  Fe51  1  0.24895916  0.24990795  0.75245278  1
  Fe  Fe52  1  0.37509112  0.87328540  0.62441759  1
  Fe  Fe53  1  0.50057619  0.74946982  0.24984883  1
  Fe  Fe54  1  0.62567335  0.87429958  0.37494424  1
  Fe  Fe55  1  0.87424918  0.62372241  0.37602095  1
  Fe  Fe56  1  0.25149748  -0.00388328  0.25142108  1
  Fe  Fe57  1  0.75034749  0.00005234  0.24876473  1
  Fe  Fe58  1  0.37423697  0.12703651  0.62229498  1
  Fe  Fe59  1  0.12632748  0.87525491  0.62499920  1
  Fe  Fe60  1  0.75119942  0.50087383  0.75208647  1
  Fe  Fe61  1  0.37299026  0.62449225  0.87461552  1
  Fe  Fe62  1  0.49644053  0.50045446  0.74820748  1
  Fe  Fe63  1  0.75027022  0.00219248  0.00125188  1
  Fe  Fe64  1  0.12646815  0.87360975  0.12555913  1
  Fe  Fe65  1  0.12668385  0.62334098  0.12415141  1
  Fe  Fe66  1  0.00367217  0.25052071  -0.00100995  1
  Fe  Fe67  1  0.49729317  0.00042337  0.75035066  1
  Fe  Fe68  1  0.62658981  0.62342433  0.62560544  1
  Fe  Fe69  1  0.00113172  -0.00027066  -0.00052803  1
  Fe  Fe70  1  0.74978125  0.74902039  0.75232052  1
  Fe  Fe71  1  0.12609080  0.62052891  0.87408065  1
  Fe  Fe72  1  0.74985520  0.24999213  0.50022251  1
  Fe  Fe73  1  0.00058807  0.74906104  0.50016747  1
  Fe  Fe74  1  0.12414734  0.62347707  0.37465580  1
  Fe  Fe75  1  0.12172506  0.12498396  0.62903237  1
  Fe  Fe76  1  0.87599072  0.62328380  0.62529084  1
  Fe  Fe77  1  0.87617041  0.62588110  0.12262934  1
  Fe  Fe78  1  0.87656276  0.37638580  0.87656371  1
  Fe  Fe79  1  0.75026609  0.49853629  0.24758815  1
  Fe  Fe80  1  0.87652392  0.12546428  0.37339315  1
  Fe  Fe81  1  0.00050487  0.24966295  0.50002467  1
  Fe  Fe82  1  0.50039161  0.00049858  0.49960210  1
  Fe  Fe83  1  0.25202417  0.50062067  0.50059765  1
  Fe  Fe84  1  0.62444224  0.12489770  0.87649252  1
  Fe  Fe85  1  0.62557864  0.87433287  0.12460376  1
  Fe  Fe86  1  0.62725869  0.12413093  0.62367492  1
  Fe  Fe87  1  0.12550293  0.62314882  0.62698103  1
  Fe  Fe88  1  0.25008646  0.24934566  0.49630456  1
  Fe  Fe89  1  0.87726434  0.12813298  0.12679987  1
  Co  Co90  1  0.62407027  0.37528534  0.12205523  1
  Co  Co91  1  -0.00092587  0.49938656  0.74961732  1
  Co  Co92  1  0.24869441  0.74970204  -0.00258529  1
  Co  Co93  1  0.25331616  0.49797915  0.74934206  1
  Co  Co94  1  0.75017540  0.74934995  0.24994356  1
  Co  Co95  1  -0.00062984  -0.00166219  0.24762707  1
  Co  Co96  1  0.62270021  0.12478408  0.12524628  1
  Co  Co97  1  0.25072332  0.50001771  0.25109219  1
  Co  Co98  1  0.00129474  0.50085890  0.50063981  1
  Co  Co99  1  0.25223109  0.49866004  0.00019169  1
  Co  Co100  1  0.87712312  0.62428183  0.87588236  1
  Co  Co101  1  0.37766367  0.37662950  0.37622306  1
  Co  Co102  1  0.37343871  0.87103998  0.12542323  1
  Co  Co103  1  0.49747429  0.50276298  0.50388425  1
  Co  Co104  1  0.75065911  0.00040486  0.49828472  1
  Co  Co105  1  0.87666842  0.37279342  0.12443890  1
  Co  Co106  1  0.00113627  0.25347170  0.75135282  1
  Co  Co107  1  0.37237345  0.87526456  0.87400971  1
  Co  Co108  1  -0.00208095  0.50259890  0.24912811  1
  Co  Co109  1  0.75036688  0.49841886  0.49988074  1
  Co  Co110  1  0.62510988  0.87608518  0.62662015  1
  Co  Co111  1  0.25305710  0.00218905  0.74694524  1
  Co  Co112  1  0.37642616  0.37311433  0.87469098  1
  Co  Co113  1  0.37217526  0.62816512  0.62575436  1
  Co  Co114  1  0.37500646  0.12531752  0.37386923  1
  Co  Co115  1  0.12273875  0.87558526  0.37584696  1
  Co  Co116  1  0.12606910  0.12237095  0.87339906  1
  Co  Co117  1  0.00021658  0.49964276  0.00096592  1
  Co  Co118  1  0.50103832  0.24845747  0.49995108  1
  Co  Co119  1  0.62242154  0.62355655  0.87481651  1
  Co  Co120  1  0.24756677  0.25235703  0.00081580  1
  Co  Co121  1  -0.00153831  -0.00341250  0.75035593  1
  Co  Co122  1  0.37631460  0.87316701  0.37701190  1
  Co  Co123  1  0.87672213  0.12585150  0.62622199  1
  Co  Co124  1  0.00293986  0.25061312  0.25011025  1
  Co  Co125  1  0.25106299  -0.00028510  0.00319345  1
  Co  Co126  1  0.87248753  0.87486470  0.87688313  1
  Co  Co127  1  0.50038479  0.50120427  0.24729980  1
