# generated using pymatgen
data_Fe45Co19
_symmetry_space_group_name_H-M   'P 1'
_cell_length_a   11.41436665
_cell_length_b   11.41516257
_cell_length_c   11.41493260
_cell_angle_alpha   90.00246012
_cell_angle_beta   90.00126628
_cell_angle_gamma   90.00202882
_symmetry_Int_Tables_number   1
_chemical_formula_structural   Fe45Co19
_chemical_formula_sum   'Fe90 Co38'
_cell_volume   1487.32977005
_cell_formula_units_Z   2
loop_
 _symmetry_equiv_pos_site_id
 _symmetry_equiv_pos_as_xyz
  1  'x, y, z'
loop_
 _atom_site_type_symbol
 _atom_site_label
 _atom_site_symmetry_multiplicity
 _atom_site_fract_x
 _atom_site_fract_y
 _atom_site_fract_z
 _atom_site_occupancy
  Fe  Fe0  1  0.49631120  0.00087063  0.25275444  1
  Fe  Fe1  1  0.50005327  0.49869789  0.74720000  1
  Fe  Fe2  1  0.87931990  0.87179806  0.12536849  1
  Fe  Fe3  1  -0.00367669  0.49931626  0.50366963  1
  Fe  Fe4  1  -0.00087528  0.49883783  0.74779259  1
  Fe  Fe5  1  0.24702784  0.74866154  0.24997982  1
  Fe  Fe6  1  0.12658748  0.12578414  0.37619602  1
  Fe  Fe7  1  0.62578303  0.37425660  0.37825793  1
  Fe  Fe8  1  0.49711927  0.75115328  0.50362798  1
  Fe  Fe9  1  0.62535065  0.62454131  0.37751834  1
  Fe  Fe10  1  0.87691514  0.37264603  0.87402965  1
  Fe  Fe11  1  0.49997719  0.24981491  0.24874212  1
  Fe  Fe12  1  0.50008303  0.74868406  0.24840939  1
  Fe  Fe13  1  0.75166095  0.00303302  0.50019974  1
  Fe  Fe14  1  0.49829963  0.75022178  -0.00106013  1
  Fe  Fe15  1  0.25636014  -0.00138446  0.49801035  1
  Fe  Fe16  1  0.00524935  0.00100421  0.24768451  1
  Fe  Fe17  1  0.00187768  0.25216526  0.00215439  1
  Fe  Fe18  1  0.00111067  0.75157936  0.50043023  1
  Fe  Fe19  1  0.12683848  0.87629852  0.87493793  1
  Fe  Fe20  1  0.24970502  0.49639450  0.49914249  1
  Fe  Fe21  1  0.74984211  0.75000879  0.74898535  1
  Fe  Fe22  1  0.00202050  0.75193767  0.74981819  1
  Fe  Fe23  1  0.50078409  0.49820846  0.00023726  1
  Fe  Fe24  1  0.75003202  0.75044390  0.25010346  1
  Fe  Fe25  1  0.87551540  0.37326810  0.37610674  1
  Fe  Fe26  1  0.37098789  0.87643739  0.12753171  1
  Fe  Fe27  1  0.75087040  0.74950449  0.50276374  1
  Fe  Fe28  1  0.12455493  0.62161258  0.87464685  1
  Fe  Fe29  1  0.12701732  0.87539839  0.37543836  1
  Fe  Fe30  1  -0.00398139  0.49904607  0.24654850  1
  Fe  Fe31  1  0.62284223  0.87874606  0.62496013  1
  Fe  Fe32  1  0.62241854  0.87651787  0.37706379  1
  Fe  Fe33  1  0.00023674  0.24707002  0.74763323  1
  Fe  Fe34  1  0.87558280  0.62563448  0.37572684  1
  Fe  Fe35  1  0.37521098  0.87637156  0.87181227  1
  Fe  Fe36  1  0.24707443  0.25335590  0.25545336  1
  Fe  Fe37  1  0.75108158  0.75189443  -0.00201309  1
  Fe  Fe38  1  0.75235739  0.50049037  0.24912686  1
  Fe  Fe39  1  0.12423763  0.37404137  0.62447602  1
  Fe  Fe40  1  0.49658238  0.00215508  0.00071534  1
  Fe  Fe41  1  -0.00144638  0.24841169  0.49974205  1
  Fe  Fe42  1  0.12391419  0.62183266  0.37612126  1
  Fe  Fe43  1  0.49972008  0.50023950  0.50189971  1
  Fe  Fe44  1  0.75398313  0.49930080  0.00128306  1
  Fe  Fe45  1  0.50024102  0.49998447  0.25007236  1
  Fe  Fe46  1  0.00251265  -0.00132365  0.00107070  1
  Fe  Fe47  1  0.00198404  0.00169451  0.75073297  1
  Fe  Fe48  1  0.62629185  0.62526133  0.12343627  1
  Fe  Fe49  1  0.49916439  0.74722893  0.74832115  1
  Fe  Fe50  1  0.75069056  -0.00007680  0.24990847  1
  Fe  Fe51  1  0.62237329  0.37153316  0.87424293  1
  Fe  Fe52  1  0.12991251  0.12380992  0.62341915  1
  Fe  Fe53  1  0.37407157  0.62461842  0.37615700  1
  Fe  Fe54  1  0.49869659  0.00699522  0.74631512  1
  Fe  Fe55  1  0.25112177  0.75199498  0.50303348  1
  Fe  Fe56  1  0.24940351  0.49761990  0.25229008  1
  Fe  Fe57  1  0.87728359  0.87712644  0.62693499  1
  Fe  Fe58  1  0.87735113  0.12709742  0.12634656  1
  Fe  Fe59  1  0.00061244  0.00064062  0.50052032  1
  Fe  Fe60  1  0.12615859  0.62363600  0.62501962  1
  Fe  Fe61  1  0.75027282  0.24472782  0.75022294  1
  Fe  Fe62  1  0.24705028  0.49423220  -0.00378712  1
  Fe  Fe63  1  0.12086232  0.62600566  0.12297817  1
  Fe  Fe64  1  0.75121901  0.00476080  0.75166772  1
  Fe  Fe65  1  0.75160431  0.50033865  0.74600255  1
  Fe  Fe66  1  0.75164507  0.00096629  -0.00158050  1
  Fe  Fe67  1  0.37244922  0.37393934  0.62509061  1
  Fe  Fe68  1  0.36797927  0.12652438  0.12570507  1
  Fe  Fe69  1  0.62471680  0.12353525  0.12479680  1
  Fe  Fe70  1  0.12313662  0.37345617  0.12645576  1
  Fe  Fe71  1  0.62507247  0.62388728  0.87446146  1
  Fe  Fe72  1  0.87593018  0.87718653  0.37453424  1
  Fe  Fe73  1  0.37396794  0.37458423  0.12470809  1
  Fe  Fe74  1  0.62304227  0.12398603  0.37730905  1
  Fe  Fe75  1  0.24977712  0.75119156  -0.00111203  1
  Fe  Fe76  1  0.87713380  0.62492327  0.87541560  1
  Fe  Fe77  1  0.12594943  0.12681232  0.87850043  1
  Fe  Fe78  1  0.24905046  0.25328355  0.75328879  1
  Fe  Fe79  1  0.37290398  0.62267153  0.12314680  1
  Fe  Fe80  1  0.62347658  0.87622408  0.12393529  1
  Fe  Fe81  1  0.75085268  0.24792231  0.25328102  1
  Fe  Fe82  1  0.49715392  0.24597307  0.50323178  1
  Fe  Fe83  1  0.37290500  0.62089035  0.87294154  1
  Fe  Fe84  1  0.37603140  0.13075336  0.87563206  1
  Fe  Fe85  1  0.24959485  0.75065863  0.74715534  1
  Fe  Fe86  1  0.63052380  0.37203982  0.62194693  1
  Fe  Fe87  1  0.74831588  0.24727149  -0.00184210  1
  Fe  Fe88  1  0.62363539  0.87830043  0.87383644  1
  Fe  Fe89  1  0.62722126  0.37432159  0.12530131  1
  Co  Co90  1  0.87920262  0.12610034  0.87747654  1
  Co  Co91  1  0.37863217  0.37470284  0.37579399  1
  Co  Co92  1  0.24807729  0.25461002  0.49676773  1
  Co  Co93  1  0.87813888  0.12213924  0.37245855  1
  Co  Co94  1  0.62753966  0.12460802  0.62154266  1
  Co  Co95  1  0.12620630  0.87305381  0.12437593  1
  Co  Co96  1  0.87344129  0.37029866  0.62553690  1
  Co  Co97  1  0.75461382  0.24510258  0.49717164  1
  Co  Co98  1  -0.00151813  0.49669597  0.00230264  1
  Co  Co99  1  0.87300112  0.36878682  0.12489845  1
  Co  Co100  1  0.87753051  0.62829613  0.62669843  1
  Co  Co101  1  0.11874741  0.37478669  0.87309017  1
  Co  Co102  1  0.37163791  0.62197199  0.62544322  1
  Co  Co103  1  0.87684701  0.12356847  0.62512039  1
  Co  Co104  1  0.24931835  0.00277366  0.75417069  1
  Co  Co105  1  0.24744488  0.00028617  0.25252954  1
  Co  Co106  1  0.37500921  0.87149098  0.37193950  1
  Co  Co107  1  0.12935150  0.12826703  0.12283040  1
  Co  Co108  1  0.12644566  0.87897344  0.62543754  1
  Co  Co109  1  0.37288410  0.12939297  0.37371410  1
  Co  Co110  1  0.50101618  0.24915931  0.74382124  1
  Co  Co111  1  0.00222110  0.24839024  0.25167866  1
  Co  Co112  1  0.00162529  0.75216403  -0.00512343  1
  Co  Co113  1  0.49351317  0.00258156  0.49984304  1
  Co  Co114  1  0.24930113  0.25580683  -0.00361611  1
  Co  Co115  1  0.37514921  0.87820671  0.62895613  1
  Co  Co116  1  0.25067618  -0.00056963  -0.00245157  1
  Co  Co117  1  0.50053648  0.24952812  0.00474788  1
  Co  Co118  1  0.38086071  0.37328542  0.87441508  1
  Co  Co119  1  0.36676966  0.12704967  0.62582458  1
  Co  Co120  1  0.87509540  0.87705836  0.87287127  1
  Co  Co121  1  0.75314918  0.50174912  0.50186607  1
  Co  Co122  1  0.62473796  0.62463260  0.62430399  1
  Co  Co123  1  0.00277552  0.75108418  0.25479264  1
  Co  Co124  1  0.87745284  0.63052079  0.12347165  1
  Co  Co125  1  0.11865272  0.37791128  0.37557451  1
  Co  Co126  1  0.24895433  0.49444425  0.75093277  1
  Co  Co127  1  0.62110080  0.12558009  0.87652048  1
