# generated using pymatgen
data_Fe45Co19
_symmetry_space_group_name_H-M   'P 1'
_cell_length_a   11.41472696
_cell_length_b   11.41586241
_cell_length_c   11.41617274
_cell_angle_alpha   89.99752366
_cell_angle_beta   89.98640282
_cell_angle_gamma   90.00061901
_symmetry_Int_Tables_number   1
_chemical_formula_structural   Fe45Co19
_chemical_formula_sum   'Fe90 Co38'
_cell_volume   1487.62946732
_cell_formula_units_Z   2
loop_
 _symmetry_equiv_pos_site_id
 _symmetry_equiv_pos_as_xyz
  1  'x, y, z'
loop_
 _atom_site_type_symbol
 _atom_site_label
 _atom_site_symmetry_multiplicity
 _atom_site_fract_x
 _atom_site_fract_y
 _atom_site_fract_z
 _atom_site_occupancy
  Fe  Fe0  1  -0.00079745  0.75286006  0.74985771  1
  Fe  Fe1  1  0.25104391  0.00106682  0.50113489  1
  Fe  Fe2  1  0.50216529  0.24812940  0.50159111  1
  Fe  Fe3  1  0.75424723  0.24933586  0.24806975  1
  Fe  Fe4  1  0.00188386  0.75144273  -0.00005419  1
  Fe  Fe5  1  0.50700293  0.50268049  -0.00366533  1
  Fe  Fe6  1  0.75087672  0.49930966  0.24961586  1
  Fe  Fe7  1  0.12466701  0.62563471  0.12512428  1
  Fe  Fe8  1  0.74897068  0.75303608  0.24830941  1
  Fe  Fe9  1  0.25201476  0.24989932  0.24982293  1
  Fe  Fe10  1  0.12780993  0.87545010  0.62737003  1
  Fe  Fe11  1  0.12430290  0.12648311  0.62848734  1
  Fe  Fe12  1  -0.00622181  0.24847298  0.25057018  1
  Fe  Fe13  1  0.24818233  0.49874551  -0.00054386  1
  Fe  Fe14  1  0.50190420  0.24749667  0.00071220  1
  Fe  Fe15  1  0.12218520  0.37215149  0.37644048  1
  Fe  Fe16  1  0.49990176  0.74992254  0.50127977  1
  Fe  Fe17  1  0.62860833  0.13028963  0.86984660  1
  Fe  Fe18  1  0.62702306  0.37390287  0.37670875  1
  Fe  Fe19  1  0.75320286  -0.00369220  0.75096509  1
  Fe  Fe20  1  0.25146028  0.25463880  0.75229972  1
  Fe  Fe21  1  0.62279854  0.62573884  0.37142902  1
  Fe  Fe22  1  0.24946815  0.49458798  0.75211811  1
  Fe  Fe23  1  0.25080357  0.49842870  0.25057876  1
  Fe  Fe24  1  0.12559978  0.62743252  0.37430766  1
  Fe  Fe25  1  0.74646953  0.74745704  0.00161370  1
  Fe  Fe26  1  0.25223501  0.00078213  -0.00415422  1
  Fe  Fe27  1  0.12456268  0.12345134  0.12488461  1
  Fe  Fe28  1  0.74937953  0.50344016  0.49851677  1
  Fe  Fe29  1  0.00163479  0.00082245  0.50176056  1
  Fe  Fe30  1  0.62822609  0.37622227  0.12213634  1
  Fe  Fe31  1  0.00063537  0.50066650  0.49918891  1
  Fe  Fe32  1  -0.00252323  0.25282525  0.74872655  1
  Fe  Fe33  1  0.75251491  0.75389641  0.74806165  1
  Fe  Fe34  1  0.62472784  0.62434645  0.62862320  1
  Fe  Fe35  1  0.25043526  0.50056434  0.49841039  1
  Fe  Fe36  1  0.49777198  0.74835360  0.75035499  1
  Fe  Fe37  1  0.37679207  0.37604809  0.12153440  1
  Fe  Fe38  1  0.12434904  0.62363740  0.87377623  1
  Fe  Fe39  1  0.87484685  0.62524639  0.62638122  1
  Fe  Fe40  1  -0.00091248  0.49901878  0.25110423  1
  Fe  Fe41  1  0.74641808  0.49685047  0.75265338  1
  Fe  Fe42  1  0.62477988  0.87297670  0.87435032  1
  Fe  Fe43  1  0.24995881  0.24892337  0.50003425  1
  Fe  Fe44  1  0.24985370  -0.00045776  0.25120069  1
  Fe  Fe45  1  0.50029362  0.00096925  -0.00342074  1
  Fe  Fe46  1  0.37485668  0.12319642  0.12466423  1
  Fe  Fe47  1  0.37496604  0.87478659  0.37585604  1
  Fe  Fe48  1  0.12628307  0.87669131  0.87320472  1
  Fe  Fe49  1  0.12356574  0.12557290  0.37514638  1
  Fe  Fe50  1  0.25072742  0.24961718  -0.00155039  1
  Fe  Fe51  1  0.87361672  0.62670267  0.87411026  1
  Fe  Fe52  1  0.49967074  -0.00087688  0.25066673  1
  Fe  Fe53  1  0.74896382  -0.00245411  0.25066758  1
  Fe  Fe54  1  0.37274092  0.62317159  0.62728905  1
  Fe  Fe55  1  0.00122929  -0.00228715  0.24964153  1
  Fe  Fe56  1  0.74672257  0.75068277  0.50125958  1
  Fe  Fe57  1  0.87491922  0.12289015  0.62675928  1
  Fe  Fe58  1  0.50040443  0.74968292  0.00106503  1
  Fe  Fe59  1  0.87427265  0.87589857  0.37900584  1
  Fe  Fe60  1  -0.00035067  0.49661070  0.75126278  1
  Fe  Fe61  1  0.87463019  0.37723034  0.62136569  1
  Fe  Fe62  1  0.87488666  0.62422903  0.12490454  1
  Fe  Fe63  1  0.87520858  0.62751672  0.37419255  1
  Fe  Fe64  1  0.50134204  0.25670916  0.74784759  1
  Fe  Fe65  1  0.37717687  0.62323774  0.12701448  1
  Fe  Fe66  1  0.37276992  0.87410621  0.62862844  1
  Fe  Fe67  1  -0.00146646  0.50040846  -0.00075625  1
  Fe  Fe68  1  0.75082954  0.24725375  0.50189445  1
  Fe  Fe69  1  -0.00462436  0.24562373  0.00200201  1
  Fe  Fe70  1  0.74606468  -0.00110235  0.50347678  1
  Fe  Fe71  1  0.00058989  0.75452158  0.24837830  1
  Fe  Fe72  1  0.12334018  0.12528332  0.87156648  1
  Fe  Fe73  1  0.37549543  0.62242112  0.87356384  1
  Fe  Fe74  1  0.49911994  0.50163273  0.49953342  1
  Fe  Fe75  1  0.12225923  0.37311299  0.12415577  1
  Fe  Fe76  1  0.00200519  0.74984084  0.50135463  1
  Fe  Fe77  1  0.62539745  0.12412565  0.37485271  1
  Fe  Fe78  1  0.25167474  0.75076540  -0.00116080  1
  Fe  Fe79  1  0.62627844  0.12179220  0.12645684  1
  Fe  Fe80  1  0.49819920  0.00069451  0.75168275  1
  Fe  Fe81  1  0.24992080  0.75222178  0.24998099  1
  Fe  Fe82  1  0.86978034  0.37214504  0.87956656  1
  Fe  Fe83  1  0.37638227  0.37322766  0.37648877  1
  Fe  Fe84  1  0.50008624  0.25056846  0.24899181  1
  Fe  Fe85  1  0.50055571  0.00055319  0.50194804  1
  Fe  Fe86  1  0.87374292  0.87965265  0.11850575  1
  Fe  Fe87  1  0.50110063  0.75321031  0.24761165  1
  Fe  Fe88  1  0.37549342  0.12749117  0.62762699  1
  Fe  Fe89  1  0.12644282  0.62418050  0.62703236  1
  Co  Co90  1  0.25242129  0.00245761  0.75160803  1
  Co  Co91  1  0.50033006  0.49526050  0.25116607  1
  Co  Co92  1  0.62210270  0.87452310  0.62882893  1
  Co  Co93  1  0.75224228  0.24375289  0.00567609  1
  Co  Co94  1  -0.00359151  0.24765262  0.50057933  1
  Co  Co95  1  0.37521004  0.87738047  0.12408952  1
  Co  Co96  1  0.62878027  0.36959671  0.87888326  1
  Co  Co97  1  0.87478373  0.11674578  0.12572829  1
  Co  Co98  1  0.37661115  0.12493818  0.37500593  1
  Co  Co99  1  -0.00369739  -0.00304809  0.75058469  1
  Co  Co100  1  0.37485904  0.37569976  0.62302568  1
  Co  Co101  1  0.87454709  0.37828398  0.12220625  1
  Co  Co102  1  0.87558395  0.87421979  0.62046894  1
  Co  Co103  1  0.87304846  0.12722107  0.87112010  1
  Co  Co104  1  0.62485763  0.12358932  0.62914442  1
  Co  Co105  1  0.37843258  0.37562647  0.87875848  1
  Co  Co106  1  0.37620018  0.87372924  0.87352287  1
  Co  Co107  1  0.75108327  0.25369340  0.74411905  1
  Co  Co108  1  0.74734203  0.50529175  -0.00185589  1
  Co  Co109  1  0.87402569  0.87381510  0.88058525  1
  Co  Co110  1  0.87335876  0.12035479  0.37605671  1
  Co  Co111  1  0.50272728  0.49652621  0.75140014  1
  Co  Co112  1  0.62583892  0.37752077  0.62074105  1
  Co  Co113  1  0.37701831  0.12970271  0.87324081  1
  Co  Co114  1  0.62653656  0.62969919  0.86958796  1
  Co  Co115  1  0.00181495  0.00224827  -0.00383586  1
  Co  Co116  1  0.62538723  0.87828857  0.12191181  1
  Co  Co117  1  0.25055202  0.74961994  0.50005098  1
  Co  Co118  1  0.12708745  0.87674388  0.12147596  1
  Co  Co119  1  0.74656065  0.00459174  -0.00597447  1
  Co  Co120  1  0.62358169  0.62401288  0.12994517  1
  Co  Co121  1  0.87424667  0.37544724  0.37777934  1
  Co  Co122  1  0.24928414  0.74859414  0.75232183  1
  Co  Co123  1  0.62368916  0.87530655  0.37587176  1
  Co  Co124  1  0.12527334  0.87538696  0.37711022  1
  Co  Co125  1  0.12200699  0.37302172  0.87814546  1
  Co  Co126  1  0.37670019  0.62648678  0.37223093  1
  Co  Co127  1  0.12433868  0.37399317  0.62282547  1
