# generated using pymatgen
data_Fe45Co19
_symmetry_space_group_name_H-M   'P 1'
_cell_length_a   11.41343342
_cell_length_b   11.41441439
_cell_length_c   11.41537120
_cell_angle_alpha   89.99735492
_cell_angle_beta   90.00414514
_cell_angle_gamma   90.00596419
_symmetry_Int_Tables_number   1
_chemical_formula_structural   Fe45Co19
_chemical_formula_sum   'Fe90 Co38'
_cell_volume   1487.16781936
_cell_formula_units_Z   2
loop_
 _symmetry_equiv_pos_site_id
 _symmetry_equiv_pos_as_xyz
  1  'x, y, z'
loop_
 _atom_site_type_symbol
 _atom_site_label
 _atom_site_symmetry_multiplicity
 _atom_site_fract_x
 _atom_site_fract_y
 _atom_site_fract_z
 _atom_site_occupancy
  Fe  Fe0  1  0.12273527  0.37720752  0.87547552  1
  Fe  Fe1  1  0.50017444  0.25018597  0.24961109  1
  Fe  Fe2  1  0.87335704  0.62628010  0.87687840  1
  Fe  Fe3  1  0.37425885  0.87190685  0.12276385  1
  Fe  Fe4  1  0.37303897  0.62956928  0.62571201  1
  Fe  Fe5  1  0.25011120  -0.00342598  0.24945673  1
  Fe  Fe6  1  0.12663668  0.62611910  0.62694477  1
  Fe  Fe7  1  0.87571226  0.37478388  0.87629972  1
  Fe  Fe8  1  0.74864064  0.50044898  0.50018206  1
  Fe  Fe9  1  0.37828180  0.37464119  0.87613669  1
  Fe  Fe10  1  0.37466929  0.87201966  0.37611870  1
  Fe  Fe11  1  0.25248772  0.50216832  0.24954308  1
  Fe  Fe12  1  0.12549049  0.37446370  0.12579987  1
  Fe  Fe13  1  -0.00275191  0.50221417  0.00345430  1
  Fe  Fe14  1  -0.00112689  0.24725754  0.75034328  1
  Fe  Fe15  1  0.87345315  0.37344272  0.12487318  1
  Fe  Fe16  1  -0.00213318  0.24832661  0.24932579  1
  Fe  Fe17  1  0.50129038  0.50035926  0.74916703  1
  Fe  Fe18  1  0.62690865  0.37644606  0.12580781  1
  Fe  Fe19  1  0.37672247  0.12217070  0.87557795  1
  Fe  Fe20  1  0.50117051  0.24729419  0.00164395  1
  Fe  Fe21  1  0.25031287  0.50172720  0.50001758  1
  Fe  Fe22  1  0.37361408  0.12387937  0.62260867  1
  Fe  Fe23  1  0.50219999  0.75332435  0.50346580  1
  Fe  Fe24  1  0.00016095  0.74804788  0.24853496  1
  Fe  Fe25  1  -0.00117345  0.25016100  0.49859756  1
  Fe  Fe26  1  0.62761165  0.12280600  0.12714412  1
  Fe  Fe27  1  0.24925557  0.25108375  0.49631985  1
  Fe  Fe28  1  0.12749965  0.12738387  0.12539942  1
  Fe  Fe29  1  0.74854300  -0.00115031  0.49556019  1
  Fe  Fe30  1  0.74914695  0.49873299  0.75233762  1
  Fe  Fe31  1  0.37566973  0.37403895  0.62389705  1
  Fe  Fe32  1  0.24736565  0.75270134  0.75880586  1
  Fe  Fe33  1  0.74887312  0.25037025  -0.00218175  1
  Fe  Fe34  1  0.49900599  -0.00275678  0.74501749  1
  Fe  Fe35  1  0.74988591  0.24730838  0.75115052  1
  Fe  Fe36  1  0.50531583  0.50124157  0.00126344  1
  Fe  Fe37  1  0.37416291  0.37404115  0.12436362  1
  Fe  Fe38  1  0.87803862  0.12253033  0.87856281  1
  Fe  Fe39  1  0.62820784  0.62725377  0.62741188  1
  Fe  Fe40  1  0.50328574  0.75486952  0.74969532  1
  Fe  Fe41  1  0.12351464  0.62454056  0.37412583  1
  Fe  Fe42  1  0.00001167  0.74867961  0.50233424  1
  Fe  Fe43  1  0.12569318  0.87301633  0.62697993  1
  Fe  Fe44  1  0.74934447  0.24860853  0.25606621  1
  Fe  Fe45  1  0.37564684  0.12381966  0.37374315  1
  Fe  Fe46  1  0.75384368  -0.00537731  0.00222238  1
  Fe  Fe47  1  0.87316337  0.87447420  0.62525040  1
  Fe  Fe48  1  0.88384137  0.87669739  0.87483149  1
  Fe  Fe49  1  0.50155093  0.24795983  0.75040239  1
  Fe  Fe50  1  -0.00260554  0.00016167  0.24426604  1
  Fe  Fe51  1  0.87764259  0.62323561  0.37584907  1
  Fe  Fe52  1  0.87410850  0.37498677  0.62321724  1
  Fe  Fe53  1  0.00110569  -0.00183537  0.50149544  1
  Fe  Fe54  1  0.50286889  0.74931179  0.24804090  1
  Fe  Fe55  1  -0.00277194  0.50333000  0.74780148  1
  Fe  Fe56  1  0.50785910  0.75219085  -0.00065247  1
  Fe  Fe57  1  0.87784630  0.87485410  0.37258020  1
  Fe  Fe58  1  0.37881089  0.62734496  0.87598415  1
  Fe  Fe59  1  0.49986324  -0.00203800  0.24949320  1
  Fe  Fe60  1  0.25203375  0.50022750  0.75177404  1
  Fe  Fe61  1  0.37690576  0.62618903  0.37620840  1
  Fe  Fe62  1  0.87286610  0.12448038  0.62142437  1
  Fe  Fe63  1  0.75214462  -0.00114228  0.25091000  1
  Fe  Fe64  1  0.12536593  0.87060606  0.12342675  1
  Fe  Fe65  1  0.12176193  0.37884298  0.37231846  1
  Fe  Fe66  1  0.50351142  0.24967932  0.49764709  1
  Fe  Fe67  1  0.12800350  0.62703996  0.12352188  1
  Fe  Fe68  1  0.62575292  0.12044144  0.87541358  1
  Fe  Fe69  1  0.62600297  0.37407275  0.62452698  1
  Fe  Fe70  1  0.12095467  0.12156046  0.87751786  1
  Fe  Fe71  1  0.37447040  0.62849178  0.12241716  1
  Fe  Fe72  1  0.12424722  0.37514187  0.62596369  1
  Fe  Fe73  1  0.75006107  0.50215136  0.24968362  1
  Fe  Fe74  1  0.62128137  0.62187142  0.37407497  1
  Fe  Fe75  1  0.24950391  -0.00350712  0.49808875  1
  Fe  Fe76  1  0.12673680  0.12600921  0.62394199  1
  Fe  Fe77  1  0.25011795  -0.00283916  -0.00078321  1
  Fe  Fe78  1  0.86760365  0.63118086  0.12207565  1
  Fe  Fe79  1  0.25080285  0.24861766  -0.00140220  1
  Fe  Fe80  1  0.25045286  0.24958236  0.75243433  1
  Fe  Fe81  1  0.37825337  0.37846801  0.37463498  1
  Fe  Fe82  1  0.24912269  -0.00264024  0.75289654  1
  Fe  Fe83  1  0.74918738  0.75012730  0.49575041  1
  Fe  Fe84  1  0.25092646  0.50214237  -0.00193080  1
  Fe  Fe85  1  0.12351859  0.12281458  0.37308738  1
  Fe  Fe86  1  0.87684183  0.37823778  0.37602007  1
  Fe  Fe87  1  0.50076026  -0.00097155  0.00394598  1
  Fe  Fe88  1  0.75007375  0.75507083  0.75423291  1
  Fe  Fe89  1  0.62698872  0.12148146  0.62192312  1
  Co  Co90  1  0.00039143  0.25033359  0.00120363  1
  Co  Co91  1  -0.00225760  0.50340361  0.24354452  1
  Co  Co92  1  0.24814834  0.75138088  -0.00616557  1
  Co  Co93  1  0.63095068  0.87702429  0.62439933  1
  Co  Co94  1  0.25032666  0.74977045  0.25080472  1
  Co  Co95  1  0.36984936  0.87248783  0.62535202  1
  Co  Co96  1  0.74751998  0.74824796  0.25709080  1
  Co  Co97  1  0.62886218  0.87427373  0.12868816  1
  Co  Co98  1  0.11660358  0.87799568  0.87687029  1
  Co  Co99  1  0.12160863  0.62248152  0.87545573  1
  Co  Co100  1  0.87140640  0.86667760  0.12827455  1
  Co  Co101  1  0.25107068  0.25179636  0.25243297  1
  Co  Co102  1  0.37335236  0.12424052  0.12670821  1
  Co  Co103  1  -0.00019215  0.00256934  0.74527412  1
  Co  Co104  1  0.37899689  0.87516595  0.87690314  1
  Co  Co105  1  0.49790985  -0.00445453  0.50139856  1
  Co  Co106  1  0.00050876  0.50273791  0.50437399  1
  Co  Co107  1  0.12090858  0.87472656  0.37242089  1
  Co  Co108  1  0.62287021  0.12185300  0.37470232  1
  Co  Co109  1  0.24657196  0.75015596  0.49713257  1
  Co  Co110  1  0.49909465  0.50213761  0.24465940  1
  Co  Co111  1  0.62281465  0.88212221  0.87301841  1
  Co  Co112  1  0.62344562  0.37981985  0.37366040  1
  Co  Co113  1  0.74880270  0.25073383  0.49633940  1
  Co  Co114  1  0.63083653  0.62730488  0.12380765  1
  Co  Co115  1  0.74884477  0.49859855  -0.00113956  1
  Co  Co116  1  0.62661516  0.62447380  0.87385497  1
  Co  Co117  1  0.00017803  0.74800047  0.00160772  1
  Co  Co118  1  -0.00120318  0.74759394  0.74782811  1
  Co  Co119  1  0.62326565  0.37411005  0.87463377  1
  Co  Co120  1  0.75392779  0.00030838  0.75202481  1
  Co  Co121  1  0.86962133  0.62657738  0.62573403  1
  Co  Co122  1  0.87692864  0.12229239  0.37582545  1
  Co  Co123  1  0.62338703  0.87585978  0.37395657  1
  Co  Co124  1  0.74650115  0.75722835  -0.00668922  1
  Co  Co125  1  0.87054635  0.12883449  0.12451063  1
  Co  Co126  1  0.50025881  0.50242874  0.50506601  1
  Co  Co127  1  -0.00297546  -0.00015683  0.00957270  1
