# generated using pymatgen
data_Fe45Co19
_symmetry_space_group_name_H-M   'P 1'
_cell_length_a   11.41552357
_cell_length_b   11.41638622
_cell_length_c   11.41604669
_cell_angle_alpha   89.99731238
_cell_angle_beta   90.00733357
_cell_angle_gamma   90.00086832
_symmetry_Int_Tables_number   1
_chemical_formula_structural   Fe45Co19
_chemical_formula_sum   'Fe90 Co38'
_cell_volume   1487.78515175
_cell_formula_units_Z   2
loop_
 _symmetry_equiv_pos_site_id
 _symmetry_equiv_pos_as_xyz
  1  'x, y, z'
loop_
 _atom_site_type_symbol
 _atom_site_label
 _atom_site_symmetry_multiplicity
 _atom_site_fract_x
 _atom_site_fract_y
 _atom_site_fract_z
 _atom_site_occupancy
  Fe  Fe0  1  0.37183426  0.37293335  0.37415922  1
  Fe  Fe1  1  0.37465537  0.87572749  0.12567228  1
  Fe  Fe2  1  0.75231589  0.50075109  0.25000053  1
  Fe  Fe3  1  0.24842778  0.24974090  0.75074453  1
  Fe  Fe4  1  0.24874416  0.00016067  0.74910362  1
  Fe  Fe5  1  0.75281959  0.24752184  0.75313473  1
  Fe  Fe6  1  0.87591998  0.37208367  0.12481824  1
  Fe  Fe7  1  0.88207469  0.12052431  0.87431819  1
  Fe  Fe8  1  -0.00199914  0.75150456  0.50037832  1
  Fe  Fe9  1  0.50089149  0.49794042  0.49905866  1
  Fe  Fe10  1  0.87566141  0.37360774  0.37431148  1
  Fe  Fe11  1  0.62587453  0.12670434  0.37600275  1
  Fe  Fe12  1  -0.00063238  0.75481250  0.00043019  1
  Fe  Fe13  1  0.87417791  0.62603192  0.62549087  1
  Fe  Fe14  1  0.12500860  0.12571155  0.62438499  1
  Fe  Fe15  1  0.87574371  0.37349948  0.62715523  1
  Fe  Fe16  1  0.62502707  0.62391049  0.37594586  1
  Fe  Fe17  1  0.49896331  0.25135659  0.75206963  1
  Fe  Fe18  1  0.62535420  0.62507848  0.12208799  1
  Fe  Fe19  1  0.49829470  0.49660684  0.75257848  1
  Fe  Fe20  1  -0.00119342  0.50109375  0.49883794  1
  Fe  Fe21  1  -0.00127763  0.75049709  0.75024730  1
  Fe  Fe22  1  0.87438463  0.87550960  0.37368189  1
  Fe  Fe23  1  -0.00109059  -0.00190055  0.50250720  1
  Fe  Fe24  1  0.50076702  0.49822247  0.25051647  1
  Fe  Fe25  1  0.25097876  0.75075780  0.25035364  1
  Fe  Fe26  1  0.12609546  0.37581797  0.37237937  1
  Fe  Fe27  1  0.74914847  0.75305750  -0.00613052  1
  Fe  Fe28  1  0.74719398  0.75077274  0.25098175  1
  Fe  Fe29  1  0.25064740  0.74904715  0.49893641  1
  Fe  Fe30  1  0.75337176  0.50153708  0.75588587  1
  Fe  Fe31  1  0.75140491  0.24941271  -0.00411791  1
  Fe  Fe32  1  0.37379847  0.37425161  0.12587902  1
  Fe  Fe33  1  0.24860535  0.75108763  0.00008595  1
  Fe  Fe34  1  0.37935372  0.87473042  0.37908921  1
  Fe  Fe35  1  0.50178720  0.25173359  0.49873655  1
  Fe  Fe36  1  0.74882039  0.00038052  0.50048546  1
  Fe  Fe37  1  0.75049725  0.49907164  -0.00363409  1
  Fe  Fe38  1  0.37525574  0.87640240  0.87347390  1
  Fe  Fe39  1  0.50044626  0.00168967  0.24906467  1
  Fe  Fe40  1  0.37390827  0.62468534  0.62469814  1
  Fe  Fe41  1  0.00164863  0.24776819  0.00036024  1
  Fe  Fe42  1  0.62578031  0.12793510  0.62346537  1
  Fe  Fe43  1  0.75172921  0.24843144  0.25234689  1
  Fe  Fe44  1  0.12372888  0.62272555  0.87448685  1
  Fe  Fe45  1  0.37391236  0.12608221  0.62423227  1
  Fe  Fe46  1  0.87000183  0.87538036  0.63069021  1
  Fe  Fe47  1  0.12487218  0.37675870  0.62554543  1
  Fe  Fe48  1  0.12423238  0.62353832  0.37419650  1
  Fe  Fe49  1  0.62698697  0.37303827  0.12573665  1
  Fe  Fe50  1  0.12680591  0.12207712  0.12683470  1
  Fe  Fe51  1  0.75025132  0.00018948  0.24884658  1
  Fe  Fe52  1  0.37338158  0.12552023  0.87612060  1
  Fe  Fe53  1  0.50265251  0.75091725  0.24888851  1
  Fe  Fe54  1  0.62587512  0.12589405  0.12396601  1
  Fe  Fe55  1  0.37153962  0.37456658  0.62333941  1
  Fe  Fe56  1  0.25124096  0.00073897  0.49888741  1
  Fe  Fe57  1  0.50014589  -0.00096887  0.00099953  1
  Fe  Fe58  1  0.62611965  0.62328794  0.62707435  1
  Fe  Fe59  1  -0.00114013  0.49964415  0.00032902  1
  Fe  Fe60  1  0.62285817  0.12446908  0.87569606  1
  Fe  Fe61  1  -0.00136620  0.74887275  0.24967525  1
  Fe  Fe62  1  0.12782415  0.87371965  0.62391136  1
  Fe  Fe63  1  0.24911634  -0.00091322  0.00129003  1
  Fe  Fe64  1  0.37468459  0.62385536  0.12298410  1
  Fe  Fe65  1  0.37527794  0.62326021  0.87591878  1
  Fe  Fe66  1  0.50073385  0.49615956  -0.00171484  1
  Fe  Fe67  1  0.12373429  0.37633978  0.87248596  1
  Fe  Fe68  1  0.50119409  -0.00076861  0.74636709  1
  Fe  Fe69  1  0.37422783  0.12835782  0.37414807  1
  Fe  Fe70  1  0.00026018  0.24943369  0.49859133  1
  Fe  Fe71  1  0.12531347  0.62366369  0.62527410  1
  Fe  Fe72  1  0.87408465  0.62719219  0.12336096  1
  Fe  Fe73  1  0.12329752  0.37774260  0.12926197  1
  Fe  Fe74  1  0.24838519  0.25032961  0.00125216  1
  Fe  Fe75  1  0.37635035  0.62509641  0.37595234  1
  Fe  Fe76  1  -0.00425402  0.00115423  0.24523554  1
  Fe  Fe77  1  0.75313376  -0.00225132  -0.00032135  1
  Fe  Fe78  1  0.12384332  0.87653378  0.37284756  1
  Fe  Fe79  1  0.12536394  0.62400045  0.12639153  1
  Fe  Fe80  1  0.75065854  0.49821886  0.49887968  1
  Fe  Fe81  1  0.12113144  0.87907594  0.87550651  1
  Fe  Fe82  1  0.62788161  0.37386611  0.62707602  1
  Fe  Fe83  1  0.12404023  0.12347300  0.37279259  1
  Fe  Fe84  1  0.50226217  0.75252328  0.74808431  1
  Fe  Fe85  1  0.25025934  0.75017644  0.75137016  1
  Fe  Fe86  1  0.50205532  0.75313010  -0.00122261  1
  Fe  Fe87  1  0.74751755  0.75115937  0.49957631  1
  Fe  Fe88  1  0.87586343  0.12540934  0.62417155  1
  Fe  Fe89  1  0.49957252  0.25088868  0.00047898  1
  Co  Co90  1  0.87873055  0.37343376  0.87538562  1
  Co  Co91  1  0.12378828  0.12237788  0.87644508  1
  Co  Co92  1  -0.00201893  -0.00175945  0.00634884  1
  Co  Co93  1  0.87254951  0.87114764  0.12620542  1
  Co  Co94  1  0.00079755  0.24786047  0.74948002  1
  Co  Co95  1  0.74835147  0.74650306  0.75507033  1
  Co  Co96  1  0.37369010  0.87534194  0.62258295  1
  Co  Co97  1  0.25184551  0.50120166  0.24973911  1
  Co  Co98  1  0.62762102  0.87559921  0.62556465  1
  Co  Co99  1  0.75164315  0.25058230  0.49935985  1
  Co  Co100  1  0.25064281  0.50015307  0.75053988  1
  Co  Co101  1  0.50057383  0.24932238  0.24902464  1
  Co  Co102  1  0.87361106  0.62716478  0.37630529  1
  Co  Co103  1  0.62714261  0.37426795  0.37363565  1
  Co  Co104  1  0.87881700  0.62614027  0.87738635  1
  Co  Co105  1  0.62560461  0.87574867  0.12402655  1
  Co  Co106  1  -0.00070370  0.24765866  0.25061955  1
  Co  Co107  1  0.74715649  0.00545472  0.75060304  1
  Co  Co108  1  0.24858234  0.49973469  0.00025014  1
  Co  Co109  1  0.24962614  0.50117330  0.49914016  1
  Co  Co110  1  -0.00433131  0.50195161  0.25062486  1
  Co  Co111  1  0.12645146  0.87551235  0.12834199  1
  Co  Co112  1  0.50056853  0.00354357  0.50189979  1
  Co  Co113  1  0.87289335  0.12903692  0.12369880  1
  Co  Co114  1  -0.00226132  0.50154922  0.74920838  1
  Co  Co115  1  0.62535969  0.87772863  0.87255544  1
  Co  Co116  1  0.62619949  0.37364965  0.87357202  1
  Co  Co117  1  0.87611878  0.12319140  0.37680891  1
  Co  Co118  1  0.25401357  -0.00077864  0.25165925  1
  Co  Co119  1  0.62264880  0.87634481  0.37649473  1
  Co  Co120  1  0.37210101  0.37324750  0.87657977  1
  Co  Co121  1  0.37471373  0.12476850  0.12336763  1
  Co  Co122  1  0.24878001  0.24977069  0.24718965  1
  Co  Co123  1  0.62060035  0.62314339  0.87600174  1
  Co  Co124  1  0.24739988  0.24885275  0.49954035  1
  Co  Co125  1  0.87706979  0.87965658  0.87025748  1
  Co  Co126  1  0.50315904  0.74826642  0.50404601  1
  Co  Co127  1  0.00333249  -0.00030260  0.74496806  1
