# generated using pymatgen
data_Fe45Co19
_symmetry_space_group_name_H-M   'P 1'
_cell_length_a   11.41413573
_cell_length_b   11.41409279
_cell_length_c   11.41423423
_cell_angle_alpha   90.00279359
_cell_angle_beta   90.00004076
_cell_angle_gamma   89.99950584
_symmetry_Int_Tables_number   1
_chemical_formula_structural   Fe45Co19
_chemical_formula_sum   'Fe90 Co38'
_cell_volume   1487.06931290
_cell_formula_units_Z   2
loop_
 _symmetry_equiv_pos_site_id
 _symmetry_equiv_pos_as_xyz
  1  'x, y, z'
loop_
 _atom_site_type_symbol
 _atom_site_label
 _atom_site_symmetry_multiplicity
 _atom_site_fract_x
 _atom_site_fract_y
 _atom_site_fract_z
 _atom_site_occupancy
  Fe  Fe0  1  0.37608863  0.37578386  0.12607791  1
  Fe  Fe1  1  0.74599838  0.25434313  0.50074458  1
  Fe  Fe2  1  -0.00533279  0.50189983  0.24739102  1
  Fe  Fe3  1  0.74957354  -0.00062187  0.74886822  1
  Fe  Fe4  1  0.12396991  0.37601410  0.37354941  1
  Fe  Fe5  1  0.87064918  0.12436531  0.37712571  1
  Fe  Fe6  1  -0.00275902  -0.00082033  -0.00034770  1
  Fe  Fe7  1  0.12237058  0.62667688  0.37741216  1
  Fe  Fe8  1  0.37515148  0.62711727  0.12394703  1
  Fe  Fe9  1  0.37928244  0.87285931  0.87331413  1
  Fe  Fe10  1  0.87585310  0.37458123  0.87614424  1
  Fe  Fe11  1  0.24993036  0.50070262  0.50117905  1
  Fe  Fe12  1  0.87495124  0.62642485  0.62309388  1
  Fe  Fe13  1  0.12865001  0.62581216  0.87012344  1
  Fe  Fe14  1  0.50012837  0.24754490  0.25216294  1
  Fe  Fe15  1  0.62623807  0.12473311  0.12615488  1
  Fe  Fe16  1  -0.00058413  0.75023803  0.25161429  1
  Fe  Fe17  1  0.25258901  -0.00422750  0.49753549  1
  Fe  Fe18  1  0.50459929  0.74819357  0.75516733  1
  Fe  Fe19  1  0.87236468  0.12524652  0.62284310  1
  Fe  Fe20  1  0.25015395  -0.00246763  -0.00031069  1
  Fe  Fe21  1  0.25000243  -0.00101427  0.25282979  1
  Fe  Fe22  1  0.62798034  0.62717809  0.12662607  1
  Fe  Fe23  1  0.62601840  0.62353734  0.62507821  1
  Fe  Fe24  1  0.75034050  0.24913452  0.00014714  1
  Fe  Fe25  1  0.87308209  0.12572310  0.12553620  1
  Fe  Fe26  1  0.62604110  0.37817870  0.87478303  1
  Fe  Fe27  1  0.00165479  0.75000761  -0.00204678  1
  Fe  Fe28  1  0.87306551  0.62703782  0.87354310  1
  Fe  Fe29  1  0.37541539  0.12407263  0.87577014  1
  Fe  Fe30  1  0.37183441  0.62753948  0.62949695  1
  Fe  Fe31  1  0.74996810  0.74939838  0.49924236  1
  Fe  Fe32  1  0.24902279  0.75245578  -0.00140737  1
  Fe  Fe33  1  0.24885134  0.25033975  0.49880996  1
  Fe  Fe34  1  0.37615589  0.62713602  0.37442616  1
  Fe  Fe35  1  0.49967978  0.50386601  0.00064027  1
  Fe  Fe36  1  -0.00184260  0.24921285  0.25173019  1
  Fe  Fe37  1  0.24769980  0.75035821  0.25065540  1
  Fe  Fe38  1  0.00038318  0.49984909  0.74929900  1
  Fe  Fe39  1  0.49816192  0.50213360  0.75175876  1
  Fe  Fe40  1  0.50018222  0.74906360  0.50024837  1
  Fe  Fe41  1  -0.00063074  0.24809753  0.74907251  1
  Fe  Fe42  1  0.24867463  0.75268729  0.50292528  1
  Fe  Fe43  1  0.62686815  0.37565200  0.12783006  1
  Fe  Fe44  1  0.37598495  0.87397294  0.12577468  1
  Fe  Fe45  1  0.24938625  0.50076258  -0.00099419  1
  Fe  Fe46  1  0.62602927  0.38052228  0.37217367  1
  Fe  Fe47  1  0.37666301  0.37543178  0.37454876  1
  Fe  Fe48  1  0.74982709  0.25126121  0.74870087  1
  Fe  Fe49  1  0.50011070  0.00084157  0.25220898  1
  Fe  Fe50  1  0.50124895  0.24825427  0.75035062  1
  Fe  Fe51  1  0.62480194  0.12434394  0.62237864  1
  Fe  Fe52  1  0.50032015  0.50120560  0.49969655  1
  Fe  Fe53  1  0.50212146  0.74849966  0.24982435  1
  Fe  Fe54  1  -0.00132425  -0.00208704  0.49967032  1
  Fe  Fe55  1  0.00025414  0.24960765  0.49919795  1
  Fe  Fe56  1  0.37606435  0.37568567  0.87599269  1
  Fe  Fe57  1  0.12581884  0.12173178  0.62354505  1
  Fe  Fe58  1  0.49914613  -0.00049692  0.49828227  1
  Fe  Fe59  1  -0.00039585  0.24717591  -0.00076248  1
  Fe  Fe60  1  0.12318918  0.62542194  0.12444062  1
  Fe  Fe61  1  0.62443053  0.87496229  0.62649287  1
  Fe  Fe62  1  0.62435070  0.87386001  0.37550284  1
  Fe  Fe63  1  0.12363947  0.37536955  0.87596670  1
  Fe  Fe64  1  -0.00090314  0.50122724  0.50106469  1
  Fe  Fe65  1  -0.00311671  -0.00094801  0.74885862  1
  Fe  Fe66  1  0.87103308  0.87361159  0.87410954  1
  Fe  Fe67  1  0.25001236  0.25047240  0.74910149  1
  Fe  Fe68  1  -0.00079763  -0.00134401  0.25164533  1
  Fe  Fe69  1  0.25026896  0.24816311  0.24995098  1
  Fe  Fe70  1  0.12169326  0.37655399  0.12449203  1
  Fe  Fe71  1  0.12489076  0.12204489  0.87405400  1
  Fe  Fe72  1  0.74965522  -0.00139175  0.25091054  1
  Fe  Fe73  1  0.87512148  0.87281512  0.37774964  1
  Fe  Fe74  1  0.37820007  0.37350147  0.62435397  1
  Fe  Fe75  1  0.25003065  0.24861770  0.00182366  1
  Fe  Fe76  1  0.75168654  0.49879885  0.74632960  1
  Fe  Fe77  1  0.12446048  0.12225217  0.12649288  1
  Fe  Fe78  1  0.62719715  0.87261734  0.12316228  1
  Fe  Fe79  1  0.50028885  0.24890467  0.00057381  1
  Fe  Fe80  1  0.50175585  -0.00115526  0.00000663  1
  Fe  Fe81  1  0.25200036  -0.00366129  0.74944155  1
  Fe  Fe82  1  0.25047466  0.50168992  0.25049977  1
  Fe  Fe83  1  0.62688661  0.12274635  0.87564684  1
  Fe  Fe84  1  0.87163255  0.37797039  0.37533350  1
  Fe  Fe85  1  0.00168974  0.75289712  0.74561970  1
  Fe  Fe86  1  0.87247954  0.87086813  0.12362514  1
  Fe  Fe87  1  0.75444845  0.50204295  0.00404383  1
  Fe  Fe88  1  0.37687244  0.12475776  0.62249063  1
  Fe  Fe89  1  0.12352842  0.37603446  0.62479870  1
  Co  Co90  1  0.75022246  0.74997157  0.25441523  1
  Co  Co91  1  0.37075732  0.62683600  0.87329650  1
  Co  Co92  1  -0.00104238  0.50445525  -0.00096501  1
  Co  Co93  1  0.25068667  0.49570921  0.74906011  1
  Co  Co94  1  0.37554752  0.12283513  0.12544828  1
  Co  Co95  1  0.62744054  0.12368403  0.37610448  1
  Co  Co96  1  0.87455258  0.63213604  0.12379120  1
  Co  Co97  1  0.49905750  0.50310439  0.24879846  1
  Co  Co98  1  0.75063297  0.24968105  0.25108534  1
  Co  Co99  1  0.74853548  -0.00381131  0.50008400  1
  Co  Co100  1  0.87617782  0.37237621  0.12298688  1
  Co  Co101  1  0.62148641  0.37721282  0.62779947  1
  Co  Co102  1  0.62949321  0.61969771  0.87521330  1
  Co  Co103  1  0.12247044  0.87668821  0.87436921  1
  Co  Co104  1  0.87334852  0.12496110  0.87388077  1
  Co  Co105  1  0.62762719  0.87772845  0.87511824  1
  Co  Co106  1  0.74682320  0.74897808  -0.00312246  1
  Co  Co107  1  0.87471229  0.62520841  0.37838246  1
  Co  Co108  1  0.75474064  0.50367593  0.24653889  1
  Co  Co109  1  0.12496613  0.12383912  0.37553487  1
  Co  Co110  1  0.74913042  0.50003928  0.50279989  1
  Co  Co111  1  0.37526039  0.12580605  0.37682011  1
  Co  Co112  1  0.50258227  0.74782542  -0.00297631  1
  Co  Co113  1  0.50405493  0.25100579  0.49743071  1
  Co  Co114  1  0.87694820  0.37424556  0.62442942  1
  Co  Co115  1  0.00011110  0.75143102  0.50376061  1
  Co  Co116  1  0.24797343  0.75684992  0.74813092  1
  Co  Co117  1  0.75168565  0.00010233  0.00121535  1
  Co  Co118  1  0.62612270  0.62268216  0.37487748  1
  Co  Co119  1  0.74721713  0.74966631  0.74853582  1
  Co  Co120  1  0.12376393  0.87344221  0.37614885  1
  Co  Co121  1  0.12400080  0.87563308  0.12589805  1
  Co  Co122  1  0.50201200  0.00158371  0.74987582  1
  Co  Co123  1  0.37638908  0.87133545  0.37331570  1
  Co  Co124  1  0.38015128  0.87384901  0.62717391  1
  Co  Co125  1  0.12653172  0.62423560  0.62655550  1
  Co  Co126  1  0.87179651  0.87464012  0.62505918  1
  Co  Co127  1  0.12439924  0.87820108  0.62317244  1
