# generated using pymatgen
data_Fe45Co19
_symmetry_space_group_name_H-M   'P 1'
_cell_length_a   11.41434032
_cell_length_b   11.41607266
_cell_length_c   11.41551754
_cell_angle_alpha   89.99340128
_cell_angle_beta   89.99979253
_cell_angle_gamma   90.01324674
_symmetry_Int_Tables_number   1
_chemical_formula_structural   Fe45Co19
_chemical_formula_sum   'Fe90 Co38'
_cell_volume   1487.52109115
_cell_formula_units_Z   2
loop_
 _symmetry_equiv_pos_site_id
 _symmetry_equiv_pos_as_xyz
  1  'x, y, z'
loop_
 _atom_site_type_symbol
 _atom_site_label
 _atom_site_symmetry_multiplicity
 _atom_site_fract_x
 _atom_site_fract_y
 _atom_site_fract_z
 _atom_site_occupancy
  Fe  Fe0  1  0.50083265  0.50089239  0.00287470  1
  Fe  Fe1  1  0.87729768  0.87036025  0.37621189  1
  Fe  Fe2  1  0.49969570  0.24741513  0.50003346  1
  Fe  Fe3  1  0.50006440  0.50194663  0.49982579  1
  Fe  Fe4  1  -0.00111386  0.75114934  -0.00388528  1
  Fe  Fe5  1  0.37357470  0.87449216  0.62568624  1
  Fe  Fe6  1  0.50365057  0.24843030  0.74847827  1
  Fe  Fe7  1  0.12045842  0.87494188  0.37687555  1
  Fe  Fe8  1  0.37667181  0.37460272  0.37364275  1
  Fe  Fe9  1  0.75061071  0.50152043  0.24681947  1
  Fe  Fe10  1  0.62780121  0.37635632  0.62420595  1
  Fe  Fe11  1  0.62467508  0.37549147  0.37402240  1
  Fe  Fe12  1  0.74762538  0.74935739  0.74900644  1
  Fe  Fe13  1  0.62932895  0.12345317  0.37700350  1
  Fe  Fe14  1  0.24619868  0.74766253  0.75224466  1
  Fe  Fe15  1  0.37783209  0.62613496  0.87333683  1
  Fe  Fe16  1  0.37423308  0.37548982  0.62489227  1
  Fe  Fe17  1  0.50018007  0.74926353  0.50019285  1
  Fe  Fe18  1  0.49852556  0.00201282  0.50050667  1
  Fe  Fe19  1  0.37520913  0.62580247  0.62700206  1
  Fe  Fe20  1  0.75289497  0.24976344  0.00028564  1
  Fe  Fe21  1  0.37693046  0.37493789  0.87359414  1
  Fe  Fe22  1  0.87630366  0.12480903  0.12734159  1
  Fe  Fe23  1  0.37621547  0.62635371  0.12717341  1
  Fe  Fe24  1  0.37604535  0.12484814  0.12733675  1
  Fe  Fe25  1  0.75168236  -0.00442584  0.25195228  1
  Fe  Fe26  1  0.24691863  0.00074630  0.75138085  1
  Fe  Fe27  1  0.12147132  0.12391743  0.12298781  1
  Fe  Fe28  1  0.12286650  0.87539030  0.62529924  1
  Fe  Fe29  1  0.62730587  0.87223546  0.12278013  1
  Fe  Fe30  1  0.87420502  0.87258024  0.12177590  1
  Fe  Fe31  1  0.24869283  0.24826599  0.25094889  1
  Fe  Fe32  1  0.87466983  0.37580194  0.37355343  1
  Fe  Fe33  1  0.62676299  0.12342494  0.87662414  1
  Fe  Fe34  1  0.37825100  0.37462463  0.12842472  1
  Fe  Fe35  1  0.12314424  0.87659899  0.12187041  1
  Fe  Fe36  1  0.25034217  0.00140373  -0.00204480  1
  Fe  Fe37  1  0.87417362  0.12367342  0.86786994  1
  Fe  Fe38  1  0.25101185  0.49980662  -0.00104440  1
  Fe  Fe39  1  0.24841271  0.25009272  0.74964075  1
  Fe  Fe40  1  0.50327031  -0.00133718  0.74861423  1
  Fe  Fe41  1  0.37484752  0.87609842  0.37644171  1
  Fe  Fe42  1  0.62734826  0.87456462  0.62001633  1
  Fe  Fe43  1  0.12442599  0.62200414  0.62648800  1
  Fe  Fe44  1  0.50216375  -0.00182653  0.25158573  1
  Fe  Fe45  1  0.12230010  0.37351015  0.12294742  1
  Fe  Fe46  1  -0.00239055  0.49913233  0.00108639  1
  Fe  Fe47  1  0.87725109  0.62858515  0.37373412  1
  Fe  Fe48  1  0.75112380  0.50153693  0.00224941  1
  Fe  Fe49  1  0.12293966  0.37522623  0.87499742  1
  Fe  Fe50  1  -0.00018191  0.25051870  0.25004478  1
  Fe  Fe51  1  -0.00638425  0.00336639  0.50122884  1
  Fe  Fe52  1  0.87135390  0.37484848  0.62801967  1
  Fe  Fe53  1  0.87676094  0.62549542  0.87255486  1
  Fe  Fe54  1  0.49965609  -0.00171163  0.00042472  1
  Fe  Fe55  1  0.25030849  0.00210531  0.50020539  1
  Fe  Fe56  1  0.37517131  0.87424402  0.87328579  1
  Fe  Fe57  1  0.12132523  0.12348347  0.37535217  1
  Fe  Fe58  1  -0.00239549  -0.00008213  -0.00569936  1
  Fe  Fe59  1  0.25062385  0.24998114  0.00013164  1
  Fe  Fe60  1  0.62661386  0.12481871  0.12440788  1
  Fe  Fe61  1  -0.00007120  0.50092047  0.24859017  1
  Fe  Fe62  1  0.62516392  0.62929580  0.12609464  1
  Fe  Fe63  1  0.12290588  0.62551613  0.12362148  1
  Fe  Fe64  1  0.12648318  0.37765750  0.62389569  1
  Fe  Fe65  1  0.37435931  0.62517990  0.37318163  1
  Fe  Fe66  1  0.37503701  0.87417375  0.12573021  1
  Fe  Fe67  1  -0.00569599  0.24782780  0.50245961  1
  Fe  Fe68  1  0.87592168  0.87501263  0.62909555  1
  Fe  Fe69  1  0.62683036  0.62946482  0.37482139  1
  Fe  Fe70  1  0.24610979  0.75115264  0.25117774  1
  Fe  Fe71  1  0.25189837  0.24725544  0.49949763  1
  Fe  Fe72  1  0.63221857  0.12455298  0.62228040  1
  Fe  Fe73  1  -0.00134733  0.50129744  0.50081594  1
  Fe  Fe74  1  0.24608246  0.74762219  0.49898463  1
  Fe  Fe75  1  0.12285020  0.12430822  0.62632775  1
  Fe  Fe76  1  0.50122447  0.50013155  0.74825118  1
  Fe  Fe77  1  0.62324251  0.62622930  0.87379989  1
  Fe  Fe78  1  0.87411663  0.62592761  0.62736324  1
  Fe  Fe79  1  0.37606376  0.12471173  0.87220686  1
  Fe  Fe80  1  0.25024591  0.74839704  -0.00195195  1
  Fe  Fe81  1  0.50054609  0.24994719  0.00141244  1
  Fe  Fe82  1  0.62608963  0.37652114  0.87686832  1
  Fe  Fe83  1  0.24766816  0.49989424  0.25135989  1
  Fe  Fe84  1  0.87515249  0.37537952  0.87278551  1
  Fe  Fe85  1  0.62835698  0.87392186  0.87893970  1
  Fe  Fe86  1  0.12426217  0.37612161  0.37813955  1
  Fe  Fe87  1  0.74975122  0.25232993  0.24908887  1
  Fe  Fe88  1  0.75012106  0.50204716  0.50005992  1
  Fe  Fe89  1  0.24753097  0.00005989  0.25075257  1
  Co  Co90  1  0.75150638  0.74620363  -0.00160844  1
  Co  Co91  1  0.37522863  0.12330903  0.37370066  1
  Co  Co92  1  -0.00253940  -0.00259893  0.25029250  1
  Co  Co93  1  0.75322807  0.00201042  0.00051880  1
  Co  Co94  1  0.62532484  0.87422396  0.37893835  1
  Co  Co95  1  0.75300119  0.25210631  0.49902061  1
  Co  Co96  1  0.87269714  0.12726331  0.37155917  1
  Co  Co97  1  0.25132828  0.50211528  0.49878090  1
  Co  Co98  1  0.00184903  0.75129274  0.24744086  1
  Co  Co99  1  0.12120805  0.62450906  0.37460914  1
  Co  Co100  1  0.25038930  0.50045227  0.75199588  1
  Co  Co101  1  0.49895177  0.75111015  0.00042172  1
  Co  Co102  1  0.12477270  0.12703797  0.87589833  1
  Co  Co103  1  0.12688966  0.87451014  0.87639536  1
  Co  Co104  1  0.74605751  -0.00326838  0.74971312  1
  Co  Co105  1  0.75225679  0.75005241  0.50172421  1
  Co  Co106  1  0.00075272  0.25125440  0.74738720  1
  Co  Co107  1  0.87686865  0.62722639  0.12526251  1
  Co  Co108  1  0.75169825  0.75244763  0.25002890  1
  Co  Co109  1  0.50273599  0.24774211  0.25138238  1
  Co  Co110  1  0.37433040  0.12379702  0.62827299  1
  Co  Co111  1  0.74732401  0.25198873  0.75187670  1
  Co  Co112  1  0.50241118  0.50212557  0.24974058  1
  Co  Co113  1  -0.00014976  0.49829372  0.74805669  1
  Co  Co114  1  0.87539142  0.37493884  0.12544033  1
  Co  Co115  1  0.62554191  0.62473704  0.62445777  1
  Co  Co116  1  0.75719440  -0.00193565  0.49761669  1
  Co  Co117  1  0.62565772  0.37451794  0.12393393  1
  Co  Co118  1  0.87090976  0.87417328  0.87218318  1
  Co  Co119  1  0.00093907  0.74814833  0.50366118  1
  Co  Co120  1  0.50355615  0.75355334  0.74892263  1
  Co  Co121  1  0.00241184  -0.00149882  0.75239491  1
  Co  Co122  1  0.74894205  0.50130726  0.75103034  1
  Co  Co123  1  -0.00411567  0.24814392  -0.00194592  1
  Co  Co124  1  0.50015437  0.75274197  0.25113383  1
  Co  Co125  1  0.00208821  0.75082824  0.75176495  1
  Co  Co126  1  0.87068981  0.12429192  0.63104097  1
  Co  Co127  1  0.12161455  0.62180300  0.87646120  1
