# generated using pymatgen
data_Fe45Co19
_symmetry_space_group_name_H-M   'P 1'
_cell_length_a   11.41472392
_cell_length_b   11.41546236
_cell_length_c   11.41509452
_cell_angle_alpha   89.99361625
_cell_angle_beta   89.99673515
_cell_angle_gamma   89.99381206
_symmetry_Int_Tables_number   1
_chemical_formula_structural   Fe45Co19
_chemical_formula_sum   'Fe90 Co38'
_cell_volume   1487.43646524
_cell_formula_units_Z   2
loop_
 _symmetry_equiv_pos_site_id
 _symmetry_equiv_pos_as_xyz
  1  'x, y, z'
loop_
 _atom_site_type_symbol
 _atom_site_label
 _atom_site_symmetry_multiplicity
 _atom_site_fract_x
 _atom_site_fract_y
 _atom_site_fract_z
 _atom_site_occupancy
  Fe  Fe0  1  0.25118034  0.75082662  0.49970664  1
  Fe  Fe1  1  0.87723966  0.87433461  0.12113464  1
  Fe  Fe2  1  0.12420929  0.37338399  0.12681239  1
  Fe  Fe3  1  0.62609594  0.12181803  0.87380437  1
  Fe  Fe4  1  0.75256660  0.25108567  0.74999248  1
  Fe  Fe5  1  0.24635770  0.49810130  0.49930790  1
  Fe  Fe6  1  0.49896971  0.74898722  0.74773745  1
  Fe  Fe7  1  0.87531401  0.37616703  0.37374281  1
  Fe  Fe8  1  0.37834014  0.37523609  0.12769720  1
  Fe  Fe9  1  0.75047088  0.75461204  -0.00519695  1
  Fe  Fe10  1  0.62278086  0.87460997  0.12302105  1
  Fe  Fe11  1  0.12646756  0.62745619  0.12630536  1
  Fe  Fe12  1  0.12267494  0.87400612  0.37654601  1
  Fe  Fe13  1  0.12271187  0.87690271  0.87714777  1
  Fe  Fe14  1  0.12636703  0.12443973  0.37502554  1
  Fe  Fe15  1  0.25146793  0.75362853  0.25079560  1
  Fe  Fe16  1  0.87271739  0.12207513  0.37416097  1
  Fe  Fe17  1  -0.00321041  0.50234703  0.00506447  1
  Fe  Fe18  1  -0.00309479  0.74984411  0.75102498  1
  Fe  Fe19  1  0.12275941  0.87202325  0.62350557  1
  Fe  Fe20  1  0.75051605  0.24848316  0.49895553  1
  Fe  Fe21  1  0.62483701  0.37404934  0.62485553  1
  Fe  Fe22  1  0.37983358  0.37591831  0.37437501  1
  Fe  Fe23  1  0.12447832  0.87601688  0.12186288  1
  Fe  Fe24  1  0.37613406  0.62682193  0.12741623  1
  Fe  Fe25  1  0.50147400  0.00037477  0.25000204  1
  Fe  Fe26  1  0.87346595  0.62417788  0.87615421  1
  Fe  Fe27  1  0.75167370  0.75333229  0.25398313  1
  Fe  Fe28  1  0.49987342  0.24808538  -0.00099528  1
  Fe  Fe29  1  0.74559431  0.24965223  0.25166214  1
  Fe  Fe30  1  -0.00300461  0.74919095  0.25125090  1
  Fe  Fe31  1  0.25106348  0.50018000  0.00095570  1
  Fe  Fe32  1  0.25102149  0.75229749  -0.00137066  1
  Fe  Fe33  1  0.00196858  0.50057778  0.49770542  1
  Fe  Fe34  1  0.62143286  0.37327769  0.12651018  1
  Fe  Fe35  1  0.12626394  0.62448281  0.87451417  1
  Fe  Fe36  1  0.49810187  0.75093079  -0.00019575  1
  Fe  Fe37  1  0.12746660  0.12316418  0.87543497  1
  Fe  Fe38  1  0.24722908  0.25311100  0.49839204  1
  Fe  Fe39  1  0.62697033  0.62538673  0.37496255  1
  Fe  Fe40  1  0.50423447  0.24586444  0.49963294  1
  Fe  Fe41  1  0.24920522  0.50018113  0.25196981  1
  Fe  Fe42  1  0.50077495  0.24803280  0.74809570  1
  Fe  Fe43  1  0.74858345  -0.00156473  0.24728150  1
  Fe  Fe44  1  0.25223370  0.24938118  0.25124209  1
  Fe  Fe45  1  0.37565143  0.62617749  0.37342097  1
  Fe  Fe46  1  -0.00754092  0.74804458  0.49698234  1
  Fe  Fe47  1  0.00060330  0.24630043  0.00039377  1
  Fe  Fe48  1  0.62642308  0.62493447  0.87387065  1
  Fe  Fe49  1  0.24997077  -0.00155225  0.74391352  1
  Fe  Fe50  1  0.37871869  0.87710225  0.38037173  1
  Fe  Fe51  1  0.49962014  0.00015648  0.00002342  1
  Fe  Fe52  1  0.00091980  0.49937847  0.74917523  1
  Fe  Fe53  1  0.37602775  0.12138323  0.37977947  1
  Fe  Fe54  1  0.75083155  0.49881822  0.74951856  1
  Fe  Fe55  1  0.74964827  0.49825295  0.24632100  1
  Fe  Fe56  1  0.37617534  0.37582668  0.62576148  1
  Fe  Fe57  1  0.37123048  0.62418144  0.62785956  1
  Fe  Fe58  1  0.37508340  0.87636720  0.87202636  1
  Fe  Fe59  1  0.50164161  0.50312832  0.50103224  1
  Fe  Fe60  1  0.37485080  0.12331278  0.12539307  1
  Fe  Fe61  1  -0.00185642  0.00102142  0.74827184  1
  Fe  Fe62  1  0.63099012  0.62864685  0.62564546  1
  Fe  Fe63  1  0.62673291  0.62827320  0.12514121  1
  Fe  Fe64  1  0.25095268  0.24991832  0.00069066  1
  Fe  Fe65  1  0.37367609  0.12371065  0.87239814  1
  Fe  Fe66  1  -0.00099528  0.00189608  0.50113466  1
  Fe  Fe67  1  -0.00037792  0.24754416  0.25077004  1
  Fe  Fe68  1  0.49849678  0.00128776  0.74294241  1
  Fe  Fe69  1  0.87512755  0.37617276  0.87826365  1
  Fe  Fe70  1  0.37639807  0.37797005  0.87248533  1
  Fe  Fe71  1  0.75096553  0.00005658  0.50300684  1
  Fe  Fe72  1  0.87229763  0.12200367  0.87606923  1
  Fe  Fe73  1  -0.00113415  0.50233059  0.24820151  1
  Fe  Fe74  1  0.88004371  0.37185191  0.62441458  1
  Fe  Fe75  1  0.12363848  0.37609166  0.87686807  1
  Fe  Fe76  1  0.24981093  -0.00189632  0.25079556  1
  Fe  Fe77  1  0.37345403  0.62308495  0.87170793  1
  Fe  Fe78  1  0.50122983  0.50158185  0.00038918  1
  Fe  Fe79  1  0.75214049  -0.00525587  0.75090032  1
  Fe  Fe80  1  0.74770020  0.25055097  0.00049647  1
  Fe  Fe81  1  0.75165610  0.49977254  0.50129002  1
  Fe  Fe82  1  0.62329668  0.87567622  0.37979574  1
  Fe  Fe83  1  0.62760203  0.87027661  0.62386035  1
  Fe  Fe84  1  0.12272770  0.13016226  0.62433949  1
  Fe  Fe85  1  0.12493800  0.62618203  0.62454099  1
  Fe  Fe86  1  0.87133454  0.12525169  0.12375968  1
  Fe  Fe87  1  0.24840316  0.25347106  0.74961940  1
  Fe  Fe88  1  0.62415221  0.37651531  0.87455252  1
  Fe  Fe89  1  0.00080973  0.00121324  0.24744912  1
  Co  Co90  1  0.74901986  -0.00409139  -0.00047235  1
  Co  Co91  1  0.75575977  0.74987617  0.49551649  1
  Co  Co92  1  0.74894045  0.49845615  0.00256492  1
  Co  Co93  1  0.62407014  0.37704629  0.37601914  1
  Co  Co94  1  0.63053768  0.12533740  0.62838631  1
  Co  Co95  1  0.12342976  0.37464169  0.37086536  1
  Co  Co96  1  0.24560798  0.49681818  0.74838604  1
  Co  Co97  1  0.50330779  0.50179070  0.74800117  1
  Co  Co98  1  0.25128861  -0.00095192  0.00003596  1
  Co  Co99  1  0.87408226  0.87356022  0.62421482  1
  Co  Co100  1  -0.00167288  0.24780212  0.49432082  1
  Co  Co101  1  0.37565073  0.87359224  0.62231318  1
  Co  Co102  1  0.62462724  0.12394552  0.12308443  1
  Co  Co103  1  0.87537905  0.37147692  0.12570602  1
  Co  Co104  1  0.87039203  0.62982933  0.12435177  1
  Co  Co105  1  0.50271161  0.00324324  0.50727739  1
  Co  Co106  1  0.87450145  0.62502337  0.62660052  1
  Co  Co107  1  0.61903397  0.87687991  0.87248698  1
  Co  Co108  1  0.75326006  0.75331515  0.75504001  1
  Co  Co109  1  0.50123541  0.75196986  0.25176195  1
  Co  Co110  1  0.50133631  0.24547620  0.25309485  1
  Co  Co111  1  0.12515732  0.62849057  0.37475521  1
  Co  Co112  1  0.49967403  0.74585824  0.50121600  1
  Co  Co113  1  0.50250266  0.50295897  0.25016718  1
  Co  Co114  1  0.62626959  0.12012514  0.37560315  1
  Co  Co115  1  0.00020754  0.00541940  0.00227255  1
  Co  Co116  1  0.87540541  0.12621206  0.62587955  1
  Co  Co117  1  0.87326971  0.62057078  0.37269229  1
  Co  Co118  1  0.88140828  0.87668377  0.87840349  1
  Co  Co119  1  0.24855724  0.75264729  0.75084907  1
  Co  Co120  1  0.00114637  0.74654716  -0.00081808  1
  Co  Co121  1  0.37583538  0.87647377  0.12533325  1
  Co  Co122  1  0.24589606  -0.00162572  0.50291706  1
  Co  Co123  1  0.87598478  0.88030049  0.37486861  1
  Co  Co124  1  0.11995127  0.37143040  0.62458660  1
  Co  Co125  1  0.37062901  0.12866215  0.62201773  1
  Co  Co126  1  -0.00127299  0.24849256  0.75593579  1
  Co  Co127  1  0.12900026  0.12524896  0.12613174  1
