# generated using pymatgen
data_Fe45Co19
_symmetry_space_group_name_H-M   'P 1'
_cell_length_a   11.41590112
_cell_length_b   11.41463828
_cell_length_c   11.41490698
_cell_angle_alpha   90.00949494
_cell_angle_beta   90.00332706
_cell_angle_gamma   90.00486568
_symmetry_Int_Tables_number   1
_chemical_formula_structural   Fe45Co19
_chemical_formula_sum   'Fe90 Co38'
_cell_volume   1487.45802971
_cell_formula_units_Z   2
loop_
 _symmetry_equiv_pos_site_id
 _symmetry_equiv_pos_as_xyz
  1  'x, y, z'
loop_
 _atom_site_type_symbol
 _atom_site_label
 _atom_site_symmetry_multiplicity
 _atom_site_fract_x
 _atom_site_fract_y
 _atom_site_fract_z
 _atom_site_occupancy
  Fe  Fe0  1  0.62798330  0.37424000  0.62137026  1
  Fe  Fe1  1  0.62514640  0.87600562  0.37690686  1
  Fe  Fe2  1  0.00230927  -0.00314643  0.74845607  1
  Fe  Fe3  1  0.62435161  0.12503020  0.62377739  1
  Fe  Fe4  1  0.12714397  0.37408421  0.37599796  1
  Fe  Fe5  1  0.75126877  0.74725212  0.00062092  1
  Fe  Fe6  1  0.00001921  0.50094643  -0.00102837  1
  Fe  Fe7  1  0.12303277  0.12337267  0.37618080  1
  Fe  Fe8  1  0.37565818  0.12560747  0.62706953  1
  Fe  Fe9  1  -0.00122794  0.25008873  0.49968951  1
  Fe  Fe10  1  0.25051282  0.50078574  0.50161443  1
  Fe  Fe11  1  0.87510751  0.37498236  0.12436555  1
  Fe  Fe12  1  0.74903352  0.50215177  0.49925543  1
  Fe  Fe13  1  0.75082571  0.24878900  0.25034980  1
  Fe  Fe14  1  0.87270697  0.37501829  0.62268597  1
  Fe  Fe15  1  0.75174729  0.00038088  0.50015385  1
  Fe  Fe16  1  0.24996133  0.24950276  0.75423556  1
  Fe  Fe17  1  0.12235280  0.62563199  0.62544269  1
  Fe  Fe18  1  0.74934172  0.00202885  0.24801601  1
  Fe  Fe19  1  -0.00026561  0.25257777  0.75202643  1
  Fe  Fe20  1  0.50084757  0.25224594  0.75218832  1
  Fe  Fe21  1  0.37655465  0.87661935  0.37508945  1
  Fe  Fe22  1  0.49967438  0.74755306  -0.00112230  1
  Fe  Fe23  1  0.25004657  0.50341005  0.00047648  1
  Fe  Fe24  1  0.00065503  0.25230584  -0.00318775  1
  Fe  Fe25  1  0.50126453  0.74990358  0.24920521  1
  Fe  Fe26  1  0.50090344  -0.00276830  0.75209236  1
  Fe  Fe27  1  0.87648886  0.12492535  0.87395769  1
  Fe  Fe28  1  0.62658771  0.37576561  0.12451681  1
  Fe  Fe29  1  0.25065177  0.00108556  0.50082451  1
  Fe  Fe30  1  0.49925204  0.25220922  -0.00170170  1
  Fe  Fe31  1  -0.00290615  0.75541361  0.50493391  1
  Fe  Fe32  1  0.12373788  0.62626424  0.37577178  1
  Fe  Fe33  1  0.25078433  0.74456955  -0.00224584  1
  Fe  Fe34  1  0.75002163  0.25163552  0.75085665  1
  Fe  Fe35  1  0.24905053  -0.00079024  0.24842449  1
  Fe  Fe36  1  0.50168079  0.49966345  0.25036953  1
  Fe  Fe37  1  0.12387515  0.87134534  0.87567844  1
  Fe  Fe38  1  0.50146065  0.75018944  0.50087249  1
  Fe  Fe39  1  -0.00100793  0.49824526  0.75070789  1
  Fe  Fe40  1  0.12221276  0.87703914  0.37701219  1
  Fe  Fe41  1  -0.00012628  0.49848547  0.49921657  1
  Fe  Fe42  1  0.25090490  0.25172466  0.24954389  1
  Fe  Fe43  1  0.37456459  0.87445265  0.62661245  1
  Fe  Fe44  1  0.74993966  0.74871573  0.50515907  1
  Fe  Fe45  1  0.25024608  0.00062538  0.75342974  1
  Fe  Fe46  1  0.25044271  0.00096447  -0.00204354  1
  Fe  Fe47  1  0.25074191  0.74905906  0.49974717  1
  Fe  Fe48  1  0.37646117  0.12569637  0.12404661  1
  Fe  Fe49  1  0.74610987  -0.00097623  0.75124023  1
  Fe  Fe50  1  0.87495431  0.12385542  0.62682375  1
  Fe  Fe51  1  0.87285183  0.87220326  0.87147181  1
  Fe  Fe52  1  0.37469765  0.87322874  0.12380011  1
  Fe  Fe53  1  0.87504626  0.87513483  0.12651170  1
  Fe  Fe54  1  0.49925103  -0.00068213  -0.00024745  1
  Fe  Fe55  1  0.37548302  0.12373039  0.37428152  1
  Fe  Fe56  1  0.12497048  0.12533261  0.62480257  1
  Fe  Fe57  1  0.24862633  0.49962027  0.24756607  1
  Fe  Fe58  1  0.87618591  0.62438274  0.12649019  1
  Fe  Fe59  1  0.49900089  0.50159680  0.00071228  1
  Fe  Fe60  1  0.37830308  0.62571081  0.62736257  1
  Fe  Fe61  1  0.37517367  0.62403535  0.37311088  1
  Fe  Fe62  1  -0.00151346  -0.00137691  0.00059624  1
  Fe  Fe63  1  0.12414012  0.87195642  0.12263518  1
  Fe  Fe64  1  0.12272346  0.12592795  0.12370312  1
  Fe  Fe65  1  0.74896959  0.74897160  0.24958499  1
  Fe  Fe66  1  0.00113974  0.49906736  0.25077154  1
  Fe  Fe67  1  0.62295129  0.12439430  0.37532433  1
  Fe  Fe68  1  0.87852750  0.12179891  0.37410032  1
  Fe  Fe69  1  0.87435174  0.62646958  0.87000920  1
  Fe  Fe70  1  0.12716959  0.37354890  0.62580139  1
  Fe  Fe71  1  0.62507791  0.87532428  0.12322335  1
  Fe  Fe72  1  0.24879805  0.74646154  0.75187538  1
  Fe  Fe73  1  0.62409366  0.12438308  0.87669459  1
  Fe  Fe74  1  0.50053526  0.49713895  0.75036334  1
  Fe  Fe75  1  0.24867413  0.74998397  0.25055158  1
  Fe  Fe76  1  0.50505109  0.75303635  0.75165110  1
  Fe  Fe77  1  0.25007164  0.25018103  -0.00308439  1
  Fe  Fe78  1  0.50018889  0.49904391  0.49789606  1
  Fe  Fe79  1  0.75142294  0.00264329  0.00189174  1
  Fe  Fe80  1  0.75129990  0.24890405  0.00006714  1
  Fe  Fe81  1  0.00020449  0.75155782  0.24946838  1
  Fe  Fe82  1  0.49914156  0.25210736  0.25053059  1
  Fe  Fe83  1  0.37255966  0.37373004  0.62529452  1
  Fe  Fe84  1  0.62778074  0.62326320  0.87375452  1
  Fe  Fe85  1  0.49838792  0.25066973  0.49862248  1
  Fe  Fe86  1  0.74861274  0.50148838  0.25128249  1
  Fe  Fe87  1  0.87563893  0.62694455  0.37698535  1
  Fe  Fe88  1  -0.00003339  0.25182556  0.25045005  1
  Fe  Fe89  1  0.62879830  0.37732713  0.87665516  1
  Co  Co90  1  -0.00354080  0.74838343  0.00002632  1
  Co  Co91  1  0.75249532  0.50246958  0.00055547  1
  Co  Co92  1  0.49739351  0.00071962  0.50106910  1
  Co  Co93  1  0.12348153  0.62643695  0.12577136  1
  Co  Co94  1  0.37513615  0.62558050  0.12816190  1
  Co  Co95  1  0.37390786  0.87339527  0.87536191  1
  Co  Co96  1  0.75105927  0.49856439  0.74888259  1
  Co  Co97  1  0.00009758  0.75188675  0.74626475  1
  Co  Co98  1  0.87072253  0.87711604  0.62954020  1
  Co  Co99  1  0.87623514  0.62284297  0.62588837  1
  Co  Co100  1  0.87340166  0.37504462  0.87653560  1
  Co  Co101  1  0.62684763  0.37383032  0.37583634  1
  Co  Co102  1  0.24975552  0.50309740  0.74748442  1
  Co  Co103  1  -0.00039861  -0.00254516  0.50420208  1
  Co  Co104  1  0.00119454  -0.00164657  0.24685375  1
  Co  Co105  1  0.62783071  0.87494054  0.87931537  1
  Co  Co106  1  0.87344251  0.37610065  0.37541958  1
  Co  Co107  1  0.13007014  0.87461758  0.62578488  1
  Co  Co108  1  0.62491507  0.87825215  0.62192630  1
  Co  Co109  1  0.37772034  0.62365657  0.87128823  1
  Co  Co110  1  0.37208414  0.37745994  0.87488760  1
  Co  Co111  1  0.12154131  0.62468688  0.87322058  1
  Co  Co112  1  0.62494692  0.62481996  0.12437461  1
  Co  Co113  1  0.37790438  0.12486445  0.87486304  1
  Co  Co114  1  0.12808953  0.37812732  0.87434223  1
  Co  Co115  1  0.62526249  0.62706222  0.37591379  1
  Co  Co116  1  0.75214999  0.24659776  0.49859941  1
  Co  Co117  1  0.37309038  0.37716914  0.37508812  1
  Co  Co118  1  0.74554042  0.74894580  0.74608414  1
  Co  Co119  1  0.25089024  0.24876557  0.49912982  1
  Co  Co120  1  0.87818218  0.12706543  0.12472167  1
  Co  Co121  1  0.50018389  -0.00122854  0.24800807  1
  Co  Co122  1  0.12207059  0.12407900  0.87517129  1
  Co  Co123  1  0.87357683  0.87516512  0.37421983  1
  Co  Co124  1  0.62265195  0.12634413  0.12399099  1
  Co  Co125  1  0.37515098  0.37576731  0.12340717  1
  Co  Co126  1  0.12494900  0.37452052  0.12315556  1
  Co  Co127  1  0.62252825  0.62121437  0.62640830  1
