# generated using pymatgen
data_Fe45Co19
_symmetry_space_group_name_H-M   'P 1'
_cell_length_a   11.41479015
_cell_length_b   11.41514392
_cell_length_c   11.41399418
_cell_angle_alpha   90.00120945
_cell_angle_beta   90.00096375
_cell_angle_gamma   90.00648120
_symmetry_Int_Tables_number   1
_chemical_formula_structural   Fe45Co19
_chemical_formula_sum   'Fe90 Co38'
_cell_volume   1487.26023748
_cell_formula_units_Z   2
loop_
 _symmetry_equiv_pos_site_id
 _symmetry_equiv_pos_as_xyz
  1  'x, y, z'
loop_
 _atom_site_type_symbol
 _atom_site_label
 _atom_site_symmetry_multiplicity
 _atom_site_fract_x
 _atom_site_fract_y
 _atom_site_fract_z
 _atom_site_occupancy
  Fe  Fe0  1  0.12147724  0.37277366  0.87662252  1
  Fe  Fe1  1  0.74762553  0.49690143  0.50546794  1
  Fe  Fe2  1  0.25007471  0.49864851  0.74948167  1
  Fe  Fe3  1  0.12763343  0.12437446  0.37542350  1
  Fe  Fe4  1  0.87048471  0.13006238  0.87457268  1
  Fe  Fe5  1  0.12373530  0.62559348  0.62649637  1
  Fe  Fe6  1  0.75059420  0.75058590  0.74737198  1
  Fe  Fe7  1  -0.00083005  0.75195154  0.74845743  1
  Fe  Fe8  1  0.37562931  0.62675324  0.12844458  1
  Fe  Fe9  1  0.62549743  0.37213312  0.37648995  1
  Fe  Fe10  1  0.12180171  0.37260430  0.37470127  1
  Fe  Fe11  1  0.12413531  0.87546075  0.87534056  1
  Fe  Fe12  1  0.75321405  0.25424009  0.74142315  1
  Fe  Fe13  1  0.24923613  0.49874452  0.25135113  1
  Fe  Fe14  1  0.37609416  0.37376783  0.37542316  1
  Fe  Fe15  1  0.62619012  0.87436314  0.87656241  1
  Fe  Fe16  1  0.25074243  -0.00353974  0.74955174  1
  Fe  Fe17  1  -0.00344479  0.00108985  0.25141034  1
  Fe  Fe18  1  0.37861752  0.87307895  0.12613365  1
  Fe  Fe19  1  -0.00497046  0.49914562  0.75451793  1
  Fe  Fe20  1  0.62802603  0.62376811  0.37533049  1
  Fe  Fe21  1  0.50223774  0.24682041  0.25139303  1
  Fe  Fe22  1  0.12409325  0.62779809  0.37137162  1
  Fe  Fe23  1  -0.00244673  0.75111777  0.49846259  1
  Fe  Fe24  1  0.62508741  0.37762348  0.12581405  1
  Fe  Fe25  1  0.62183905  0.87550155  0.62588247  1
  Fe  Fe26  1  0.25097904  -0.00239462  0.24955734  1
  Fe  Fe27  1  0.12681426  0.12136931  0.62386253  1
  Fe  Fe28  1  0.75117220  0.75045605  0.25045405  1
  Fe  Fe29  1  0.37657418  0.87684142  0.62430424  1
  Fe  Fe30  1  0.00067098  0.74980604  0.00064474  1
  Fe  Fe31  1  0.62782200  0.12313594  0.12595926  1
  Fe  Fe32  1  0.87347596  0.12638777  0.12229921  1
  Fe  Fe33  1  -0.00239854  0.00201556  -0.00226030  1
  Fe  Fe34  1  -0.00229504  0.24517501  0.50168490  1
  Fe  Fe35  1  0.25041312  0.75123422  0.49944609  1
  Fe  Fe36  1  0.00093047  0.50316373  0.49697920  1
  Fe  Fe37  1  0.12399186  0.62595652  0.87463828  1
  Fe  Fe38  1  0.87706887  0.87927261  0.62248368  1
  Fe  Fe39  1  -0.00051727  0.00185869  0.75040881  1
  Fe  Fe40  1  0.87416676  0.62406337  0.62398570  1
  Fe  Fe41  1  0.87931232  0.37274161  0.12359022  1
  Fe  Fe42  1  0.25067143  -0.00232097  0.00103400  1
  Fe  Fe43  1  0.25169373  0.24931183  0.50165296  1
  Fe  Fe44  1  0.50109510  0.00247565  0.75233299  1
  Fe  Fe45  1  0.50067329  0.24411422  0.49927701  1
  Fe  Fe46  1  0.12208672  0.87486237  0.37411767  1
  Fe  Fe47  1  0.62621435  0.88012906  0.37057551  1
  Fe  Fe48  1  0.62771410  0.37523072  0.87136094  1
  Fe  Fe49  1  0.24955646  0.50096883  0.49858502  1
  Fe  Fe50  1  0.37774870  0.87467418  0.37153220  1
  Fe  Fe51  1  0.86825291  0.12107456  0.38102586  1
  Fe  Fe52  1  0.87570741  0.62488489  0.12478916  1
  Fe  Fe53  1  0.74892787  -0.00125265  0.74976116  1
  Fe  Fe54  1  0.24785062  0.49870268  0.00235787  1
  Fe  Fe55  1  0.75158575  0.25009022  0.25030485  1
  Fe  Fe56  1  0.11878065  0.37300879  0.12614322  1
  Fe  Fe57  1  0.75276033  0.49898570  0.25097764  1
  Fe  Fe58  1  0.50407322  0.24920662  -0.00114811  1
  Fe  Fe59  1  0.50033015  0.00545156  0.49766550  1
  Fe  Fe60  1  0.62967930  0.62373126  0.87220514  1
  Fe  Fe61  1  0.24933841  0.25140466  0.24885756  1
  Fe  Fe62  1  0.50395598  0.74761543  0.00124770  1
  Fe  Fe63  1  0.87625572  0.37505049  0.37786589  1
  Fe  Fe64  1  0.37475711  0.12660551  0.12457117  1
  Fe  Fe65  1  0.75430888  0.49885416  -0.00331790  1
  Fe  Fe66  1  0.37590148  0.62484928  0.62433167  1
  Fe  Fe67  1  0.50117078  0.50195066  0.50077140  1
  Fe  Fe68  1  0.62625553  0.87746801  0.12567261  1
  Fe  Fe69  1  0.12209760  0.62624259  0.12823173  1
  Fe  Fe70  1  0.37499407  0.37463181  0.87606784  1
  Fe  Fe71  1  0.12688206  0.12580980  0.87585132  1
  Fe  Fe72  1  0.24839174  0.75257255  0.00189462  1
  Fe  Fe73  1  0.12409413  0.12467196  0.12527100  1
  Fe  Fe74  1  0.49911725  0.74847726  0.75155004  1
  Fe  Fe75  1  0.24852916  0.25149098  0.74881112  1
  Fe  Fe76  1  0.25046539  0.75277944  0.74899711  1
  Fe  Fe77  1  0.37277609  0.12576363  0.87590757  1
  Fe  Fe78  1  0.12069483  0.37544392  0.62412296  1
  Fe  Fe79  1  0.50042873  0.50205591  0.25222410  1
  Fe  Fe80  1  0.87357719  0.87277459  0.87686994  1
  Fe  Fe81  1  0.50119752  0.50127933  -0.00152157  1
  Fe  Fe82  1  0.50252005  0.00221158  -0.00209783  1
  Fe  Fe83  1  0.87471688  0.87530795  0.12306226  1
  Fe  Fe84  1  0.74937911  0.75344299  0.49977943  1
  Fe  Fe85  1  0.50181490  0.74903696  0.49696777  1
  Fe  Fe86  1  0.49973403  0.24754855  0.74989820  1
  Fe  Fe87  1  0.37695277  0.37392948  0.12474090  1
  Fe  Fe88  1  0.37320360  0.62547419  0.87614793  1
  Fe  Fe89  1  0.37763620  0.37528372  0.62485500  1
  Co  Co90  1  -0.00183604  0.50067162  -0.00222240  1
  Co  Co91  1  0.49932095  0.00412273  0.24988798  1
  Co  Co92  1  0.62700197  0.12531630  0.62523685  1
  Co  Co93  1  -0.00376857  0.24513268  0.25378568  1
  Co  Co94  1  0.00107012  0.24679692  -0.00097841  1
  Co  Co95  1  -0.00111952  0.50074171  0.25197773  1
  Co  Co96  1  0.87514779  0.36793257  0.87639684  1
  Co  Co97  1  0.61904404  0.37349045  0.62612535  1
  Co  Co98  1  0.37306442  0.12320725  0.62696589  1
  Co  Co99  1  0.63029880  0.12805387  0.87240416  1
  Co  Co100  1  -0.00564591  0.75171200  0.25172471  1
  Co  Co101  1  0.74395314  -0.00390057  0.50409676  1
  Co  Co102  1  0.24946276  0.75305361  0.25020110  1
  Co  Co103  1  0.87380675  0.62935686  0.87447198  1
  Co  Co104  1  0.00007423  0.24656161  0.74668687  1
  Co  Co105  1  0.87164515  0.62329666  0.37704463  1
  Co  Co106  1  0.50612205  0.74759634  0.25017680  1
  Co  Co107  1  0.74620382  0.25173524  0.00387192  1
  Co  Co108  1  0.87334396  0.87919829  0.37704658  1
  Co  Co109  1  0.62556209  0.62682327  0.62583230  1
  Co  Co110  1  0.88199057  0.37805833  0.62194667  1
  Co  Co111  1  0.37142096  0.12609748  0.37253730  1
  Co  Co112  1  0.63162954  0.12420881  0.37448750  1
  Co  Co113  1  0.49971476  0.50243007  0.75071451  1
  Co  Co114  1  0.74793019  0.74936726  0.00218710  1
  Co  Co115  1  0.25202295  -0.00310824  0.49805379  1
  Co  Co116  1  0.75351092  0.00016484  0.24656549  1
  Co  Co117  1  0.00228581  0.00042888  0.49887026  1
  Co  Co118  1  0.37488741  0.62535565  0.37340603  1
  Co  Co119  1  0.74982411  0.00061870  -0.00216483  1
  Co  Co120  1  0.37648279  0.87455924  0.87704844  1
  Co  Co121  1  0.75358943  0.49763411  0.74758945  1
  Co  Co122  1  0.87279515  0.11959362  0.62274488  1
  Co  Co123  1  0.62834450  0.62031115  0.12585051  1
  Co  Co124  1  0.24812286  0.25163286  0.00141452  1
  Co  Co125  1  0.12095868  0.87697062  0.12608512  1
  Co  Co126  1  0.75073651  0.25347513  0.50429692  1
  Co  Co127  1  0.12389571  0.87549949  0.62391472  1
