# generated using pymatgen
data_Fe45Co19
_symmetry_space_group_name_H-M   'P 1'
_cell_length_a   11.41477988
_cell_length_b   11.41488554
_cell_length_c   11.41589434
_cell_angle_alpha   90.00011459
_cell_angle_beta   90.00805286
_cell_angle_gamma   89.99924978
_symmetry_Int_Tables_number   1
_chemical_formula_structural   Fe45Co19
_chemical_formula_sum   'Fe90 Co38'
_cell_volume   1487.47281814
_cell_formula_units_Z   2
loop_
 _symmetry_equiv_pos_site_id
 _symmetry_equiv_pos_as_xyz
  1  'x, y, z'
loop_
 _atom_site_type_symbol
 _atom_site_label
 _atom_site_symmetry_multiplicity
 _atom_site_fract_x
 _atom_site_fract_y
 _atom_site_fract_z
 _atom_site_occupancy
  Fe  Fe0  1  0.37128610  0.87494051  0.37270122  1
  Fe  Fe1  1  0.87523517  0.37817822  0.37351320  1
  Fe  Fe2  1  0.24639818  0.50186777  0.00093732  1
  Fe  Fe3  1  0.50041528  0.25124430  0.50360121  1
  Fe  Fe4  1  0.62750444  0.62460190  0.12132076  1
  Fe  Fe5  1  0.49825232  0.00053863  0.24910279  1
  Fe  Fe6  1  0.62528495  0.12677630  0.12546163  1
  Fe  Fe7  1  0.00406284  -0.00220860  0.25011333  1
  Fe  Fe8  1  0.50069288  0.75173795  -0.00191182  1
  Fe  Fe9  1  -0.00091102  0.74962324  0.75230417  1
  Fe  Fe10  1  0.37411191  0.37676608  0.12384897  1
  Fe  Fe11  1  0.49934940  -0.00141834  0.49953133  1
  Fe  Fe12  1  0.87530556  0.12315166  0.12399687  1
  Fe  Fe13  1  0.49899100  0.00031728  0.00174340  1
  Fe  Fe14  1  0.49850417  0.75141551  0.74933404  1
  Fe  Fe15  1  0.24642031  0.00128336  0.49912227  1
  Fe  Fe16  1  0.24999143  0.50791209  0.24764454  1
  Fe  Fe17  1  0.24500944  0.50095537  0.74856176  1
  Fe  Fe18  1  0.87736858  0.12511363  0.37493019  1
  Fe  Fe19  1  0.87547323  0.87372663  0.12534990  1
  Fe  Fe20  1  0.37518049  0.62275969  0.87635226  1
  Fe  Fe21  1  0.75124100  0.75062337  0.49976641  1
  Fe  Fe22  1  0.62581912  0.62430691  0.62637916  1
  Fe  Fe23  1  0.87416750  0.87674168  0.87615211  1
  Fe  Fe24  1  0.37327897  0.37518002  0.87458339  1
  Fe  Fe25  1  0.87989731  0.37264821  0.62641874  1
  Fe  Fe26  1  0.24866566  0.24794733  0.75193149  1
  Fe  Fe27  1  0.62718739  0.37457319  0.37347673  1
  Fe  Fe28  1  0.37314592  0.37777389  0.37543315  1
  Fe  Fe29  1  0.12143774  0.62623524  0.87673490  1
  Fe  Fe30  1  0.24626960  0.24940422  0.49985280  1
  Fe  Fe31  1  0.25118561  0.00116077  0.00178592  1
  Fe  Fe32  1  0.49818022  -0.00024305  0.74899417  1
  Fe  Fe33  1  0.00158054  -0.00171569  0.00199275  1
  Fe  Fe34  1  0.25107214  0.25035163  0.24828433  1
  Fe  Fe35  1  0.87676985  0.87594475  0.37494926  1
  Fe  Fe36  1  0.87958244  0.37424654  0.87411427  1
  Fe  Fe37  1  0.62773124  0.37470601  0.12663057  1
  Fe  Fe38  1  0.00472990  0.00209020  0.49801726  1
  Fe  Fe39  1  0.75240714  0.00195981  0.74950099  1
  Fe  Fe40  1  0.62524265  0.87625762  0.62626548  1
  Fe  Fe41  1  0.62626121  0.87273636  0.12699581  1
  Fe  Fe42  1  0.49874988  0.75206147  0.50179018  1
  Fe  Fe43  1  0.49656540  0.74633513  0.25009548  1
  Fe  Fe44  1  0.49874691  0.25103373  0.25000471  1
  Fe  Fe45  1  0.12466587  0.37555582  0.12485097  1
  Fe  Fe46  1  0.75156595  0.75120994  0.75118808  1
  Fe  Fe47  1  0.24589781  0.50120698  0.50274003  1
  Fe  Fe48  1  0.12771679  0.86669267  0.12790990  1
  Fe  Fe49  1  0.62513999  0.12621961  0.37480975  1
  Fe  Fe50  1  0.87316761  0.38062949  0.12619120  1
  Fe  Fe51  1  0.74793100  -0.00228852  -0.00014066  1
  Fe  Fe52  1  0.74973094  0.49944499  0.50108671  1
  Fe  Fe53  1  0.62395868  0.12554955  0.87360817  1
  Fe  Fe54  1  0.62398016  0.62501741  0.37696084  1
  Fe  Fe55  1  0.12524012  0.37666453  0.37230534  1
  Fe  Fe56  1  0.25033727  0.75078381  0.75157436  1
  Fe  Fe57  1  0.00028446  0.00390531  0.75059374  1
  Fe  Fe58  1  0.62524096  0.37196471  0.87174272  1
  Fe  Fe59  1  0.75606390  0.74401683  0.25033170  1
  Fe  Fe60  1  -0.00222206  0.25178062  0.24913945  1
  Fe  Fe61  1  0.12198674  0.37241810  0.87436360  1
  Fe  Fe62  1  0.12400107  0.12655309  0.87911121  1
  Fe  Fe63  1  0.12584242  0.12757519  0.12536446  1
  Fe  Fe64  1  0.50005493  0.49828713  0.74897022  1
  Fe  Fe65  1  0.37140018  0.37535033  0.62635240  1
  Fe  Fe66  1  0.87723442  0.62525896  0.62510165  1
  Fe  Fe67  1  0.75336469  0.50032958  0.75173869  1
  Fe  Fe68  1  0.00416258  0.49841372  0.50376870  1
  Fe  Fe69  1  0.50228351  0.49777893  -0.00116909  1
  Fe  Fe70  1  0.37367944  0.62533433  0.62504842  1
  Fe  Fe71  1  0.37261326  0.12498914  0.37271841  1
  Fe  Fe72  1  0.12577634  0.87466261  0.62574954  1
  Fe  Fe73  1  0.62567839  0.87285498  0.37252315  1
  Fe  Fe74  1  0.37410503  0.87709205  0.87507620  1
  Fe  Fe75  1  0.50120864  0.49710130  0.50297885  1
  Fe  Fe76  1  0.62701158  0.62606318  0.87512586  1
  Fe  Fe77  1  0.49990590  0.50130398  0.24923849  1
  Fe  Fe78  1  0.37116396  0.87129258  0.12624252  1
  Fe  Fe79  1  0.49651850  0.24962943  -0.00088556  1
  Fe  Fe80  1  0.75288028  0.25080833  0.00090836  1
  Fe  Fe81  1  0.74954838  -0.00033273  0.49949004  1
  Fe  Fe82  1  0.74993094  0.00090526  0.25104782  1
  Fe  Fe83  1  0.87736067  0.87702849  0.62432164  1
  Fe  Fe84  1  0.37253955  0.12398999  0.62679636  1
  Fe  Fe85  1  0.75032041  0.24977954  0.50133729  1
  Fe  Fe86  1  0.12550545  0.87560682  0.87603186  1
  Fe  Fe87  1  0.75333133  0.24640332  0.74788328  1
  Fe  Fe88  1  0.00119069  0.75037397  0.49777818  1
  Fe  Fe89  1  0.24952929  0.74843301  0.49789604  1
  Co  Co90  1  0.62523883  0.12336630  0.62564845  1
  Co  Co91  1  0.25222904  0.74114525  0.25313213  1
  Co  Co92  1  0.87733163  0.62224600  0.11775002  1
  Co  Co93  1  0.87559674  0.62537501  0.87879207  1
  Co  Co94  1  0.25112608  0.25055251  -0.00011165  1
  Co  Co95  1  0.12018240  0.63103071  0.12262302  1
  Co  Co96  1  0.87790580  0.12481320  0.62042866  1
  Co  Co97  1  0.12348871  0.12700022  0.62567571  1
  Co  Co98  1  0.37493096  0.12467811  0.87372480  1
  Co  Co99  1  0.37382359  0.12629772  0.12610358  1
  Co  Co100  1  0.12726335  0.87240307  0.37245834  1
  Co  Co101  1  0.00094822  0.50274293  0.24775915  1
  Co  Co102  1  0.24652499  0.00073737  0.75087816  1
  Co  Co103  1  0.00246636  0.49754626  -0.00145755  1
  Co  Co104  1  0.37620787  0.62516950  0.11930220  1
  Co  Co105  1  0.75085925  0.75297676  -0.00070743  1
  Co  Co106  1  0.12415649  0.62949795  0.62582056  1
  Co  Co107  1  -0.00220752  0.75312691  -0.00200929  1
  Co  Co108  1  -0.00422838  0.74706995  0.25207353  1
  Co  Co109  1  0.87553756  0.12365530  0.88008029  1
  Co  Co110  1  0.74957336  0.50556322  0.25096718  1
  Co  Co111  1  0.12240624  0.37035157  0.62863885  1
  Co  Co112  1  -0.00105300  0.24424460  0.75194817  1
  Co  Co113  1  0.12536234  0.12763745  0.37013502  1
  Co  Co114  1  0.00151081  0.50287013  0.74951951  1
  Co  Co115  1  0.62787417  0.37539591  0.62783979  1
  Co  Co116  1  -0.00213276  0.25174150  0.00375998  1
  Co  Co117  1  0.12183578  0.62397918  0.37554744  1
  Co  Co118  1  0.49787907  0.25107219  0.74683817  1
  Co  Co119  1  0.87856638  0.62083103  0.37979257  1
  Co  Co120  1  0.25048479  0.74817110  -0.00394499  1
  Co  Co121  1  0.37726587  0.62151466  0.37954316  1
  Co  Co122  1  0.24783069  0.00000108  0.24785055  1
  Co  Co123  1  0.74935537  0.49719443  -0.00371183  1
  Co  Co124  1  0.37110637  0.87569718  0.62499869  1
  Co  Co125  1  0.75290943  0.24893717  0.25019018  1
  Co  Co126  1  0.62461351  0.87670102  0.87295293  1
  Co  Co127  1  0.00255961  0.25138468  0.49565960  1
