# generated using pymatgen
data_Fe45Co19
_symmetry_space_group_name_H-M   'P 1'
_cell_length_a   11.41632842
_cell_length_b   11.41522245
_cell_length_c   11.41426645
_cell_angle_alpha   89.99034213
_cell_angle_beta   89.99199532
_cell_angle_gamma   89.99676129
_symmetry_Int_Tables_number   1
_chemical_formula_structural   Fe45Co19
_chemical_formula_sum   'Fe90 Co38'
_cell_volume   1487.50634808
_cell_formula_units_Z   2
loop_
 _symmetry_equiv_pos_site_id
 _symmetry_equiv_pos_as_xyz
  1  'x, y, z'
loop_
 _atom_site_type_symbol
 _atom_site_label
 _atom_site_symmetry_multiplicity
 _atom_site_fract_x
 _atom_site_fract_y
 _atom_site_fract_z
 _atom_site_occupancy
  Fe  Fe0  1  0.75175518  0.24704188  0.25238022  1
  Fe  Fe1  1  0.75353388  0.75201653  0.25302621  1
  Fe  Fe2  1  0.12739243  0.37077938  0.12971896  1
  Fe  Fe3  1  0.12371583  0.62508533  0.87416218  1
  Fe  Fe4  1  0.87386604  0.62600505  0.12414226  1
  Fe  Fe5  1  0.24708690  0.00067552  -0.00252588  1
  Fe  Fe6  1  0.87415706  0.12333095  0.62039780  1
  Fe  Fe7  1  0.87613820  0.87753155  0.87640654  1
  Fe  Fe8  1  0.24774364  0.00053143  0.49930184  1
  Fe  Fe9  1  0.25067534  0.74569157  0.25495511  1
  Fe  Fe10  1  0.62641771  0.62809588  0.12683553  1
  Fe  Fe11  1  0.37480089  0.62629604  0.61980925  1
  Fe  Fe12  1  0.25053412  0.24743791  -0.00039386  1
  Fe  Fe13  1  -0.00033278  0.00129680  0.74792224  1
  Fe  Fe14  1  0.24625892  0.50323522  0.49527538  1
  Fe  Fe15  1  0.87411640  0.62358562  0.87546650  1
  Fe  Fe16  1  0.50173497  0.49950112  0.00136946  1
  Fe  Fe17  1  0.12548726  0.62599755  0.62475900  1
  Fe  Fe18  1  -0.00290381  0.75164264  0.74962892  1
  Fe  Fe19  1  0.75019208  0.00063744  0.25190335  1
  Fe  Fe20  1  0.12857251  0.12683010  0.62535255  1
  Fe  Fe21  1  0.75177554  0.25131393  0.74792291  1
  Fe  Fe22  1  0.49913921  0.74947682  0.25321539  1
  Fe  Fe23  1  0.12562471  0.37313164  0.87325050  1
  Fe  Fe24  1  0.37755438  0.12264001  0.12490085  1
  Fe  Fe25  1  0.62276615  0.12739039  0.62385221  1
  Fe  Fe26  1  0.74649498  0.00181940  0.00023041  1
  Fe  Fe27  1  -0.00151418  0.24994563  0.74843449  1
  Fe  Fe28  1  0.62659768  0.37332402  0.12810284  1
  Fe  Fe29  1  0.74765362  0.49819981  0.50247601  1
  Fe  Fe30  1  0.50180829  0.24965033  0.00226747  1
  Fe  Fe31  1  0.87241394  0.37399997  0.87668028  1
  Fe  Fe32  1  0.49994774  0.75131313  -0.00043827  1
  Fe  Fe33  1  0.25393115  0.00382349  0.75351638  1
  Fe  Fe34  1  0.37577970  0.37620386  0.62173742  1
  Fe  Fe35  1  0.62749479  0.62813648  0.62751154  1
  Fe  Fe36  1  0.61967163  0.87738187  0.87202908  1
  Fe  Fe37  1  0.50546438  0.50162641  0.49865378  1
  Fe  Fe38  1  0.37330038  0.87519921  0.12465763  1
  Fe  Fe39  1  0.24867323  0.00262400  0.25037378  1
  Fe  Fe40  1  0.00099760  0.24700622  0.49680413  1
  Fe  Fe41  1  0.37872318  0.12233231  0.37494039  1
  Fe  Fe42  1  0.74789465  0.24858629  0.49753825  1
  Fe  Fe43  1  0.62219441  0.12382840  0.12958428  1
  Fe  Fe44  1  0.62612727  0.87427032  0.12716302  1
  Fe  Fe45  1  0.87340234  0.37532142  0.37586647  1
  Fe  Fe46  1  0.62611891  0.87425894  0.37612813  1
  Fe  Fe47  1  -0.00089873  0.25106131  0.00228420  1
  Fe  Fe48  1  0.12693719  0.87535478  0.62782782  1
  Fe  Fe49  1  0.87530634  0.62399887  0.37609676  1
  Fe  Fe50  1  0.25395805  0.24763032  0.75137375  1
  Fe  Fe51  1  0.74891210  0.75193504  -0.00319212  1
  Fe  Fe52  1  0.62203968  0.12443874  0.87320919  1
  Fe  Fe53  1  0.25296449  0.75019782  0.75153942  1
  Fe  Fe54  1  0.24768741  0.50000293  0.00136619  1
  Fe  Fe55  1  -0.00223205  0.49726846  0.74826644  1
  Fe  Fe56  1  0.00046232  0.49737181  0.00265610  1
  Fe  Fe57  1  0.75003548  -0.00094795  0.74749565  1
  Fe  Fe58  1  0.00008022  0.49786337  0.24882001  1
  Fe  Fe59  1  0.12375668  0.62784355  0.12690127  1
  Fe  Fe60  1  0.49556970  0.24846675  0.74815287  1
  Fe  Fe61  1  0.37411981  0.37776834  0.12892657  1
  Fe  Fe62  1  0.12388108  0.87560276  0.37426620  1
  Fe  Fe63  1  0.50036967  0.25098033  0.49552209  1
  Fe  Fe64  1  0.87610087  0.12397894  0.12563462  1
  Fe  Fe65  1  0.62539407  0.62298072  0.87071656  1
  Fe  Fe66  1  0.37622745  0.37542013  0.87586709  1
  Fe  Fe67  1  -0.00390806  0.75548510  0.24853424  1
  Fe  Fe68  1  0.24968287  0.75156646  -0.00306279  1
  Fe  Fe69  1  0.37487939  0.87405202  0.37742415  1
  Fe  Fe70  1  0.62518184  0.87109138  0.62611808  1
  Fe  Fe71  1  0.87551326  0.12416240  0.87710617  1
  Fe  Fe72  1  0.37641846  0.38042137  0.37078525  1
  Fe  Fe73  1  0.37540400  0.87391707  0.62408806  1
  Fe  Fe74  1  0.00115518  0.49930671  0.50050362  1
  Fe  Fe75  1  0.87207453  0.62615425  0.62573115  1
  Fe  Fe76  1  0.00075619  0.75363240  0.00189886  1
  Fe  Fe77  1  0.00466610  -0.00235304  0.00468849  1
  Fe  Fe78  1  0.74874519  0.50059261  0.25002323  1
  Fe  Fe79  1  0.37552532  0.62339554  0.12721742  1
  Fe  Fe80  1  0.74907383  0.49866658  0.00035220  1
  Fe  Fe81  1  0.62444687  0.37451340  0.87154253  1
  Fe  Fe82  1  -0.00047884  0.75248567  0.50220244  1
  Fe  Fe83  1  0.37634407  0.62390162  0.87605539  1
  Fe  Fe84  1  0.50289719  -0.00162482  0.50047849  1
  Fe  Fe85  1  0.25151853  0.24911485  0.49542764  1
  Fe  Fe86  1  0.87574371  0.88249437  0.38076796  1
  Fe  Fe87  1  0.12599932  0.37240452  0.37147594  1
  Fe  Fe88  1  0.25158912  0.49977171  0.74885776  1
  Fe  Fe89  1  0.12632129  0.37301240  0.62409741  1
  Co  Co90  1  0.75218041  0.49595006  0.74712550  1
  Co  Co91  1  0.87412698  0.87770553  0.62240030  1
  Co  Co92  1  0.62182985  0.37225358  0.62602786  1
  Co  Co93  1  -0.00445621  0.24890478  0.25281205  1
  Co  Co94  1  0.50241989  -0.00162832  0.00402976  1
  Co  Co95  1  0.75248813  0.75082069  0.49926016  1
  Co  Co96  1  0.24627341  0.50466922  0.25202570  1
  Co  Co97  1  0.75193429  0.75372039  0.75282704  1
  Co  Co98  1  0.37469747  0.12509949  0.61928157  1
  Co  Co99  1  0.12443213  0.87573182  0.87206960  1
  Co  Co100  1  0.62780045  0.62712363  0.37483372  1
  Co  Co101  1  0.49792853  0.00223336  0.74468272  1
  Co  Co102  1  0.37841915  0.87834441  0.87543682  1
  Co  Co103  1  0.37781471  0.62254463  0.37656464  1
  Co  Co104  1  0.49767062  0.50162942  0.74765882  1
  Co  Co105  1  0.87158037  0.37369172  0.12590009  1
  Co  Co106  1  0.12411475  0.12441538  0.37203845  1
  Co  Co107  1  0.50147179  0.75003481  0.49836000  1
  Co  Co108  1  0.12427400  0.12836324  0.12694990  1
  Co  Co109  1  0.49744607  0.74811606  0.75002615  1
  Co  Co110  1  0.87002932  0.87732394  0.12246186  1
  Co  Co111  1  0.24738981  0.74976965  0.49791396  1
  Co  Co112  1  0.13081214  0.87266893  0.12781751  1
  Co  Co113  1  0.74730283  0.24707354  0.00082631  1
  Co  Co114  1  0.50408517  0.50232595  0.24943831  1
  Co  Co115  1  0.62230888  0.12379475  0.37322522  1
  Co  Co116  1  0.00129610  -0.00156027  0.24642177  1
  Co  Co117  1  0.62619613  0.37423292  0.37275275  1
  Co  Co118  1  0.37998439  0.12329109  0.87918991  1
  Co  Co119  1  0.25539538  0.24603136  0.25177825  1
  Co  Co120  1  0.00590611  0.00139911  0.50309491  1
  Co  Co121  1  0.49905434  -0.00450817  0.25131956  1
  Co  Co122  1  0.87623736  0.37211987  0.62018924  1
  Co  Co123  1  0.74421297  0.00064852  0.50237775  1
  Co  Co124  1  0.12212377  0.12607500  0.87501876  1
  Co  Co125  1  0.49782058  0.25047362  0.25048546  1
  Co  Co126  1  0.87576305  0.11915437  0.37787275  1
  Co  Co127  1  0.11843521  0.62853050  0.37416755  1
