# generated using pymatgen
data_Fe45Co19
_symmetry_space_group_name_H-M   'P 1'
_cell_length_a   11.41497639
_cell_length_b   11.41522081
_cell_length_c   11.41504066
_cell_angle_alpha   89.99797118
_cell_angle_beta   89.99888540
_cell_angle_gamma   89.99606567
_symmetry_Int_Tables_number   1
_chemical_formula_structural   Fe45Co19
_chemical_formula_sum   'Fe90 Co38'
_cell_volume   1487.43088741
_cell_formula_units_Z   2
loop_
 _symmetry_equiv_pos_site_id
 _symmetry_equiv_pos_as_xyz
  1  'x, y, z'
loop_
 _atom_site_type_symbol
 _atom_site_label
 _atom_site_symmetry_multiplicity
 _atom_site_fract_x
 _atom_site_fract_y
 _atom_site_fract_z
 _atom_site_occupancy
  Fe  Fe0  1  0.62384618  0.87402475  0.37595975  1
  Fe  Fe1  1  0.74857029  0.25024458  0.74937437  1
  Fe  Fe2  1  0.50036346  0.00094413  0.24994926  1
  Fe  Fe3  1  -0.00026248  0.24952708  0.00158466  1
  Fe  Fe4  1  0.62167410  0.62319418  0.88037321  1
  Fe  Fe5  1  0.62357012  0.12569760  0.37631315  1
  Fe  Fe6  1  0.37501587  0.62548797  0.37253543  1
  Fe  Fe7  1  0.25105354  0.49459565  0.49673994  1
  Fe  Fe8  1  0.24724822  -0.00119168  0.74971170  1
  Fe  Fe9  1  0.75068379  0.25110034  0.00065587  1
  Fe  Fe10  1  0.00156673  0.25169162  0.74571652  1
  Fe  Fe11  1  0.62381239  0.62332744  0.12030968  1
  Fe  Fe12  1  0.50049443  0.24916291  0.24721864  1
  Fe  Fe13  1  0.75073947  0.50109823  0.49893673  1
  Fe  Fe14  1  0.62442855  0.62627350  0.62346128  1
  Fe  Fe15  1  0.25003883  0.00120864  -0.00027374  1
  Fe  Fe16  1  0.37282844  0.87465224  0.12754504  1
  Fe  Fe17  1  0.86955019  0.12425383  0.12759712  1
  Fe  Fe18  1  0.25060480  0.75098049  0.49707175  1
  Fe  Fe19  1  0.49765958  0.75123211  0.49822953  1
  Fe  Fe20  1  0.12427380  0.62236439  0.37595121  1
  Fe  Fe21  1  0.00067013  0.49945047  0.24840634  1
  Fe  Fe22  1  0.25428027  0.49697505  0.00067215  1
  Fe  Fe23  1  0.00160806  0.74899076  0.25041687  1
  Fe  Fe24  1  0.74807694  0.50257047  0.75256151  1
  Fe  Fe25  1  -0.00196574  0.00185420  0.00132084  1
  Fe  Fe26  1  0.00006369  0.74875339  0.49884543  1
  Fe  Fe27  1  0.87441525  0.87155171  0.62584473  1
  Fe  Fe28  1  0.74927588  -0.00006579  0.75085612  1
  Fe  Fe29  1  0.12613531  0.87585783  0.12503181  1
  Fe  Fe30  1  0.49862678  0.74946957  0.24811693  1
  Fe  Fe31  1  0.87377825  0.62413209  0.12501843  1
  Fe  Fe32  1  0.25201562  0.75239805  -0.00450241  1
  Fe  Fe33  1  0.37758749  0.12889837  0.37815827  1
  Fe  Fe34  1  0.87565124  0.12605108  0.87333328  1
  Fe  Fe35  1  0.62852156  0.87580037  0.12361746  1
  Fe  Fe36  1  0.37634914  0.12420024  0.87506895  1
  Fe  Fe37  1  0.37352217  0.62633797  0.62592721  1
  Fe  Fe38  1  0.37746459  0.62378505  0.87605252  1
  Fe  Fe39  1  0.50046129  -0.00074279  0.00124796  1
  Fe  Fe40  1  0.00267217  0.50031978  0.74843905  1
  Fe  Fe41  1  0.87295628  0.12724680  0.37560473  1
  Fe  Fe42  1  0.62478039  0.62511060  0.37504378  1
  Fe  Fe43  1  0.49757927  0.49976259  0.50072414  1
  Fe  Fe44  1  0.49647000  0.50139668  0.24679864  1
  Fe  Fe45  1  0.12865247  0.62546643  0.12321792  1
  Fe  Fe46  1  0.87630992  0.37422997  0.37416138  1
  Fe  Fe47  1  0.87610311  0.62568495  0.87544849  1
  Fe  Fe48  1  0.25143499  0.24872647  0.00164466  1
  Fe  Fe49  1  -0.00059994  0.49758112  0.00111878  1
  Fe  Fe50  1  0.00039867  0.49636453  0.50202766  1
  Fe  Fe51  1  0.75066572  0.74854029  0.25124960  1
  Fe  Fe52  1  0.74828478  0.25167530  0.50029820  1
  Fe  Fe53  1  0.62520723  0.37648727  0.12309047  1
  Fe  Fe54  1  0.87528105  0.87260969  0.87415526  1
  Fe  Fe55  1  0.87396445  0.62625375  0.62470381  1
  Fe  Fe56  1  0.50155009  0.25165458  0.74979256  1
  Fe  Fe57  1  0.00023738  0.00185755  0.25085177  1
  Fe  Fe58  1  0.62140678  0.37683598  0.37453500  1
  Fe  Fe59  1  0.00049368  0.74964000  0.00067970  1
  Fe  Fe60  1  0.24913620  0.50309801  0.75034278  1
  Fe  Fe61  1  0.75128711  0.49903498  0.24955999  1
  Fe  Fe62  1  0.00261755  -0.00092943  0.74741464  1
  Fe  Fe63  1  0.24854086  0.24759725  0.74820979  1
  Fe  Fe64  1  0.49764758  0.25348992  -0.00089648  1
  Fe  Fe65  1  0.12670716  0.37491308  0.87421525  1
  Fe  Fe66  1  0.37684202  0.12610797  0.62295950  1
  Fe  Fe67  1  0.25202756  0.00045796  0.50002823  1
  Fe  Fe68  1  0.87217802  0.87650323  0.12597731  1
  Fe  Fe69  1  0.12316057  0.12437240  0.87500675  1
  Fe  Fe70  1  0.37363960  0.87353836  0.62713900  1
  Fe  Fe71  1  0.62467846  0.12615437  0.87644429  1
  Fe  Fe72  1  0.87374542  0.87450180  0.37458365  1
  Fe  Fe73  1  0.12619590  0.87621863  0.37502193  1
  Fe  Fe74  1  0.62546439  0.87315787  0.62379880  1
  Fe  Fe75  1  0.87405472  0.12587850  0.62431462  1
  Fe  Fe76  1  0.37557138  0.37510603  0.62718779  1
  Fe  Fe77  1  0.74818490  -0.00053515  0.50014084  1
  Fe  Fe78  1  0.62543020  0.37722292  0.62633631  1
  Fe  Fe79  1  0.12662738  0.37235416  0.12670166  1
  Fe  Fe80  1  0.50201683  0.00087924  0.74855254  1
  Fe  Fe81  1  0.49997021  0.74938465  0.75191190  1
  Fe  Fe82  1  0.87432929  0.37552610  0.87405522  1
  Fe  Fe83  1  0.12536628  0.13022133  0.37836376  1
  Fe  Fe84  1  0.25034319  0.00459334  0.25050648  1
  Fe  Fe85  1  0.00049137  0.00100529  0.50094544  1
  Fe  Fe86  1  0.25124697  0.49788495  0.25122496  1
  Fe  Fe87  1  0.62574854  0.87375341  0.87696701  1
  Fe  Fe88  1  0.00788674  0.74792086  0.75001257  1
  Fe  Fe89  1  -0.00045283  0.24867179  0.24864552  1
  Co  Co90  1  0.62615421  0.12526524  0.12330962  1
  Co  Co91  1  0.12575731  0.62164678  0.87948393  1
  Co  Co92  1  0.74771565  0.00037426  0.25278798  1
  Co  Co93  1  0.37416271  0.37322593  0.12853315  1
  Co  Co94  1  0.87105181  0.37676413  0.62665214  1
  Co  Co95  1  0.62625889  0.37591105  0.87583255  1
  Co  Co96  1  0.50075268  0.49980271  0.75040077  1
  Co  Co97  1  0.12295540  0.87780144  0.87698325  1
  Co  Co98  1  -0.00007570  0.25271034  0.50447038  1
  Co  Co99  1  0.75151034  0.00125719  -0.00305821  1
  Co  Co100  1  0.37475715  0.87594155  0.37200355  1
  Co  Co101  1  0.74741345  0.25248130  0.25104314  1
  Co  Co102  1  0.37306574  0.62709767  0.12390887  1
  Co  Co103  1  0.12806645  0.37648334  0.62703055  1
  Co  Co104  1  0.75273246  0.49933259  -0.00078697  1
  Co  Co105  1  0.50208483  0.25245665  0.50383761  1
  Co  Co106  1  0.74719652  0.74779660  0.75240960  1
  Co  Co107  1  0.62550444  0.12474554  0.62484460  1
  Co  Co108  1  0.49972794  -0.00184956  0.50074034  1
  Co  Co109  1  0.49504571  0.49486696  0.00021951  1
  Co  Co110  1  0.12449455  0.12494615  0.12527391  1
  Co  Co111  1  0.25000973  0.25441849  0.50063633  1
  Co  Co112  1  0.37731648  0.12452815  0.12339886  1
  Co  Co113  1  0.37647310  0.87806453  0.87241016  1
  Co  Co114  1  0.75031408  0.74909607  0.49784854  1
  Co  Co115  1  0.25183562  0.24778067  0.24983292  1
  Co  Co116  1  0.87477013  0.37382085  0.12619266  1
  Co  Co117  1  0.37231615  0.37396466  0.87028810  1
  Co  Co118  1  0.12683777  0.87325394  0.62245732  1
  Co  Co119  1  0.24767756  0.74881234  0.75453565  1
  Co  Co120  1  0.12779943  0.62454843  0.62063662  1
  Co  Co121  1  0.49754900  0.75277014  0.00115753  1
  Co  Co122  1  0.12524225  0.12449102  0.62273813  1
  Co  Co123  1  0.37912318  0.37171830  0.37332132  1
  Co  Co124  1  0.75122478  0.74871744  -0.00050502  1
  Co  Co125  1  0.12234443  0.37165478  0.37219450  1
  Co  Co126  1  0.24785696  0.74874942  0.25221785  1
  Co  Co127  1  0.87614653  0.62288668  0.37450510  1
