# generated using pymatgen
data_Fe45Co19
_symmetry_space_group_name_H-M   'P 1'
_cell_length_a   11.41536459
_cell_length_b   11.41443360
_cell_length_c   11.41505278
_cell_angle_alpha   90.01176471
_cell_angle_beta   90.00138798
_cell_angle_gamma   89.98982086
_symmetry_Int_Tables_number   1
_chemical_formula_structural   Fe45Co19
_chemical_formula_sum   'Fe90 Co38'
_cell_volume   1487.38042123
_cell_formula_units_Z   2
loop_
 _symmetry_equiv_pos_site_id
 _symmetry_equiv_pos_as_xyz
  1  'x, y, z'
loop_
 _atom_site_type_symbol
 _atom_site_label
 _atom_site_symmetry_multiplicity
 _atom_site_fract_x
 _atom_site_fract_y
 _atom_site_fract_z
 _atom_site_occupancy
  Fe  Fe0  1  0.37556574  0.12425403  0.37464510  1
  Fe  Fe1  1  0.49997174  0.24719057  0.74792782  1
  Fe  Fe2  1  0.62479275  0.62713241  0.87262036  1
  Fe  Fe3  1  0.74930476  -0.00116530  -0.00054667  1
  Fe  Fe4  1  0.37800519  0.87650810  0.37588493  1
  Fe  Fe5  1  0.37795545  0.62344275  0.62424099  1
  Fe  Fe6  1  0.87416970  0.62673524  0.12708920  1
  Fe  Fe7  1  0.62349574  0.87367160  0.61967626  1
  Fe  Fe8  1  0.00190584  0.00270866  0.50161202  1
  Fe  Fe9  1  0.12376481  0.12688104  0.37054145  1
  Fe  Fe10  1  -0.00260801  -0.00106273  0.24817173  1
  Fe  Fe11  1  0.25067430  0.49935292  0.25157172  1
  Fe  Fe12  1  0.62632231  0.62772703  0.12749202  1
  Fe  Fe13  1  0.74976457  0.50129637  -0.00134805  1
  Fe  Fe14  1  0.12120370  0.87240794  0.37469623  1
  Fe  Fe15  1  0.37504877  0.87818072  0.62410964  1
  Fe  Fe16  1  0.24800791  -0.00032916  0.49746617  1
  Fe  Fe17  1  0.36769202  0.11879658  0.12216454  1
  Fe  Fe18  1  0.12697332  0.37229269  0.12626814  1
  Fe  Fe19  1  0.50117820  0.50265307  -0.00001817  1
  Fe  Fe20  1  0.25041620  0.50159586  0.74950680  1
  Fe  Fe21  1  0.49710212  0.24734225  0.24841645  1
  Fe  Fe22  1  0.37359808  0.12216619  0.62562408  1
  Fe  Fe23  1  0.37551604  0.62537219  0.37449317  1
  Fe  Fe24  1  0.00383361  -0.00103587  0.00139502  1
  Fe  Fe25  1  0.87355058  0.12380735  0.12559336  1
  Fe  Fe26  1  0.12494176  0.12647904  0.87478337  1
  Fe  Fe27  1  0.62497946  0.37418825  0.12499561  1
  Fe  Fe28  1  -0.00006667  0.24849840  0.50121616  1
  Fe  Fe29  1  0.87429403  0.12402134  0.87412757  1
  Fe  Fe30  1  0.00183855  0.50258875  0.50211488  1
  Fe  Fe31  1  0.12752966  0.37457191  0.62565193  1
  Fe  Fe32  1  0.75300967  0.24847213  0.25253514  1
  Fe  Fe33  1  0.49931524  0.75379063  0.75058797  1
  Fe  Fe34  1  0.74879432  0.25098935  0.74875720  1
  Fe  Fe35  1  0.50073890  0.50162811  0.25161061  1
  Fe  Fe36  1  0.00029195  0.50100428  0.00104014  1
  Fe  Fe37  1  0.37490832  0.63058883  0.87924370  1
  Fe  Fe38  1  0.49810853  0.24669874  0.00196924  1
  Fe  Fe39  1  0.62383011  0.12301006  0.87409209  1
  Fe  Fe40  1  0.61982013  0.37901092  0.62616899  1
  Fe  Fe41  1  0.37517577  0.37568163  0.12543384  1
  Fe  Fe42  1  0.49747339  0.75325052  0.24857759  1
  Fe  Fe43  1  0.87568365  0.37898327  0.62677370  1
  Fe  Fe44  1  0.87519141  0.37649693  0.37654384  1
  Fe  Fe45  1  0.62697177  0.12272273  0.12792152  1
  Fe  Fe46  1  0.62299179  0.37448635  0.87655807  1
  Fe  Fe47  1  0.75500536  0.75554696  0.25578233  1
  Fe  Fe48  1  0.24893035  0.75167311  0.24924419  1
  Fe  Fe49  1  0.87658807  0.87454205  0.87450110  1
  Fe  Fe50  1  -0.00083850  0.74728129  0.74517131  1
  Fe  Fe51  1  0.37562771  0.37397544  0.87500964  1
  Fe  Fe52  1  0.87604796  0.62481041  0.87227795  1
  Fe  Fe53  1  0.75053427  0.75069817  0.74517547  1
  Fe  Fe54  1  0.74779268  -0.00173512  0.74875413  1
  Fe  Fe55  1  0.12456494  0.87428878  0.62469887  1
  Fe  Fe56  1  0.74923434  0.25036874  0.50037244  1
  Fe  Fe57  1  0.12518179  0.37372307  0.87496785  1
  Fe  Fe58  1  0.37119815  0.87612133  0.11850087  1
  Fe  Fe59  1  0.74993752  -0.00333720  0.49590704  1
  Fe  Fe60  1  0.12533441  0.62650761  0.87479440  1
  Fe  Fe61  1  0.00116745  0.00183942  0.74802636  1
  Fe  Fe62  1  0.25264703  0.49904568  0.49981714  1
  Fe  Fe63  1  0.24876873  -0.00326907  0.75350762  1
  Fe  Fe64  1  0.62275740  0.37400904  0.37393670  1
  Fe  Fe65  1  0.62468867  0.63152518  0.37789676  1
  Fe  Fe66  1  0.25209984  0.75087613  0.50018565  1
  Fe  Fe67  1  -0.00560291  0.74663003  0.50277891  1
  Fe  Fe68  1  0.87226213  0.12369697  0.62358276  1
  Fe  Fe69  1  0.75022306  0.24927319  -0.00115809  1
  Fe  Fe70  1  0.24949076  0.50013162  -0.00045461  1
  Fe  Fe71  1  0.62716929  0.87625058  0.12731109  1
  Fe  Fe72  1  0.25126677  0.24938315  0.75015982  1
  Fe  Fe73  1  0.74909032  0.50081294  0.25159882  1
  Fe  Fe74  1  0.25105864  0.25010418  0.49916336  1
  Fe  Fe75  1  0.12424006  0.62742252  0.37480776  1
  Fe  Fe76  1  0.87268464  0.37492784  0.12527265  1
  Fe  Fe77  1  0.37646208  0.11957513  0.87633917  1
  Fe  Fe78  1  0.00020374  0.50114346  0.24966363  1
  Fe  Fe79  1  0.12511278  0.37285991  0.37363786  1
  Fe  Fe80  1  0.00410513  0.75090840  0.00462549  1
  Fe  Fe81  1  0.74942326  0.75056873  -0.00098291  1
  Fe  Fe82  1  0.74709114  0.50423617  0.50158554  1
  Fe  Fe83  1  0.49933781  0.24872245  0.50116723  1
  Fe  Fe84  1  0.37315690  0.62773146  0.12226358  1
  Fe  Fe85  1  0.87642331  0.37635337  0.87299346  1
  Fe  Fe86  1  0.00136817  0.24804329  0.00290467  1
  Fe  Fe87  1  -0.00022947  0.24889239  0.74725994  1
  Fe  Fe88  1  0.62415969  0.12099761  0.37322737  1
  Fe  Fe89  1  0.25144505  0.75193332  0.75059459  1
  Co  Co90  1  0.87578047  0.62360967  0.37369876  1
  Co  Co91  1  0.11936336  0.87140951  0.86969866  1
  Co  Co92  1  0.12736624  0.62370286  0.12686752  1
  Co  Co93  1  0.37799103  0.87516227  0.88000018  1
  Co  Co94  1  0.24318473  0.75369891  -0.00047222  1
  Co  Co95  1  0.74646338  0.49946382  0.75106415  1
  Co  Co96  1  0.50495035  0.75137634  0.00169707  1
  Co  Co97  1  0.62661504  0.12285603  0.62297264  1
  Co  Co98  1  0.50197897  -0.00269338  0.74860662  1
  Co  Co99  1  0.00526671  0.50132551  0.74932823  1
  Co  Co100  1  0.62126727  0.87483932  0.37583715  1
  Co  Co101  1  0.49984829  0.50126652  0.49602117  1
  Co  Co102  1  0.87339346  0.61950798  0.62803491  1
  Co  Co103  1  0.75533272  0.75058245  0.50121459  1
  Co  Co104  1  0.50394075  -0.00117784  0.00193252  1
  Co  Co105  1  0.87371332  0.87380562  0.12157510  1
  Co  Co106  1  0.62643351  0.87540342  0.87541524  1
  Co  Co107  1  -0.00055182  0.75014622  0.24713480  1
  Co  Co108  1  0.88072617  0.87614895  0.37737944  1
  Co  Co109  1  0.12867017  0.62730943  0.62274570  1
  Co  Co110  1  0.49864194  0.00117765  0.50043625  1
  Co  Co111  1  0.12873359  0.12447187  0.62575592  1
  Co  Co112  1  0.25261589  0.25040144  0.25040458  1
  Co  Co113  1  0.62089170  0.62681024  0.62401660  1
  Co  Co114  1  0.37674200  0.37399812  0.37480957  1
  Co  Co115  1  0.49659949  -0.00149988  0.24718415  1
  Co  Co116  1  0.24263211  -0.00404916  -0.00677032  1
  Co  Co117  1  0.25132152  -0.00345228  0.25519233  1
  Co  Co118  1  0.12913750  0.12325094  0.12836517  1
  Co  Co119  1  0.75321875  -0.00286408  0.25295443  1
  Co  Co120  1  0.25008783  0.24901979  -0.00052257  1
  Co  Co121  1  0.37661592  0.37557273  0.62539677  1
  Co  Co122  1  0.49803624  0.50247625  0.75429821  1
  Co  Co123  1  0.12741309  0.87819650  0.12950499  1
  Co  Co124  1  -0.00340420  0.24996656  0.24888389  1
  Co  Co125  1  0.87714673  0.87968143  0.62526428  1
  Co  Co126  1  0.87543703  0.12415027  0.37730245  1
  Co  Co127  1  0.49616115  0.75077359  0.49990372  1
