# generated using pymatgen
data_Fe45Co19
_symmetry_space_group_name_H-M   'P 1'
_cell_length_a   11.41539978
_cell_length_b   11.41648758
_cell_length_c   11.41676348
_cell_angle_alpha   90.00162070
_cell_angle_beta   90.00012685
_cell_angle_gamma   90.00305310
_symmetry_Int_Tables_number   1
_chemical_formula_structural   Fe45Co19
_chemical_formula_sum   'Fe90 Co38'
_cell_volume   1487.87565270
_cell_formula_units_Z   2
loop_
 _symmetry_equiv_pos_site_id
 _symmetry_equiv_pos_as_xyz
  1  'x, y, z'
loop_
 _atom_site_type_symbol
 _atom_site_label
 _atom_site_symmetry_multiplicity
 _atom_site_fract_x
 _atom_site_fract_y
 _atom_site_fract_z
 _atom_site_occupancy
  Fe  Fe0  1  0.24965628  -0.00051217  0.25043467  1
  Fe  Fe1  1  0.74746305  -0.00242267  0.74999141  1
  Fe  Fe2  1  0.12665609  0.87883997  0.87711021  1
  Fe  Fe3  1  0.00039258  0.50039460  0.75010561  1
  Fe  Fe4  1  0.87340128  0.87283081  0.87534796  1
  Fe  Fe5  1  -0.00431934  0.24839053  0.50117657  1
  Fe  Fe6  1  0.87396993  0.37444495  0.37446518  1
  Fe  Fe7  1  -0.00172351  0.24613528  -0.00122583  1
  Fe  Fe8  1  0.24834587  0.24886733  0.75006872  1
  Fe  Fe9  1  0.37363871  0.37511540  0.87431478  1
  Fe  Fe10  1  0.37470606  0.12439181  0.62584128  1
  Fe  Fe11  1  0.12775156  0.62193426  0.12515699  1
  Fe  Fe12  1  0.49894611  0.49940477  0.49866366  1
  Fe  Fe13  1  0.50284728  0.25088178  0.24884866  1
  Fe  Fe14  1  0.12470560  0.12310023  0.62462943  1
  Fe  Fe15  1  0.49996749  0.74978398  -0.00078833  1
  Fe  Fe16  1  0.62486350  0.37539262  0.62568232  1
  Fe  Fe17  1  0.49565585  0.50057649  -0.00144676  1
  Fe  Fe18  1  0.62644521  0.87384875  0.12212244  1
  Fe  Fe19  1  0.62735412  0.12488606  0.62341642  1
  Fe  Fe20  1  0.62545167  0.37609399  0.12202283  1
  Fe  Fe21  1  -0.00557135  -0.00009114  0.50034858  1
  Fe  Fe22  1  0.37366461  0.62518131  0.12777742  1
  Fe  Fe23  1  -0.00051020  0.00095414  0.75044315  1
  Fe  Fe24  1  0.24855932  0.24853433  0.00067359  1
  Fe  Fe25  1  0.87539711  0.87345835  0.12501092  1
  Fe  Fe26  1  0.12841260  0.62524534  0.62552957  1
  Fe  Fe27  1  0.00088959  0.49852079  0.25071542  1
  Fe  Fe28  1  0.50148358  0.24771506  0.75186365  1
  Fe  Fe29  1  0.74478645  0.75020114  0.75151340  1
  Fe  Fe30  1  0.12908554  0.62333870  0.87362925  1
  Fe  Fe31  1  0.37288715  0.62660132  0.62830147  1
  Fe  Fe32  1  0.74881191  0.25179658  0.24929047  1
  Fe  Fe33  1  0.37606315  0.87319233  0.37444283  1
  Fe  Fe34  1  0.75006861  0.50155179  0.75260122  1
  Fe  Fe35  1  0.49884236  0.00089813  0.50034148  1
  Fe  Fe36  1  0.37448357  0.87399154  0.12643990  1
  Fe  Fe37  1  0.50172117  -0.00025991  0.24819364  1
  Fe  Fe38  1  0.62405505  0.12165754  0.88033763  1
  Fe  Fe39  1  0.50013471  0.74861313  0.50035728  1
  Fe  Fe40  1  0.49897353  0.49870792  0.25186986  1
  Fe  Fe41  1  0.62550693  0.87536160  0.37576423  1
  Fe  Fe42  1  0.24945624  0.24931565  0.49879059  1
  Fe  Fe43  1  0.75054845  0.49892882  0.49913529  1
  Fe  Fe44  1  0.00142659  0.25135036  0.24883936  1
  Fe  Fe45  1  0.12715099  0.87658181  0.62270950  1
  Fe  Fe46  1  0.87400907  0.62766678  0.62765043  1
  Fe  Fe47  1  0.62758987  0.12545013  0.37652596  1
  Fe  Fe48  1  0.87553896  0.62549668  0.12578414  1
  Fe  Fe49  1  0.49994543  0.50111335  0.75052219  1
  Fe  Fe50  1  0.75310174  0.50156911  -0.00180143  1
  Fe  Fe51  1  0.37582612  0.37314059  0.62506301  1
  Fe  Fe52  1  0.37425701  0.87606730  0.62611588  1
  Fe  Fe53  1  -0.00138236  0.50235807  -0.00269537  1
  Fe  Fe54  1  0.12348969  0.12428841  0.37519399  1
  Fe  Fe55  1  0.12530942  0.37513618  0.62362592  1
  Fe  Fe56  1  0.74919691  0.25000223  0.75340402  1
  Fe  Fe57  1  0.87355769  0.37357235  0.62816630  1
  Fe  Fe58  1  0.62403980  0.37628055  0.87743370  1
  Fe  Fe59  1  0.00013515  0.74910504  0.25150040  1
  Fe  Fe60  1  0.00025854  0.74806265  -0.00081779  1
  Fe  Fe61  1  0.62464671  0.62372164  0.12397389  1
  Fe  Fe62  1  0.25294725  0.49957590  0.49737762  1
  Fe  Fe63  1  0.25129226  0.74970990  -0.00238491  1
  Fe  Fe64  1  0.75020626  0.74835539  0.24962507  1
  Fe  Fe65  1  0.12522924  0.37549538  0.87674900  1
  Fe  Fe66  1  0.37395622  0.12543749  0.12559673  1
  Fe  Fe67  1  0.37548837  0.12165671  0.87607405  1
  Fe  Fe68  1  0.50438106  0.75042805  0.75005375  1
  Fe  Fe69  1  0.75213730  0.75050298  0.49972990  1
  Fe  Fe70  1  0.12466861  0.87591561  0.37650278  1
  Fe  Fe71  1  0.50273639  0.25095168  0.49939449  1
  Fe  Fe72  1  -0.00220815  0.75044943  0.49914819  1
  Fe  Fe73  1  0.62515145  0.62398461  0.37377135  1
  Fe  Fe74  1  0.12517593  0.62359302  0.37569363  1
  Fe  Fe75  1  0.62616447  0.12665359  0.11985551  1
  Fe  Fe76  1  0.24886044  0.74943672  0.25210621  1
  Fe  Fe77  1  -0.00044360  0.24831855  0.75170794  1
  Fe  Fe78  1  0.00385155  0.75018224  0.75045693  1
  Fe  Fe79  1  0.37727222  0.87821291  0.87287836  1
  Fe  Fe80  1  0.75521358  -0.00131113  0.50140624  1
  Fe  Fe81  1  -0.00238956  0.00317941  0.00122151  1
  Fe  Fe82  1  -0.00199115  0.00151361  0.24910698  1
  Fe  Fe83  1  0.75071123  0.00066684  0.24830508  1
  Fe  Fe84  1  -0.00307810  0.50093747  0.50134941  1
  Fe  Fe85  1  0.87570267  0.37439221  0.12263962  1
  Fe  Fe86  1  0.12525596  0.87594154  0.12423277  1
  Fe  Fe87  1  0.37248063  0.37538435  0.12587392  1
  Fe  Fe88  1  0.37545432  0.12734780  0.37287401  1
  Fe  Fe89  1  0.24486285  0.25423355  0.25030709  1
  Co  Co90  1  0.87363644  0.12648343  0.37307638  1
  Co  Co91  1  0.87368983  0.12703839  0.12627437  1
  Co  Co92  1  0.87301617  0.12577346  0.62832154  1
  Co  Co93  1  0.25265604  0.50186762  -0.00121261  1
  Co  Co94  1  0.24863416  0.49731576  0.25294024  1
  Co  Co95  1  0.87235849  0.12259014  0.87366087  1
  Co  Co96  1  0.24778704  0.75379331  0.75123863  1
  Co  Co97  1  0.25024477  0.74992858  0.49932761  1
  Co  Co98  1  0.50306569  0.75127687  0.24908117  1
  Co  Co99  1  0.12610817  0.12351651  0.87591649  1
  Co  Co100  1  0.49792496  0.25100021  -0.00001627  1
  Co  Co101  1  0.37630153  0.62709525  0.37202280  1
  Co  Co102  1  0.25198929  0.00097862  0.49858627  1
  Co  Co103  1  0.37668422  0.37131666  0.37427955  1
  Co  Co104  1  0.87517318  0.62856158  0.87187265  1
  Co  Co105  1  0.75199524  0.25158192  -0.00237135  1
  Co  Co106  1  0.62542798  0.62360867  0.62374724  1
  Co  Co107  1  0.50318279  0.00159423  0.74779942  1
  Co  Co108  1  0.25099470  -0.00025736  0.00185707  1
  Co  Co109  1  0.62447331  0.87563961  0.62166754  1
  Co  Co110  1  0.75103690  0.49911924  0.24860869  1
  Co  Co111  1  0.87487024  0.87468010  0.37168183  1
  Co  Co112  1  0.12231263  0.37542601  0.37917825  1
  Co  Co113  1  0.87458616  0.62448758  0.37387704  1
  Co  Co114  1  0.75060368  0.74795438  0.00067428  1
  Co  Co115  1  0.62497440  0.37587120  0.37450870  1
  Co  Co116  1  0.87704192  0.37523120  0.87429045  1
  Co  Co117  1  0.62421363  0.87706347  0.87896452  1
  Co  Co118  1  0.12368404  0.37710923  0.11949159  1
  Co  Co119  1  0.75096968  0.25266470  0.50041780  1
  Co  Co120  1  0.62346264  0.62377509  0.87778524  1
  Co  Co121  1  0.24971149  0.49696888  0.74902297  1
  Co  Co122  1  0.87508204  0.87197989  0.62940353  1
  Co  Co123  1  0.24913557  0.00055915  0.74902124  1
  Co  Co124  1  0.49856296  -0.00112376  0.00439273  1
  Co  Co125  1  0.12515100  0.12416994  0.12565191  1
  Co  Co126  1  0.75321303  -0.00098671  0.00204002  1
  Co  Co127  1  0.37493145  0.62644467  0.87076322  1
