# generated using pymatgen
data_Fe45Co19
_symmetry_space_group_name_H-M   'P 1'
_cell_length_a   11.41514461
_cell_length_b   11.41552770
_cell_length_c   11.41504781
_cell_angle_alpha   90.00659487
_cell_angle_beta   90.00437954
_cell_angle_gamma   90.00638602
_symmetry_Int_Tables_number   1
_chemical_formula_structural   Fe45Co19
_chemical_formula_sum   'Fe90 Co38'
_cell_volume   1487.49370948
_cell_formula_units_Z   2
loop_
 _symmetry_equiv_pos_site_id
 _symmetry_equiv_pos_as_xyz
  1  'x, y, z'
loop_
 _atom_site_type_symbol
 _atom_site_label
 _atom_site_symmetry_multiplicity
 _atom_site_fract_x
 _atom_site_fract_y
 _atom_site_fract_z
 _atom_site_occupancy
  Fe  Fe0  1  0.12735159  0.12558674  0.12611588  1
  Fe  Fe1  1  0.50031179  0.00035214  0.00195436  1
  Fe  Fe2  1  0.87590468  0.37579272  0.87294724  1
  Fe  Fe3  1  0.75074228  0.75049388  0.74791259  1
  Fe  Fe4  1  0.74707547  0.50044866  0.74669628  1
  Fe  Fe5  1  0.62724884  0.62597052  0.12621729  1
  Fe  Fe6  1  0.12775135  0.62575229  0.12431754  1
  Fe  Fe7  1  0.25450518  0.24947586  0.25383497  1
  Fe  Fe8  1  0.50226837  0.00139200  0.74673405  1
  Fe  Fe9  1  0.75134655  0.75094472  -0.00043078  1
  Fe  Fe10  1  0.12297451  0.37385476  0.37304589  1
  Fe  Fe11  1  0.25044637  -0.00053284  0.25148834  1
  Fe  Fe12  1  0.12710607  0.62968935  0.62081506  1
  Fe  Fe13  1  0.62360888  0.37152888  0.87522769  1
  Fe  Fe14  1  0.37744086  0.12386069  0.12808717  1
  Fe  Fe15  1  0.12138985  0.87579455  0.37937537  1
  Fe  Fe16  1  0.74404540  0.00082688  0.25435033  1
  Fe  Fe17  1  0.37596334  0.37569671  0.12809168  1
  Fe  Fe18  1  0.25258184  0.75000809  -0.00362866  1
  Fe  Fe19  1  0.12386872  0.62457306  0.37698476  1
  Fe  Fe20  1  0.50033299  0.75070393  0.24988245  1
  Fe  Fe21  1  0.87810230  0.37506394  0.37286655  1
  Fe  Fe22  1  0.62442955  0.62533135  0.37465572  1
  Fe  Fe23  1  0.24995022  0.24910638  0.75143468  1
  Fe  Fe24  1  0.12529511  0.62499098  0.87683109  1
  Fe  Fe25  1  0.49705617  0.25017238  0.50254930  1
  Fe  Fe26  1  0.37411615  0.87490537  0.12452593  1
  Fe  Fe27  1  0.62644837  0.87353609  0.12488893  1
  Fe  Fe28  1  0.25009837  0.49785560  0.49937450  1
  Fe  Fe29  1  0.87374299  0.87704182  0.12845196  1
  Fe  Fe30  1  0.12530029  0.37357101  0.12655094  1
  Fe  Fe31  1  -0.00070688  0.74988271  0.25105945  1
  Fe  Fe32  1  0.00034329  0.49989376  0.00212130  1
  Fe  Fe33  1  0.87480448  0.62447782  0.87271803  1
  Fe  Fe34  1  0.37603705  0.62157908  0.37413497  1
  Fe  Fe35  1  0.25375681  0.24972281  0.49588434  1
  Fe  Fe36  1  0.25034891  0.75178818  0.25439861  1
  Fe  Fe37  1  0.24864189  0.50105197  0.74964706  1
  Fe  Fe38  1  0.87564657  0.37514092  0.12833844  1
  Fe  Fe39  1  0.87566933  0.62136237  0.37228635  1
  Fe  Fe40  1  0.24932770  0.49966609  0.25092911  1
  Fe  Fe41  1  0.87165409  0.12462663  0.12798450  1
  Fe  Fe42  1  0.74776331  0.24895304  0.49809587  1
  Fe  Fe43  1  0.62319155  0.62637825  0.87466364  1
  Fe  Fe44  1  0.50142105  0.49879304  0.74605886  1
  Fe  Fe45  1  0.75014053  0.50064011  0.50120570  1
  Fe  Fe46  1  0.62057214  0.37617196  0.37534947  1
  Fe  Fe47  1  0.87195398  0.62343010  0.12810338  1
  Fe  Fe48  1  0.87469011  0.37461291  0.62410196  1
  Fe  Fe49  1  0.74838119  0.00034321  0.49700489  1
  Fe  Fe50  1  -0.00217157  0.75029105  0.00196344  1
  Fe  Fe51  1  0.74810033  0.00051735  0.74994219  1
  Fe  Fe52  1  0.74959961  0.00114464  -0.00130837  1
  Fe  Fe53  1  0.00651579  0.00041899  0.74773154  1
  Fe  Fe54  1  0.87714387  0.87564220  0.87410472  1
  Fe  Fe55  1  0.24369308  -0.00150993  0.75070928  1
  Fe  Fe56  1  0.49671734  0.75120385  0.50082844  1
  Fe  Fe57  1  0.37934221  0.88006952  0.37512357  1
  Fe  Fe58  1  0.62262197  0.37138403  0.12427626  1
  Fe  Fe59  1  0.74926389  0.24962144  0.74962666  1
  Fe  Fe60  1  0.49819468  0.75040505  0.74917616  1
  Fe  Fe61  1  0.87435446  0.12461081  0.62444414  1
  Fe  Fe62  1  0.37481033  0.87624397  0.87554207  1
  Fe  Fe63  1  0.00162468  0.00165922  -0.00004648  1
  Fe  Fe64  1  0.49915876  0.49890438  0.50378087  1
  Fe  Fe65  1  0.62581113  0.87345971  0.62280106  1
  Fe  Fe66  1  0.62417984  0.87403213  0.87546438  1
  Fe  Fe67  1  0.00204320  0.49959055  0.74581539  1
  Fe  Fe68  1  0.24852299  0.00119358  0.50015631  1
  Fe  Fe69  1  0.00046360  0.24629621  0.49855491  1
  Fe  Fe70  1  -0.00206555  0.24895589  0.00158289  1
  Fe  Fe71  1  0.37347454  0.62473517  0.12465017  1
  Fe  Fe72  1  0.37366553  0.12521093  0.62567675  1
  Fe  Fe73  1  0.62378584  0.12790458  0.87671962  1
  Fe  Fe74  1  0.12394622  0.37274706  0.87559413  1
  Fe  Fe75  1  0.37236426  0.62552592  0.62573342  1
  Fe  Fe76  1  0.87826233  0.87756033  0.62212045  1
  Fe  Fe77  1  0.87705735  0.12515617  0.87360691  1
  Fe  Fe78  1  0.37555265  0.12379349  0.87427412  1
  Fe  Fe79  1  0.75350486  0.74963879  0.49837983  1
  Fe  Fe80  1  0.12610019  0.37097880  0.62369153  1
  Fe  Fe81  1  0.37626005  0.37640654  0.87287764  1
  Fe  Fe82  1  0.12600071  0.87561945  0.12377130  1
  Fe  Fe83  1  0.25290361  0.24965546  0.00004212  1
  Fe  Fe84  1  0.74959958  0.49801136  -0.00002589  1
  Fe  Fe85  1  0.00274687  0.75187310  0.74772133  1
  Fe  Fe86  1  0.74571040  0.24917578  0.25175589  1
  Fe  Fe87  1  0.49899139  0.49998887  0.00110116  1
  Fe  Fe88  1  0.00049020  0.00358026  0.25381779  1
  Fe  Fe89  1  0.37043674  0.87419942  0.62623785  1
  Co  Co90  1  0.12879567  0.12596442  0.37366323  1
  Co  Co91  1  0.12737631  0.12859828  0.62388011  1
  Co  Co92  1  0.87206777  0.12659808  0.37381071  1
  Co  Co93  1  0.62479327  0.12813636  0.12249407  1
  Co  Co94  1  -0.00538062  0.74767356  0.49884848  1
  Co  Co95  1  0.25420868  0.75114974  0.49479378  1
  Co  Co96  1  0.62653661  0.12591906  0.62342136  1
  Co  Co97  1  0.50018947  -0.00098453  0.50694987  1
  Co  Co98  1  0.87492396  0.62373576  0.62682603  1
  Co  Co99  1  0.00003919  0.24642574  0.25003364  1
  Co  Co100  1  0.25076937  0.49777100  -0.00035687  1
  Co  Co101  1  0.75013977  0.75223008  0.25336932  1
  Co  Co102  1  0.49956983  0.75039104  0.00118987  1
  Co  Co103  1  0.24900921  0.75020157  0.75353807  1
  Co  Co104  1  0.25061107  0.00216684  -0.00012160  1
  Co  Co105  1  0.50004987  0.24911855  0.25281244  1
  Co  Co106  1  0.50116731  0.50167647  0.24732781  1
  Co  Co107  1  0.74749723  0.49590316  0.25090342  1
  Co  Co108  1  0.87722898  0.87810133  0.37506622  1
  Co  Co109  1  0.50036502  0.24866173  0.74708091  1
  Co  Co110  1  0.61788052  0.12331189  0.37792089  1
  Co  Co111  1  0.49564678  0.24953703  -0.00054171  1
  Co  Co112  1  0.12547767  0.87155302  0.61859684  1
  Co  Co113  1  0.37732822  0.62246504  0.87446541  1
  Co  Co114  1  0.75385710  0.25062660  -0.00037975  1
  Co  Co115  1  0.12428857  0.12820571  0.87679423  1
  Co  Co116  1  -0.00127688  0.24928199  0.74804199  1
  Co  Co117  1  0.62592847  0.37277397  0.62372221  1
  Co  Co118  1  0.12511182  0.87442583  0.87946443  1
  Co  Co119  1  0.37265225  0.37459905  0.62621169  1
  Co  Co120  1  0.62167214  0.87368783  0.37783134  1
  Co  Co121  1  0.37795804  0.37842053  0.37365437  1
  Co  Co122  1  0.00061328  0.49899990  0.50192275  1
  Co  Co123  1  0.00095930  0.00664206  0.49916477  1
  Co  Co124  1  0.50450420  -0.00106375  0.24624552  1
  Co  Co125  1  0.00230261  0.50119915  0.24862547  1
  Co  Co126  1  0.37939981  0.11981631  0.37524542  1
  Co  Co127  1  0.62451856  0.62787998  0.62323274  1
