# generated using pymatgen
data_Fe45Co19
_symmetry_space_group_name_H-M   'P 1'
_cell_length_a   11.41430418
_cell_length_b   11.41501204
_cell_length_c   11.41518475
_cell_angle_alpha   89.99496353
_cell_angle_beta   89.99488491
_cell_angle_gamma   89.99168234
_symmetry_Int_Tables_number   1
_chemical_formula_structural   Fe45Co19
_chemical_formula_sum   'Fe90 Co38'
_cell_volume   1487.33484512
_cell_formula_units_Z   2
loop_
 _symmetry_equiv_pos_site_id
 _symmetry_equiv_pos_as_xyz
  1  'x, y, z'
loop_
 _atom_site_type_symbol
 _atom_site_label
 _atom_site_symmetry_multiplicity
 _atom_site_fract_x
 _atom_site_fract_y
 _atom_site_fract_z
 _atom_site_occupancy
  Fe  Fe0  1  -0.00022662  0.49897030  0.24888268  1
  Fe  Fe1  1  0.12442511  0.62508063  0.37358941  1
  Fe  Fe2  1  0.74678642  0.00065703  0.74967361  1
  Fe  Fe3  1  0.37174430  0.12690263  0.62556039  1
  Fe  Fe4  1  0.62342491  0.62384599  0.87423067  1
  Fe  Fe5  1  0.25278716  0.49476586  0.75128973  1
  Fe  Fe6  1  0.00213198  0.00254414  0.74705335  1
  Fe  Fe7  1  0.37551340  0.87736146  0.62434514  1
  Fe  Fe8  1  0.12737681  0.62506399  0.87387989  1
  Fe  Fe9  1  0.25201560  -0.00150794  -0.00000547  1
  Fe  Fe10  1  0.74652645  0.75318560  0.25104641  1
  Fe  Fe11  1  0.00215819  0.49904663  0.50140900  1
  Fe  Fe12  1  0.12284404  0.37136668  0.87657750  1
  Fe  Fe13  1  0.00108369  0.74959629  0.74936592  1
  Fe  Fe14  1  0.74908591  0.24938829  0.75597171  1
  Fe  Fe15  1  0.87471797  0.62658618  0.12634249  1
  Fe  Fe16  1  0.87227942  0.12613390  0.37373600  1
  Fe  Fe17  1  0.74823213  0.49868884  0.24975011  1
  Fe  Fe18  1  0.75049663  0.75046099  -0.00240191  1
  Fe  Fe19  1  0.12601778  0.12521118  0.87325162  1
  Fe  Fe20  1  0.49862189  0.74991418  0.75193027  1
  Fe  Fe21  1  0.25045927  0.49748370  0.24785767  1
  Fe  Fe22  1  0.87488690  0.87641067  0.62254769  1
  Fe  Fe23  1  0.62540850  0.12512414  0.12507535  1
  Fe  Fe24  1  0.50057472  0.00165213  0.74793850  1
  Fe  Fe25  1  0.49612292  0.24912285  0.25258057  1
  Fe  Fe26  1  -0.00438149  0.24389560  0.00209587  1
  Fe  Fe27  1  0.50079875  0.49825901  0.50098597  1
  Fe  Fe28  1  0.74885913  0.49903728  0.50024133  1
  Fe  Fe29  1  0.00007792  0.00201980  0.00174983  1
  Fe  Fe30  1  0.12485590  0.87643477  0.62259324  1
  Fe  Fe31  1  -0.00078812  0.50205953  -0.00045470  1
  Fe  Fe32  1  0.74995216  0.00414793  -0.00226664  1
  Fe  Fe33  1  0.74672671  0.00379655  0.50065452  1
  Fe  Fe34  1  0.50295881  0.00538891  0.49920899  1
  Fe  Fe35  1  0.37741407  0.87922112  0.37356976  1
  Fe  Fe36  1  0.62313782  0.62737035  0.12487971  1
  Fe  Fe37  1  0.25139581  0.75298506  0.74975357  1
  Fe  Fe38  1  0.87538523  0.37380469  0.37553300  1
  Fe  Fe39  1  0.62440121  0.37299535  0.12230182  1
  Fe  Fe40  1  0.74376480  -0.00281411  0.25182172  1
  Fe  Fe41  1  0.24772119  0.00119881  0.50121737  1
  Fe  Fe42  1  0.75137288  0.25173227  0.24830582  1
  Fe  Fe43  1  0.00015965  0.24784006  0.50131162  1
  Fe  Fe44  1  0.87487447  0.62549144  0.62528303  1
  Fe  Fe45  1  0.87508884  0.87553061  0.37741921  1
  Fe  Fe46  1  0.87430942  0.37318957  0.62607136  1
  Fe  Fe47  1  0.12544404  0.87655888  0.87450563  1
  Fe  Fe48  1  -0.00053135  0.75023707  -0.00016120  1
  Fe  Fe49  1  0.62499215  0.62540729  0.62589300  1
  Fe  Fe50  1  0.62429847  0.87425803  0.62198687  1
  Fe  Fe51  1  0.37523116  0.12232446  0.12792606  1
  Fe  Fe52  1  0.37436147  0.12257048  0.87351459  1
  Fe  Fe53  1  0.25494706  0.75226863  -0.00162481  1
  Fe  Fe54  1  0.62420733  0.37185816  0.62594228  1
  Fe  Fe55  1  0.12747752  0.12786069  0.37387962  1
  Fe  Fe56  1  0.25109832  0.24857821  0.00048990  1
  Fe  Fe57  1  0.87365577  0.87668416  0.12544703  1
  Fe  Fe58  1  0.12749675  0.37074608  0.62570768  1
  Fe  Fe59  1  0.62443572  0.37251128  0.37534856  1
  Fe  Fe60  1  0.12546673  0.87427048  0.12581859  1
  Fe  Fe61  1  0.49926333  0.50216356  -0.00111618  1
  Fe  Fe62  1  0.75154030  0.49927708  -0.00214689  1
  Fe  Fe63  1  0.75079598  0.49851531  0.75249856  1
  Fe  Fe64  1  0.62052496  0.87783366  0.87807886  1
  Fe  Fe65  1  0.49812765  0.74925737  0.49964392  1
  Fe  Fe66  1  0.12490983  0.62762108  0.12624850  1
  Fe  Fe67  1  0.25093072  0.75181975  0.25199107  1
  Fe  Fe68  1  0.00009696  0.49931940  0.75095152  1
  Fe  Fe69  1  0.62386303  0.62614852  0.37498682  1
  Fe  Fe70  1  0.87318129  0.12595630  0.62627911  1
  Fe  Fe71  1  0.87615248  0.87714174  0.87426334  1
  Fe  Fe72  1  0.12656473  0.37152836  0.37197642  1
  Fe  Fe73  1  0.12323750  0.37026635  0.12596315  1
  Fe  Fe74  1  0.87557224  0.62513452  0.37455951  1
  Fe  Fe75  1  0.49639955  0.24849447  0.49715642  1
  Fe  Fe76  1  0.37417036  0.62231676  0.62699217  1
  Fe  Fe77  1  0.25006061  0.49938726  0.00123041  1
  Fe  Fe78  1  0.24994548  0.49841091  0.50005318  1
  Fe  Fe79  1  0.24861304  0.00023474  0.24860023  1
  Fe  Fe80  1  0.37783739  0.62191606  0.37204947  1
  Fe  Fe81  1  0.50029975  0.24758579  -0.00200390  1
  Fe  Fe82  1  0.87511297  0.37343497  0.12254636  1
  Fe  Fe83  1  0.74937010  0.75201975  0.75082681  1
  Fe  Fe84  1  0.00171213  0.74934272  0.49953778  1
  Fe  Fe85  1  0.37669505  0.37511473  0.12475614  1
  Fe  Fe86  1  0.49736539  0.25239727  0.75252202  1
  Fe  Fe87  1  0.25072110  0.74981657  0.49917397  1
  Fe  Fe88  1  0.00165307  0.00071405  0.25064685  1
  Fe  Fe89  1  0.37771077  0.62645486  0.12772052  1
  Co  Co90  1  0.25430618  0.25097070  0.24891577  1
  Co  Co91  1  0.49559010  0.74944887  -0.00211557  1
  Co  Co92  1  0.12694385  0.12557931  0.12600319  1
  Co  Co93  1  0.50534304  -0.00114488  0.25040281  1
  Co  Co94  1  0.50254598  0.49744652  0.24915295  1
  Co  Co95  1  -0.00201091  0.24762077  0.24876600  1
  Co  Co96  1  0.87580682  0.62581599  0.87364947  1
  Co  Co97  1  0.62393365  0.87554450  0.11827771  1
  Co  Co98  1  0.37613015  0.87591282  0.12883478  1
  Co  Co99  1  0.75083250  0.24962648  0.50058549  1
  Co  Co100  1  0.62418688  0.37537712  0.87731342  1
  Co  Co101  1  0.87611004  0.12320670  0.87179471  1
  Co  Co102  1  0.37274530  0.12023178  0.37350200  1
  Co  Co103  1  0.62167228  0.12312391  0.87564662  1
  Co  Co104  1  0.00089634  0.00459874  0.49949324  1
  Co  Co105  1  0.12774912  0.62404010  0.62653950  1
  Co  Co106  1  -0.00084360  0.75247448  0.25010515  1
  Co  Co107  1  0.87118627  0.12133632  0.12912307  1
  Co  Co108  1  0.50325921  0.75485766  0.25064321  1
  Co  Co109  1  0.87739449  0.37287750  0.87659218  1
  Co  Co110  1  0.25265754  0.25001461  0.49770128  1
  Co  Co111  1  0.75068105  0.74862289  0.50005422  1
  Co  Co112  1  0.12888755  0.12778712  0.62549445  1
  Co  Co113  1  0.25253325  0.25187395  0.75252752  1
  Co  Co114  1  0.75156347  0.24638473  -0.00224096  1
  Co  Co115  1  0.62459365  0.13014625  0.62643710  1
  Co  Co116  1  0.62642302  0.12923101  0.37337845  1
  Co  Co117  1  0.37561996  0.37382848  0.62268541  1
  Co  Co118  1  0.62341090  0.87477070  0.38186075  1
  Co  Co119  1  0.37613849  0.37590684  0.87957613  1
  Co  Co120  1  0.37431616  0.37816180  0.37447201  1
  Co  Co121  1  0.49618369  0.00043861  0.00271803  1
  Co  Co122  1  0.37333607  0.62232613  0.87283322  1
  Co  Co123  1  0.24917428  -0.00046586  0.74901600  1
  Co  Co124  1  0.00046835  0.24804697  0.74806526  1
  Co  Co125  1  0.37734705  0.87878155  0.87238310  1
  Co  Co126  1  0.12534663  0.87573271  0.37583774  1
  Co  Co127  1  0.49895164  0.49706736  0.74955989  1
