# generated using pymatgen
data_Fe45Co19
_symmetry_space_group_name_H-M   'P 1'
_cell_length_a   11.41496241
_cell_length_b   11.41362392
_cell_length_c   11.41544891
_cell_angle_alpha   90.00131118
_cell_angle_beta   90.00134243
_cell_angle_gamma   89.99328869
_symmetry_Int_Tables_number   1
_chemical_formula_structural   Fe45Co19
_chemical_formula_sum   'Fe90 Co38'
_cell_volume   1487.27417107
_cell_formula_units_Z   2
loop_
 _symmetry_equiv_pos_site_id
 _symmetry_equiv_pos_as_xyz
  1  'x, y, z'
loop_
 _atom_site_type_symbol
 _atom_site_label
 _atom_site_symmetry_multiplicity
 _atom_site_fract_x
 _atom_site_fract_y
 _atom_site_fract_z
 _atom_site_occupancy
  Fe  Fe0  1  0.63002750  0.62378934  0.37301009  1
  Fe  Fe1  1  -0.00260825  0.49756683  0.75280920  1
  Fe  Fe2  1  0.12065049  0.61898085  0.12569739  1
  Fe  Fe3  1  0.37544890  0.87315733  0.37543294  1
  Fe  Fe4  1  0.50274606  0.49782712  -0.00388432  1
  Fe  Fe5  1  0.37725708  0.62183774  0.62635666  1
  Fe  Fe6  1  0.50149538  0.74607132  0.50068442  1
  Fe  Fe7  1  0.37749252  0.13026204  0.62577812  1
  Fe  Fe8  1  0.00037290  0.00077382  0.49884208  1
  Fe  Fe9  1  0.25114879  0.00127937  0.50035928  1
  Fe  Fe10  1  0.37706606  0.12798127  0.37320461  1
  Fe  Fe11  1  -0.00327445  0.75128134  0.74658508  1
  Fe  Fe12  1  0.37531451  0.62380715  0.37435481  1
  Fe  Fe13  1  0.00257655  0.25522113  0.00251306  1
  Fe  Fe14  1  0.87585449  0.12648833  0.87624002  1
  Fe  Fe15  1  0.75312487  0.50563162  -0.00061888  1
  Fe  Fe16  1  0.74873919  0.24733966  0.00251791  1
  Fe  Fe17  1  0.12347681  0.12794349  0.62489487  1
  Fe  Fe18  1  0.62760523  0.37366703  0.12304096  1
  Fe  Fe19  1  0.75327019  0.74561436  0.50474897  1
  Fe  Fe20  1  0.62618522  0.62097120  0.63170976  1
  Fe  Fe21  1  0.74704499  0.00571585  0.50237611  1
  Fe  Fe22  1  0.75009664  0.00098558  0.74993385  1
  Fe  Fe23  1  0.25290780  0.49526952  0.74926803  1
  Fe  Fe24  1  0.25202840  0.49923001  0.24894612  1
  Fe  Fe25  1  0.12474170  0.87427329  0.12407857  1
  Fe  Fe26  1  0.37231213  0.87513592  0.87791533  1
  Fe  Fe27  1  0.86609978  0.37600135  0.37231254  1
  Fe  Fe28  1  0.50174055  0.75123968  0.25072148  1
  Fe  Fe29  1  0.87363032  0.37399772  0.87862196  1
  Fe  Fe30  1  0.12505122  0.87310889  0.37571685  1
  Fe  Fe31  1  -0.00054255  -0.00051419  0.75089944  1
  Fe  Fe32  1  0.62517433  0.12714293  0.87396008  1
  Fe  Fe33  1  0.49977896  -0.00068495  0.75105400  1
  Fe  Fe34  1  0.75099855  -0.00136297  0.24824791  1
  Fe  Fe35  1  0.24952089  0.74753995  0.75053128  1
  Fe  Fe36  1  -0.00287706  0.25217406  0.49629892  1
  Fe  Fe37  1  0.24987557  0.25164560  0.49895958  1
  Fe  Fe38  1  0.50353910  0.49597189  0.25235760  1
  Fe  Fe39  1  0.24597816  0.25480221  0.00035535  1
  Fe  Fe40  1  0.12485859  0.12682016  0.87492813  1
  Fe  Fe41  1  0.24946853  0.74745850  0.50066939  1
  Fe  Fe42  1  0.75138403  0.25192928  0.74853141  1
  Fe  Fe43  1  0.62277333  0.12465492  0.12751161  1
  Fe  Fe44  1  0.12409358  0.12747469  0.12730344  1
  Fe  Fe45  1  0.37695143  0.62068833  0.87509848  1
  Fe  Fe46  1  0.50162041  0.00264034  0.50077787  1
  Fe  Fe47  1  -0.00040363  0.00017818  0.00037144  1
  Fe  Fe48  1  0.12200255  0.62278493  0.62432213  1
  Fe  Fe49  1  0.49951302  0.00106054  -0.00081604  1
  Fe  Fe50  1  0.62913695  0.87304767  0.87696706  1
  Fe  Fe51  1  0.12275825  0.37499963  0.62428043  1
  Fe  Fe52  1  0.50081856  0.74996742  0.75120756  1
  Fe  Fe53  1  0.25144311  0.74810164  0.24697532  1
  Fe  Fe54  1  0.50611347  0.25213728  0.49458862  1
  Fe  Fe55  1  0.12582048  0.87447979  0.87726048  1
  Fe  Fe56  1  0.87193634  0.87395393  0.87716575  1
  Fe  Fe57  1  0.62642844  0.87526662  0.37778490  1
  Fe  Fe58  1  0.87353718  0.87330217  0.37822135  1
  Fe  Fe59  1  0.12293698  0.62041991  0.87589508  1
  Fe  Fe60  1  0.62488882  0.62633607  0.12471265  1
  Fe  Fe61  1  0.62624566  0.87466880  0.12167200  1
  Fe  Fe62  1  0.12595093  0.37499866  0.37024699  1
  Fe  Fe63  1  0.62666996  0.37614421  0.62555404  1
  Fe  Fe64  1  0.37367476  0.12868125  0.87627012  1
  Fe  Fe65  1  -0.00208338  0.50338272  0.49294066  1
  Fe  Fe66  1  0.50041756  0.74952690  -0.00130059  1
  Fe  Fe67  1  0.12346198  0.87438246  0.62283944  1
  Fe  Fe68  1  0.24972051  0.00196688  0.74966446  1
  Fe  Fe69  1  -0.00111602  0.74694483  0.25404309  1
  Fe  Fe70  1  -0.00019548  0.25221457  0.75029523  1
  Fe  Fe71  1  0.37885621  0.62291262  0.12494187  1
  Fe  Fe72  1  0.49960216  0.25674547  0.75400775  1
  Fe  Fe73  1  0.50255620  0.49853897  0.49816555  1
  Fe  Fe74  1  0.87178379  0.12723119  0.37377860  1
  Fe  Fe75  1  0.25045173  0.49875217  0.49989598  1
  Fe  Fe76  1  0.37576192  0.12804320  0.12397604  1
  Fe  Fe77  1  0.87657974  0.12702721  0.12533442  1
  Fe  Fe78  1  0.49872456  -0.00213914  0.24970219  1
  Fe  Fe79  1  0.37627612  0.37433139  0.12380568  1
  Fe  Fe80  1  0.37557564  0.87397549  0.62473881  1
  Fe  Fe81  1  0.87610077  0.12544534  0.62486558  1
  Fe  Fe82  1  0.87375236  0.37765161  0.62232654  1
  Fe  Fe83  1  0.25115863  -0.00019199  0.24775607  1
  Fe  Fe84  1  -0.00132509  0.00009746  0.25003703  1
  Fe  Fe85  1  0.25062528  0.74573776  0.00172224  1
  Fe  Fe86  1  0.87408639  0.87220140  0.12296597  1
  Fe  Fe87  1  0.12421588  0.12716953  0.37230208  1
  Fe  Fe88  1  0.62563892  0.87525543  0.62520483  1
  Fe  Fe89  1  -0.00250090  0.74553090  -0.00005431  1
  Co  Co90  1  0.62214099  0.12835858  0.62996482  1
  Co  Co91  1  0.74807079  0.50022469  0.24351783  1
  Co  Co92  1  0.87667363  0.61909327  0.62710019  1
  Co  Co93  1  0.86770957  0.62411006  0.37077794  1
  Co  Co94  1  0.62976661  0.37445084  0.87762970  1
  Co  Co95  1  0.87456113  0.87873799  0.62251661  1
  Co  Co96  1  0.24959081  0.50002930  0.00174063  1
  Co  Co97  1  0.75242420  0.75009671  0.74710359  1
  Co  Co98  1  0.12815511  0.62401116  0.37274013  1
  Co  Co99  1  0.25184048  0.25144107  0.24936040  1
  Co  Co100  1  -0.00296355  0.74473864  0.49904587  1
  Co  Co101  1  0.12412602  0.37874844  0.87471257  1
  Co  Co102  1  0.74764016  0.24761519  0.50230702  1
  Co  Co103  1  0.12304505  0.37905445  0.12912008  1
  Co  Co104  1  0.74781755  0.75277089  0.24831483  1
  Co  Co105  1  0.62464231  0.62453657  0.87187553  1
  Co  Co106  1  0.37811434  0.37320606  0.62108793  1
  Co  Co107  1  0.50180964  0.25471052  0.25108978  1
  Co  Co108  1  0.50248975  0.25081170  0.00018376  1
  Co  Co109  1  0.87597651  0.62569605  0.13024176  1
  Co  Co110  1  0.74895390  0.50236058  0.50194864  1
  Co  Co111  1  0.75018183  0.00340811  0.00081021  1
  Co  Co112  1  0.87320919  0.37474802  0.12496813  1
  Co  Co113  1  0.24888616  0.25355329  0.74993507  1
  Co  Co114  1  0.75097941  0.74388431  0.00052228  1
  Co  Co115  1  0.49963133  0.49425603  0.75275944  1
  Co  Co116  1  0.62616112  0.12446023  0.36972990  1
  Co  Co117  1  -0.00345713  0.25297598  0.25088797  1
  Co  Co118  1  0.37328677  0.37509384  0.87948020  1
  Co  Co119  1  0.37557617  0.87386197  0.12309374  1
  Co  Co120  1  0.37500420  0.37614426  0.37532265  1
  Co  Co121  1  -0.00378369  0.49849755  0.25333349  1
  Co  Co122  1  0.74839363  0.24914396  0.24702322  1
  Co  Co123  1  0.24871672  0.00178015  0.00161647  1
  Co  Co124  1  0.63293017  0.37585604  0.37408860  1
  Co  Co125  1  -0.00525576  0.49911350  0.00072654  1
  Co  Co126  1  0.87551004  0.62640235  0.87118373  1
  Co  Co127  1  0.75162809  0.49792359  0.75385130  1
