# generated using pymatgen
data_Fe45Co19
_symmetry_space_group_name_H-M   'P 1'
_cell_length_a   11.41568373
_cell_length_b   11.41392994
_cell_length_c   11.41565468
_cell_angle_alpha   90.00744470
_cell_angle_beta   89.99631272
_cell_angle_gamma   89.99499404
_symmetry_Int_Tables_number   1
_chemical_formula_structural   Fe45Co19
_chemical_formula_sum   'Fe90 Co38'
_cell_volume   1487.43483366
_cell_formula_units_Z   2
loop_
 _symmetry_equiv_pos_site_id
 _symmetry_equiv_pos_as_xyz
  1  'x, y, z'
loop_
 _atom_site_type_symbol
 _atom_site_label
 _atom_site_symmetry_multiplicity
 _atom_site_fract_x
 _atom_site_fract_y
 _atom_site_fract_z
 _atom_site_occupancy
  Fe  Fe0  1  0.74782985  -0.00230752  0.00123783  1
  Fe  Fe1  1  0.12718000  0.62750995  0.12068746  1
  Fe  Fe2  1  0.87687687  0.12541056  0.62631078  1
  Fe  Fe3  1  0.24814961  0.25075857  -0.00240094  1
  Fe  Fe4  1  0.37448077  0.37386005  0.62367653  1
  Fe  Fe5  1  0.24976397  0.75084792  0.50115889  1
  Fe  Fe6  1  0.00083725  0.00147606  0.50101118  1
  Fe  Fe7  1  0.87682484  0.12461723  0.12131844  1
  Fe  Fe8  1  0.12640258  0.12353533  0.12350034  1
  Fe  Fe9  1  0.37242632  0.37394738  0.37578181  1
  Fe  Fe10  1  0.49905519  0.24854921  0.49820330  1
  Fe  Fe11  1  0.25495515  -0.00263578  0.74638903  1
  Fe  Fe12  1  0.87498844  0.87466289  0.62567698  1
  Fe  Fe13  1  0.25174106  0.24853784  0.74991832  1
  Fe  Fe14  1  0.87309574  0.63112320  0.87346077  1
  Fe  Fe15  1  0.37472745  0.87698464  0.37456938  1
  Fe  Fe16  1  0.50000677  0.00661749  0.24553129  1
  Fe  Fe17  1  0.00035040  0.50123711  0.25004201  1
  Fe  Fe18  1  0.49876669  0.49995790  0.75138719  1
  Fe  Fe19  1  0.37383878  0.62394099  0.37478932  1
  Fe  Fe20  1  0.37605020  0.62421468  0.62326825  1
  Fe  Fe21  1  0.62493774  0.37594252  0.87587210  1
  Fe  Fe22  1  0.50045402  0.00310332  0.49924884  1
  Fe  Fe23  1  0.00069665  0.50039640  0.50048537  1
  Fe  Fe24  1  0.87746628  0.37532335  0.12084425  1
  Fe  Fe25  1  0.12656317  0.86988571  0.87134977  1
  Fe  Fe26  1  0.24997163  0.50106551  0.75244273  1
  Fe  Fe27  1  -0.00088805  0.25070882  0.75496115  1
  Fe  Fe28  1  0.62524998  0.37541943  0.62722615  1
  Fe  Fe29  1  0.62672882  0.62343513  0.62695233  1
  Fe  Fe30  1  0.00030447  0.24787175  0.24952324  1
  Fe  Fe31  1  0.62287177  0.87666281  0.62471224  1
  Fe  Fe32  1  0.75039588  0.24986934  0.75168410  1
  Fe  Fe33  1  0.87578040  0.12217047  0.87660264  1
  Fe  Fe34  1  0.62379041  0.12527134  0.62568115  1
  Fe  Fe35  1  0.87410982  0.62526641  0.37542897  1
  Fe  Fe36  1  0.12428065  0.62715246  0.62850248  1
  Fe  Fe37  1  0.62108059  0.87680830  0.87630558  1
  Fe  Fe38  1  0.74928643  -0.00111509  0.75050325  1
  Fe  Fe39  1  -0.00087307  -0.00364866  0.75103480  1
  Fe  Fe40  1  0.75103115  0.49853240  0.24913580  1
  Fe  Fe41  1  0.87367669  0.87350613  0.12260885  1
  Fe  Fe42  1  0.75065572  0.00338772  0.49879734  1
  Fe  Fe43  1  0.37431171  0.37333182  0.12570782  1
  Fe  Fe44  1  0.24827880  0.50058817  0.24863608  1
  Fe  Fe45  1  0.62708635  0.36941926  0.37246884  1
  Fe  Fe46  1  0.37407686  0.37464660  0.87562183  1
  Fe  Fe47  1  0.12470900  0.62499605  0.37507991  1
  Fe  Fe48  1  0.37204760  0.62761140  0.87674257  1
  Fe  Fe49  1  0.49956356  0.24837269  0.75221311  1
  Fe  Fe50  1  0.87457525  0.37557771  0.62598106  1
  Fe  Fe51  1  0.74963968  0.50222000  -0.00194827  1
  Fe  Fe52  1  0.50052262  0.49886010  0.25071615  1
  Fe  Fe53  1  0.12514968  0.37395133  0.62754455  1
  Fe  Fe54  1  0.75069080  0.74892038  0.24810671  1
  Fe  Fe55  1  0.25050165  -0.00004859  0.24983368  1
  Fe  Fe56  1  0.37241995  0.62703865  0.12545037  1
  Fe  Fe57  1  -0.00077513  0.50191161  0.75346434  1
  Fe  Fe58  1  0.49841814  0.75117535  0.74737495  1
  Fe  Fe59  1  0.62510615  0.62521423  0.12542365  1
  Fe  Fe60  1  -0.00116655  -0.00004764  0.24937374  1
  Fe  Fe61  1  0.87497223  0.87514002  0.37468505  1
  Fe  Fe62  1  0.87546602  0.37197093  0.37605397  1
  Fe  Fe63  1  0.00227033  -0.00338435  -0.00111160  1
  Fe  Fe64  1  0.12318442  0.37528664  0.12234787  1
  Fe  Fe65  1  0.74882046  0.49950087  0.50018095  1
  Fe  Fe66  1  0.49755561  0.50005170  0.00080757  1
  Fe  Fe67  1  0.62421912  0.62700483  0.87409541  1
  Fe  Fe68  1  0.12709158  0.12288469  0.87349052  1
  Fe  Fe69  1  0.50252030  0.49959615  0.49779217  1
  Fe  Fe70  1  0.12486566  0.87649638  0.37634861  1
  Fe  Fe71  1  0.49753481  0.24747892  0.00037793  1
  Fe  Fe72  1  -0.00053837  0.74974223  0.50237577  1
  Fe  Fe73  1  0.50027659  0.74919490  0.25144064  1
  Fe  Fe74  1  0.50162021  0.74878235  0.49758141  1
  Fe  Fe75  1  0.75184883  0.24958024  -0.00116727  1
  Fe  Fe76  1  0.62121963  0.12143687  0.87772296  1
  Fe  Fe77  1  0.00222324  0.50268933  -0.00453982  1
  Fe  Fe78  1  0.25475502  -0.00507069  -0.00031488  1
  Fe  Fe79  1  0.74893983  0.74998495  0.50089646  1
  Fe  Fe80  1  0.62530777  0.87729254  0.37189513  1
  Fe  Fe81  1  0.24803708  0.24880117  0.25297569  1
  Fe  Fe82  1  0.00061987  0.74979534  0.24838782  1
  Fe  Fe83  1  0.00468982  0.24804551  0.49918398  1
  Fe  Fe84  1  0.24763671  0.49880693  0.50074172  1
  Fe  Fe85  1  0.12704077  0.87274394  0.12559640  1
  Fe  Fe86  1  0.24877637  0.00419025  0.50406005  1
  Fe  Fe87  1  0.75070703  0.00475485  0.24976673  1
  Fe  Fe88  1  0.49844727  0.75395218  0.00353677  1
  Fe  Fe89  1  0.62464146  0.37177269  0.12492755  1
  Co  Co90  1  0.87692115  0.12638930  0.37639598  1
  Co  Co91  1  0.37787513  0.87520224  0.62073265  1
  Co  Co92  1  0.12451138  0.87528207  0.62513792  1
  Co  Co93  1  0.87497828  0.37492461  0.87766250  1
  Co  Co94  1  0.12515625  0.37600331  0.37435254  1
  Co  Co95  1  0.37475346  0.87298371  0.13127028  1
  Co  Co96  1  0.62552056  0.87553026  0.12775214  1
  Co  Co97  1  0.00300714  0.24696205  -0.00232452  1
  Co  Co98  1  0.75453795  0.24819832  0.24706884  1
  Co  Co99  1  0.62668450  0.12759463  0.37420639  1
  Co  Co100  1  0.62768294  0.62475196  0.37304836  1
  Co  Co101  1  0.49796069  0.00101235  0.74765527  1
  Co  Co102  1  0.24642138  0.24703463  0.49989117  1
  Co  Co103  1  0.49613758  -0.00111582  0.00698944  1
  Co  Co104  1  0.00026962  0.75180731  0.00029100  1
  Co  Co105  1  0.37004195  0.12717719  0.12317997  1
  Co  Co106  1  0.87335095  0.87380865  0.87682677  1
  Co  Co107  1  0.25304617  0.75553124  -0.00000688  1
  Co  Co108  1  0.12421065  0.12154419  0.37285679  1
  Co  Co109  1  0.37336901  0.12371193  0.37542600  1
  Co  Co110  1  0.49751230  0.24702053  0.24988071  1
  Co  Co111  1  -0.00173034  0.75158935  0.74874713  1
  Co  Co112  1  0.12885130  0.63025857  0.87485245  1
  Co  Co113  1  0.24749019  0.74960455  0.25287468  1
  Co  Co114  1  0.75044544  0.49880353  0.75268961  1
  Co  Co115  1  0.12296790  0.12521476  0.63013516  1
  Co  Co116  1  0.25408791  0.75175606  0.74613838  1
  Co  Co117  1  0.87296403  0.62420321  0.62611663  1
  Co  Co118  1  0.87525194  0.62452417  0.12329040  1
  Co  Co119  1  0.74818259  0.75434953  0.74908875  1
  Co  Co120  1  0.12569693  0.37488420  0.87415709  1
  Co  Co121  1  0.37954120  0.87590898  0.87278816  1
  Co  Co122  1  0.37690743  0.12724995  0.62468500  1
  Co  Co123  1  0.62613089  0.12861097  0.12297010  1
  Co  Co124  1  0.25035347  0.49822758  -0.00035181  1
  Co  Co125  1  0.74744568  0.75087867  0.00088021  1
  Co  Co126  1  0.37529727  0.12249372  0.87603446  1
  Co  Co127  1  0.75034228  0.24796483  0.50326240  1
