# generated using pymatgen
data_Fe45Co19
_symmetry_space_group_name_H-M   'P 1'
_cell_length_a   11.41399087
_cell_length_b   11.41393349
_cell_length_c   11.41460226
_cell_angle_alpha   90.00410462
_cell_angle_beta   89.99262558
_cell_angle_gamma   89.99650865
_symmetry_Int_Tables_number   1
_chemical_formula_structural   Fe45Co19
_chemical_formula_sum   'Fe90 Co38'
_cell_volume   1487.07761388
_cell_formula_units_Z   2
loop_
 _symmetry_equiv_pos_site_id
 _symmetry_equiv_pos_as_xyz
  1  'x, y, z'
loop_
 _atom_site_type_symbol
 _atom_site_label
 _atom_site_symmetry_multiplicity
 _atom_site_fract_x
 _atom_site_fract_y
 _atom_site_fract_z
 _atom_site_occupancy
  Fe  Fe0  1  0.87378409  0.37414442  0.62504228  1
  Fe  Fe1  1  0.62518200  0.62406902  0.62448110  1
  Fe  Fe2  1  0.12603994  0.87627412  0.62437832  1
  Fe  Fe3  1  0.12264221  0.62442849  0.62307472  1
  Fe  Fe4  1  0.00049240  0.24955100  0.25138433  1
  Fe  Fe5  1  0.87281546  0.12405345  0.63111840  1
  Fe  Fe6  1  0.75295598  0.50226871  0.49845287  1
  Fe  Fe7  1  0.75027017  0.00190765  0.25137490  1
  Fe  Fe8  1  0.62176056  0.12221409  0.37892138  1
  Fe  Fe9  1  -0.00405817  0.00249816  -0.00242356  1
  Fe  Fe10  1  0.38069048  0.12850332  0.62901207  1
  Fe  Fe11  1  0.87418358  0.62637515  0.12526641  1
  Fe  Fe12  1  0.25167299  0.49986196  0.24806647  1
  Fe  Fe13  1  -0.00224324  0.49845066  0.49712386  1
  Fe  Fe14  1  0.50183028  0.49726895  0.75155944  1
  Fe  Fe15  1  0.62645343  0.62329060  0.87810602  1
  Fe  Fe16  1  0.50142743  0.75175457  0.74958060  1
  Fe  Fe17  1  0.50063093  0.75078001  0.00069826  1
  Fe  Fe18  1  0.12409631  0.12285335  0.12624004  1
  Fe  Fe19  1  0.87472073  0.87655953  0.12455194  1
  Fe  Fe20  1  0.00038078  0.24907849  -0.00150103  1
  Fe  Fe21  1  -0.00218701  0.75022663  0.50009995  1
  Fe  Fe22  1  0.74732865  0.24820465  0.25015878  1
  Fe  Fe23  1  0.25058999  0.49772627  0.50296105  1
  Fe  Fe24  1  0.49687026  0.25141615  -0.00747529  1
  Fe  Fe25  1  0.25059743  0.24745636  0.25069397  1
  Fe  Fe26  1  0.62268130  0.87800948  0.87729045  1
  Fe  Fe27  1  0.00049265  0.74959007  0.74976890  1
  Fe  Fe28  1  0.24986486  0.74922887  0.75001715  1
  Fe  Fe29  1  0.13077482  0.37785076  0.87203636  1
  Fe  Fe30  1  0.62428948  0.37340651  0.12139996  1
  Fe  Fe31  1  0.25079097  0.75037128  0.50133231  1
  Fe  Fe32  1  0.49611603  -0.00226878  0.50143917  1
  Fe  Fe33  1  0.62615686  0.87881335  0.62330000  1
  Fe  Fe34  1  0.24796807  0.74977182  0.00056072  1
  Fe  Fe35  1  0.00094990  0.25108335  0.49908226  1
  Fe  Fe36  1  0.12470359  0.87855929  0.12619812  1
  Fe  Fe37  1  0.50007482  0.49909721  0.24937603  1
  Fe  Fe38  1  0.49537032  0.49567997  -0.00123967  1
  Fe  Fe39  1  0.37633551  0.12677764  0.12387824  1
  Fe  Fe40  1  0.49848220  0.49787570  0.50031727  1
  Fe  Fe41  1  0.74837906  0.75174190  0.75165468  1
  Fe  Fe42  1  0.37491721  0.62701906  0.12410872  1
  Fe  Fe43  1  0.62243049  0.62705854  0.37610487  1
  Fe  Fe44  1  0.37447117  0.37255337  0.37388355  1
  Fe  Fe45  1  0.25005516  0.75122000  0.24866386  1
  Fe  Fe46  1  0.12657496  0.37471262  0.12607671  1
  Fe  Fe47  1  0.25100648  0.00142143  0.74746489  1
  Fe  Fe48  1  0.74643236  0.75100589  0.25015749  1
  Fe  Fe49  1  0.62641841  0.37465918  0.37779865  1
  Fe  Fe50  1  0.25226138  0.25091085  -0.00251891  1
  Fe  Fe51  1  0.50137741  0.24950671  0.25206215  1
  Fe  Fe52  1  0.00338853  0.25038780  0.75029375  1
  Fe  Fe53  1  -0.00209527  0.00020755  0.50029129  1
  Fe  Fe54  1  0.87353352  0.87523326  0.37510992  1
  Fe  Fe55  1  0.00021979  0.49924047  0.00087375  1
  Fe  Fe56  1  -0.00205061  0.49778827  0.25261070  1
  Fe  Fe57  1  0.75100643  0.24679767  -0.00373406  1
  Fe  Fe58  1  0.12758816  0.87963453  0.37574956  1
  Fe  Fe59  1  0.00083287  0.74960177  0.00051717  1
  Fe  Fe60  1  0.37333877  0.62310909  0.87471802  1
  Fe  Fe61  1  0.62444459  0.87724764  0.12370077  1
  Fe  Fe62  1  0.12505638  0.62383645  0.37463796  1
  Fe  Fe63  1  0.87376302  0.87717407  0.62850417  1
  Fe  Fe64  1  0.74708500  0.24679269  0.50361679  1
  Fe  Fe65  1  0.87378715  0.37158946  0.12546481  1
  Fe  Fe66  1  0.37575588  0.87724382  0.87502092  1
  Fe  Fe67  1  0.00140497  0.75196796  0.25049669  1
  Fe  Fe68  1  0.12717640  0.12129284  0.37455073  1
  Fe  Fe69  1  0.74996874  0.49899637  0.25018658  1
  Fe  Fe70  1  0.87300717  0.37224187  0.87357454  1
  Fe  Fe71  1  0.49736200  -0.00064221  0.24832078  1
  Fe  Fe72  1  0.37631523  0.37110380  0.63077947  1
  Fe  Fe73  1  -0.00017012  0.50044090  0.74964277  1
  Fe  Fe74  1  0.25275408  0.00062955  0.00122497  1
  Fe  Fe75  1  0.37738759  0.62731175  0.37622633  1
  Fe  Fe76  1  0.12410789  0.12405142  0.62371639  1
  Fe  Fe77  1  0.37561516  0.87379264  0.37524618  1
  Fe  Fe78  1  0.12578023  0.12346564  0.87487263  1
  Fe  Fe79  1  0.87289231  0.62734688  0.87624686  1
  Fe  Fe80  1  0.87471604  0.12641150  0.37451999  1
  Fe  Fe81  1  0.75363370  0.00149891  -0.00422189  1
  Fe  Fe82  1  0.25028436  0.24974272  0.50077966  1
  Fe  Fe83  1  0.62408172  0.12488771  0.12150977  1
  Fe  Fe84  1  0.12734843  0.62207581  0.87570412  1
  Fe  Fe85  1  0.62524344  0.62377169  0.12217366  1
  Fe  Fe86  1  0.12423744  0.87678350  0.87409072  1
  Fe  Fe87  1  0.74951977  0.49843384  0.75103547  1
  Fe  Fe88  1  0.37803785  0.62777092  0.62523034  1
  Fe  Fe89  1  0.74947729  0.75002805  0.49982260  1
  Co  Co90  1  0.12778733  0.37485490  0.37443459  1
  Co  Co91  1  0.75347165  0.49891588  0.00150022  1
  Co  Co92  1  -0.00280800  0.00093570  0.25148715  1
  Co  Co93  1  0.50021183  -0.00277000  0.74836350  1
  Co  Co94  1  0.74821955  -0.00059118  0.75426307  1
  Co  Co95  1  0.74130942  0.25108673  0.74874819  1
  Co  Co96  1  0.87522486  0.12645377  0.12579253  1
  Co  Co97  1  0.36884612  0.37571381  0.86766046  1
  Co  Co98  1  0.50193623  0.75266700  0.50214425  1
  Co  Co99  1  0.37696854  0.12302384  0.87143844  1
  Co  Co100  1  0.24944224  0.50396236  0.74373618  1
  Co  Co101  1  0.00242505  0.00077544  0.75027133  1
  Co  Co102  1  0.25203835  0.49829643  0.00375640  1
  Co  Co103  1  0.87752561  0.87355886  0.87286724  1
  Co  Co104  1  0.24734603  0.24508991  0.74945216  1
  Co  Co105  1  0.62303086  0.87721559  0.37577879  1
  Co  Co106  1  0.25492525  0.00028986  0.24857531  1
  Co  Co107  1  0.62253655  0.12090252  0.87546883  1
  Co  Co108  1  0.12433656  0.62390677  0.12687417  1
  Co  Co109  1  0.62778367  0.37766373  0.87979243  1
  Co  Co110  1  0.50876375  0.25344778  0.75392576  1
  Co  Co111  1  0.87415862  0.62541564  0.62653702  1
  Co  Co112  1  0.62176420  0.12068581  0.62440557  1
  Co  Co113  1  0.37664506  0.12539120  0.37576907  1
  Co  Co114  1  0.74954251  0.75288583  -0.00028224  1
  Co  Co115  1  0.87482421  0.62824284  0.37252210  1
  Co  Co116  1  0.50148806  0.75086846  0.24823987  1
  Co  Co117  1  0.75249691  0.00165368  0.49884650  1
  Co  Co118  1  0.50062120  0.25205502  0.50025529  1
  Co  Co119  1  0.87425230  0.12772847  0.86808634  1
  Co  Co120  1  0.87150209  0.37069494  0.37595821  1
  Co  Co121  1  0.25433952  0.00238126  0.50297975  1
  Co  Co122  1  0.37606634  0.37103862  0.12720451  1
  Co  Co123  1  0.49778269  0.00079610  0.00227453  1
  Co  Co124  1  0.12407032  0.37508448  0.62543388  1
  Co  Co125  1  0.37509654  0.87274586  0.12289846  1
  Co  Co126  1  0.62573883  0.37790662  0.62153745  1
  Co  Co127  1  0.37414999  0.87286502  0.62673659  1
