# generated using pymatgen
data_Fe45Co19
_symmetry_space_group_name_H-M   'P 1'
_cell_length_a   11.41485164
_cell_length_b   11.41354359
_cell_length_c   11.41362517
_cell_angle_alpha   89.99915342
_cell_angle_beta   89.99613878
_cell_angle_gamma   89.99600070
_symmetry_Int_Tables_number   1
_chemical_formula_structural   Fe45Co19
_chemical_formula_sum   'Fe90 Co38'
_cell_volume   1487.01166999
_cell_formula_units_Z   2
loop_
 _symmetry_equiv_pos_site_id
 _symmetry_equiv_pos_as_xyz
  1  'x, y, z'
loop_
 _atom_site_type_symbol
 _atom_site_label
 _atom_site_symmetry_multiplicity
 _atom_site_fract_x
 _atom_site_fract_y
 _atom_site_fract_z
 _atom_site_occupancy
  Fe  Fe0  1  0.87498536  0.37769658  0.87642727  1
  Fe  Fe1  1  0.50115009  -0.00057587  0.24968125  1
  Fe  Fe2  1  0.12546051  0.12571441  0.12683720  1
  Fe  Fe3  1  0.50110911  0.75016776  0.49965011  1
  Fe  Fe4  1  -0.00015294  -0.00091102  0.25074686  1
  Fe  Fe5  1  0.37704540  0.87534865  0.62327982  1
  Fe  Fe6  1  0.24955938  -0.00105387  0.74878584  1
  Fe  Fe7  1  0.24904815  0.25108724  0.74763953  1
  Fe  Fe8  1  0.62647955  0.62693973  0.62271983  1
  Fe  Fe9  1  0.12656609  0.37640428  0.37671010  1
  Fe  Fe10  1  0.50260774  0.25289957  0.25184424  1
  Fe  Fe11  1  0.37760884  0.12420953  0.62299800  1
  Fe  Fe12  1  0.12421807  0.87387249  0.87564503  1
  Fe  Fe13  1  0.62484036  0.87395976  0.62659188  1
  Fe  Fe14  1  0.12465405  0.12588883  0.87631321  1
  Fe  Fe15  1  0.49997150  0.25119510  0.75125288  1
  Fe  Fe16  1  0.87027636  0.12466834  0.37084509  1
  Fe  Fe17  1  0.87677630  0.37371711  0.62484002  1
  Fe  Fe18  1  0.75281516  0.74627912  0.00216707  1
  Fe  Fe19  1  -0.00222419  0.25291205  0.25039749  1
  Fe  Fe20  1  -0.00020634  0.74930795  0.00161955  1
  Fe  Fe21  1  0.62427227  0.37142752  0.62163424  1
  Fe  Fe22  1  0.49650418  0.49632737  0.00061158  1
  Fe  Fe23  1  0.49960094  -0.00145932  0.00162785  1
  Fe  Fe24  1  -0.00051411  0.74982553  0.74969607  1
  Fe  Fe25  1  0.74889323  -0.00211824  0.75303550  1
  Fe  Fe26  1  -0.00459470  0.75000660  0.49286720  1
  Fe  Fe27  1  -0.00049270  0.25231732  0.00139102  1
  Fe  Fe28  1  0.37496158  0.87320437  0.87439053  1
  Fe  Fe29  1  0.62922233  0.87166123  0.37167363  1
  Fe  Fe30  1  0.50148462  0.74472128  0.25177766  1
  Fe  Fe31  1  -0.00089320  -0.00184499  0.00251031  1
  Fe  Fe32  1  0.37391060  0.12728714  0.87669251  1
  Fe  Fe33  1  0.25084632  0.24992269  0.49929535  1
  Fe  Fe34  1  0.37640673  0.12427796  0.37399949  1
  Fe  Fe35  1  0.25066547  0.75028744  0.74915019  1
  Fe  Fe36  1  0.12648897  0.37381846  0.87480453  1
  Fe  Fe37  1  0.87413253  0.38378985  0.12543327  1
  Fe  Fe38  1  0.62451648  0.37937075  0.12384258  1
  Fe  Fe39  1  0.12238124  0.12712287  0.62333432  1
  Fe  Fe40  1  0.24979292  0.24877737  0.25097372  1
  Fe  Fe41  1  0.75011331  0.25320029  0.00200028  1
  Fe  Fe42  1  0.62531268  0.12636428  0.87662422  1
  Fe  Fe43  1  0.62707031  0.37844397  0.37733998  1
  Fe  Fe44  1  0.24825328  0.49912878  0.74543740  1
  Fe  Fe45  1  0.62566353  0.12673686  0.12654677  1
  Fe  Fe46  1  0.37658721  0.37801128  0.37503182  1
  Fe  Fe47  1  0.37519583  0.62525597  0.62358896  1
  Fe  Fe48  1  0.62625372  0.87059755  0.12577054  1
  Fe  Fe49  1  0.86928233  0.38040913  0.37281249  1
  Fe  Fe50  1  0.50101606  0.49952578  0.74827209  1
  Fe  Fe51  1  0.62310963  0.62486064  0.87655838  1
  Fe  Fe52  1  0.37426008  0.62365748  0.87449058  1
  Fe  Fe53  1  0.12282410  0.62716493  0.12932456  1
  Fe  Fe54  1  0.37817353  0.62148504  0.37603193  1
  Fe  Fe55  1  0.12583498  0.37556208  0.12655932  1
  Fe  Fe56  1  0.74948783  -0.00238148  0.00080262  1
  Fe  Fe57  1  0.25087460  0.49982369  0.00305251  1
  Fe  Fe58  1  0.87492040  0.12534406  0.62592705  1
  Fe  Fe59  1  0.12760504  0.87388926  0.37169619  1
  Fe  Fe60  1  0.75006782  0.25095268  0.75015887  1
  Fe  Fe61  1  0.87355998  0.87207575  0.12942891  1
  Fe  Fe62  1  0.25085065  0.50306822  0.25023009  1
  Fe  Fe63  1  0.87465525  0.62590225  0.62314248  1
  Fe  Fe64  1  -0.00021309  0.50048218  0.49842245  1
  Fe  Fe65  1  0.75023383  0.75101847  0.75187913  1
  Fe  Fe66  1  0.49799176  0.25388372  0.00000903  1
  Fe  Fe67  1  0.00202661  0.49943813  0.74897360  1
  Fe  Fe68  1  0.12419990  0.62593055  0.62050636  1
  Fe  Fe69  1  0.24958779  0.00049310  0.49707956  1
  Fe  Fe70  1  0.12365830  0.87324687  0.62187656  1
  Fe  Fe71  1  0.87655947  0.62285473  0.87637961  1
  Fe  Fe72  1  0.12801097  0.87125283  0.13016196  1
  Fe  Fe73  1  0.37205544  0.87143252  0.12914443  1
  Fe  Fe74  1  0.12591353  0.62554186  0.87526786  1
  Fe  Fe75  1  0.87497158  0.87529834  0.62355303  1
  Fe  Fe76  1  0.37500389  0.12802481  0.12619558  1
  Fe  Fe77  1  0.25201347  0.74917583  0.49592694  1
  Fe  Fe78  1  0.74844372  0.49928808  0.74940340  1
  Fe  Fe79  1  0.49653927  0.75084681  -0.00091898  1
  Fe  Fe80  1  0.87300307  0.12594952  0.12735557  1
  Fe  Fe81  1  0.25069350  -0.00081162  0.00245576  1
  Fe  Fe82  1  -0.00040922  -0.00086041  0.75073319  1
  Fe  Fe83  1  0.50459556  0.00223573  0.49687006  1
  Fe  Fe84  1  -0.00050604  0.00003060  0.49580967  1
  Fe  Fe85  1  0.50135617  -0.00074886  0.75206726  1
  Fe  Fe86  1  0.87510331  0.12534471  0.87635813  1
  Fe  Fe87  1  0.74688297  0.00233860  0.49932471  1
  Fe  Fe88  1  0.37644845  0.37513879  0.62212581  1
  Fe  Fe89  1  -0.00262371  0.24993231  0.49663184  1
  Co  Co90  1  0.00210518  0.49992367  0.25372527  1
  Co  Co91  1  -0.00018267  0.25113300  0.75201411  1
  Co  Co92  1  0.86891328  0.87763878  0.37197963  1
  Co  Co93  1  0.12230243  0.37376036  0.62129328  1
  Co  Co94  1  0.61998866  0.62493060  0.11897720  1
  Co  Co95  1  0.62451962  0.87228023  0.87750113  1
  Co  Co96  1  0.37693870  0.62438014  0.12462396  1
  Co  Co97  1  0.24980909  0.25131897  0.00184601  1
  Co  Co98  1  0.25006162  0.74883746  0.00021119  1
  Co  Co99  1  0.87620181  0.87340312  0.87633415  1
  Co  Co100  1  0.50142871  0.24794423  0.49667595  1
  Co  Co101  1  0.62859166  0.12686337  0.36958169  1
  Co  Co102  1  0.87126059  0.61936040  0.37507459  1
  Co  Co103  1  0.75048029  0.74033385  0.24750250  1
  Co  Co104  1  0.00493535  0.49946144  -0.00130776  1
  Co  Co105  1  0.75231326  0.75107898  0.49901851  1
  Co  Co106  1  0.74883599  0.50266136  0.00027856  1
  Co  Co107  1  0.88119281  0.61913546  0.12538757  1
  Co  Co108  1  0.62521902  0.37583872  0.87601211  1
  Co  Co109  1  0.50392273  0.50242959  0.25050200  1
  Co  Co110  1  0.37481068  0.37496110  0.12964156  1
  Co  Co111  1  0.25173216  0.00207645  0.25025685  1
  Co  Co112  1  0.75047036  0.49937789  0.50473446  1
  Co  Co113  1  0.62446167  0.12653556  0.62814096  1
  Co  Co114  1  0.75046172  0.24810700  0.49982549  1
  Co  Co115  1  0.12372064  0.12610762  0.37326263  1
  Co  Co116  1  0.62712332  0.62388011  0.38159491  1
  Co  Co117  1  0.25046817  0.50029398  0.50080677  1
  Co  Co118  1  0.50122585  0.50034214  0.50232950  1
  Co  Co119  1  0.37669770  0.87544686  0.37394706  1
  Co  Co120  1  0.49961245  0.74866623  0.74927164  1
  Co  Co121  1  -0.00459918  0.74947735  0.25513358  1
  Co  Co122  1  0.74730309  -0.00053735  0.24678634  1
  Co  Co123  1  0.74973573  0.25590797  0.24747121  1
  Co  Co124  1  0.74415605  0.50682703  0.24684855  1
  Co  Co125  1  0.37231831  0.37629006  0.87326356  1
  Co  Co126  1  0.12474743  0.62444442  0.37526575  1
  Co  Co127  1  0.25402889  0.74479419  0.25403320  1
