# generated using pymatgen
data_Fe45Co19
_symmetry_space_group_name_H-M   'P 1'
_cell_length_a   11.41406213
_cell_length_b   11.41402859
_cell_length_c   11.41512342
_cell_angle_alpha   89.99822843
_cell_angle_beta   90.00087739
_cell_angle_gamma   90.00083771
_symmetry_Int_Tables_number   1
_chemical_formula_structural   Fe45Co19
_chemical_formula_sum   'Fe90 Co38'
_cell_volume   1487.16720298
_cell_formula_units_Z   2
loop_
 _symmetry_equiv_pos_site_id
 _symmetry_equiv_pos_as_xyz
  1  'x, y, z'
loop_
 _atom_site_type_symbol
 _atom_site_label
 _atom_site_symmetry_multiplicity
 _atom_site_fract_x
 _atom_site_fract_y
 _atom_site_fract_z
 _atom_site_occupancy
  Fe  Fe0  1  0.25053470  0.74612496  0.75049268  1
  Fe  Fe1  1  0.87207025  0.37321896  0.62336768  1
  Fe  Fe2  1  0.12153191  0.12098639  0.87658691  1
  Fe  Fe3  1  0.12623571  0.12417617  0.37542139  1
  Fe  Fe4  1  0.87685207  0.12289636  0.87466627  1
  Fe  Fe5  1  0.87506492  0.62774370  0.62242871  1
  Fe  Fe6  1  0.37526581  0.87413006  0.87291897  1
  Fe  Fe7  1  0.74786258  0.25184586  0.25494998  1
  Fe  Fe8  1  0.75042819  0.50130644  0.00251185  1
  Fe  Fe9  1  0.87791373  0.87655684  0.87452079  1
  Fe  Fe10  1  0.00007378  0.50100830  0.00215251  1
  Fe  Fe11  1  0.12650150  0.62261832  0.87500795  1
  Fe  Fe12  1  0.62372137  0.37574333  0.12878581  1
  Fe  Fe13  1  0.87344657  0.37472451  0.87398620  1
  Fe  Fe14  1  0.49690602  0.50131510  0.74614628  1
  Fe  Fe15  1  0.49959213  -0.00147101  0.00298929  1
  Fe  Fe16  1  0.49856954  -0.00187693  0.74667660  1
  Fe  Fe17  1  0.12685295  0.12499426  0.62259250  1
  Fe  Fe18  1  0.87324325  0.12469043  0.12669040  1
  Fe  Fe19  1  0.24973093  0.49766954  0.00177874  1
  Fe  Fe20  1  0.87386569  0.62534144  0.37451172  1
  Fe  Fe21  1  0.00403456  0.75035700  0.49929459  1
  Fe  Fe22  1  0.37506133  0.87480061  0.13041052  1
  Fe  Fe23  1  0.49987053  0.75041168  0.00001762  1
  Fe  Fe24  1  0.25018183  -0.00001959  0.00233623  1
  Fe  Fe25  1  0.62325904  0.12019889  0.37738852  1
  Fe  Fe26  1  0.00248939  0.74728879  0.24976508  1
  Fe  Fe27  1  0.37536074  0.37657181  0.87406071  1
  Fe  Fe28  1  0.37560762  0.62617161  0.37747707  1
  Fe  Fe29  1  0.37856790  0.37791320  0.37464297  1
  Fe  Fe30  1  0.37406358  0.62584248  0.12449821  1
  Fe  Fe31  1  0.00198539  0.74979242  0.74876636  1
  Fe  Fe32  1  0.74941289  0.75031906  0.75170349  1
  Fe  Fe33  1  0.00147874  -0.00109343  0.50092611  1
  Fe  Fe34  1  0.50006239  0.50036572  0.00362778  1
  Fe  Fe35  1  0.62743534  0.37432137  0.62290392  1
  Fe  Fe36  1  0.25023496  0.75063564  0.00049261  1
  Fe  Fe37  1  0.74874581  0.25051070  -0.00051508  1
  Fe  Fe38  1  0.62523835  0.12275194  0.12681318  1
  Fe  Fe39  1  0.87503107  0.12190673  0.37584917  1
  Fe  Fe40  1  0.00081928  0.25055241  0.74947916  1
  Fe  Fe41  1  0.50155169  0.25292765  0.49886145  1
  Fe  Fe42  1  0.37484311  0.12635388  0.12600918  1
  Fe  Fe43  1  0.50132856  0.25050501  0.74855185  1
  Fe  Fe44  1  0.63014136  0.62912365  0.12713215  1
  Fe  Fe45  1  0.12833120  0.37832150  0.62508768  1
  Fe  Fe46  1  0.12374528  0.87729921  0.87440248  1
  Fe  Fe47  1  0.25082262  0.00161317  0.74874143  1
  Fe  Fe48  1  0.49229547  -0.00643229  0.49988622  1
  Fe  Fe49  1  0.12858854  0.87491586  0.62486420  1
  Fe  Fe50  1  0.50176526  0.75074835  0.25278959  1
  Fe  Fe51  1  0.37431311  0.62801985  0.62156684  1
  Fe  Fe52  1  0.12770405  0.62362474  0.37660632  1
  Fe  Fe53  1  0.87535122  0.62473149  0.87527782  1
  Fe  Fe54  1  0.00055600  0.74897779  0.00120682  1
  Fe  Fe55  1  0.25065801  0.50024706  0.24965411  1
  Fe  Fe56  1  0.62617891  0.12269328  0.62112829  1
  Fe  Fe57  1  0.24973169  0.25059100  0.25120212  1
  Fe  Fe58  1  0.12777394  0.87426910  0.12728456  1
  Fe  Fe59  1  0.12964841  0.87556019  0.37346604  1
  Fe  Fe60  1  0.24831002  0.25152675  0.00000341  1
  Fe  Fe61  1  0.37691147  0.12485652  0.87549149  1
  Fe  Fe62  1  0.00159353  0.25013534  0.00086996  1
  Fe  Fe63  1  0.50053216  0.25092108  0.00120125  1
  Fe  Fe64  1  0.87577272  0.37496089  0.12624854  1
  Fe  Fe65  1  0.62416244  0.62971377  0.62241078  1
  Fe  Fe66  1  0.62227009  0.62472360  0.87428567  1
  Fe  Fe67  1  0.62358749  0.62000373  0.37641447  1
  Fe  Fe68  1  0.00089074  0.50034203  0.50034474  1
  Fe  Fe69  1  0.62454098  0.37666193  0.87334483  1
  Fe  Fe70  1  0.75027067  0.50149357  0.74751849  1
  Fe  Fe71  1  0.87291726  0.12624423  0.62266601  1
  Fe  Fe72  1  0.00039344  0.25127174  0.49874872  1
  Fe  Fe73  1  0.87423892  0.87344633  0.62283927  1
  Fe  Fe74  1  0.00109557  0.24978343  0.25095395  1
  Fe  Fe75  1  0.00234923  -0.00018238  0.24731532  1
  Fe  Fe76  1  -0.00027075  0.50253427  0.24837616  1
  Fe  Fe77  1  0.74996367  -0.00310299  0.00086286  1
  Fe  Fe78  1  0.00055040  0.50032420  0.74863823  1
  Fe  Fe79  1  0.62404380  0.12417713  0.87498183  1
  Fe  Fe80  1  0.87192391  0.86907091  0.12723097  1
  Fe  Fe81  1  0.37440187  0.12728899  0.62298976  1
  Fe  Fe82  1  0.75026377  0.00009173  0.74797096  1
  Fe  Fe83  1  0.74815821  0.75345194  0.49454745  1
  Fe  Fe84  1  0.74864908  -0.00534305  0.25256257  1
  Fe  Fe85  1  0.50085338  0.24902207  0.25180206  1
  Fe  Fe86  1  0.87370206  0.37710553  0.37634468  1
  Fe  Fe87  1  0.25035032  0.25283766  0.49724753  1
  Fe  Fe88  1  0.62234339  0.87416494  0.87339363  1
  Fe  Fe89  1  0.24934731  0.24987388  0.75195050  1
  Co  Co90  1  0.25198866  0.49970699  0.49857897  1
  Co  Co91  1  0.74939746  0.75042752  -0.00514134  1
  Co  Co92  1  0.75241699  -0.00358290  0.49798115  1
  Co  Co93  1  0.24960710  0.74531991  0.24916723  1
  Co  Co94  1  0.75001395  0.50064680  0.50113590  1
  Co  Co95  1  0.12374888  0.37508541  0.12763936  1
  Co  Co96  1  0.74685457  0.75242702  0.25812226  1
  Co  Co97  1  0.62561201  0.87352690  0.62460469  1
  Co  Co98  1  0.37226838  0.87103024  0.62723701  1
  Co  Co99  1  0.62046326  0.87969491  0.37639300  1
  Co  Co100  1  0.49933780  0.75363566  0.49715029  1
  Co  Co101  1  0.37540928  0.62382718  0.87829681  1
  Co  Co102  1  0.49872749  0.49931974  0.50397757  1
  Co  Co103  1  0.74824434  0.25048643  0.49506412  1
  Co  Co104  1  0.74891018  0.24824188  0.75056249  1
  Co  Co105  1  0.87132406  0.62960986  0.12655404  1
  Co  Co106  1  0.37251014  0.37261297  0.62504290  1
  Co  Co107  1  0.24886691  0.75007657  0.49995669  1
  Co  Co108  1  0.49850487  0.50358955  0.24731874  1
  Co  Co109  1  0.12509812  0.62283323  0.62421640  1
  Co  Co110  1  0.12596903  0.37725130  0.87398589  1
  Co  Co111  1  0.36964034  0.87152769  0.37045757  1
  Co  Co112  1  0.12576589  0.12707515  0.12510117  1
  Co  Co113  1  0.62250044  0.38067629  0.37438576  1
  Co  Co114  1  0.12638292  0.62372270  0.12366483  1
  Co  Co115  1  0.75142040  0.49956899  0.24928134  1
  Co  Co116  1  0.88094787  0.87482393  0.37430869  1
  Co  Co117  1  0.49770936  -0.00022705  0.25025256  1
  Co  Co118  1  0.25390550  0.50311880  0.74860312  1
  Co  Co119  1  0.37522184  0.37368039  0.12659773  1
  Co  Co120  1  -0.00096730  -0.00225695  0.00613699  1
  Co  Co121  1  0.12406527  0.37721088  0.37407439  1
  Co  Co122  1  0.49799711  0.74845552  0.74991208  1
  Co  Co123  1  0.00005293  0.00004662  0.74498130  1
  Co  Co124  1  0.25305950  -0.00124716  0.49896374  1
  Co  Co125  1  0.37587954  0.12642377  0.37688631  1
  Co  Co126  1  0.62511224  0.87247850  0.12547034  1
  Co  Co127  1  0.25138269  0.00432239  0.25068127  1
