# generated using pymatgen
data_Fe45Co19
_symmetry_space_group_name_H-M   'P 1'
_cell_length_a   11.41551335
_cell_length_b   11.41554807
_cell_length_c   11.41460811
_cell_angle_alpha   90.00202607
_cell_angle_beta   90.00264812
_cell_angle_gamma   90.00316522
_symmetry_Int_Tables_number   1
_chemical_formula_structural   Fe45Co19
_chemical_formula_sum   'Fe90 Co38'
_cell_volume   1487.48713186
_cell_formula_units_Z   2
loop_
 _symmetry_equiv_pos_site_id
 _symmetry_equiv_pos_as_xyz
  1  'x, y, z'
loop_
 _atom_site_type_symbol
 _atom_site_label
 _atom_site_symmetry_multiplicity
 _atom_site_fract_x
 _atom_site_fract_y
 _atom_site_fract_z
 _atom_site_occupancy
  Fe  Fe0  1  0.25122192  -0.00088029  0.25087128  1
  Fe  Fe1  1  0.12337711  0.87336862  0.37602194  1
  Fe  Fe2  1  0.37767638  0.12190268  0.37754112  1
  Fe  Fe3  1  0.25061130  -0.00012739  0.74912901  1
  Fe  Fe4  1  0.49788649  0.75105003  0.75205409  1
  Fe  Fe5  1  0.12783068  0.37511080  0.12660673  1
  Fe  Fe6  1  0.62497996  0.12762203  0.62952861  1
  Fe  Fe7  1  0.37745067  0.87635085  0.37827162  1
  Fe  Fe8  1  0.00066551  0.00084801  0.74890113  1
  Fe  Fe9  1  0.37914732  0.12328157  0.87615754  1
  Fe  Fe10  1  0.87495630  0.87598973  0.37676954  1
  Fe  Fe11  1  0.62209594  0.12492098  0.37316872  1
  Fe  Fe12  1  0.87338691  0.62477284  0.62534546  1
  Fe  Fe13  1  -0.00233626  0.24952541  0.74891091  1
  Fe  Fe14  1  0.74781593  0.00061662  0.50058298  1
  Fe  Fe15  1  0.37661026  0.12077764  0.12474352  1
  Fe  Fe16  1  0.12281859  0.12539797  0.87562639  1
  Fe  Fe17  1  0.62278594  0.36997071  0.87401902  1
  Fe  Fe18  1  0.49899403  0.24919499  0.50289490  1
  Fe  Fe19  1  0.12435773  0.62678753  0.37312095  1
  Fe  Fe20  1  0.12634785  0.37492466  0.87627739  1
  Fe  Fe21  1  -0.00376728  0.75152554  0.24844456  1
  Fe  Fe22  1  0.50786450  -0.00256257  0.00356066  1
  Fe  Fe23  1  0.12752740  0.87218939  0.87322597  1
  Fe  Fe24  1  0.75245889  0.00298285  0.75297758  1
  Fe  Fe25  1  0.25103503  0.50221030  0.75161519  1
  Fe  Fe26  1  0.24981309  0.50071917  0.49743452  1
  Fe  Fe27  1  0.24816794  -0.00046046  0.50086673  1
  Fe  Fe28  1  0.74898622  0.75004369  0.49949368  1
  Fe  Fe29  1  0.74471976  0.75109007  -0.00610889  1
  Fe  Fe30  1  0.00106818  0.50187246  -0.00054798  1
  Fe  Fe31  1  0.74712914  0.50146807  -0.00309539  1
  Fe  Fe32  1  0.12380688  0.12651174  0.37627400  1
  Fe  Fe33  1  0.87586207  0.37322275  0.87727018  1
  Fe  Fe34  1  0.87617537  0.12404996  0.37536739  1
  Fe  Fe35  1  0.87397288  0.37615605  0.37463973  1
  Fe  Fe36  1  0.62587473  0.37389200  0.62746097  1
  Fe  Fe37  1  0.37648867  0.62621403  0.37323834  1
  Fe  Fe38  1  0.75060282  0.24990875  0.49949867  1
  Fe  Fe39  1  0.74853330  0.00043233  0.24902529  1
  Fe  Fe40  1  0.62301320  0.62714208  0.37219025  1
  Fe  Fe41  1  0.62383899  0.87483432  0.37437903  1
  Fe  Fe42  1  0.74767605  0.49972426  0.24912755  1
  Fe  Fe43  1  0.74646863  0.50057914  0.49789305  1
  Fe  Fe44  1  0.75092523  0.49974064  0.75434540  1
  Fe  Fe45  1  0.87440220  0.62472167  0.37517987  1
  Fe  Fe46  1  0.49828248  0.75578980  0.24573559  1
  Fe  Fe47  1  0.87660194  0.87594017  0.62338407  1
  Fe  Fe48  1  0.62327348  0.62763417  0.12407502  1
  Fe  Fe49  1  -0.00110866  0.49950119  0.24785858  1
  Fe  Fe50  1  -0.00022948  0.00014066  0.24766711  1
  Fe  Fe51  1  0.24675426  0.00055338  -0.00050152  1
  Fe  Fe52  1  0.86989493  0.87737412  0.12087198  1
  Fe  Fe53  1  0.62529943  0.87327511  0.62766779  1
  Fe  Fe54  1  0.75048995  0.24986169  0.25030246  1
  Fe  Fe55  1  0.00012012  0.50156447  0.75272091  1
  Fe  Fe56  1  -0.00116179  0.24895502  0.24733353  1
  Fe  Fe57  1  0.37550490  0.62543541  0.62450995  1
  Fe  Fe58  1  0.24944521  0.50452915  0.00486181  1
  Fe  Fe59  1  0.37451234  0.37483068  0.87963038  1
  Fe  Fe60  1  0.62494126  0.37175565  0.12271025  1
  Fe  Fe61  1  0.25276208  0.74971322  0.24563457  1
  Fe  Fe62  1  0.50150193  0.50135496  0.49984771  1
  Fe  Fe63  1  0.12649299  0.37471762  0.62472666  1
  Fe  Fe64  1  0.25139777  0.24722194  0.00129634  1
  Fe  Fe65  1  0.37530895  0.87509748  0.62234197  1
  Fe  Fe66  1  0.12581257  0.37338860  0.37455276  1
  Fe  Fe67  1  0.49726227  -0.00033984  0.74745796  1
  Fe  Fe68  1  0.12676947  0.87581394  0.12528474  1
  Fe  Fe69  1  0.87481173  0.87742108  0.87665475  1
  Fe  Fe70  1  0.25301024  0.24830288  0.75068501  1
  Fe  Fe71  1  0.25243476  0.24873295  0.24935333  1
  Fe  Fe72  1  0.00089996  0.74741218  0.74906058  1
  Fe  Fe73  1  0.00124613  0.50034889  0.50017101  1
  Fe  Fe74  1  0.37414761  0.87388215  0.87927832  1
  Fe  Fe75  1  0.37340479  0.37519638  0.62364492  1
  Fe  Fe76  1  0.49816714  0.25057022  0.24721787  1
  Fe  Fe77  1  0.49840038  0.49851670  0.75307451  1
  Fe  Fe78  1  0.49998561  0.49744353  0.24696728  1
  Fe  Fe79  1  0.12526144  0.12613536  0.62279951  1
  Fe  Fe80  1  0.87317008  0.37499443  0.62488303  1
  Fe  Fe81  1  0.87222795  0.37431288  0.12302930  1
  Fe  Fe82  1  0.00088473  0.24725077  0.00339883  1
  Fe  Fe83  1  0.74842034  0.24196347  -0.00326181  1
  Fe  Fe84  1  0.37574384  0.37563112  0.37462682  1
  Fe  Fe85  1  0.00290985  0.74998747  -0.00066762  1
  Fe  Fe86  1  0.87269438  0.62657305  0.12204426  1
  Fe  Fe87  1  0.37599666  0.62825589  0.88095982  1
  Fe  Fe88  1  0.62553551  0.62641101  0.62956557  1
  Fe  Fe89  1  0.24842644  0.74999347  0.50236932  1
  Co  Co90  1  0.87432776  0.12359152  0.62336328  1
  Co  Co91  1  0.63172285  0.87405806  0.12800925  1
  Co  Co92  1  0.12439993  0.87500352  0.62628241  1
  Co  Co93  1  0.37355890  0.12338745  0.62325704  1
  Co  Co94  1  0.25120145  0.50186005  0.24961804  1
  Co  Co95  1  0.75459882  0.24797334  0.75384403  1
  Co  Co96  1  0.00343021  -0.00220792  0.00183253  1
  Co  Co97  1  0.49869262  0.24881109  0.00168461  1
  Co  Co98  1  0.37259518  0.87788936  0.11995449  1
  Co  Co99  1  0.50250817  0.49810979  -0.00085585  1
  Co  Co100  1  0.38046664  0.62585736  0.12321131  1
  Co  Co101  1  0.62301825  0.37330613  0.37535269  1
  Co  Co102  1  0.25309953  0.75064318  0.74858837  1
  Co  Co103  1  0.62445152  0.12598366  0.12869736  1
  Co  Co104  1  0.62483232  0.87788586  0.86916967  1
  Co  Co105  1  0.50232113  0.74970396  0.50092506  1
  Co  Co106  1  0.37319191  0.37615727  0.12391754  1
  Co  Co107  1  0.12816220  0.62617927  0.87362957  1
  Co  Co108  1  0.50370092  0.00053682  0.50250902  1
  Co  Co109  1  0.61860490  0.12625408  0.86923637  1
  Co  Co110  1  0.25198012  0.25016019  0.49928193  1
  Co  Co111  1  0.50501875  0.75585414  0.00011461  1
  Co  Co112  1  0.12680851  0.62368720  0.62599136  1
  Co  Co113  1  0.50004792  -0.00440148  0.24828208  1
  Co  Co114  1  0.24788771  0.74788096  0.00462069  1
  Co  Co115  1  0.12174667  0.62574795  0.12822516  1
  Co  Co116  1  0.87490379  0.62647625  0.87622646  1
  Co  Co117  1  0.12697717  0.12380095  0.12605983  1
  Co  Co118  1  0.87988738  0.12223080  0.87806365  1
  Co  Co119  1  0.62261457  0.62592546  0.87165674  1
  Co  Co120  1  -0.00041167  0.74929931  0.50092703  1
  Co  Co121  1  0.74377545  0.00386917  -0.00394619  1
  Co  Co122  1  0.49361698  0.25244926  0.74890647  1
  Co  Co123  1  0.87368599  0.12130365  0.12388411  1
  Co  Co124  1  0.00144580  0.00038474  0.49924973  1
  Co  Co125  1  0.75186622  0.74923283  0.25192062  1
  Co  Co126  1  0.75287503  0.75127701  0.75153133  1
  Co  Co127  1  -0.00264396  0.25077902  0.50065320  1
