# generated using pymatgen
data_Fe45Co19
_symmetry_space_group_name_H-M   'P 1'
_cell_length_a   11.41427038
_cell_length_b   11.41523785
_cell_length_c   11.41637812
_cell_angle_alpha   90.00041047
_cell_angle_beta   89.99811677
_cell_angle_gamma   90.00049726
_symmetry_Int_Tables_number   1
_chemical_formula_structural   Fe45Co19
_chemical_formula_sum   'Fe90 Co38'
_cell_volume   1487.51538127
_cell_formula_units_Z   2
loop_
 _symmetry_equiv_pos_site_id
 _symmetry_equiv_pos_as_xyz
  1  'x, y, z'
loop_
 _atom_site_type_symbol
 _atom_site_label
 _atom_site_symmetry_multiplicity
 _atom_site_fract_x
 _atom_site_fract_y
 _atom_site_fract_z
 _atom_site_occupancy
  Fe  Fe0  1  0.62552880  0.62840408  0.11979879  1
  Fe  Fe1  1  0.49776936  0.24796663  0.25064725  1
  Fe  Fe2  1  0.87568933  0.12508796  0.87614532  1
  Fe  Fe3  1  0.62383728  0.12807224  0.37829434  1
  Fe  Fe4  1  0.74691807  0.49945416  0.75231585  1
  Fe  Fe5  1  0.12784559  0.12509188  0.12165463  1
  Fe  Fe6  1  0.00142533  0.50109582  0.75059259  1
  Fe  Fe7  1  0.00428290  0.00219905  0.25077069  1
  Fe  Fe8  1  0.49978411  -0.00306608  0.50290388  1
  Fe  Fe9  1  0.25395812  0.25010373  0.75221793  1
  Fe  Fe10  1  0.62455739  0.12640003  0.12309286  1
  Fe  Fe11  1  0.37607770  0.62152765  0.87333775  1
  Fe  Fe12  1  0.75105772  0.25204331  -0.00091479  1
  Fe  Fe13  1  0.37236378  0.37843693  0.12542063  1
  Fe  Fe14  1  0.75113700  0.24813776  0.25240256  1
  Fe  Fe15  1  0.49912371  0.00021975  0.00033313  1
  Fe  Fe16  1  0.74658112  0.00091914  0.75137885  1
  Fe  Fe17  1  0.74974707  0.25058793  0.75028916  1
  Fe  Fe18  1  0.75175728  0.74894267  0.49748114  1
  Fe  Fe19  1  0.24897192  0.49903183  0.49939888  1
  Fe  Fe20  1  0.00116101  0.75137034  -0.00096088  1
  Fe  Fe21  1  0.25546172  0.25037111  -0.00338277  1
  Fe  Fe22  1  0.87495111  0.37535823  0.37498745  1
  Fe  Fe23  1  0.25170406  0.75281184  0.00030238  1
  Fe  Fe24  1  0.37475008  0.37585849  0.37449546  1
  Fe  Fe25  1  0.12737531  0.37443426  0.87573208  1
  Fe  Fe26  1  0.00042760  0.50119320  0.50023690  1
  Fe  Fe27  1  0.87366769  0.37645146  0.12574049  1
  Fe  Fe28  1  0.62074082  0.87101080  0.37511152  1
  Fe  Fe29  1  0.61945887  0.12908107  0.87622027  1
  Fe  Fe30  1  0.00095979  0.24683879  0.49780277  1
  Fe  Fe31  1  0.12783528  0.62409254  0.12529715  1
  Fe  Fe32  1  0.25478869  0.75268186  0.50301397  1
  Fe  Fe33  1  0.37432940  0.12268581  0.62562137  1
  Fe  Fe34  1  0.62416289  0.37348625  0.12655162  1
  Fe  Fe35  1  0.74647730  0.50296323  0.25305368  1
  Fe  Fe36  1  0.00025651  0.24944185  0.75137591  1
  Fe  Fe37  1  0.00545487  -0.00346556  -0.00239072  1
  Fe  Fe38  1  0.87683056  0.87450298  0.87297576  1
  Fe  Fe39  1  -0.00057369  0.74988327  0.50089210  1
  Fe  Fe40  1  0.74972785  0.74851583  0.25059645  1
  Fe  Fe41  1  0.87468137  0.37516646  0.62521939  1
  Fe  Fe42  1  0.12740691  0.87535546  0.37434403  1
  Fe  Fe43  1  0.24831166  0.25213301  0.25150663  1
  Fe  Fe44  1  0.12706101  0.62715713  0.87368015  1
  Fe  Fe45  1  0.74946924  0.00039696  0.49961877  1
  Fe  Fe46  1  0.50198008  0.49815225  0.49753562  1
  Fe  Fe47  1  -0.00109280  0.25278339  0.00056844  1
  Fe  Fe48  1  0.12551485  0.87343899  0.62860189  1
  Fe  Fe49  1  0.50184603  0.50071093  0.74981248  1
  Fe  Fe50  1  0.50029552  0.49942724  0.00072347  1
  Fe  Fe51  1  0.87507824  0.12420963  0.62549333  1
  Fe  Fe52  1  0.37340457  0.12187055  0.12452990  1
  Fe  Fe53  1  0.37065330  0.12159844  0.37667043  1
  Fe  Fe54  1  0.87262829  0.62278581  0.87720048  1
  Fe  Fe55  1  0.87434603  0.87556608  0.62633633  1
  Fe  Fe56  1  0.37290886  0.62254373  0.12510203  1
  Fe  Fe57  1  0.12653839  0.62513198  0.37567994  1
  Fe  Fe58  1  0.00352153  0.49865594  0.25005442  1
  Fe  Fe59  1  0.62430698  0.37147335  0.62137920  1
  Fe  Fe60  1  0.00319513  0.00160281  0.75107645  1
  Fe  Fe61  1  0.25463116  0.74617498  0.74666872  1
  Fe  Fe62  1  0.87580458  0.87612588  0.12611915  1
  Fe  Fe63  1  0.62190174  0.87296933  0.12481898  1
  Fe  Fe64  1  0.87495046  0.12239145  0.12375360  1
  Fe  Fe65  1  0.74809400  -0.00225862  -0.00201115  1
  Fe  Fe66  1  0.12670833  0.62576911  0.62480792  1
  Fe  Fe67  1  0.00387560  0.00183401  0.50052151  1
  Fe  Fe68  1  0.37588332  0.87845915  0.87075024  1
  Fe  Fe69  1  0.50193392  0.50214493  0.25111035  1
  Fe  Fe70  1  0.00041738  0.74883584  0.25053499  1
  Fe  Fe71  1  0.37735393  0.62623312  0.37677786  1
  Fe  Fe72  1  0.37451273  0.37745004  0.62543756  1
  Fe  Fe73  1  0.74741177  0.00027180  0.25124028  1
  Fe  Fe74  1  0.87606107  0.87616632  0.37433676  1
  Fe  Fe75  1  0.24558678  0.00496367  0.75340575  1
  Fe  Fe76  1  0.62349841  0.12837920  0.62302232  1
  Fe  Fe77  1  0.37607612  0.87709989  0.37218910  1
  Fe  Fe78  1  0.74931806  0.74818008  0.75212319  1
  Fe  Fe79  1  0.37605770  0.87811603  0.12748942  1
  Fe  Fe80  1  0.62211498  0.62828789  0.62240412  1
  Fe  Fe81  1  0.62108933  0.37245212  0.87634561  1
  Fe  Fe82  1  0.62004743  0.87034923  0.87373065  1
  Fe  Fe83  1  0.00321585  0.24946574  0.25077988  1
  Fe  Fe84  1  0.25142790  0.75011751  0.24965108  1
  Fe  Fe85  1  0.74816546  0.50036506  0.49625995  1
  Fe  Fe86  1  0.00184639  0.49861032  -0.00035386  1
  Fe  Fe87  1  0.12588802  0.37304135  0.62445025  1
  Fe  Fe88  1  0.87332017  0.62417212  0.12304376  1
  Fe  Fe89  1  0.87359437  0.62426042  0.62479242  1
  Co  Co90  1  0.62286576  0.62768202  0.87814425  1
  Co  Co91  1  0.24718286  -0.00080423  0.24749799  1
  Co  Co92  1  0.75390447  0.24949653  0.49996512  1
  Co  Co93  1  0.37696740  0.37903820  0.87439628  1
  Co  Co94  1  0.12476537  0.37515197  0.37741824  1
  Co  Co95  1  0.62440969  0.37073360  0.37510779  1
  Co  Co96  1  0.24906618  0.50028454  0.25316707  1
  Co  Co97  1  0.12707722  0.12813296  0.62539980  1
  Co  Co98  1  0.49544350  0.25159964  0.00343269  1
  Co  Co99  1  0.50231893  0.00394215  0.25068938  1
  Co  Co100  1  0.24892859  0.50104342  -0.00233779  1
  Co  Co101  1  0.87556303  0.12319638  0.37406309  1
  Co  Co102  1  0.12923681  0.37494284  0.12275871  1
  Co  Co103  1  0.24780986  0.49915847  0.74900553  1
  Co  Co104  1  0.87539951  0.37573882  0.87353673  1
  Co  Co105  1  0.61934963  0.63035974  0.37810938  1
  Co  Co106  1  -0.00303569  0.74658104  0.74888838  1
  Co  Co107  1  0.87705329  0.62364315  0.37404483  1
  Co  Co108  1  0.49665211  0.25132907  0.74724938  1
  Co  Co109  1  0.37693932  0.61871323  0.62294680  1
  Co  Co110  1  0.24829589  -0.00284371  0.50247819  1
  Co  Co111  1  0.50590149  0.00070649  0.74677097  1
  Co  Co112  1  0.25165182  0.25132635  0.50047131  1
  Co  Co113  1  0.49653871  0.74817978  0.74592099  1
  Co  Co114  1  0.37244922  0.88169659  0.63194652  1
  Co  Co115  1  0.12473806  0.12873992  0.87873989  1
  Co  Co116  1  0.74784482  0.49608920  -0.00114625  1
  Co  Co117  1  0.49345213  0.75581910  0.50687172  1
  Co  Co118  1  0.24899184  -0.00283912  -0.00203282  1
  Co  Co119  1  0.12529916  0.87372040  0.12655288  1
  Co  Co120  1  0.38007365  0.12166883  0.87387135  1
  Co  Co121  1  0.12746252  0.87006191  0.86951886  1
  Co  Co122  1  0.49458396  0.24962503  0.49998650  1
  Co  Co123  1  0.49832586  0.74751442  0.24673013  1
  Co  Co124  1  0.62864100  0.87090475  0.62552970  1
  Co  Co125  1  0.75246793  0.75384049  -0.00075085  1
  Co  Co126  1  0.13068324  0.12438455  0.37528350  1
  Co  Co127  1  0.49349740  0.75062928  -0.00039447  1
