# generated using pymatgen
data_Fe45Co19
_symmetry_space_group_name_H-M   'P 1'
_cell_length_a   11.41538866
_cell_length_b   11.41616817
_cell_length_c   11.41526160
_cell_angle_alpha   90.00371299
_cell_angle_beta   89.99458889
_cell_angle_gamma   89.99910144
_symmetry_Int_Tables_number   1
_chemical_formula_structural   Fe45Co19
_chemical_formula_sum   'Fe90 Co38'
_cell_volume   1487.63684398
_cell_formula_units_Z   2
loop_
 _symmetry_equiv_pos_site_id
 _symmetry_equiv_pos_as_xyz
  1  'x, y, z'
loop_
 _atom_site_type_symbol
 _atom_site_label
 _atom_site_symmetry_multiplicity
 _atom_site_fract_x
 _atom_site_fract_y
 _atom_site_fract_z
 _atom_site_occupancy
  Fe  Fe0  1  0.37563446  0.87197641  0.37326073  1
  Fe  Fe1  1  0.37480824  0.12378743  0.12070987  1
  Fe  Fe2  1  0.87151956  0.62430979  0.62109915  1
  Fe  Fe3  1  -0.00085808  0.49917770  0.25316191  1
  Fe  Fe4  1  0.37477783  0.87352986  0.87663183  1
  Fe  Fe5  1  0.87451988  0.12400260  0.62545389  1
  Fe  Fe6  1  0.50254043  0.74638116  0.50243476  1
  Fe  Fe7  1  0.25338847  0.49756941  0.26014631  1
  Fe  Fe8  1  0.75065461  0.49974126  0.75078868  1
  Fe  Fe9  1  0.87752172  0.12573583  0.37478747  1
  Fe  Fe10  1  0.12787676  0.62035599  0.62180622  1
  Fe  Fe11  1  0.25301445  0.25430051  0.50066272  1
  Fe  Fe12  1  0.74427947  0.25008348  -0.00300085  1
  Fe  Fe13  1  0.50048169  0.49982627  0.00034856  1
  Fe  Fe14  1  0.74855778  0.74884687  0.24959437  1
  Fe  Fe15  1  0.12501506  0.12845511  0.37328190  1
  Fe  Fe16  1  0.87405394  0.37534693  0.12386815  1
  Fe  Fe17  1  0.00226337  -0.00138088  0.49988105  1
  Fe  Fe18  1  0.37888161  0.12553990  0.87756309  1
  Fe  Fe19  1  0.37653412  0.37468807  0.87529380  1
  Fe  Fe20  1  0.87517542  0.37300666  0.87635230  1
  Fe  Fe21  1  0.12778564  0.37938858  0.62339081  1
  Fe  Fe22  1  0.12724958  0.87350855  0.37023316  1
  Fe  Fe23  1  0.24925355  0.74939440  0.74987307  1
  Fe  Fe24  1  0.74595085  0.49872863  0.25365682  1
  Fe  Fe25  1  0.37057100  0.87659728  0.12706252  1
  Fe  Fe26  1  -0.00124057  0.50086271  0.74930565  1
  Fe  Fe27  1  0.00006172  0.75072554  0.74690135  1
  Fe  Fe28  1  0.75161909  0.00112098  -0.00329990  1
  Fe  Fe29  1  0.37178670  0.87480745  0.62392706  1
  Fe  Fe30  1  0.24985941  -0.00010990  0.75333558  1
  Fe  Fe31  1  0.75180199  0.00151450  0.24940861  1
  Fe  Fe32  1  0.75090632  0.75146873  0.75030657  1
  Fe  Fe33  1  0.62225964  0.37869267  0.62245947  1
  Fe  Fe34  1  0.24826211  0.74852783  0.00339510  1
  Fe  Fe35  1  0.50017830  0.74993790  0.00326191  1
  Fe  Fe36  1  0.49873491  0.00214690  0.24911968  1
  Fe  Fe37  1  0.25217639  0.25270458  0.24776019  1
  Fe  Fe38  1  0.12649720  0.12340410  0.62518028  1
  Fe  Fe39  1  0.74777255  0.50021808  -0.00021940  1
  Fe  Fe40  1  0.74722369  0.25018672  0.75229247  1
  Fe  Fe41  1  0.87456958  0.87159011  0.12038816  1
  Fe  Fe42  1  0.37098915  0.62009254  0.62298411  1
  Fe  Fe43  1  0.87403064  0.12840708  0.12160741  1
  Fe  Fe44  1  0.62387941  0.87432345  0.37390702  1
  Fe  Fe45  1  0.62329785  0.87475272  0.87567330  1
  Fe  Fe46  1  0.24906897  0.25321469  0.00227026  1
  Fe  Fe47  1  0.37511429  0.62598808  0.87560928  1
  Fe  Fe48  1  0.87333484  0.62584211  0.37683209  1
  Fe  Fe49  1  0.37338534  0.12462467  0.62669318  1
  Fe  Fe50  1  0.87528891  0.87461306  0.37488031  1
  Fe  Fe51  1  0.24890052  0.74905051  0.49795013  1
  Fe  Fe52  1  0.25035078  0.00004051  0.49682701  1
  Fe  Fe53  1  0.00052835  0.75191791  0.50166841  1
  Fe  Fe54  1  0.37462980  0.62105175  0.12767056  1
  Fe  Fe55  1  0.49889458  0.74818258  0.74721952  1
  Fe  Fe56  1  0.74835090  0.25085334  0.49921547  1
  Fe  Fe57  1  0.12246601  0.87389775  0.87879776  1
  Fe  Fe58  1  0.87615080  0.37378402  0.37553323  1
  Fe  Fe59  1  -0.00009908  0.25083778  0.50225640  1
  Fe  Fe60  1  -0.00220928  -0.00193652  0.75119310  1
  Fe  Fe61  1  0.00164096  0.74969524  0.24588838  1
  Fe  Fe62  1  0.75411443  -0.00107464  0.75434445  1
  Fe  Fe63  1  0.62662981  0.87671184  0.12474079  1
  Fe  Fe64  1  0.50095956  0.25121663  0.74964555  1
  Fe  Fe65  1  0.12757043  0.61985933  0.12904627  1
  Fe  Fe66  1  0.25007125  0.25159859  0.75065990  1
  Fe  Fe67  1  0.50178838  0.74716558  0.24747346  1
  Fe  Fe68  1  0.12356867  0.37651038  0.87540890  1
  Fe  Fe69  1  -0.00046132  0.50020504  0.00038566  1
  Fe  Fe70  1  0.12124920  0.12580435  0.87917178  1
  Fe  Fe71  1  0.87221304  0.62468419  0.12418999  1
  Fe  Fe72  1  0.87471143  0.62790068  0.87772985  1
  Fe  Fe73  1  0.00082154  0.25174799  0.74882159  1
  Fe  Fe74  1  0.74832756  0.24991310  0.25083954  1
  Fe  Fe75  1  0.25005647  0.49938233  -0.00210749  1
  Fe  Fe76  1  0.62096048  0.37534700  0.12807821  1
  Fe  Fe77  1  0.49772209  -0.00222682  0.74937040  1
  Fe  Fe78  1  0.49912851  0.00090905  0.49993017  1
  Fe  Fe79  1  0.00059210  0.00080621  0.24588750  1
  Fe  Fe80  1  0.12470563  0.62448065  0.87388833  1
  Fe  Fe81  1  0.49842935  0.50166863  0.74953946  1
  Fe  Fe82  1  0.37651352  0.12853070  0.37567381  1
  Fe  Fe83  1  0.75002168  -0.00028657  0.49765063  1
  Fe  Fe84  1  0.00188001  0.25140356  0.24502815  1
  Fe  Fe85  1  0.87414488  0.37595740  0.62378368  1
  Fe  Fe86  1  0.62611057  0.12253062  0.62683325  1
  Fe  Fe87  1  0.62639569  0.87513568  0.62485501  1
  Fe  Fe88  1  0.62414790  0.62508349  0.87506334  1
  Fe  Fe89  1  0.62306773  0.12727084  0.37328331  1
  Co  Co90  1  0.62709611  0.62689668  0.37573563  1
  Co  Co91  1  0.62864352  0.62316543  0.62547439  1
  Co  Co92  1  0.62085597  0.12159503  0.87430933  1
  Co  Co93  1  -0.00262532  0.00063858  0.00278174  1
  Co  Co94  1  0.12909481  0.87841179  0.12588891  1
  Co  Co95  1  0.61759362  0.36951632  0.37391818  1
  Co  Co96  1  0.38476089  0.36974421  0.37472542  1
  Co  Co97  1  0.50203809  0.25214420  0.00073315  1
  Co  Co98  1  0.74876036  0.75243533  0.49882165  1
  Co  Co99  1  0.87777343  0.13044892  0.87577583  1
  Co  Co100  1  0.50099663  0.50372577  0.25454873  1
  Co  Co101  1  0.37630466  0.37963183  0.12623051  1
  Co  Co102  1  0.12778801  0.12358896  0.12430348  1
  Co  Co103  1  0.12234779  0.62746128  0.37534953  1
  Co  Co104  1  0.49987730  -0.00316468  0.00184234  1
  Co  Co105  1  0.62315027  0.37874030  0.87396809  1
  Co  Co106  1  0.25266176  0.49688377  0.49076172  1
  Co  Co107  1  0.87859700  0.86944230  0.87947027  1
  Co  Co108  1  0.49986720  0.50435183  0.49639665  1
  Co  Co109  1  0.12835689  0.87668420  0.62545851  1
  Co  Co110  1  0.00565838  0.74577054  0.00531110  1
  Co  Co111  1  0.62608103  0.12358826  0.12416664  1
  Co  Co112  1  0.24967425  0.74711620  0.24790785  1
  Co  Co113  1  0.62483701  0.62257633  0.12488413  1
  Co  Co114  1  0.25061808  0.49898879  0.75292400  1
  Co  Co115  1  0.37533353  0.37903684  0.62490922  1
  Co  Co116  1  -0.00059348  0.49933915  0.49848552  1
  Co  Co117  1  0.49791356  0.24512900  0.24312195  1
  Co  Co118  1  0.25035145  0.00016483  -0.00298342  1
  Co  Co119  1  0.74553657  0.74832472  0.00015223  1
  Co  Co120  1  0.00323421  0.25422439  0.00420470  1
  Co  Co121  1  0.12731645  0.38067988  0.12743282  1
  Co  Co122  1  0.12221646  0.37104137  0.37474513  1
  Co  Co123  1  0.25190612  0.00384717  0.25296817  1
  Co  Co124  1  0.74772581  0.49643708  0.49570875  1
  Co  Co125  1  0.50035826  0.24666818  0.50624729  1
  Co  Co126  1  0.37691810  0.63017724  0.37406339  1
  Co  Co127  1  0.87362036  0.87638222  0.62349899  1
