# generated using pymatgen
data_Fe45Co19
_symmetry_space_group_name_H-M   'P 1'
_cell_length_a   11.41552688
_cell_length_b   11.41406040
_cell_length_c   11.41435212
_cell_angle_alpha   90.00036441
_cell_angle_beta   89.99827118
_cell_angle_gamma   90.00651242
_symmetry_Int_Tables_number   1
_chemical_formula_structural   Fe45Co19
_chemical_formula_sum   'Fe90 Co38'
_cell_volume   1487.26168704
_cell_formula_units_Z   2
loop_
 _symmetry_equiv_pos_site_id
 _symmetry_equiv_pos_as_xyz
  1  'x, y, z'
loop_
 _atom_site_type_symbol
 _atom_site_label
 _atom_site_symmetry_multiplicity
 _atom_site_fract_x
 _atom_site_fract_y
 _atom_site_fract_z
 _atom_site_occupancy
  Fe  Fe0  1  0.00261485  0.74621043  0.24785591  1
  Fe  Fe1  1  0.37438575  0.62512589  0.62532087  1
  Fe  Fe2  1  0.49619884  0.00153367  0.24816483  1
  Fe  Fe3  1  0.00048341  0.49982561  0.75152224  1
  Fe  Fe4  1  0.00159580  0.50212372  -0.00075680  1
  Fe  Fe5  1  0.50078405  0.74979130  0.50063202  1
  Fe  Fe6  1  -0.00233702  0.50116885  0.49754977  1
  Fe  Fe7  1  0.62536431  0.12316447  0.87605080  1
  Fe  Fe8  1  0.00187493  0.74929805  0.49775144  1
  Fe  Fe9  1  0.74978946  0.25225009  0.00106156  1
  Fe  Fe10  1  0.12374087  0.62464550  0.62463032  1
  Fe  Fe11  1  0.37628921  0.12559483  0.62315362  1
  Fe  Fe12  1  0.62556686  0.62114024  0.12293991  1
  Fe  Fe13  1  0.49895029  0.49995346  0.75108981  1
  Fe  Fe14  1  -0.00269054  0.00023991  0.49823780  1
  Fe  Fe15  1  0.62154714  0.87369807  0.12747399  1
  Fe  Fe16  1  -0.00293198  -0.00232641  0.00011757  1
  Fe  Fe17  1  0.50122824  0.75133438  0.74841967  1
  Fe  Fe18  1  0.75040166  0.75005255  0.00201586  1
  Fe  Fe19  1  0.75145054  0.50053595  0.24952084  1
  Fe  Fe20  1  0.00071612  0.24866295  0.24969160  1
  Fe  Fe21  1  0.25371572  -0.00259547  0.00300390  1
  Fe  Fe22  1  0.37327832  0.37333584  0.87522435  1
  Fe  Fe23  1  0.87667598  0.37317480  0.87490676  1
  Fe  Fe24  1  0.62515713  0.37829841  0.87736739  1
  Fe  Fe25  1  0.37402574  0.87678581  0.62797743  1
  Fe  Fe26  1  0.62749487  0.37740006  0.62503246  1
  Fe  Fe27  1  0.49651547  -0.00265251  0.00103037  1
  Fe  Fe28  1  0.75218270  -0.00099835  0.24895581  1
  Fe  Fe29  1  0.62382457  0.12559784  0.37541724  1
  Fe  Fe30  1  0.25014136  0.00279077  0.49601497  1
  Fe  Fe31  1  0.12542154  0.87888157  0.62609171  1
  Fe  Fe32  1  0.37183249  0.62788260  0.87340658  1
  Fe  Fe33  1  0.50270416  0.24998440  0.74948229  1
  Fe  Fe34  1  0.75279337  0.50160192  0.75011570  1
  Fe  Fe35  1  0.37369787  0.37343908  0.12401791  1
  Fe  Fe36  1  0.50191107  0.25219433  0.00004788  1
  Fe  Fe37  1  0.12653538  0.37672015  0.12536691  1
  Fe  Fe38  1  0.00135959  0.24924470  0.00212243  1
  Fe  Fe39  1  0.24691048  0.75096083  0.24909552  1
  Fe  Fe40  1  0.87715521  0.62874262  0.87703635  1
  Fe  Fe41  1  0.74874752  0.74872583  0.74811026  1
  Fe  Fe42  1  0.62467398  0.62308278  0.87653265  1
  Fe  Fe43  1  0.87532240  0.12773933  0.37376327  1
  Fe  Fe44  1  0.75115988  -0.00077936  0.75009052  1
  Fe  Fe45  1  0.62459638  0.12542715  0.12462154  1
  Fe  Fe46  1  0.62681627  0.12489245  0.62448422  1
  Fe  Fe47  1  0.12373475  0.12242487  0.87542350  1
  Fe  Fe48  1  0.37648975  0.87360668  0.37252464  1
  Fe  Fe49  1  0.87487986  0.87374340  0.62578391  1
  Fe  Fe50  1  0.75153848  0.25402469  0.49870203  1
  Fe  Fe51  1  0.75542456  0.50030423  0.50076735  1
  Fe  Fe52  1  0.87364790  0.86983864  0.37317558  1
  Fe  Fe53  1  0.50156720  -0.00168200  0.50114698  1
  Fe  Fe54  1  0.37301100  0.37297965  0.62322532  1
  Fe  Fe55  1  0.49889819  0.49979212  0.49958476  1
  Fe  Fe56  1  0.49843568  0.49972688  0.24963025  1
  Fe  Fe57  1  0.37052692  0.62473336  0.37521931  1
  Fe  Fe58  1  0.62738759  0.62434152  0.37636723  1
  Fe  Fe59  1  0.49878348  0.74909576  0.00031010  1
  Fe  Fe60  1  0.62438431  0.87592951  0.87397969  1
  Fe  Fe61  1  0.12283935  0.12380724  0.62328756  1
  Fe  Fe62  1  0.24772408  0.50014047  0.74999879  1
  Fe  Fe63  1  0.87707917  0.87144837  0.12533834  1
  Fe  Fe64  1  0.12380208  0.37397388  0.62263776  1
  Fe  Fe65  1  0.87419711  0.12721853  0.62548279  1
  Fe  Fe66  1  0.24906740  0.49967717  -0.00209466  1
  Fe  Fe67  1  0.00199906  0.75271836  0.75162793  1
  Fe  Fe68  1  0.24834169  0.75065401  0.50088601  1
  Fe  Fe69  1  0.37380280  0.37271742  0.37856676  1
  Fe  Fe70  1  0.87417900  0.12537983  0.87560562  1
  Fe  Fe71  1  0.74845582  0.25246303  0.24859820  1
  Fe  Fe72  1  0.37099420  0.62531499  0.12625446  1
  Fe  Fe73  1  0.24706437  0.24848686  0.00015469  1
  Fe  Fe74  1  0.24622779  0.75290252  0.00113775  1
  Fe  Fe75  1  0.24783345  0.24848728  0.74997585  1
  Fe  Fe76  1  0.25046231  0.24595149  0.25362417  1
  Fe  Fe77  1  0.12629678  0.87713290  0.87311971  1
  Fe  Fe78  1  0.75171746  -0.00179586  0.00254935  1
  Fe  Fe79  1  0.75137095  -0.00195162  0.49831080  1
  Fe  Fe80  1  0.74875365  0.74872826  0.50272077  1
  Fe  Fe81  1  0.87617609  0.37624547  0.12550874  1
  Fe  Fe82  1  0.12528356  0.37483226  0.37728670  1
  Fe  Fe83  1  0.12467422  0.88002835  0.37035032  1
  Fe  Fe84  1  0.62443732  0.87315113  0.37266268  1
  Fe  Fe85  1  0.37578427  0.12447792  0.87550273  1
  Fe  Fe86  1  0.12484328  0.11868911  0.12876083  1
  Fe  Fe87  1  0.00171152  0.50415548  0.25161946  1
  Fe  Fe88  1  0.50178306  0.25245185  0.25031789  1
  Fe  Fe89  1  0.00057814  0.24917481  0.74990148  1
  Co  Co90  1  0.12488290  0.37397437  0.87534434  1
  Co  Co91  1  0.12863423  0.62451980  0.37606871  1
  Co  Co92  1  0.74845240  0.25109670  0.75229472  1
  Co  Co93  1  -0.00111026  0.24958711  0.49876854  1
  Co  Co94  1  0.24918041  0.50029723  0.50191882  1
  Co  Co95  1  0.87355649  0.87279105  0.87462660  1
  Co  Co96  1  0.25038352  0.49702362  0.25171214  1
  Co  Co97  1  0.75412231  0.49930090  -0.00138363  1
  Co  Co98  1  -0.00809763  -0.00004815  0.25058940  1
  Co  Co99  1  0.87608101  0.62507349  0.12342917  1
  Co  Co100  1  0.25074488  0.00314984  0.75025300  1
  Co  Co101  1  0.62606883  0.37779353  0.37648687  1
  Co  Co102  1  0.24737453  0.75017672  0.74671477  1
  Co  Co103  1  0.50121617  0.74359635  0.25089453  1
  Co  Co104  1  0.37403792  0.87329177  0.87227052  1
  Co  Co105  1  0.87868491  0.62693109  0.62570773  1
  Co  Co106  1  0.12137687  0.12124670  0.37170084  1
  Co  Co107  1  0.87686184  0.37501014  0.37179825  1
  Co  Co108  1  0.50042649  0.00076028  0.74977074  1
  Co  Co109  1  0.25746016  0.00267523  0.25035541  1
  Co  Co110  1  0.74878999  0.74903007  0.24603099  1
  Co  Co111  1  0.49464992  0.50126023  0.00043787  1
  Co  Co112  1  0.37663876  0.87026122  0.12793607  1
  Co  Co113  1  0.00367763  0.75158340  0.00148015  1
  Co  Co114  1  0.62373191  0.62216803  0.62392056  1
  Co  Co115  1  0.87622616  0.37411798  0.62707283  1
  Co  Co116  1  -0.00245302  -0.00000370  0.74996041  1
  Co  Co117  1  0.37593196  0.12945150  0.12270961  1
  Co  Co118  1  0.50417668  0.25269840  0.50254987  1
  Co  Co119  1  0.38082754  0.12708020  0.37869777  1
  Co  Co120  1  0.24683273  0.24603676  0.49795008  1
  Co  Co121  1  0.62472087  0.37837048  0.12242217  1
  Co  Co122  1  0.12766937  0.62220660  0.12401572  1
  Co  Co123  1  0.12544556  0.62658911  0.87455040  1
  Co  Co124  1  0.87325687  0.62807786  0.37437998  1
  Co  Co125  1  0.62588886  0.87582984  0.62549223  1
  Co  Co126  1  0.12335546  0.88062650  0.12930680  1
  Co  Co127  1  0.87443291  0.12694586  0.12447075  1
