# generated using pymatgen
data_Fe45Co19
_symmetry_space_group_name_H-M   'P 1'
_cell_length_a   11.41439365
_cell_length_b   11.41627289
_cell_length_c   11.41647492
_cell_angle_alpha   90.00046684
_cell_angle_beta   89.99966329
_cell_angle_gamma   89.99579412
_symmetry_Int_Tables_number   1
_chemical_formula_structural   Fe45Co19
_chemical_formula_sum   'Fe90 Co38'
_cell_volume   1487.67893411
_cell_formula_units_Z   2
loop_
 _symmetry_equiv_pos_site_id
 _symmetry_equiv_pos_as_xyz
  1  'x, y, z'
loop_
 _atom_site_type_symbol
 _atom_site_label
 _atom_site_symmetry_multiplicity
 _atom_site_fract_x
 _atom_site_fract_y
 _atom_site_fract_z
 _atom_site_occupancy
  Fe  Fe0  1  -0.00113894  0.24927431  0.50104995  1
  Fe  Fe1  1  0.87432587  0.12499322  0.87359925  1
  Fe  Fe2  1  -0.00357733  0.00401484  0.50196975  1
  Fe  Fe3  1  0.25353317  0.75240562  0.75090705  1
  Fe  Fe4  1  0.62610323  0.12639065  0.62753391  1
  Fe  Fe5  1  0.75110345  0.75036820  0.49939622  1
  Fe  Fe6  1  0.37367191  0.37559867  0.12314368  1
  Fe  Fe7  1  0.37409723  0.12380988  0.37571007  1
  Fe  Fe8  1  0.37786829  0.37537724  0.62584717  1
  Fe  Fe9  1  0.49733023  0.24857668  -0.00202701  1
  Fe  Fe10  1  0.62617360  0.12626667  0.87377492  1
  Fe  Fe11  1  0.25129787  0.75057348  -0.00263509  1
  Fe  Fe12  1  0.37941965  0.62741460  0.87472345  1
  Fe  Fe13  1  0.25036066  0.25005747  0.50055378  1
  Fe  Fe14  1  0.37379218  0.12261373  0.12428378  1
  Fe  Fe15  1  0.00306941  0.50159412  0.24755591  1
  Fe  Fe16  1  0.75425144  0.25336647  0.00049069  1
  Fe  Fe17  1  0.62426550  0.37325258  0.37630559  1
  Fe  Fe18  1  0.74917517  0.49835738  0.50154502  1
  Fe  Fe19  1  -0.00271167  0.75036151  0.25154686  1
  Fe  Fe20  1  0.12269013  0.87298079  0.12448281  1
  Fe  Fe21  1  0.87657749  0.12401415  0.12472359  1
  Fe  Fe22  1  0.62791244  0.12264672  0.37551898  1
  Fe  Fe23  1  0.37760394  0.87458808  0.62135468  1
  Fe  Fe24  1  -0.00296109  0.74480283  -0.00190061  1
  Fe  Fe25  1  0.12207006  0.87338939  0.62510565  1
  Fe  Fe26  1  0.12269656  0.87310816  0.87317791  1
  Fe  Fe27  1  0.50284318  0.50310853  0.50124318  1
  Fe  Fe28  1  0.24706894  0.50108353  0.24865736  1
  Fe  Fe29  1  0.62506778  0.87401376  0.62310509  1
  Fe  Fe30  1  0.12258496  0.87618089  0.37740973  1
  Fe  Fe31  1  0.75049907  0.25232335  0.24740647  1
  Fe  Fe32  1  0.49894691  0.24987743  0.24964695  1
  Fe  Fe33  1  0.24960207  0.00152380  0.50204361  1
  Fe  Fe34  1  0.87183131  0.62141372  0.12671897  1
  Fe  Fe35  1  0.00118739  0.50133768  0.50299774  1
  Fe  Fe36  1  0.12419514  0.62770801  0.62699094  1
  Fe  Fe37  1  0.62364498  0.87114576  0.87398415  1
  Fe  Fe38  1  -0.00702120  0.74925295  0.75028871  1
  Fe  Fe39  1  0.75275230  0.24929071  0.50135112  1
  Fe  Fe40  1  0.74682774  0.49713386  0.00103768  1
  Fe  Fe41  1  0.62929249  0.62872251  0.63039859  1
  Fe  Fe42  1  0.24447590  0.50413441  -0.00140419  1
  Fe  Fe43  1  0.12465797  0.37542628  0.37522026  1
  Fe  Fe44  1  0.62767223  0.87168007  0.12533029  1
  Fe  Fe45  1  0.87491551  0.87683776  0.12335791  1
  Fe  Fe46  1  0.37561527  0.37662939  0.87585587  1
  Fe  Fe47  1  0.37584089  0.37691930  0.37530956  1
  Fe  Fe48  1  0.12459510  0.12477975  0.62797868  1
  Fe  Fe49  1  0.24728061  -0.00166874  -0.00300953  1
  Fe  Fe50  1  0.00153672  0.00271387  -0.00146213  1
  Fe  Fe51  1  0.24842860  0.75005033  0.25230752  1
  Fe  Fe52  1  0.87319905  0.62138501  0.37439166  1
  Fe  Fe53  1  0.37483339  0.87555565  0.12431432  1
  Fe  Fe54  1  0.74894406  0.00023682  -0.00030141  1
  Fe  Fe55  1  0.37539637  0.62423952  0.37459580  1
  Fe  Fe56  1  -0.00003773  0.25279634  0.75378654  1
  Fe  Fe57  1  0.25069934  0.25032899  0.75153882  1
  Fe  Fe58  1  0.62788033  0.62630250  0.37144882  1
  Fe  Fe59  1  0.74887670  0.25618586  0.75169033  1
  Fe  Fe60  1  0.75324669  -0.00447754  0.74898869  1
  Fe  Fe61  1  0.87128616  0.88016041  0.37555622  1
  Fe  Fe62  1  0.24752012  0.24907095  0.24948081  1
  Fe  Fe63  1  0.75050351  0.74835515  -0.00259429  1
  Fe  Fe64  1  0.24872488  0.50073939  0.50092328  1
  Fe  Fe65  1  0.87061566  0.61799967  0.86977324  1
  Fe  Fe66  1  0.87510354  0.37740390  0.62775408  1
  Fe  Fe67  1  0.37446654  0.62649109  0.12461090  1
  Fe  Fe68  1  0.12548575  0.37492642  0.62677798  1
  Fe  Fe69  1  0.25027953  0.74777879  0.49927717  1
  Fe  Fe70  1  0.49832863  0.24686066  0.50141298  1
  Fe  Fe71  1  0.24694601  0.00005328  0.25145134  1
  Fe  Fe72  1  0.50443793  0.50329164  0.00099405  1
  Fe  Fe73  1  0.24798811  0.50105122  0.75214803  1
  Fe  Fe74  1  0.87403829  0.12327714  0.37277183  1
  Fe  Fe75  1  0.50172078  0.75058287  0.24976396  1
  Fe  Fe76  1  0.24553898  0.24773631  -0.00148041  1
  Fe  Fe77  1  0.50143170  -0.00152899  -0.00028084  1
  Fe  Fe78  1  -0.00349346  -0.00215937  0.74941471  1
  Fe  Fe79  1  0.87612968  0.37598623  0.37299302  1
  Fe  Fe80  1  0.00308186  0.24790364  0.24778439  1
  Fe  Fe81  1  0.37622401  0.62433781  0.62616276  1
  Fe  Fe82  1  0.37377651  0.12164995  0.87289035  1
  Fe  Fe83  1  0.50321259  0.49974962  0.24710355  1
  Fe  Fe84  1  0.37859807  0.87455815  0.37795228  1
  Fe  Fe85  1  0.50557380  0.49791501  0.75156300  1
  Fe  Fe86  1  0.50332593  -0.00063627  0.25058178  1
  Fe  Fe87  1  0.49824014  -0.00082771  0.74925981  1
  Fe  Fe88  1  -0.00297390  0.74697638  0.49865113  1
  Fe  Fe89  1  0.62486346  0.12763904  0.12313656  1
  Co  Co90  1  0.75393126  0.75224335  0.25131093  1
  Co  Co91  1  0.50203778  0.74624406  0.49955448  1
  Co  Co92  1  0.87145508  0.62216321  0.62743681  1
  Co  Co93  1  0.87599194  0.87704627  0.87984148  1
  Co  Co94  1  0.62923628  0.62774550  0.12614440  1
  Co  Co95  1  0.49899697  0.25047964  0.75198940  1
  Co  Co96  1  0.74692577  0.49486057  0.24877629  1
  Co  Co97  1  0.00313223  0.50388009  -0.00086477  1
  Co  Co98  1  0.62725870  0.87631328  0.37688184  1
  Co  Co99  1  0.12405206  0.62973656  0.87135618  1
  Co  Co100  1  0.12382255  0.37615193  0.87696457  1
  Co  Co101  1  0.37436209  0.12574732  0.62675934  1
  Co  Co102  1  0.12522654  0.12284631  0.12412016  1
  Co  Co103  1  0.49744739  0.75128779  0.74871071  1
  Co  Co104  1  0.74284414  0.49279120  0.74957962  1
  Co  Co105  1  0.87610140  0.87329779  0.62009836  1
  Co  Co106  1  0.12417415  0.12240290  0.87074016  1
  Co  Co107  1  0.50069887  0.74968368  0.00234901  1
  Co  Co108  1  0.62277574  0.37117290  0.12320614  1
  Co  Co109  1  0.00328365  0.50069981  0.74920597  1
  Co  Co110  1  0.87754394  0.37962177  0.87517479  1
  Co  Co111  1  0.74824611  0.00055795  0.24601212  1
  Co  Co112  1  0.62701028  0.62912604  0.87171178  1
  Co  Co113  1  0.00049284  -0.00066980  0.24973255  1
  Co  Co114  1  0.00025027  0.24812996  -0.00210240  1
  Co  Co115  1  0.75599146  0.75574645  0.75137964  1
  Co  Co116  1  0.87964862  0.37690833  0.12469023  1
  Co  Co117  1  0.12438448  0.37500829  0.12205368  1
  Co  Co118  1  0.62339622  0.37169558  0.88003974  1
  Co  Co119  1  0.75176477  0.00285645  0.50452603  1
  Co  Co120  1  0.50139462  0.00289106  0.50048024  1
  Co  Co121  1  0.37725666  0.87547492  0.87704859  1
  Co  Co122  1  0.12441233  0.62450322  0.37530375  1
  Co  Co123  1  0.12523084  0.62974951  0.12524506  1
  Co  Co124  1  0.25112724  -0.00407778  0.74834914  1
  Co  Co125  1  0.87399485  0.12834434  0.63075261  1
  Co  Co126  1  0.12434998  0.12451699  0.37777509  1
  Co  Co127  1  0.62239453  0.37111067  0.62087654  1
