# generated using pymatgen
data_Fe45Co19
_symmetry_space_group_name_H-M   'P 1'
_cell_length_a   11.41519428
_cell_length_b   11.41472751
_cell_length_c   11.41584586
_cell_angle_alpha   90.00772399
_cell_angle_beta   90.00499204
_cell_angle_gamma   89.99757399
_symmetry_Int_Tables_number   1
_chemical_formula_structural   Fe45Co19
_chemical_formula_sum   'Fe90 Co38'
_cell_volume   1487.49990461
_cell_formula_units_Z   2
loop_
 _symmetry_equiv_pos_site_id
 _symmetry_equiv_pos_as_xyz
  1  'x, y, z'
loop_
 _atom_site_type_symbol
 _atom_site_label
 _atom_site_symmetry_multiplicity
 _atom_site_fract_x
 _atom_site_fract_y
 _atom_site_fract_z
 _atom_site_occupancy
  Fe  Fe0  1  0.87651679  0.62034827  0.62726856  1
  Fe  Fe1  1  0.62535592  0.12659531  0.37420680  1
  Fe  Fe2  1  0.12411993  0.12527673  0.37490799  1
  Fe  Fe3  1  0.75282352  -0.00080418  0.25307086  1
  Fe  Fe4  1  0.49807110  0.74907155  0.24655498  1
  Fe  Fe5  1  0.37591659  0.12431705  0.62544688  1
  Fe  Fe6  1  0.24613445  0.24749812  0.00365271  1
  Fe  Fe7  1  0.87860055  0.37511914  0.12383339  1
  Fe  Fe8  1  0.37254288  0.62540097  0.87507887  1
  Fe  Fe9  1  0.87451100  0.87921569  0.61999938  1
  Fe  Fe10  1  0.37517357  0.37540629  0.12472677  1
  Fe  Fe11  1  0.12364908  0.37363847  0.37906208  1
  Fe  Fe12  1  0.87503047  0.37288153  0.37791806  1
  Fe  Fe13  1  -0.00084805  0.75322108  0.74956299  1
  Fe  Fe14  1  -0.00316254  -0.00175297  0.25547851  1
  Fe  Fe15  1  0.50081427  0.74870423  0.00243500  1
  Fe  Fe16  1  0.37403969  0.87500461  0.87905966  1
  Fe  Fe17  1  0.75191814  0.25052852  0.74719334  1
  Fe  Fe18  1  0.62601165  0.37713693  0.12625499  1
  Fe  Fe19  1  0.50263112  0.24738681  0.00184116  1
  Fe  Fe20  1  0.12293764  0.87636722  0.12632564  1
  Fe  Fe21  1  0.00002990  0.49920448  0.25352245  1
  Fe  Fe22  1  0.37577598  0.62593030  0.37408423  1
  Fe  Fe23  1  0.75183093  0.50030343  0.24961591  1
  Fe  Fe24  1  0.00130612  -0.00122964  0.74838627  1
  Fe  Fe25  1  0.49755158  0.00094584  0.49606854  1
  Fe  Fe26  1  0.75128789  0.25036066  0.24930628  1
  Fe  Fe27  1  0.50069139  0.49817973  0.49748838  1
  Fe  Fe28  1  0.12285802  0.12685465  0.87400846  1
  Fe  Fe29  1  0.75072505  0.24880012  0.50313549  1
  Fe  Fe30  1  0.62212281  0.87484805  0.62393872  1
  Fe  Fe31  1  0.24791114  0.25055820  0.74927826  1
  Fe  Fe32  1  0.87670889  0.12560299  0.87090724  1
  Fe  Fe33  1  0.37545242  0.87683684  0.62361093  1
  Fe  Fe34  1  0.37378641  0.37322988  0.87645466  1
  Fe  Fe35  1  0.62363503  0.62453991  0.37232656  1
  Fe  Fe36  1  0.87709891  0.87226360  0.12309028  1
  Fe  Fe37  1  -0.00080287  0.00029449  -0.00109683  1
  Fe  Fe38  1  0.12133066  0.37552351  0.12371381  1
  Fe  Fe39  1  0.00051773  0.75090830  0.49969577  1
  Fe  Fe40  1  0.24589065  0.50192857  -0.00029363  1
  Fe  Fe41  1  0.62577282  0.87450261  0.87703106  1
  Fe  Fe42  1  0.75117151  0.75211793  0.74914064  1
  Fe  Fe43  1  0.25147722  0.75164234  0.50093544  1
  Fe  Fe44  1  0.25307146  0.00138247  0.25023361  1
  Fe  Fe45  1  0.37531821  0.37237869  0.37455053  1
  Fe  Fe46  1  0.62652400  0.62758636  0.87422584  1
  Fe  Fe47  1  0.62450352  0.37478483  0.62573546  1
  Fe  Fe48  1  0.50028649  0.49904633  0.75184477  1
  Fe  Fe49  1  0.49662045  0.00095997  0.24750172  1
  Fe  Fe50  1  0.62543074  0.87721277  0.12342687  1
  Fe  Fe51  1  0.25164050  0.24780052  0.50072164  1
  Fe  Fe52  1  0.75232840  0.00110377  0.00013070  1
  Fe  Fe53  1  0.24888683  0.00246836  0.00178189  1
  Fe  Fe54  1  0.74785331  0.74947534  0.50081346  1
  Fe  Fe55  1  0.37718993  0.62486946  0.62551400  1
  Fe  Fe56  1  0.74861512  -0.00193971  0.74935103  1
  Fe  Fe57  1  0.62292038  0.12452832  0.62549884  1
  Fe  Fe58  1  0.62564145  0.37351139  0.87443365  1
  Fe  Fe59  1  0.24542347  0.74758296  0.00348514  1
  Fe  Fe60  1  0.24657526  0.24886987  0.24718467  1
  Fe  Fe61  1  0.49820159  -0.00043185  0.75392344  1
  Fe  Fe62  1  0.75116964  0.75076119  0.24817253  1
  Fe  Fe63  1  0.25029271  0.50067916  0.49991681  1
  Fe  Fe64  1  0.12573777  0.87474292  0.87342969  1
  Fe  Fe65  1  0.12506730  0.62561370  0.37448903  1
  Fe  Fe66  1  0.37602424  0.37347157  0.62524464  1
  Fe  Fe67  1  0.24637113  0.49678620  0.75013988  1
  Fe  Fe68  1  0.50060244  0.50168502  0.00122153  1
  Fe  Fe69  1  0.75064529  0.50113304  -0.00055149  1
  Fe  Fe70  1  0.87527510  0.62769280  0.37476725  1
  Fe  Fe71  1  0.87549192  0.62656281  0.87344620  1
  Fe  Fe72  1  0.87887729  0.37365226  0.87120256  1
  Fe  Fe73  1  -0.00301448  0.24794199  0.50499560  1
  Fe  Fe74  1  0.24935333  0.49933022  0.24988476  1
  Fe  Fe75  1  0.25157888  0.75296632  0.74766245  1
  Fe  Fe76  1  0.12695575  0.87530359  0.37709955  1
  Fe  Fe77  1  0.87724753  0.12548670  0.12814527  1
  Fe  Fe78  1  0.12403469  0.62439358  0.62583826  1
  Fe  Fe79  1  0.12727399  0.12014393  0.62403038  1
  Fe  Fe80  1  0.00363437  0.50274081  -0.00477898  1
  Fe  Fe81  1  0.62392569  0.87389658  0.37481939  1
  Fe  Fe82  1  0.87900670  0.62835489  0.12362260  1
  Fe  Fe83  1  0.37485842  0.12589034  0.87682781  1
  Fe  Fe84  1  0.50149797  0.25008919  0.24913919  1
  Fe  Fe85  1  0.62277632  0.62584045  0.62738283  1
  Fe  Fe86  1  0.24986390  0.74973621  0.24746609  1
  Fe  Fe87  1  0.75234054  0.24910746  0.00115107  1
  Fe  Fe88  1  0.62637770  0.12511540  0.87532556  1
  Fe  Fe89  1  0.74938124  0.50049968  0.49963827  1
  Co  Co90  1  0.87341388  0.11885209  0.62584303  1
  Co  Co91  1  0.49955381  0.74969740  0.49931322  1
  Co  Co92  1  0.37379477  0.87542669  0.12219761  1
  Co  Co93  1  0.12472676  0.37674701  0.62045080  1
  Co  Co94  1  0.87453927  0.87583664  0.87563264  1
  Co  Co95  1  0.12060505  0.12167258  0.12760399  1
  Co  Co96  1  0.12561897  0.87711037  0.62354023  1
  Co  Co97  1  0.49861697  0.49902161  0.25109327  1
  Co  Co98  1  0.49962405  0.24975011  0.75162058  1
  Co  Co99  1  0.00110548  0.00049619  0.49725908  1
  Co  Co100  1  0.74731944  0.49980641  0.75206629  1
  Co  Co101  1  0.00154354  0.24991826  0.74319843  1
  Co  Co102  1  0.00085951  0.25156802  0.25072016  1
  Co  Co103  1  0.74966739  0.74998387  0.00059246  1
  Co  Co104  1  0.37345243  0.62307347  0.12484940  1
  Co  Co105  1  0.00022962  0.75282232  0.25296877  1
  Co  Co106  1  0.00361802  0.75023213  -0.00253125  1
  Co  Co107  1  0.87522189  0.38069306  0.62679829  1
  Co  Co108  1  0.37465106  0.12812109  0.37277408  1
  Co  Co109  1  0.62760295  0.37423287  0.37424158  1
  Co  Co110  1  0.37515511  0.12644394  0.12449214  1
  Co  Co111  1  0.87243137  0.87327408  0.38009528  1
  Co  Co112  1  0.62796477  0.12338316  0.12612605  1
  Co  Co113  1  0.62623913  0.62321063  0.12650300  1
  Co  Co114  1  0.12369339  0.36941548  0.87684718  1
  Co  Co115  1  0.25334237  -0.00030070  0.49706721  1
  Co  Co116  1  0.37504566  0.87261071  0.37382846  1
  Co  Co117  1  0.74621775  0.00095382  0.49742184  1
  Co  Co118  1  0.50055841  0.00223815  0.00023701  1
  Co  Co119  1  0.50048902  0.25034527  0.49914003  1
  Co  Co120  1  0.25164625  -0.00034718  0.75200661  1
  Co  Co121  1  0.00596203  0.49779753  0.75246554  1
  Co  Co122  1  0.49798926  0.75158932  0.75193443  1
  Co  Co123  1  -0.00050713  0.50153326  0.49751128  1
  Co  Co124  1  0.12702427  0.62908201  0.86927836  1
  Co  Co125  1  0.87438571  0.12698816  0.37644599  1
  Co  Co126  1  -0.00113177  0.24710800  0.00154349  1
  Co  Co127  1  0.12113306  0.62409614  0.12850993  1
