# generated using pymatgen
data_Fe45Co19
_symmetry_space_group_name_H-M   'P 1'
_cell_length_a   11.41378246
_cell_length_b   11.41606893
_cell_length_c   11.41506561
_cell_angle_alpha   89.99925903
_cell_angle_beta   90.00103592
_cell_angle_gamma   89.99290408
_symmetry_Int_Tables_number   1
_chemical_formula_structural   Fe45Co19
_chemical_formula_sum   'Fe90 Co38'
_cell_volume   1487.38905641
_cell_formula_units_Z   2
loop_
 _symmetry_equiv_pos_site_id
 _symmetry_equiv_pos_as_xyz
  1  'x, y, z'
loop_
 _atom_site_type_symbol
 _atom_site_label
 _atom_site_symmetry_multiplicity
 _atom_site_fract_x
 _atom_site_fract_y
 _atom_site_fract_z
 _atom_site_occupancy
  Fe  Fe0  1  0.37588505  0.62576053  0.87620795  1
  Fe  Fe1  1  0.12361608  0.12489766  0.62423585  1
  Fe  Fe2  1  0.87485840  0.37439168  0.87818015  1
  Fe  Fe3  1  0.62138443  0.37646953  0.87758491  1
  Fe  Fe4  1  0.50218533  0.75071264  0.74927273  1
  Fe  Fe5  1  0.62302439  0.62791743  0.12665743  1
  Fe  Fe6  1  -0.00361473  0.50177575  0.49893103  1
  Fe  Fe7  1  0.25438672  0.49799796  0.74682973  1
  Fe  Fe8  1  0.24725787  0.75194687  0.75181768  1
  Fe  Fe9  1  0.00165595  -0.00426264  0.25376991  1
  Fe  Fe10  1  0.25063005  -0.00179288  0.24963960  1
  Fe  Fe11  1  0.12697295  0.37811660  0.87538280  1
  Fe  Fe12  1  0.74999204  0.00084463  0.00226740  1
  Fe  Fe13  1  -0.00149546  0.50213830  0.25144970  1
  Fe  Fe14  1  0.62633834  0.87395196  0.37578696  1
  Fe  Fe15  1  0.25165950  0.25167128  0.25169659  1
  Fe  Fe16  1  0.25274970  0.50356010  0.00206328  1
  Fe  Fe17  1  0.87790820  0.87126634  0.12679485  1
  Fe  Fe18  1  0.12453454  0.62638210  0.62468096  1
  Fe  Fe19  1  0.37659194  0.12216926  0.37394851  1
  Fe  Fe20  1  0.50313307  0.00097420  0.50065458  1
  Fe  Fe21  1  0.87401325  0.12387716  0.87386408  1
  Fe  Fe22  1  0.62425763  0.37155088  0.12852525  1
  Fe  Fe23  1  -0.00102381  0.25208890  0.74993346  1
  Fe  Fe24  1  0.75304362  0.49900418  0.75184311  1
  Fe  Fe25  1  0.00058386  -0.00241418  0.74687263  1
  Fe  Fe26  1  0.87025026  0.62943671  0.37076815  1
  Fe  Fe27  1  0.12430223  0.37630488  0.62375996  1
  Fe  Fe28  1  0.62112051  0.12528912  0.13096938  1
  Fe  Fe29  1  0.12463467  0.62629268  0.12712330  1
  Fe  Fe30  1  0.50544608  0.74451338  0.50301657  1
  Fe  Fe31  1  0.24852829  0.24900918  0.49777690  1
  Fe  Fe32  1  0.00590629  0.74994752  -0.00401967  1
  Fe  Fe33  1  0.87460437  0.87489534  0.87609060  1
  Fe  Fe34  1  0.24762114  0.74924097  0.25168357  1
  Fe  Fe35  1  0.37866832  0.37434317  0.12146153  1
  Fe  Fe36  1  0.74839834  0.75051911  -0.00024930  1
  Fe  Fe37  1  0.37560622  0.87246599  0.62324726  1
  Fe  Fe38  1  0.87633672  0.12446849  0.12665835  1
  Fe  Fe39  1  0.49965586  -0.00104225  0.74703276  1
  Fe  Fe40  1  0.62484343  0.87608985  0.87610151  1
  Fe  Fe41  1  0.87472297  0.12163809  0.37536941  1
  Fe  Fe42  1  0.37121651  0.87629856  0.87765865  1
  Fe  Fe43  1  0.00106852  0.74973827  0.75370580  1
  Fe  Fe44  1  -0.00192885  0.25063434  0.49812078  1
  Fe  Fe45  1  0.37753976  0.37801753  0.37909608  1
  Fe  Fe46  1  0.00039028  0.75124751  0.49422589  1
  Fe  Fe47  1  0.25345303  0.50240930  0.50273272  1
  Fe  Fe48  1  0.74844776  0.50068516  0.00238980  1
  Fe  Fe49  1  0.12420699  0.37821267  0.37583885  1
  Fe  Fe50  1  -0.00072902  0.50142857  -0.00041722  1
  Fe  Fe51  1  0.37727955  0.62540316  0.37420483  1
  Fe  Fe52  1  0.87309421  0.12627516  0.62457207  1
  Fe  Fe53  1  0.49922683  0.25160902  0.75074312  1
  Fe  Fe54  1  0.87582665  0.62854038  0.12534515  1
  Fe  Fe55  1  0.50171787  0.75391461  0.24836100  1
  Fe  Fe56  1  -0.00369373  0.50049923  0.74976387  1
  Fe  Fe57  1  0.74876783  0.24741230  0.00191516  1
  Fe  Fe58  1  0.24828648  0.74841332  0.49852487  1
  Fe  Fe59  1  0.24804488  -0.00025892  0.50222307  1
  Fe  Fe60  1  0.37217776  0.87103048  0.12114144  1
  Fe  Fe61  1  0.37417896  0.12262929  0.87501832  1
  Fe  Fe62  1  0.25221301  0.25141109  0.75045812  1
  Fe  Fe63  1  0.74794949  0.50209746  0.49524934  1
  Fe  Fe64  1  0.74841404  0.25032376  0.49521635  1
  Fe  Fe65  1  -0.00064590  0.25032645  0.25313539  1
  Fe  Fe66  1  0.87138568  0.62746677  0.62579759  1
  Fe  Fe67  1  0.74776001  -0.00017038  0.50164638  1
  Fe  Fe68  1  0.50443340  0.24881174  0.49529538  1
  Fe  Fe69  1  0.74926975  -0.00275428  0.74721252  1
  Fe  Fe70  1  0.12454352  0.12501836  0.12803610  1
  Fe  Fe71  1  0.25221667  0.50029041  0.24948655  1
  Fe  Fe72  1  0.74945085  0.25253693  0.75009215  1
  Fe  Fe73  1  0.74897966  -0.00342167  0.24860074  1
  Fe  Fe74  1  0.50023053  0.49966299  0.24962538  1
  Fe  Fe75  1  0.12671444  0.12065953  0.87327163  1
  Fe  Fe76  1  0.62514588  0.12331946  0.87351424  1
  Fe  Fe77  1  0.00115192  0.24897748  -0.00103508  1
  Fe  Fe78  1  0.37724407  0.12701700  0.62335096  1
  Fe  Fe79  1  0.00206373  -0.00091731  0.00083852  1
  Fe  Fe80  1  0.37570098  0.87344516  0.37803634  1
  Fe  Fe81  1  0.49930102  -0.00056480  0.00197403  1
  Fe  Fe82  1  0.37845744  0.12562811  0.12799162  1
  Fe  Fe83  1  0.87384561  0.37449789  0.12728993  1
  Fe  Fe84  1  0.25073529  0.24814634  -0.00005560  1
  Fe  Fe85  1  0.12470211  0.37549900  0.12554045  1
  Fe  Fe86  1  0.62527957  0.62539908  0.87305767  1
  Fe  Fe87  1  0.62430967  0.37724949  0.62156344  1
  Fe  Fe88  1  0.87428332  0.87201646  0.62184952  1
  Fe  Fe89  1  0.49564431  0.49919684  0.74598080  1
  Co  Co90  1  0.74566153  0.74785325  0.50072848  1
  Co  Co91  1  0.62283024  0.62623577  0.37041865  1
  Co  Co92  1  0.37687844  0.62861532  0.12679369  1
  Co  Co93  1  0.12733571  0.62118611  0.37592568  1
  Co  Co94  1  0.12535086  0.12358015  0.37386441  1
  Co  Co95  1  0.37606509  0.37657300  0.88003193  1
  Co  Co96  1  0.62496050  0.87564241  0.12243900  1
  Co  Co97  1  0.50008771  0.50590235  0.50260649  1
  Co  Co98  1  0.12770845  0.87714461  0.37584635  1
  Co  Co99  1  0.62542629  0.12728865  0.62661401  1
  Co  Co100  1  0.50135253  0.24686385  -0.00095333  1
  Co  Co101  1  0.12894617  0.88043484  0.87588076  1
  Co  Co102  1  0.62953953  0.62173814  0.63021833  1
  Co  Co103  1  0.24991131  0.00278324  0.00501611  1
  Co  Co104  1  0.50171114  0.50350953  0.00213923  1
  Co  Co105  1  0.87456601  0.37702690  0.37167587  1
  Co  Co106  1  0.74940354  0.50258528  0.24832930  1
  Co  Co107  1  0.75240197  0.24809732  0.25254530  1
  Co  Co108  1  0.87220770  0.37528179  0.62256231  1
  Co  Co109  1  0.37722061  0.37023247  0.61991389  1
  Co  Co110  1  0.62431142  0.87423343  0.62459824  1
  Co  Co111  1  0.49636570  0.25240422  0.25478965  1
  Co  Co112  1  0.12673698  0.61936029  0.87262159  1
  Co  Co113  1  0.62400247  0.12146263  0.36909748  1
  Co  Co114  1  0.00046513  -0.00173905  0.49987600  1
  Co  Co115  1  0.12391188  0.87127902  0.62291131  1
  Co  Co116  1  0.62486553  0.37763304  0.37284951  1
  Co  Co117  1  0.87035838  0.87428135  0.37495760  1
  Co  Co118  1  0.00346981  0.75048109  0.25539405  1
  Co  Co119  1  0.12544252  0.87319676  0.12595147  1
  Co  Co120  1  0.24627905  0.74612369  -0.00174601  1
  Co  Co121  1  0.74989655  0.75299027  0.75055645  1
  Co  Co122  1  0.49830794  -0.00741089  0.24981040  1
  Co  Co123  1  0.25157149  -0.00106614  0.74291529  1
  Co  Co124  1  0.37317116  0.63025328  0.62580597  1
  Co  Co125  1  0.87261175  0.62613053  0.87707170  1
  Co  Co126  1  0.50082701  0.75008518  -0.00139075  1
  Co  Co127  1  0.74731293  0.75200861  0.24746748  1
