# generated using pymatgen
data_Fe45Co19
_symmetry_space_group_name_H-M   'P 1'
_cell_length_a   11.41336519
_cell_length_b   11.41515353
_cell_length_c   11.41526295
_cell_angle_alpha   89.99794498
_cell_angle_beta   89.99549426
_cell_angle_gamma   89.99645503
_symmetry_Int_Tables_number   1
_chemical_formula_structural   Fe45Co19
_chemical_formula_sum   'Fe90 Co38'
_cell_volume   1487.24113174
_cell_formula_units_Z   2
loop_
 _symmetry_equiv_pos_site_id
 _symmetry_equiv_pos_as_xyz
  1  'x, y, z'
loop_
 _atom_site_type_symbol
 _atom_site_label
 _atom_site_symmetry_multiplicity
 _atom_site_fract_x
 _atom_site_fract_y
 _atom_site_fract_z
 _atom_site_occupancy
  Fe  Fe0  1  0.75214541  0.00071343  0.75264513  1
  Fe  Fe1  1  -0.00155342  0.25143678  0.50117237  1
  Fe  Fe2  1  0.12258974  0.12312760  0.62481808  1
  Fe  Fe3  1  0.24912745  0.74833936  0.74970600  1
  Fe  Fe4  1  0.37501293  0.12484737  0.87596351  1
  Fe  Fe5  1  0.50443148  0.75038123  0.49696039  1
  Fe  Fe6  1  0.87223242  0.37324669  0.37488808  1
  Fe  Fe7  1  0.12154787  0.62693044  0.87389453  1
  Fe  Fe8  1  0.24949625  -0.00013126  0.75066950  1
  Fe  Fe9  1  0.62393803  0.87621340  0.87489348  1
  Fe  Fe10  1  0.50285423  0.25123899  0.50126856  1
  Fe  Fe11  1  0.62751496  0.12159304  0.12611311  1
  Fe  Fe12  1  0.12584727  0.87532141  0.62409693  1
  Fe  Fe13  1  0.87468073  0.62767681  0.12454171  1
  Fe  Fe14  1  0.62942291  0.37225479  0.62999144  1
  Fe  Fe15  1  0.24931558  0.24958137  0.75011943  1
  Fe  Fe16  1  0.24846173  0.75010871  0.49824368  1
  Fe  Fe17  1  0.87876604  0.87117969  0.87674707  1
  Fe  Fe18  1  0.50096402  0.25015818  -0.00088225  1
  Fe  Fe19  1  -0.00413496  0.50218117  0.74994460  1
  Fe  Fe20  1  0.62614412  0.12325677  0.37143014  1
  Fe  Fe21  1  0.87544228  0.37368412  0.12392407  1
  Fe  Fe22  1  0.87342283  0.87463778  0.62544743  1
  Fe  Fe23  1  0.87172666  0.87065638  0.37340535  1
  Fe  Fe24  1  0.87215453  0.62733833  0.37454336  1
  Fe  Fe25  1  0.62653149  0.87859623  0.12764314  1
  Fe  Fe26  1  0.75017736  0.24937861  -0.00038921  1
  Fe  Fe27  1  0.24888404  0.24951319  0.50034507  1
  Fe  Fe28  1  0.37635080  0.12461204  0.62462274  1
  Fe  Fe29  1  0.75125885  0.00168861  0.49947799  1
  Fe  Fe30  1  0.50682410  0.74818710  0.25086908  1
  Fe  Fe31  1  0.37549057  0.87320170  0.12598391  1
  Fe  Fe32  1  0.87562637  0.12466964  0.12258757  1
  Fe  Fe33  1  0.24418430  0.25261139  -0.00204946  1
  Fe  Fe34  1  0.12552276  0.12360170  0.37606215  1
  Fe  Fe35  1  0.12530929  0.87398195  0.12817423  1
  Fe  Fe36  1  0.12398976  0.37630632  0.37511791  1
  Fe  Fe37  1  0.62471260  0.37687466  0.37293016  1
  Fe  Fe38  1  0.62309845  0.12431445  0.87357247  1
  Fe  Fe39  1  -0.00077696  -0.00225566  0.49774652  1
  Fe  Fe40  1  0.62622992  0.62595048  0.62530643  1
  Fe  Fe41  1  0.75245708  0.50033027  -0.00300224  1
  Fe  Fe42  1  0.00132248  -0.00206675  0.75273703  1
  Fe  Fe43  1  0.37640439  0.62572798  0.62362924  1
  Fe  Fe44  1  0.38028777  0.62222199  0.37576935  1
  Fe  Fe45  1  0.62589732  0.12529193  0.62869701  1
  Fe  Fe46  1  0.25368214  0.00370757  0.25097533  1
  Fe  Fe47  1  0.37537909  0.87474167  0.62359074  1
  Fe  Fe48  1  0.50105981  0.00032741  0.50002813  1
  Fe  Fe49  1  0.62720217  0.87575185  0.62528618  1
  Fe  Fe50  1  -0.00145712  0.25011033  0.75131409  1
  Fe  Fe51  1  0.49858000  -0.00054770  0.00138819  1
  Fe  Fe52  1  0.25012136  0.50342911  0.75031103  1
  Fe  Fe53  1  0.12324378  0.62406532  0.12679971  1
  Fe  Fe54  1  0.87262787  0.62905382  0.62594308  1
  Fe  Fe55  1  -0.00056075  0.49825820  -0.00207260  1
  Fe  Fe56  1  0.37463302  0.37530876  0.62544907  1
  Fe  Fe57  1  0.62505603  0.37600952  0.12496091  1
  Fe  Fe58  1  0.74838210  0.75079114  0.00006369  1
  Fe  Fe59  1  0.24885707  0.50133296  -0.00077325  1
  Fe  Fe60  1  0.87152935  0.37212146  0.62749274  1
  Fe  Fe61  1  0.49750666  0.24656100  0.24755734  1
  Fe  Fe62  1  0.37749084  0.37467539  0.37411200  1
  Fe  Fe63  1  0.37484069  0.87404508  0.87535201  1
  Fe  Fe64  1  0.87337501  0.12809889  0.37486903  1
  Fe  Fe65  1  0.87425110  0.87367291  0.12501957  1
  Fe  Fe66  1  0.49809631  0.49920505  -0.00038814  1
  Fe  Fe67  1  0.37351117  0.37599490  0.87406922  1
  Fe  Fe68  1  -0.00193391  -0.00137771  0.25000902  1
  Fe  Fe69  1  0.87952249  0.12489990  0.87956137  1
  Fe  Fe70  1  0.74855530  0.50173917  0.24749404  1
  Fe  Fe71  1  0.24884254  0.74802885  0.25317770  1
  Fe  Fe72  1  0.25097842  0.50015501  0.49973957  1
  Fe  Fe73  1  0.37239556  0.37297268  0.12515692  1
  Fe  Fe74  1  0.00078766  0.25110810  0.24855327  1
  Fe  Fe75  1  0.37637131  0.87738243  0.37477209  1
  Fe  Fe76  1  0.24901850  0.74869504  -0.00080639  1
  Fe  Fe77  1  0.75001583  0.49923545  0.50230455  1
  Fe  Fe78  1  0.12210318  0.62320394  0.37697559  1
  Fe  Fe79  1  0.24649869  -0.00151760  -0.00164829  1
  Fe  Fe80  1  0.62844650  0.37373317  0.87148717  1
  Fe  Fe81  1  0.12323648  0.37838423  0.62510489  1
  Fe  Fe82  1  0.00144199  0.75044040  0.49991002  1
  Fe  Fe83  1  0.50010564  0.75080414  0.75114506  1
  Fe  Fe84  1  0.50014565  0.49999208  0.74932240  1
  Fe  Fe85  1  0.12466921  0.12599706  0.12431961  1
  Fe  Fe86  1  0.62413723  0.62565305  0.87637243  1
  Fe  Fe87  1  0.25134856  0.49995051  0.25041237  1
  Fe  Fe88  1  -0.00202799  0.50016223  0.25099666  1
  Fe  Fe89  1  0.37825374  0.62673031  0.12415510  1
  Co  Co90  1  0.50213698  0.49700484  0.50486219  1
  Co  Co91  1  0.49990265  0.50105908  0.24590826  1
  Co  Co92  1  0.62577535  0.61940255  0.37726494  1
  Co  Co93  1  0.74836200  0.24869680  0.50030860  1
  Co  Co94  1  0.87751628  0.12311295  0.62421488  1
  Co  Co95  1  0.00388478  -0.00316826  0.00141463  1
  Co  Co96  1  0.00137944  0.75010799  0.74632711  1
  Co  Co97  1  0.12406451  0.37776439  0.87124396  1
  Co  Co98  1  0.50162619  0.75312101  0.00059766  1
  Co  Co99  1  0.12663822  0.87730544  0.37337646  1
  Co  Co100  1  0.49855223  -0.00145022  0.74992920  1
  Co  Co101  1  0.75190356  0.50416023  0.75153788  1
  Co  Co102  1  0.00111014  0.75012073  0.25088311  1
  Co  Co103  1  0.74865966  0.75198679  0.75241396  1
  Co  Co104  1  0.62667479  0.87956533  0.37324823  1
  Co  Co105  1  0.12544612  0.37690429  0.12777851  1
  Co  Co106  1  0.00198382  0.75066586  0.00363812  1
  Co  Co107  1  0.74429771  0.74732407  0.24819695  1
  Co  Co108  1  0.87652945  0.63019444  0.87582041  1
  Co  Co109  1  0.75085609  -0.00078012  -0.00273117  1
  Co  Co110  1  0.74942526  0.25067872  0.24733749  1
  Co  Co111  1  0.62481266  0.62299422  0.11981321  1
  Co  Co112  1  0.37194227  0.12727268  0.11889889  1
  Co  Co113  1  0.12438066  0.62312330  0.62294057  1
  Co  Co114  1  0.74727733  0.75042509  0.49944889  1
  Co  Co115  1  0.00252706  0.25407202  0.00058974  1
  Co  Co116  1  0.75390668  0.24311708  0.75232667  1
  Co  Co117  1  0.12325589  0.12580402  0.87433917  1
  Co  Co118  1  0.25020123  -0.00013742  0.50133343  1
  Co  Co119  1  0.49565726  0.00254839  0.24780468  1
  Co  Co120  1  0.37554535  0.12527209  0.37942969  1
  Co  Co121  1  0.12455619  0.87102280  0.87447792  1
  Co  Co122  1  0.25015934  0.24864883  0.25209550  1
  Co  Co123  1  -0.00577666  0.49997169  0.50100919  1
  Co  Co124  1  0.75522872  -0.00009079  0.25120102  1
  Co  Co125  1  0.37745025  0.62620392  0.87577205  1
  Co  Co126  1  0.49742684  0.25122983  0.75060478  1
  Co  Co127  1  0.87306960  0.37294785  0.87410322  1
