# generated using pymatgen
data_Fe45Co19
_symmetry_space_group_name_H-M   'P 1'
_cell_length_a   11.41516050
_cell_length_b   11.41588275
_cell_length_c   11.41367540
_cell_angle_alpha   89.99324931
_cell_angle_beta   89.99571227
_cell_angle_gamma   89.99670531
_symmetry_Int_Tables_number   1
_chemical_formula_structural   Fe45Co19
_chemical_formula_sum   'Fe90 Co38'
_cell_volume   1487.36320664
_cell_formula_units_Z   2
loop_
 _symmetry_equiv_pos_site_id
 _symmetry_equiv_pos_as_xyz
  1  'x, y, z'
loop_
 _atom_site_type_symbol
 _atom_site_label
 _atom_site_symmetry_multiplicity
 _atom_site_fract_x
 _atom_site_fract_y
 _atom_site_fract_z
 _atom_site_occupancy
  Fe  Fe0  1  0.24966589  0.00209225  0.50088617  1
  Fe  Fe1  1  0.12203405  0.62262686  0.62917159  1
  Fe  Fe2  1  0.37323661  0.12476982  0.87248379  1
  Fe  Fe3  1  0.87637167  0.12755604  0.62540253  1
  Fe  Fe4  1  0.74630916  0.24947216  0.74734015  1
  Fe  Fe5  1  0.62458179  0.62431727  0.62188775  1
  Fe  Fe6  1  0.62340170  0.12681951  0.12932024  1
  Fe  Fe7  1  0.12708136  0.87510610  0.37420361  1
  Fe  Fe8  1  0.00050121  0.00181871  0.75202848  1
  Fe  Fe9  1  0.62320783  0.37437809  0.61753541  1
  Fe  Fe10  1  0.75137629  -0.00006215  0.25001938  1
  Fe  Fe11  1  0.37576320  0.62468588  0.12603840  1
  Fe  Fe12  1  0.25125370  0.50103888  0.00096264  1
  Fe  Fe13  1  0.49640671  0.49581007  0.25404610  1
  Fe  Fe14  1  0.74991966  0.75030122  0.74844108  1
  Fe  Fe15  1  0.12610267  0.62570781  0.12668605  1
  Fe  Fe16  1  0.74894069  0.00196519  0.74921425  1
  Fe  Fe17  1  0.62027132  0.12621665  0.61974014  1
  Fe  Fe18  1  0.25016539  -0.00004129  0.00248625  1
  Fe  Fe19  1  0.87612784  0.62553957  0.87347005  1
  Fe  Fe20  1  0.37391454  0.87397724  0.62444900  1
  Fe  Fe21  1  0.00022078  0.49830597  0.25202103  1
  Fe  Fe22  1  0.00223823  -0.00090437  0.24962529  1
  Fe  Fe23  1  0.00066729  0.00191799  -0.00110495  1
  Fe  Fe24  1  0.24560622  0.49907404  0.50152346  1
  Fe  Fe25  1  0.74979409  0.75093416  0.25181315  1
  Fe  Fe26  1  0.50064172  0.49962291  0.00136224  1
  Fe  Fe27  1  0.00163779  0.74911830  -0.00148862  1
  Fe  Fe28  1  0.49893628  0.24943908  -0.00085407  1
  Fe  Fe29  1  0.49839136  0.00024480  0.74836836  1
  Fe  Fe30  1  0.49816110  0.00072843  0.25288175  1
  Fe  Fe31  1  0.49957601  -0.00023804  0.00158077  1
  Fe  Fe32  1  0.37082739  0.62249188  0.37483271  1
  Fe  Fe33  1  0.87621005  0.87540197  0.62356053  1
  Fe  Fe34  1  0.62437389  0.12543332  0.87502212  1
  Fe  Fe35  1  0.74943375  0.00086114  0.00121552  1
  Fe  Fe36  1  0.00284695  0.24986980  0.75279665  1
  Fe  Fe37  1  0.12647117  0.12606782  0.62787728  1
  Fe  Fe38  1  0.49868294  0.49820254  0.74655716  1
  Fe  Fe39  1  0.87428131  0.12812395  0.37432379  1
  Fe  Fe40  1  -0.00018309  0.49539188  0.50053167  1
  Fe  Fe41  1  0.75169662  0.00113849  0.49983918  1
  Fe  Fe42  1  0.49782298  0.25235578  0.25938795  1
  Fe  Fe43  1  0.74986652  0.49906748  0.00088326  1
  Fe  Fe44  1  0.12580108  0.37542014  0.12670121  1
  Fe  Fe45  1  0.87558994  0.62410905  0.12546443  1
  Fe  Fe46  1  0.75098676  0.49904974  0.74688665  1
  Fe  Fe47  1  0.00170207  0.00181707  0.49761874  1
  Fe  Fe48  1  0.24698609  0.74793139  0.49914946  1
  Fe  Fe49  1  0.49994791  0.74904006  0.49773206  1
  Fe  Fe50  1  0.37626305  0.12861004  0.62259712  1
  Fe  Fe51  1  0.62402246  0.62393266  0.12721129  1
  Fe  Fe52  1  0.12657009  0.12688481  0.12586856  1
  Fe  Fe53  1  0.87726467  0.62696537  0.62543464  1
  Fe  Fe54  1  0.74934482  0.25053017  0.00299096  1
  Fe  Fe55  1  0.00034000  0.50024927  -0.00152421  1
  Fe  Fe56  1  0.00161296  0.24988355  -0.00272374  1
  Fe  Fe57  1  0.87603546  0.62534267  0.37663159  1
  Fe  Fe58  1  0.87294080  0.37280622  0.87412677  1
  Fe  Fe59  1  0.87536846  0.12690737  0.12435997  1
  Fe  Fe60  1  0.00396645  0.25221274  0.50044312  1
  Fe  Fe61  1  0.50037746  0.74978780  0.25139043  1
  Fe  Fe62  1  0.37457055  0.12736980  0.12843451  1
  Fe  Fe63  1  0.37449991  0.87289849  0.12643403  1
  Fe  Fe64  1  0.62187959  0.87441930  0.87637666  1
  Fe  Fe65  1  0.74758093  0.75011931  0.00216336  1
  Fe  Fe66  1  0.25038300  0.25125595  -0.00003980  1
  Fe  Fe67  1  0.12829650  0.37882488  0.87067858  1
  Fe  Fe68  1  0.62547347  0.87687274  0.37678817  1
  Fe  Fe69  1  0.37545466  0.37596531  0.87418126  1
  Fe  Fe70  1  0.12574081  0.87590902  0.62601743  1
  Fe  Fe71  1  0.13020398  0.12847422  0.37091831  1
  Fe  Fe72  1  0.75317364  0.49537088  0.25019371  1
  Fe  Fe73  1  0.62395029  0.37506691  0.87457622  1
  Fe  Fe74  1  -0.00130404  0.25277852  0.24907409  1
  Fe  Fe75  1  0.37153583  0.87583886  0.37564905  1
  Fe  Fe76  1  0.49768640  0.74934031  0.75085606  1
  Fe  Fe77  1  0.62651947  0.62050719  0.37758366  1
  Fe  Fe78  1  0.62189120  0.62510174  0.87478983  1
  Fe  Fe79  1  0.62231880  0.37370371  0.12745065  1
  Fe  Fe80  1  0.37490159  0.62505572  0.62341814  1
  Fe  Fe81  1  0.62365950  0.87431150  0.62220176  1
  Fe  Fe82  1  0.25042759  0.74706789  0.75311406  1
  Fe  Fe83  1  0.12741677  0.87699547  0.87395108  1
  Fe  Fe84  1  0.37469396  0.37147480  0.62087773  1
  Fe  Fe85  1  0.87458573  0.87531832  0.87400012  1
  Fe  Fe86  1  0.25151416  0.74813809  -0.00259724  1
  Fe  Fe87  1  0.87633275  0.87448636  0.12616772  1
  Fe  Fe88  1  0.00238560  0.75088154  0.25150042  1
  Fe  Fe89  1  0.00148549  0.75096789  0.49934030  1
  Co  Co90  1  0.00137038  0.75252488  0.74989324  1
  Co  Co91  1  0.87267361  0.12758909  0.87442883  1
  Co  Co92  1  0.87461650  0.37160403  0.37776132  1
  Co  Co93  1  0.74921036  0.25310849  0.24945243  1
  Co  Co94  1  0.62419439  0.87626585  0.12676436  1
  Co  Co95  1  0.12592492  0.37609385  0.62923117  1
  Co  Co96  1  0.87742761  0.37521031  0.12284211  1
  Co  Co97  1  0.24655593  0.24935690  0.50130694  1
  Co  Co98  1  0.74975520  0.74962097  0.49921494  1
  Co  Co99  1  0.49695128  -0.00017594  0.49912743  1
  Co  Co100  1  0.37738077  0.37448215  0.12351757  1
  Co  Co101  1  0.49703740  0.50046423  0.49882889  1
  Co  Co102  1  0.36910402  0.12284535  0.37522839  1
  Co  Co103  1  0.49890861  0.24929830  0.49030319  1
  Co  Co104  1  0.37528292  0.87708797  0.87500187  1
  Co  Co105  1  0.24904769  0.74898649  0.25107604  1
  Co  Co106  1  0.12718472  0.37342657  0.37255492  1
  Co  Co107  1  0.87560081  0.36940542  0.62538522  1
  Co  Co108  1  0.49993018  0.75029494  0.00260111  1
  Co  Co109  1  0.50053950  0.25107155  0.74974760  1
  Co  Co110  1  0.75610877  0.50068541  0.50295385  1
  Co  Co111  1  0.12421505  0.62194599  0.87146601  1
  Co  Co112  1  0.24842114  -0.00094566  0.24754038  1
  Co  Co113  1  0.12476737  0.62297571  0.37490184  1
  Co  Co114  1  0.25515809  0.50123355  0.74791410  1
  Co  Co115  1  -0.00444670  0.49731662  0.74986219  1
  Co  Co116  1  0.25184255  0.00140752  0.74673174  1
  Co  Co117  1  0.62749849  0.12265293  0.37519924  1
  Co  Co118  1  0.25072252  0.25013562  0.74968516  1
  Co  Co119  1  0.12914488  0.12329198  0.87496721  1
  Co  Co120  1  0.37917864  0.62180095  0.87643413  1
  Co  Co121  1  0.36754232  0.37785597  0.38039579  1
  Co  Co122  1  0.74868307  0.24820474  0.49899171  1
  Co  Co123  1  0.25024010  0.49880608  0.24757521  1
  Co  Co124  1  0.12513337  0.87289722  0.12391714  1
  Co  Co125  1  0.25480501  0.25402191  0.24863563  1
  Co  Co126  1  0.87621191  0.87534485  0.37603790  1
  Co  Co127  1  0.62886330  0.37906715  0.37969493  1
