# generated using pymatgen
data_Fe45Co19
_symmetry_space_group_name_H-M   'P 1'
_cell_length_a   11.41408081
_cell_length_b   11.41581623
_cell_length_c   11.41607143
_cell_angle_alpha   90.00095662
_cell_angle_beta   90.00346127
_cell_angle_gamma   89.99251282
_symmetry_Int_Tables_number   1
_chemical_formula_structural   Fe45Co19
_chemical_formula_sum   'Fe90 Co38'
_cell_volume   1487.52606735
_cell_formula_units_Z   2
loop_
 _symmetry_equiv_pos_site_id
 _symmetry_equiv_pos_as_xyz
  1  'x, y, z'
loop_
 _atom_site_type_symbol
 _atom_site_label
 _atom_site_symmetry_multiplicity
 _atom_site_fract_x
 _atom_site_fract_y
 _atom_site_fract_z
 _atom_site_occupancy
  Fe  Fe0  1  0.74794252  0.49787694  0.49978964  1
  Fe  Fe1  1  0.87426993  0.12520373  0.87503782  1
  Fe  Fe2  1  0.37453573  0.37483242  0.37244957  1
  Fe  Fe3  1  0.87372786  0.87155931  0.62559168  1
  Fe  Fe4  1  0.87554754  0.87331272  0.12716907  1
  Fe  Fe5  1  0.37587417  0.12547692  0.12336613  1
  Fe  Fe6  1  0.62466095  0.62149829  0.12162905  1
  Fe  Fe7  1  0.74343782  0.24972336  0.75272685  1
  Fe  Fe8  1  0.25065019  0.74993346  -0.00113114  1
  Fe  Fe9  1  0.74972316  0.74999580  0.25304584  1
  Fe  Fe10  1  0.49992935  0.75243104  0.50186165  1
  Fe  Fe11  1  0.62165923  0.61908133  0.87918236  1
  Fe  Fe12  1  0.62429431  0.87578850  0.87418917  1
  Fe  Fe13  1  0.87516001  0.62397867  0.37440084  1
  Fe  Fe14  1  0.87617362  0.37323455  0.62771996  1
  Fe  Fe15  1  0.12677497  0.12813946  0.37825829  1
  Fe  Fe16  1  0.87524775  0.62409509  0.12896356  1
  Fe  Fe17  1  0.37243096  0.37337053  0.12802060  1
  Fe  Fe18  1  0.49927767  0.25142206  0.50195943  1
  Fe  Fe19  1  0.37723594  0.87706315  0.37338669  1
  Fe  Fe20  1  0.87466842  0.12665644  0.12504971  1
  Fe  Fe21  1  0.12569664  0.12328691  0.87555132  1
  Fe  Fe22  1  0.49949956  0.49883547  0.50359226  1
  Fe  Fe23  1  0.12910070  0.87091531  0.62562757  1
  Fe  Fe24  1  0.37575363  0.62662655  0.12457764  1
  Fe  Fe25  1  -0.00100059  0.75151549  0.49742261  1
  Fe  Fe26  1  0.74981849  0.74845878  -0.00158274  1
  Fe  Fe27  1  0.62257880  0.12332437  0.37824406  1
  Fe  Fe28  1  0.25166147  0.00313737  0.24886831  1
  Fe  Fe29  1  0.25002748  0.49980505  0.00258835  1
  Fe  Fe30  1  0.75034766  -0.00213653  0.50224999  1
  Fe  Fe31  1  0.00025425  0.50011227  0.00369787  1
  Fe  Fe32  1  0.25163522  0.49912980  0.49880654  1
  Fe  Fe33  1  0.37563643  0.62327858  0.87653858  1
  Fe  Fe34  1  0.62426147  0.87415608  0.12364006  1
  Fe  Fe35  1  0.37492452  0.12579143  0.62588734  1
  Fe  Fe36  1  0.25129051  -0.00117498  0.00034463  1
  Fe  Fe37  1  0.74815828  -0.00013444  0.24967851  1
  Fe  Fe38  1  0.00195021  0.00193655  0.74766951  1
  Fe  Fe39  1  0.37450816  0.87470122  0.87205449  1
  Fe  Fe40  1  0.25214268  0.74693644  0.25336928  1
  Fe  Fe41  1  0.24646267  0.50436711  0.74803410  1
  Fe  Fe42  1  0.50106556  0.00440551  0.74934848  1
  Fe  Fe43  1  0.12665135  0.87325921  0.12713725  1
  Fe  Fe44  1  0.62248037  0.62403812  0.37768740  1
  Fe  Fe45  1  0.87632883  0.12915090  0.62498870  1
  Fe  Fe46  1  0.00041733  0.49638315  0.50001713  1
  Fe  Fe47  1  0.24832850  0.24711735  0.74985509  1
  Fe  Fe48  1  0.87449607  0.62524659  0.62231600  1
  Fe  Fe49  1  0.37663252  0.37536815  0.87005247  1
  Fe  Fe50  1  0.50125024  0.74594972  0.75000428  1
  Fe  Fe51  1  0.37297261  0.87279995  0.62830719  1
  Fe  Fe52  1  0.00067110  0.00039380  0.50172480  1
  Fe  Fe53  1  0.50078312  0.49870535  0.24849079  1
  Fe  Fe54  1  0.12565734  0.87535906  0.37438016  1
  Fe  Fe55  1  0.12419787  0.37806106  0.87430184  1
  Fe  Fe56  1  0.25087565  -0.00008282  0.50256142  1
  Fe  Fe57  1  0.12449588  0.62376786  0.37492035  1
  Fe  Fe58  1  0.74865724  0.00138189  0.74849709  1
  Fe  Fe59  1  0.00090757  0.74930839  0.00115608  1
  Fe  Fe60  1  0.00248705  0.25055922  0.24966178  1
  Fe  Fe61  1  0.75228373  -0.00229033  0.00013246  1
  Fe  Fe62  1  0.24810747  0.25026136  0.00097734  1
  Fe  Fe63  1  0.50243577  0.25012515  0.24977370  1
  Fe  Fe64  1  0.50124902  0.25386496  -0.00366689  1
  Fe  Fe65  1  0.87780731  0.62356375  0.87420915  1
  Fe  Fe66  1  0.74907090  0.25273353  0.49955110  1
  Fe  Fe67  1  0.87353026  0.37599364  0.37183123  1
  Fe  Fe68  1  0.00134428  0.25134154  0.00079561  1
  Fe  Fe69  1  0.62456342  0.12577264  0.12173239  1
  Fe  Fe70  1  0.87767687  0.37709211  0.87169975  1
  Fe  Fe71  1  0.62366000  0.87724185  0.37694997  1
  Fe  Fe72  1  0.87461817  0.12455936  0.37503016  1
  Fe  Fe73  1  0.87304592  0.37625394  0.12851370  1
  Fe  Fe74  1  0.12986317  0.37349261  0.37186675  1
  Fe  Fe75  1  0.12338014  0.37193723  0.62465469  1
  Fe  Fe76  1  0.74657731  0.74715098  0.75036272  1
  Fe  Fe77  1  0.37105201  0.62792964  0.62185937  1
  Fe  Fe78  1  0.12610769  0.87412517  0.87214216  1
  Fe  Fe79  1  0.74774601  0.25514403  -0.00315101  1
  Fe  Fe80  1  0.37617813  0.12521925  0.37578702  1
  Fe  Fe81  1  0.50001091  0.75103679  0.24849880  1
  Fe  Fe82  1  0.74864156  0.50075819  0.74934493  1
  Fe  Fe83  1  0.74562293  0.25157325  0.25086555  1
  Fe  Fe84  1  0.87582519  0.87301047  0.87206146  1
  Fe  Fe85  1  0.49773468  -0.00246912  0.00070836  1
  Fe  Fe86  1  0.00431364  0.74490233  0.74876155  1
  Fe  Fe87  1  0.00041088  0.00040665  0.24998942  1
  Fe  Fe88  1  -0.00082941  -0.00123692  0.00000455  1
  Fe  Fe89  1  0.37672600  0.37379230  0.62944466  1
  Co  Co90  1  0.00343824  0.50301711  0.74622272  1
  Co  Co91  1  0.12420052  0.62252437  0.87925449  1
  Co  Co92  1  0.62575355  0.12173783  0.88015562  1
  Co  Co93  1  0.49684379  -0.00172159  0.50316507  1
  Co  Co94  1  0.25275485  0.75145544  0.49393733  1
  Co  Co95  1  0.12780376  0.37648784  0.12758945  1
  Co  Co96  1  0.25288204  0.50384241  0.25035461  1
  Co  Co97  1  0.25027442  0.24598655  0.24850709  1
  Co  Co98  1  0.87453646  0.87780629  0.37553154  1
  Co  Co99  1  0.00197870  0.49795292  0.25036226  1
  Co  Co100  1  0.62289348  0.37494481  0.62745224  1
  Co  Co101  1  0.12431407  0.12942245  0.62166952  1
  Co  Co102  1  0.75454952  0.49895702  -0.00152021  1
  Co  Co103  1  0.62518955  0.12600529  0.62060432  1
  Co  Co104  1  0.62035245  0.38225061  0.87267503  1
  Co  Co105  1  0.12401620  0.12381916  0.12332592  1
  Co  Co106  1  0.49453522  0.49544211  0.00289120  1
  Co  Co107  1  0.62191363  0.37567281  0.37733614  1
  Co  Co108  1  0.24894069  0.74456757  0.75310982  1
  Co  Co109  1  0.25441850  0.25175699  0.50155344  1
  Co  Co110  1  0.37352744  0.12599283  0.87671147  1
  Co  Co111  1  0.50372121  0.24516092  0.75266337  1
  Co  Co112  1  0.49940268  0.75164360  -0.00066517  1
  Co  Co113  1  0.74594413  0.50081126  0.25227789  1
  Co  Co114  1  -0.00191483  0.25301604  0.49617877  1
  Co  Co115  1  0.62664593  0.62509261  0.62141608  1
  Co  Co116  1  0.37293569  0.87369356  0.12659015  1
  Co  Co117  1  0.74969364  0.75161967  0.49744754  1
  Co  Co118  1  0.00192959  0.24833510  0.75264550  1
  Co  Co119  1  0.12570656  0.62651969  0.12722706  1
  Co  Co120  1  0.62447775  0.87451906  0.62665173  1
  Co  Co121  1  0.49830894  0.50600581  0.74588709  1
  Co  Co122  1  0.37981908  0.62339580  0.37656767  1
  Co  Co123  1  -0.00119932  0.75121612  0.25255555  1
  Co  Co124  1  0.12722953  0.62723352  0.61778816  1
  Co  Co125  1  0.50033958  0.00065208  0.24734185  1
  Co  Co126  1  0.62654521  0.37787664  0.12293320  1
  Co  Co127  1  0.24925712  0.00328625  0.74793846  1
