# generated using pymatgen
data_Fe45Co19
_symmetry_space_group_name_H-M   'P 1'
_cell_length_a   11.41543252
_cell_length_b   11.41358670
_cell_length_c   11.41491969
_cell_angle_alpha   90.00382920
_cell_angle_beta   90.00243704
_cell_angle_gamma   89.99164615
_symmetry_Int_Tables_number   1
_chemical_formula_structural   Fe45Co19
_chemical_formula_sum   'Fe90 Co38'
_cell_volume   1487.26160857
_cell_formula_units_Z   2
loop_
 _symmetry_equiv_pos_site_id
 _symmetry_equiv_pos_as_xyz
  1  'x, y, z'
loop_
 _atom_site_type_symbol
 _atom_site_label
 _atom_site_symmetry_multiplicity
 _atom_site_fract_x
 _atom_site_fract_y
 _atom_site_fract_z
 _atom_site_occupancy
  Fe  Fe0  1  0.25246841  0.50184431  0.75186505  1
  Fe  Fe1  1  0.62615775  0.87403027  0.12546206  1
  Fe  Fe2  1  -0.00049984  0.75063891  0.49857968  1
  Fe  Fe3  1  0.87387836  0.37308401  0.62276501  1
  Fe  Fe4  1  0.87096047  0.87772959  0.62452033  1
  Fe  Fe5  1  0.00007814  0.49980399  0.49878751  1
  Fe  Fe6  1  0.12513209  0.12180234  0.37127845  1
  Fe  Fe7  1  0.37338902  0.12912332  0.87343249  1
  Fe  Fe8  1  0.37611429  0.87510196  0.12353461  1
  Fe  Fe9  1  0.37849946  0.87718063  0.37370342  1
  Fe  Fe10  1  0.87844623  0.37741818  0.87834595  1
  Fe  Fe11  1  0.37505282  0.12646123  0.62428377  1
  Fe  Fe12  1  0.50041892  0.74893953  0.49936307  1
  Fe  Fe13  1  0.12568763  0.12596710  0.87532676  1
  Fe  Fe14  1  0.75070599  0.74974446  0.75193056  1
  Fe  Fe15  1  0.37726237  0.12349687  0.12750250  1
  Fe  Fe16  1  0.00055690  0.25200059  0.74912912  1
  Fe  Fe17  1  0.37542420  0.37328454  0.62671325  1
  Fe  Fe18  1  0.12409265  0.12448902  0.62458455  1
  Fe  Fe19  1  0.25194085  0.50221445  0.49916240  1
  Fe  Fe20  1  0.87001137  0.87496853  0.37434370  1
  Fe  Fe21  1  0.12552882  0.37774014  0.62473201  1
  Fe  Fe22  1  0.75183933  0.49874204  0.75162858  1
  Fe  Fe23  1  0.87486457  0.12586141  0.12520045  1
  Fe  Fe24  1  0.50510160  -0.00037383  0.49911849  1
  Fe  Fe25  1  0.74853788  0.49891918  0.49856037  1
  Fe  Fe26  1  0.87347112  0.62437286  0.12153086  1
  Fe  Fe27  1  0.24962976  0.00041881  0.74954214  1
  Fe  Fe28  1  0.25023791  -0.00071112  0.49714421  1
  Fe  Fe29  1  0.87326136  0.12560729  0.37579903  1
  Fe  Fe30  1  0.00140570  0.00057143  0.00161040  1
  Fe  Fe31  1  0.00016071  -0.00030553  0.74974365  1
  Fe  Fe32  1  0.62308081  0.37446396  0.87526526  1
  Fe  Fe33  1  0.00129289  0.25055881  0.49873700  1
  Fe  Fe34  1  0.37576749  0.37437318  0.37473601  1
  Fe  Fe35  1  0.24863964  0.74717193  0.75115233  1
  Fe  Fe36  1  0.37433050  0.62516368  0.12220903  1
  Fe  Fe37  1  0.24845547  0.00215616  0.00235203  1
  Fe  Fe38  1  0.37284351  0.37736756  0.12097004  1
  Fe  Fe39  1  0.87713224  0.87540891  0.87602372  1
  Fe  Fe40  1  0.75174042  0.49982215  0.24926184  1
  Fe  Fe41  1  0.87358575  0.37426160  0.37475134  1
  Fe  Fe42  1  0.49665790  0.50081860  0.75468422  1
  Fe  Fe43  1  0.12409799  0.87785978  0.12892470  1
  Fe  Fe44  1  0.12650690  0.37465500  0.12537834  1
  Fe  Fe45  1  0.12557845  0.87398360  0.62431971  1
  Fe  Fe46  1  0.00315214  0.74863152  0.00037637  1
  Fe  Fe47  1  0.50098220  0.00127508  -0.00029180  1
  Fe  Fe48  1  0.87333096  0.87414919  0.12476437  1
  Fe  Fe49  1  0.25156362  0.74829148  0.49907528  1
  Fe  Fe50  1  0.75144941  0.25217302  0.00116497  1
  Fe  Fe51  1  0.62537766  0.37549717  0.62680051  1
  Fe  Fe52  1  0.62518422  0.62417585  0.37313037  1
  Fe  Fe53  1  0.24880447  0.24960439  0.49857202  1
  Fe  Fe54  1  0.25065297  0.50140496  0.25020314  1
  Fe  Fe55  1  -0.00245117  0.74986422  0.25158364  1
  Fe  Fe56  1  -0.00032746  0.25050319  0.25015605  1
  Fe  Fe57  1  0.25169975  0.24784815  0.25010303  1
  Fe  Fe58  1  0.62251305  0.13004382  0.37016134  1
  Fe  Fe59  1  0.49902611  0.49988752  0.24825876  1
  Fe  Fe60  1  -0.00124991  0.50023893  0.24935922  1
  Fe  Fe61  1  0.62587195  0.37245193  0.12736559  1
  Fe  Fe62  1  0.12715295  0.37653980  0.87691813  1
  Fe  Fe63  1  0.00155206  0.74913608  0.74958557  1
  Fe  Fe64  1  0.62678585  0.12746843  0.87527974  1
  Fe  Fe65  1  0.50066453  0.00109421  0.75030907  1
  Fe  Fe66  1  0.50047502  0.74907483  0.24895108  1
  Fe  Fe67  1  0.74937324  -0.00033658  -0.00009221  1
  Fe  Fe68  1  0.12455056  0.62506967  0.37468345  1
  Fe  Fe69  1  0.50217669  0.25176116  0.50004887  1
  Fe  Fe70  1  0.62797077  0.62441455  0.12172023  1
  Fe  Fe71  1  0.87092794  0.12491091  0.62496396  1
  Fe  Fe72  1  0.62517479  0.87509333  0.87434849  1
  Fe  Fe73  1  0.62967000  0.12615706  0.62844716  1
  Fe  Fe74  1  0.87597840  0.62373259  0.62412450  1
  Fe  Fe75  1  0.25099734  0.75157945  0.25127546  1
  Fe  Fe76  1  0.49770564  0.25114421  0.00089841  1
  Fe  Fe77  1  -0.00093425  -0.00184141  0.49805265  1
  Fe  Fe78  1  0.62381797  0.62458025  0.62728816  1
  Fe  Fe79  1  0.00189605  0.25023156  0.00244611  1
  Fe  Fe80  1  0.49920485  0.74867537  0.75205466  1
  Fe  Fe81  1  0.37272521  0.87425169  0.87675260  1
  Fe  Fe82  1  0.74714733  0.00142988  0.24935916  1
  Fe  Fe83  1  0.87439294  0.12555190  0.87430775  1
  Fe  Fe84  1  0.87596089  0.62183040  0.87849685  1
  Fe  Fe85  1  0.37672362  0.87497128  0.62498353  1
  Fe  Fe86  1  0.49941132  0.50057470  0.49870506  1
  Fe  Fe87  1  0.24442295  0.74704828  -0.00074824  1
  Fe  Fe88  1  0.74797758  0.74913320  0.49960883  1
  Fe  Fe89  1  0.50279447  0.74760604  -0.00119416  1
  Co  Co90  1  0.12439363  0.62379074  0.62344559  1
  Co  Co91  1  0.62742801  0.62341887  0.87559221  1
  Co  Co92  1  0.24781005  0.25077462  0.74773215  1
  Co  Co93  1  0.75147413  0.74709177  0.24925049  1
  Co  Co94  1  0.24950042  0.24700054  0.00337016  1
  Co  Co95  1  0.50045513  0.24965731  0.74914740  1
  Co  Co96  1  0.62476456  0.12852275  0.12444160  1
  Co  Co97  1  0.62458619  0.37546419  0.37121275  1
  Co  Co98  1  0.00382043  0.50081602  0.00512004  1
  Co  Co99  1  0.37670772  0.62554544  0.62599031  1
  Co  Co100  1  0.75213243  0.25376926  0.75189842  1
  Co  Co101  1  0.12485228  0.62544438  0.13058633  1
  Co  Co102  1  0.74993537  -0.00168597  0.75267333  1
  Co  Co103  1  0.62520036  0.87092007  0.37182329  1
  Co  Co104  1  0.12527878  0.87480392  0.37361389  1
  Co  Co105  1  0.62536669  0.87328087  0.62703951  1
  Co  Co106  1  0.75005113  0.75161879  -0.00229449  1
  Co  Co107  1  0.37768339  0.12513282  0.37611033  1
  Co  Co108  1  0.12104861  0.62086678  0.87203381  1
  Co  Co109  1  0.74533306  0.00061629  0.49675660  1
  Co  Co110  1  0.74864843  0.49611627  0.00064883  1
  Co  Co111  1  0.25367496  -0.00028836  0.24991546  1
  Co  Co112  1  0.37507578  0.62647920  0.87985766  1
  Co  Co113  1  0.87464387  0.62379080  0.37664955  1
  Co  Co114  1  0.12513505  0.87684868  0.87530723  1
  Co  Co115  1  0.50074740  0.49942809  -0.00019063  1
  Co  Co116  1  0.75257198  0.25035370  0.24986722  1
  Co  Co117  1  -0.00410021  -0.00187463  0.25124981  1
  Co  Co118  1  0.37230930  0.37233145  0.87692972  1
  Co  Co119  1  0.50236539  -0.00094188  0.24891525  1
  Co  Co120  1  0.49538085  0.25267027  0.24796698  1
  Co  Co121  1  0.37615308  0.62449903  0.37271527  1
  Co  Co122  1  -0.00201479  0.49844175  0.74804155  1
  Co  Co123  1  0.12258690  0.12357616  0.12896715  1
  Co  Co124  1  0.12576500  0.37636162  0.37357428  1
  Co  Co125  1  0.87623895  0.37465038  0.12522721  1
  Co  Co126  1  0.24785444  0.50422460  -0.00042532  1
  Co  Co127  1  0.74733777  0.25132875  0.49889137  1
