# generated using pymatgen
data_Fe45Co19
_symmetry_space_group_name_H-M   'P 1'
_cell_length_a   11.41500352
_cell_length_b   11.41499879
_cell_length_c   11.41510517
_cell_angle_alpha   90.00995994
_cell_angle_beta   90.00313661
_cell_angle_gamma   90.00149382
_symmetry_Int_Tables_number   1
_chemical_formula_structural   Fe45Co19
_chemical_formula_sum   'Fe90 Co38'
_cell_volume   1487.41387807
_cell_formula_units_Z   2
loop_
 _symmetry_equiv_pos_site_id
 _symmetry_equiv_pos_as_xyz
  1  'x, y, z'
loop_
 _atom_site_type_symbol
 _atom_site_label
 _atom_site_symmetry_multiplicity
 _atom_site_fract_x
 _atom_site_fract_y
 _atom_site_fract_z
 _atom_site_occupancy
  Fe  Fe0  1  0.25007955  0.50063187  -0.00124290  1
  Fe  Fe1  1  0.25211890  0.00036895  0.00180756  1
  Fe  Fe2  1  -0.00079777  0.00136623  0.49762374  1
  Fe  Fe3  1  0.74566205  -0.00013454  0.49743394  1
  Fe  Fe4  1  0.74618024  0.25277702  0.24871444  1
  Fe  Fe5  1  0.37575566  0.87793447  0.62539600  1
  Fe  Fe6  1  0.25272913  0.24835225  0.49963921  1
  Fe  Fe7  1  0.49910712  0.00602837  0.75321108  1
  Fe  Fe8  1  0.87527488  0.62549281  0.62473752  1
  Fe  Fe9  1  0.25205164  0.75183217  0.25058014  1
  Fe  Fe10  1  0.37549522  0.87607951  0.87550935  1
  Fe  Fe11  1  0.87622223  0.87631143  0.62286616  1
  Fe  Fe12  1  0.25503846  0.00116441  0.49688716  1
  Fe  Fe13  1  0.74864979  0.49705347  0.74669640  1
  Fe  Fe14  1  0.12225733  0.37352087  0.62146295  1
  Fe  Fe15  1  0.37487862  0.37243467  0.87138456  1
  Fe  Fe16  1  0.62076670  0.37285247  0.37830071  1
  Fe  Fe17  1  0.74847282  -0.00002908  0.74861756  1
  Fe  Fe18  1  0.62174901  0.87595316  0.62364509  1
  Fe  Fe19  1  0.24805986  0.75360079  0.74939499  1
  Fe  Fe20  1  0.25226881  0.75014075  0.49930500  1
  Fe  Fe21  1  0.75172390  0.49924591  -0.00072900  1
  Fe  Fe22  1  0.38089311  0.87437830  0.37403824  1
  Fe  Fe23  1  0.62406539  0.87713551  0.87676603  1
  Fe  Fe24  1  0.75050746  0.25134448  0.50209911  1
  Fe  Fe25  1  0.12353097  0.87702676  0.37470532  1
  Fe  Fe26  1  0.00167385  0.24762030  0.24864009  1
  Fe  Fe27  1  -0.00162396  0.75225061  0.25170071  1
  Fe  Fe28  1  0.87664654  0.37351878  0.12257445  1
  Fe  Fe29  1  0.87290850  0.12587313  0.87481879  1
  Fe  Fe30  1  0.87540213  0.62606373  0.87437117  1
  Fe  Fe31  1  0.87537895  0.12527092  0.62460073  1
  Fe  Fe32  1  0.87199863  0.87500321  0.12479678  1
  Fe  Fe33  1  -0.00045545  0.49938809  0.25062731  1
  Fe  Fe34  1  0.12673865  0.12390107  0.87582949  1
  Fe  Fe35  1  0.12473693  0.62451166  0.12590760  1
  Fe  Fe36  1  0.74981876  0.75280077  0.75093899  1
  Fe  Fe37  1  0.62299445  0.62326032  0.37584498  1
  Fe  Fe38  1  0.12667716  0.12365669  0.37034322  1
  Fe  Fe39  1  0.25257686  0.49599676  0.25045860  1
  Fe  Fe40  1  0.00140804  -0.00196163  0.75088356  1
  Fe  Fe41  1  0.12571570  0.62621422  0.62371453  1
  Fe  Fe42  1  -0.00037496  0.75224572  -0.00124341  1
  Fe  Fe43  1  0.87604051  0.37183277  0.87620209  1
  Fe  Fe44  1  0.24733980  0.24886926  0.00259851  1
  Fe  Fe45  1  0.74847109  0.25032969  0.74762778  1
  Fe  Fe46  1  0.74755818  0.75196232  0.25117843  1
  Fe  Fe47  1  0.37718119  0.37207532  0.63030305  1
  Fe  Fe48  1  0.00181719  0.75530765  0.74967151  1
  Fe  Fe49  1  0.00071013  0.49889986  0.74875690  1
  Fe  Fe50  1  0.87299073  0.12536845  0.12578844  1
  Fe  Fe51  1  0.25080447  0.00056304  0.75061606  1
  Fe  Fe52  1  0.62421602  0.12473427  0.12514126  1
  Fe  Fe53  1  0.50062490  0.74799767  0.74914353  1
  Fe  Fe54  1  0.49784007  0.50257382  0.50538714  1
  Fe  Fe55  1  0.12524983  0.87822424  0.12666160  1
  Fe  Fe56  1  0.37470400  0.62298797  0.12650402  1
  Fe  Fe57  1  0.12378536  0.37388093  0.87676492  1
  Fe  Fe58  1  0.62250419  0.12649045  0.62274917  1
  Fe  Fe59  1  0.49773276  0.74555732  0.50356697  1
  Fe  Fe60  1  0.25157390  0.75064149  0.00143512  1
  Fe  Fe61  1  0.62642728  0.62461129  0.87420254  1
  Fe  Fe62  1  0.37956594  0.87797867  0.12594440  1
  Fe  Fe63  1  0.75021525  0.49681961  0.25108657  1
  Fe  Fe64  1  0.37312877  0.62356420  0.87054275  1
  Fe  Fe65  1  0.75003541  0.75129141  0.49910436  1
  Fe  Fe66  1  0.87428309  0.62519921  0.12433771  1
  Fe  Fe67  1  0.00160106  0.24820375  0.74917784  1
  Fe  Fe68  1  0.37511353  0.12561467  0.12880602  1
  Fe  Fe69  1  0.87598409  0.62525699  0.37621483  1
  Fe  Fe70  1  0.38047542  0.12889141  0.36996852  1
  Fe  Fe71  1  0.50112901  0.24728747  -0.00083797  1
  Fe  Fe72  1  0.49832008  0.49963544  -0.00210462  1
  Fe  Fe73  1  0.12518585  0.62581070  0.87507407  1
  Fe  Fe74  1  0.50078183  0.74910841  0.00000408  1
  Fe  Fe75  1  0.87839888  0.37258457  0.37731005  1
  Fe  Fe76  1  0.25388480  0.50070839  0.50113943  1
  Fe  Fe77  1  0.49804184  0.49475538  0.24861020  1
  Fe  Fe78  1  0.50252218  0.74974483  0.24816590  1
  Fe  Fe79  1  0.87240496  0.12493420  0.37361393  1
  Fe  Fe80  1  0.74871883  -0.00044296  -0.00082952  1
  Fe  Fe81  1  0.62618050  0.62217103  0.12473377  1
  Fe  Fe82  1  0.12584124  0.62437964  0.37497195  1
  Fe  Fe83  1  0.12375114  0.37490798  0.12374567  1
  Fe  Fe84  1  0.12432931  0.37439628  0.37739621  1
  Fe  Fe85  1  -0.00007650  0.00168637  0.00103074  1
  Fe  Fe86  1  0.74376029  -0.00266296  0.25431904  1
  Fe  Fe87  1  0.75069567  0.49690212  0.50255258  1
  Fe  Fe88  1  0.62448184  0.37262851  0.87438234  1
  Fe  Fe89  1  0.12680644  0.12264600  0.62373345  1
  Co  Co90  1  0.62047874  0.37199047  0.62534575  1
  Co  Co91  1  0.37586388  0.62400994  0.37193215  1
  Co  Co92  1  0.62897218  0.62622254  0.62494856  1
  Co  Co93  1  0.49576284  0.24819529  0.50318976  1
  Co  Co94  1  0.12858586  0.12278326  0.12901211  1
  Co  Co95  1  0.50132052  0.25495074  0.24556694  1
  Co  Co96  1  0.36908811  0.12873661  0.87563425  1
  Co  Co97  1  0.00098071  0.24573986  0.00134120  1
  Co  Co98  1  0.74865706  0.74923282  -0.00130872  1
  Co  Co99  1  0.37812634  0.37416924  0.37755618  1
  Co  Co100  1  -0.00131315  0.50221719  0.50003976  1
  Co  Co101  1  0.50524365  -0.00018657  0.25254356  1
  Co  Co102  1  0.62434569  0.87615966  0.12083344  1
  Co  Co103  1  0.50292503  0.50178510  0.74853365  1
  Co  Co104  1  0.00087536  0.75103233  0.49966607  1
  Co  Co105  1  0.25462472  -0.00216916  0.25210035  1
  Co  Co106  1  0.37365440  0.37358485  0.12023258  1
  Co  Co107  1  0.37093378  0.62467049  0.63109605  1
  Co  Co108  1  0.50190916  0.24344679  0.75310518  1
  Co  Co109  1  0.12693572  0.87851419  0.62150270  1
  Co  Co110  1  -0.00109962  0.50122301  -0.00040274  1
  Co  Co111  1  0.12750829  0.87730031  0.87772838  1
  Co  Co112  1  0.24630798  0.49701996  0.74952315  1
  Co  Co113  1  0.87492451  0.87677980  0.37645690  1
  Co  Co114  1  0.63016060  0.12486781  0.87651997  1
  Co  Co115  1  0.49974177  0.00341397  0.49839863  1
  Co  Co116  1  0.62059853  0.87088733  0.37913469  1
  Co  Co117  1  0.24625064  0.25019056  0.74755519  1
  Co  Co118  1  0.87904442  0.37268712  0.62400178  1
  Co  Co119  1  0.87334306  0.87751182  0.87556876  1
  Co  Co120  1  0.74900290  0.25044293  0.00172442  1
  Co  Co121  1  0.00059868  0.24432611  0.49833216  1
  Co  Co122  1  -0.00332600  0.00034760  0.24945420  1
  Co  Co123  1  0.62257655  0.13179641  0.37573302  1
  Co  Co124  1  0.49838530  0.00419314  -0.00232393  1
  Co  Co125  1  0.37420861  0.12503428  0.62733397  1
  Co  Co126  1  0.25068519  0.25409521  0.25094619  1
  Co  Co127  1  0.62502377  0.37741054  0.12129243  1
