# generated using pymatgen
data_Fe45Co19
_symmetry_space_group_name_H-M   'P 1'
_cell_length_a   11.41393650
_cell_length_b   11.41340711
_cell_length_c   11.41590367
_cell_angle_alpha   90.00575135
_cell_angle_beta   89.99897557
_cell_angle_gamma   90.01191340
_symmetry_Int_Tables_number   1
_chemical_formula_structural   Fe45Co19
_chemical_formula_sum   'Fe90 Co38'
_cell_volume   1487.17146746
_cell_formula_units_Z   2
loop_
 _symmetry_equiv_pos_site_id
 _symmetry_equiv_pos_as_xyz
  1  'x, y, z'
loop_
 _atom_site_type_symbol
 _atom_site_label
 _atom_site_symmetry_multiplicity
 _atom_site_fract_x
 _atom_site_fract_y
 _atom_site_fract_z
 _atom_site_occupancy
  Fe  Fe0  1  0.37871783  0.37667181  0.37619117  1
  Fe  Fe1  1  0.75058900  0.00432497  0.00081945  1
  Fe  Fe2  1  0.37652814  0.87647331  0.87693585  1
  Fe  Fe3  1  0.74859340  0.00228618  0.75133186  1
  Fe  Fe4  1  0.75056848  0.25012424  0.25378734  1
  Fe  Fe5  1  0.62366628  0.37167715  0.87350657  1
  Fe  Fe6  1  0.37511299  0.87200822  0.37450461  1
  Fe  Fe7  1  0.87510250  0.37581267  0.37755520  1
  Fe  Fe8  1  0.87715206  0.12238138  0.37416988  1
  Fe  Fe9  1  0.74921942  0.49857144  0.74937235  1
  Fe  Fe10  1  -0.00082669  0.50331906  0.25057952  1
  Fe  Fe11  1  0.87377238  0.12596967  0.62387180  1
  Fe  Fe12  1  0.50127490  0.75202689  0.74977469  1
  Fe  Fe13  1  0.62441826  0.62532129  0.87517137  1
  Fe  Fe14  1  -0.00235786  0.50392939  0.50052739  1
  Fe  Fe15  1  0.49989180  0.24738361  0.00352373  1
  Fe  Fe16  1  0.62845425  0.62577605  0.62310398  1
  Fe  Fe17  1  0.12493199  0.37478074  0.87420824  1
  Fe  Fe18  1  0.24905427  0.75006412  0.00025738  1
  Fe  Fe19  1  0.24939274  -0.00272098  0.49970297  1
  Fe  Fe20  1  0.50284494  0.75220738  0.50106514  1
  Fe  Fe21  1  0.37637028  0.37544264  0.87472695  1
  Fe  Fe22  1  0.12568922  0.62978298  0.62530760  1
  Fe  Fe23  1  0.62431072  0.62381985  0.37506066  1
  Fe  Fe24  1  0.12522796  0.37568492  0.37644315  1
  Fe  Fe25  1  0.50198892  0.00302999  0.00220307  1
  Fe  Fe26  1  0.62786646  0.62469552  0.12573341  1
  Fe  Fe27  1  0.37338679  0.37610594  0.12699636  1
  Fe  Fe28  1  0.12353002  0.87020798  0.37492223  1
  Fe  Fe29  1  0.87622414  0.87597630  0.87667669  1
  Fe  Fe30  1  0.25094248  0.24912373  0.74807799  1
  Fe  Fe31  1  0.87415257  0.37486108  0.12532590  1
  Fe  Fe32  1  0.12386525  0.62873893  0.87238652  1
  Fe  Fe33  1  -0.00159563  0.50082365  0.74768179  1
  Fe  Fe34  1  0.37645050  0.62578223  0.87416019  1
  Fe  Fe35  1  0.24986497  -0.00127120  0.25066457  1
  Fe  Fe36  1  0.37475889  0.12249000  0.87600371  1
  Fe  Fe37  1  0.75308133  -0.00210068  0.24947088  1
  Fe  Fe38  1  0.50162165  0.75059810  0.24839321  1
  Fe  Fe39  1  0.50157469  0.74977519  0.00136383  1
  Fe  Fe40  1  0.25095354  0.50459591  0.49728265  1
  Fe  Fe41  1  -0.00094375  0.24909357  0.00134717  1
  Fe  Fe42  1  0.12610820  0.37536544  0.62254331  1
  Fe  Fe43  1  0.37511001  0.87663560  0.12468758  1
  Fe  Fe44  1  0.00022222  0.50223856  0.00095034  1
  Fe  Fe45  1  0.75111260  0.24520764  -0.00126056  1
  Fe  Fe46  1  -0.00054118  0.25004389  0.74815545  1
  Fe  Fe47  1  0.12685582  0.12575423  0.12750964  1
  Fe  Fe48  1  0.37526993  0.62762060  0.62431816  1
  Fe  Fe49  1  0.24997396  -0.00215796  0.74914026  1
  Fe  Fe50  1  0.74912323  -0.00048708  0.49891393  1
  Fe  Fe51  1  0.87491001  0.37282636  0.87378362  1
  Fe  Fe52  1  0.62243716  0.12363936  0.62398900  1
  Fe  Fe53  1  0.37486427  0.62533978  0.12595345  1
  Fe  Fe54  1  0.62288399  0.12193919  0.37296413  1
  Fe  Fe55  1  0.87184150  0.87500752  0.62332552  1
  Fe  Fe56  1  0.00077455  -0.00224780  0.74718520  1
  Fe  Fe57  1  0.87016768  0.37244419  0.62293208  1
  Fe  Fe58  1  -0.00522596  0.74971005  0.50171222  1
  Fe  Fe59  1  0.62438737  0.87690507  0.87507556  1
  Fe  Fe60  1  0.75009085  0.75185369  0.74989467  1
  Fe  Fe61  1  0.24909204  0.50197188  -0.00121116  1
  Fe  Fe62  1  0.00127583  -0.00197985  0.49963446  1
  Fe  Fe63  1  0.12412556  0.12445785  0.87404712  1
  Fe  Fe64  1  -0.00634139  0.74828610  0.24759290  1
  Fe  Fe65  1  0.12406076  0.87243033  0.12662910  1
  Fe  Fe66  1  0.50204055  0.49917096  0.74708711  1
  Fe  Fe67  1  0.12741770  0.12475268  0.62303769  1
  Fe  Fe68  1  0.74909074  0.49873417  -0.00184691  1
  Fe  Fe69  1  0.87570860  0.62658939  0.87459147  1
  Fe  Fe70  1  0.74945126  0.49942893  0.25274003  1
  Fe  Fe71  1  0.25052180  0.50071791  0.74943492  1
  Fe  Fe72  1  0.12260666  0.87278414  0.87495331  1
  Fe  Fe73  1  0.25071753  0.24921984  0.00071984  1
  Fe  Fe74  1  0.62603502  0.37283885  0.12676807  1
  Fe  Fe75  1  0.00006925  0.24941210  0.49987620  1
  Fe  Fe76  1  0.37483996  0.12508546  0.37729782  1
  Fe  Fe77  1  0.49871754  0.24816184  0.24965429  1
  Fe  Fe78  1  0.62623889  0.87752853  0.12623664  1
  Fe  Fe79  1  0.25035994  0.50508621  0.25436495  1
  Fe  Fe80  1  0.00070801  0.25014104  0.25081852  1
  Fe  Fe81  1  0.62659696  0.87548469  0.37477870  1
  Fe  Fe82  1  0.12615966  0.12578309  0.37538163  1
  Fe  Fe83  1  0.50126286  0.49964872  0.00172825  1
  Fe  Fe84  1  -0.00041802  0.00123015  0.00317299  1
  Fe  Fe85  1  0.12708854  0.37654244  0.12689418  1
  Fe  Fe86  1  0.75159491  0.75104946  0.00196467  1
  Fe  Fe87  1  0.37552486  0.37408497  0.62155176  1
  Fe  Fe88  1  0.49917799  0.24774095  0.74713199  1
  Fe  Fe89  1  0.37643511  0.87643016  0.62454382  1
  Co  Co90  1  0.25220184  0.74931482  0.49952932  1
  Co  Co91  1  0.87457066  0.87743824  0.12434437  1
  Co  Co92  1  -0.00156950  0.74824267  0.00308650  1
  Co  Co93  1  0.50298083  0.24889138  0.49847185  1
  Co  Co94  1  0.25226428  0.74907273  0.24922754  1
  Co  Co95  1  0.49937697  -0.00079281  0.75029443  1
  Co  Co96  1  0.87098831  0.62256118  0.12478630  1
  Co  Co97  1  0.12231654  0.63042764  0.37565889  1
  Co  Co98  1  -0.00301972  0.75211718  0.74708287  1
  Co  Co99  1  0.50005709  -0.00221558  0.49810562  1
  Co  Co100  1  0.37485129  0.12278510  0.62148190  1
  Co  Co101  1  0.12578868  0.87206689  0.62250407  1
  Co  Co102  1  0.38026942  0.62775873  0.37579573  1
  Co  Co103  1  0.62837732  0.37158525  0.62448834  1
  Co  Co104  1  0.37294067  0.12205442  0.12564984  1
  Co  Co105  1  0.25213295  0.75356779  0.75092012  1
  Co  Co106  1  0.24690216  -0.00117219  0.00102078  1
  Co  Co107  1  0.50023719  0.50131267  0.24716153  1
  Co  Co108  1  0.74987692  0.75127978  0.49788343  1
  Co  Co109  1  0.74718698  0.24784006  0.49518976  1
  Co  Co110  1  0.49757185  -0.00118526  0.25077405  1
  Co  Co111  1  0.25032272  0.25165524  0.49915909  1
  Co  Co112  1  0.62617819  0.87679423  0.62553574  1
  Co  Co113  1  0.62658030  0.12443790  0.12968259  1
  Co  Co114  1  0.25107075  0.25072322  0.25211088  1
  Co  Co115  1  0.87208004  0.62500045  0.37574040  1
  Co  Co116  1  0.74949876  0.24606961  0.75120601  1
  Co  Co117  1  0.74864732  0.49779941  0.49833653  1
  Co  Co118  1  0.62066171  0.37730660  0.37473720  1
  Co  Co119  1  0.87857914  0.12370256  0.87354828  1
  Co  Co120  1  0.75092583  0.75126489  0.25047603  1
  Co  Co121  1  0.00224060  -0.00084255  0.25060064  1
  Co  Co122  1  0.87559676  0.12482004  0.12886598  1
  Co  Co123  1  0.87058400  0.62535610  0.62495198  1
  Co  Co124  1  0.50165468  0.50030793  0.50318686  1
  Co  Co125  1  0.62193499  0.12524777  0.87435851  1
  Co  Co126  1  0.87545884  0.87633315  0.37541272  1
  Co  Co127  1  0.12573523  0.62497626  0.12709642  1
