# generated using pymatgen
data_Fe45Co19
_symmetry_space_group_name_H-M   'P 1'
_cell_length_a   11.41639846
_cell_length_b   11.41500475
_cell_length_c   11.41580796
_cell_angle_alpha   90.00023139
_cell_angle_beta   90.00242981
_cell_angle_gamma   89.99231988
_symmetry_Int_Tables_number   1
_chemical_formula_structural   Fe45Co19
_chemical_formula_sum   'Fe90 Co38'
_cell_volume   1487.68801799
_cell_formula_units_Z   2
loop_
 _symmetry_equiv_pos_site_id
 _symmetry_equiv_pos_as_xyz
  1  'x, y, z'
loop_
 _atom_site_type_symbol
 _atom_site_label
 _atom_site_symmetry_multiplicity
 _atom_site_fract_x
 _atom_site_fract_y
 _atom_site_fract_z
 _atom_site_occupancy
  Fe  Fe0  1  0.00138793  -0.00082164  -0.00260449  1
  Fe  Fe1  1  0.62422981  0.12082578  0.62879907  1
  Fe  Fe2  1  0.87301487  0.62683359  0.88101219  1
  Fe  Fe3  1  0.00026103  0.24926088  0.75068273  1
  Fe  Fe4  1  0.37542787  0.62371481  0.12453935  1
  Fe  Fe5  1  0.37386150  0.37343934  0.87379952  1
  Fe  Fe6  1  0.75006447  0.24799925  0.50515961  1
  Fe  Fe7  1  0.12137771  0.12504561  0.12539286  1
  Fe  Fe8  1  0.49931541  0.00026667  -0.00304714  1
  Fe  Fe9  1  -0.00134744  -0.00285515  0.25258672  1
  Fe  Fe10  1  0.24781985  0.25132799  0.00032758  1
  Fe  Fe11  1  0.00015548  0.50058323  0.49905319  1
  Fe  Fe12  1  0.87557180  0.62559654  0.62405176  1
  Fe  Fe13  1  -0.00053416  0.75120194  0.24787660  1
  Fe  Fe14  1  0.37675277  0.37722299  0.62465703  1
  Fe  Fe15  1  0.25030090  0.49974727  0.25263992  1
  Fe  Fe16  1  0.87480834  0.37662892  0.62558049  1
  Fe  Fe17  1  0.37581329  0.12621623  0.87461458  1
  Fe  Fe18  1  0.24892295  -0.00125055  -0.00073625  1
  Fe  Fe19  1  0.75157901  0.74941799  0.74829972  1
  Fe  Fe20  1  0.87704184  0.87299404  0.87239026  1
  Fe  Fe21  1  0.87685295  0.11798603  0.62800192  1
  Fe  Fe22  1  0.49671532  0.75199663  0.74886592  1
  Fe  Fe23  1  -0.00189701  0.50152547  0.25003301  1
  Fe  Fe24  1  0.62735625  0.62547080  0.87476427  1
  Fe  Fe25  1  0.25101813  -0.00302042  0.75015491  1
  Fe  Fe26  1  0.62477905  0.87606307  0.12363054  1
  Fe  Fe27  1  0.24860578  0.75115909  0.00260038  1
  Fe  Fe28  1  0.62861130  0.12542601  0.37419492  1
  Fe  Fe29  1  -0.00165284  0.24778683  0.50078604  1
  Fe  Fe30  1  0.12506965  0.62717315  0.62333879  1
  Fe  Fe31  1  0.24949715  0.25010235  0.25122779  1
  Fe  Fe32  1  0.12672442  0.12635290  0.87335721  1
  Fe  Fe33  1  0.63021291  0.87546491  0.37606888  1
  Fe  Fe34  1  0.62438321  0.87335686  0.87475102  1
  Fe  Fe35  1  0.37400602  0.62656490  0.87549068  1
  Fe  Fe36  1  0.62415225  0.12523255  0.12322154  1
  Fe  Fe37  1  0.49990629  0.75094055  0.25119636  1
  Fe  Fe38  1  0.49846364  0.24922624  0.25110309  1
  Fe  Fe39  1  0.12426323  0.87205509  0.87312862  1
  Fe  Fe40  1  0.50218869  0.49861059  -0.00302225  1
  Fe  Fe41  1  0.37564931  0.37510177  0.12439174  1
  Fe  Fe42  1  -0.00353205  0.75809150  0.50221725  1
  Fe  Fe43  1  0.87394439  0.37382435  0.37652437  1
  Fe  Fe44  1  0.87760696  0.37170392  0.12176112  1
  Fe  Fe45  1  0.37527277  0.87668633  0.12448157  1
  Fe  Fe46  1  0.12313546  0.37555563  0.62615033  1
  Fe  Fe47  1  0.74998513  0.74943797  0.24708400  1
  Fe  Fe48  1  0.12364376  0.62303497  0.12281728  1
  Fe  Fe49  1  0.87434129  0.62837537  0.37567820  1
  Fe  Fe50  1  0.74955010  0.50147022  0.50101512  1
  Fe  Fe51  1  0.62448536  0.37316605  0.12548003  1
  Fe  Fe52  1  0.25029725  0.24820946  0.50131730  1
  Fe  Fe53  1  0.87357956  0.12656253  0.87581930  1
  Fe  Fe54  1  0.37573645  0.12495218  0.12327908  1
  Fe  Fe55  1  0.25281121  0.75594094  0.50218346  1
  Fe  Fe56  1  0.62307397  0.62266151  0.62685716  1
  Fe  Fe57  1  0.62644611  0.87816529  0.62611656  1
  Fe  Fe58  1  0.25169465  0.75229678  0.74645546  1
  Fe  Fe59  1  0.12248411  0.11965606  0.62363944  1
  Fe  Fe60  1  0.49874213  0.50086831  0.49788363  1
  Fe  Fe61  1  0.12518152  0.62486440  0.87712938  1
  Fe  Fe62  1  0.37518693  0.12274590  0.37758144  1
  Fe  Fe63  1  0.50205368  0.24954338  0.50301758  1
  Fe  Fe64  1  -0.00115189  0.50310525  0.75192985  1
  Fe  Fe65  1  0.12377676  0.37328225  0.37663902  1
  Fe  Fe66  1  0.37754397  0.11756457  0.62403211  1
  Fe  Fe67  1  0.25038867  0.50187183  0.74953398  1
  Fe  Fe68  1  0.49892104  0.50025534  0.25270544  1
  Fe  Fe69  1  0.12474133  0.62905298  0.37702312  1
  Fe  Fe70  1  0.25118619  0.50078263  0.49826138  1
  Fe  Fe71  1  0.62714451  0.62480292  0.12283081  1
  Fe  Fe72  1  0.12236855  0.37469738  0.12386862  1
  Fe  Fe73  1  0.50191921  -0.00005246  0.25184344  1
  Fe  Fe74  1  0.75248606  0.50110572  0.24780887  1
  Fe  Fe75  1  0.87462822  0.87531255  0.12336004  1
  Fe  Fe76  1  0.62839940  0.37222827  0.86947582  1
  Fe  Fe77  1  0.12309774  0.12359529  0.37669863  1
  Fe  Fe78  1  0.49835045  0.75155153  0.49968211  1
  Fe  Fe79  1  0.62703493  0.37325134  0.37589450  1
  Fe  Fe80  1  0.62433373  0.12914274  0.87307001  1
  Fe  Fe81  1  0.75238880  0.24749901  0.24623979  1
  Fe  Fe82  1  0.49996622  0.74987783  0.00064631  1
  Fe  Fe83  1  0.62665453  0.62609759  0.37514799  1
  Fe  Fe84  1  0.87364191  0.12293318  0.37346368  1
  Fe  Fe85  1  0.25049144  0.24901112  0.74678062  1
  Fe  Fe86  1  0.74978165  0.00066269  -0.00111603  1
  Fe  Fe87  1  0.25009644  0.75164809  0.24950348  1
  Fe  Fe88  1  0.87296268  0.37316850  0.87511890  1
  Fe  Fe89  1  0.24930131  -0.00065650  0.25164440  1
  Co  Co90  1  0.37591635  0.87734423  0.37401697  1
  Co  Co91  1  0.86870063  0.87378113  0.37284856  1
  Co  Co92  1  0.00203861  0.00120530  0.75441205  1
  Co  Co93  1  0.00269807  0.24925705  -0.00425555  1
  Co  Co94  1  0.12537386  0.37591702  0.87181468  1
  Co  Co95  1  0.74794607  -0.00023882  0.75480593  1
  Co  Co96  1  0.74962810  0.00086282  0.24605557  1
  Co  Co97  1  0.37861538  0.88106003  0.62350093  1
  Co  Co98  1  0.87937940  0.12392918  0.12332367  1
  Co  Co99  1  -0.00160289  0.49930610  -0.00117726  1
  Co  Co100  1  0.74930547  0.24853491  0.00216163  1
  Co  Co101  1  0.49829772  0.50046068  0.75332190  1
  Co  Co102  1  0.75182480  0.24810611  0.74545968  1
  Co  Co103  1  -0.00116719  0.74542839  0.74957809  1
  Co  Co104  1  0.37363360  0.62767621  0.37481905  1
  Co  Co105  1  0.00271515  0.75141017  0.00133767  1
  Co  Co106  1  0.87511185  0.87970586  0.63175899  1
  Co  Co107  1  0.12559402  0.87331259  0.37462468  1
  Co  Co108  1  0.74820091  0.49672941  0.00111855  1
  Co  Co109  1  0.24642173  -0.00384545  0.49963527  1
  Co  Co110  1  0.74881569  0.75376413  -0.00001773  1
  Co  Co111  1  0.62539502  0.37915835  0.62712234  1
  Co  Co112  1  0.12483659  0.87768993  0.12520682  1
  Co  Co113  1  0.49993473  0.25153013  -0.00123332  1
  Co  Co114  1  0.49976399  -0.00182961  0.75524467  1
  Co  Co115  1  0.49850008  0.24961521  0.74645994  1
  Co  Co116  1  -0.00297692  -0.00507491  0.49632736  1
  Co  Co117  1  0.37352811  0.87348888  0.87740061  1
  Co  Co118  1  0.75198407  0.00006905  0.50132695  1
  Co  Co119  1  -0.00025056  0.25007594  0.25233712  1
  Co  Co120  1  0.50530069  -0.00041965  0.49611563  1
  Co  Co121  1  0.37565325  0.62460531  0.62498390  1
  Co  Co122  1  0.12078007  0.87716820  0.62871148  1
  Co  Co123  1  0.75313815  0.50334450  0.74967468  1
  Co  Co124  1  0.25036539  0.49848626  -0.00044203  1
  Co  Co125  1  0.75062985  0.75029854  0.50509262  1
  Co  Co126  1  0.37540948  0.37289358  0.37677980  1
  Co  Co127  1  0.87365516  0.62761746  0.12081148  1
