# generated using pymatgen
data_Fe45Co19
_symmetry_space_group_name_H-M   'P 1'
_cell_length_a   11.41499849
_cell_length_b   11.41592099
_cell_length_c   11.41576072
_cell_angle_alpha   89.99744980
_cell_angle_beta   89.99386711
_cell_angle_gamma   89.99353533
_symmetry_Int_Tables_number   1
_chemical_formula_structural   Fe45Co19
_chemical_formula_sum   'Fe90 Co38'
_cell_volume   1487.61881999
_cell_formula_units_Z   2
loop_
 _symmetry_equiv_pos_site_id
 _symmetry_equiv_pos_as_xyz
  1  'x, y, z'
loop_
 _atom_site_type_symbol
 _atom_site_label
 _atom_site_symmetry_multiplicity
 _atom_site_fract_x
 _atom_site_fract_y
 _atom_site_fract_z
 _atom_site_occupancy
  Fe  Fe0  1  0.87210565  0.87678252  0.11956489  1
  Fe  Fe1  1  0.49893125  0.75097957  0.74975514  1
  Fe  Fe2  1  0.00046062  -0.00078911  0.50111994  1
  Fe  Fe3  1  0.12458685  0.87455225  0.37549223  1
  Fe  Fe4  1  0.87683656  0.12694595  0.62811092  1
  Fe  Fe5  1  0.24881999  0.74855084  0.49995198  1
  Fe  Fe6  1  0.11894888  0.12773434  0.13101520  1
  Fe  Fe7  1  0.49914836  0.75066049  0.24867553  1
  Fe  Fe8  1  0.12784316  0.37252889  0.37068938  1
  Fe  Fe9  1  0.87575638  0.37559042  0.87475696  1
  Fe  Fe10  1  0.37291814  0.37529249  0.37384581  1
  Fe  Fe11  1  0.37276286  0.37473717  0.62441530  1
  Fe  Fe12  1  0.62553677  0.62272073  0.62766398  1
  Fe  Fe13  1  0.25120638  0.24680847  0.49647508  1
  Fe  Fe14  1  0.37634569  0.12372459  0.12406118  1
  Fe  Fe15  1  0.62842357  0.12712850  0.12158857  1
  Fe  Fe16  1  0.62729329  0.87463384  0.37688954  1
  Fe  Fe17  1  0.87621258  0.62199416  0.62576034  1
  Fe  Fe18  1  0.37325246  0.62359282  0.12138005  1
  Fe  Fe19  1  -0.00061146  0.75051643  -0.00183496  1
  Fe  Fe20  1  0.75089364  0.74699412  0.25096414  1
  Fe  Fe21  1  0.75320868  0.24945424  0.24831326  1
  Fe  Fe22  1  0.50121826  0.49865519  0.49980895  1
  Fe  Fe23  1  0.25016771  0.00106924  0.75033180  1
  Fe  Fe24  1  0.37866385  0.12587881  0.87338499  1
  Fe  Fe25  1  0.12183544  0.87527166  0.87334142  1
  Fe  Fe26  1  0.62859963  0.87209047  0.12205688  1
  Fe  Fe27  1  0.37246680  0.87489619  0.62601039  1
  Fe  Fe28  1  0.74640176  0.50363145  -0.00174083  1
  Fe  Fe29  1  0.37487856  0.87689181  0.37455086  1
  Fe  Fe30  1  0.87455859  0.87402114  0.62484966  1
  Fe  Fe31  1  0.87259308  0.37645469  0.62600209  1
  Fe  Fe32  1  -0.00167083  0.25036962  0.00131455  1
  Fe  Fe33  1  0.12688862  0.62706007  0.12197644  1
  Fe  Fe34  1  0.25098693  0.25061253  0.75118056  1
  Fe  Fe35  1  0.12624621  0.87460153  0.12459222  1
  Fe  Fe36  1  0.00287200  0.49846078  0.24777651  1
  Fe  Fe37  1  0.87447108  0.87423379  0.37822674  1
  Fe  Fe38  1  0.37888509  0.12586087  0.62738424  1
  Fe  Fe39  1  0.50065399  -0.00113770  0.50204101  1
  Fe  Fe40  1  0.62246684  0.12517830  0.62790788  1
  Fe  Fe41  1  0.37453099  0.62364453  0.37605499  1
  Fe  Fe42  1  0.49976234  0.74914443  0.00139630  1
  Fe  Fe43  1  0.62632075  0.37507356  0.37530925  1
  Fe  Fe44  1  0.50233002  -0.00096624  0.24791489  1
  Fe  Fe45  1  0.87788347  0.12371271  0.37358538  1
  Fe  Fe46  1  -0.00191910  0.75198605  0.24912678  1
  Fe  Fe47  1  0.62481925  0.37531871  0.87576061  1
  Fe  Fe48  1  0.24987172  0.00269700  0.25058055  1
  Fe  Fe49  1  0.24825377  0.24870705  0.00096480  1
  Fe  Fe50  1  0.24715755  0.00152663  0.00050651  1
  Fe  Fe51  1  0.50022084  0.50094357  0.24812925  1
  Fe  Fe52  1  0.87453114  0.62416365  0.12492358  1
  Fe  Fe53  1  0.12483673  0.87302970  0.62693217  1
  Fe  Fe54  1  0.12314792  0.12661354  0.62606736  1
  Fe  Fe55  1  0.00007438  0.25174677  0.49946048  1
  Fe  Fe56  1  0.75071281  0.00168843  0.75471031  1
  Fe  Fe57  1  0.12690424  0.37571297  0.62654129  1
  Fe  Fe58  1  0.50064362  0.75080110  0.50125331  1
  Fe  Fe59  1  0.49739033  0.49759804  0.75233422  1
  Fe  Fe60  1  0.50216785  -0.00127901  -0.00030834  1
  Fe  Fe61  1  0.37205938  0.37589220  0.12361709  1
  Fe  Fe62  1  0.00306692  0.49926666  0.00056211  1
  Fe  Fe63  1  0.62842754  0.87525554  0.62490849  1
  Fe  Fe64  1  0.75066185  0.74399614  0.49819594  1
  Fe  Fe65  1  0.12041802  0.12516271  0.87163286  1
  Fe  Fe66  1  0.87757972  0.62356563  0.87391177  1
  Fe  Fe67  1  0.50047031  0.25276713  -0.00020276  1
  Fe  Fe68  1  0.12434956  0.62387934  0.62774884  1
  Fe  Fe69  1  0.37422338  0.87625925  0.87633134  1
  Fe  Fe70  1  0.62688957  0.87249102  0.87643724  1
  Fe  Fe71  1  0.75268546  0.74846603  0.75323168  1
  Fe  Fe72  1  0.62728386  0.37581072  0.12460765  1
  Fe  Fe73  1  0.75014721  0.24859486  0.75450992  1
  Fe  Fe74  1  0.37361288  0.62356251  0.62436628  1
  Fe  Fe75  1  0.12392800  0.62589798  0.37379773  1
  Fe  Fe76  1  0.75101939  0.00064730  0.24858157  1
  Fe  Fe77  1  0.00153521  0.49951719  0.49988176  1
  Fe  Fe78  1  0.74958949  0.24798920  0.49993899  1
  Fe  Fe79  1  0.74850241  0.50391469  0.25179961  1
  Fe  Fe80  1  0.24888383  0.74731406  0.75342633  1
  Fe  Fe81  1  0.37349228  0.62187554  0.87861749  1
  Fe  Fe82  1  0.24920529  0.00325510  0.49913204  1
  Fe  Fe83  1  0.62800138  0.37590556  0.62520879  1
  Fe  Fe84  1  0.49907549  0.24989272  0.24981222  1
  Fe  Fe85  1  0.62409510  0.12526784  0.37563253  1
  Fe  Fe86  1  0.87281727  0.37674592  0.12306911  1
  Fe  Fe87  1  0.87307767  0.37822772  0.37600850  1
  Fe  Fe88  1  0.25235445  0.75006092  0.24825385  1
  Fe  Fe89  1  0.12539058  0.37616519  0.87383691  1
  Co  Co90  1  0.62221081  0.62605977  0.87304559  1
  Co  Co91  1  0.00271466  0.00080760  0.00165974  1
  Co  Co92  1  0.24816225  0.50137099  0.24667730  1
  Co  Co93  1  0.87611148  0.12399111  0.12357881  1
  Co  Co94  1  0.50057227  0.25540020  0.75035011  1
  Co  Co95  1  0.87954699  0.62323946  0.37348210  1
  Co  Co96  1  0.24575352  0.49697050  0.00126245  1
  Co  Co97  1  0.12459986  0.62394177  0.87643628  1
  Co  Co98  1  0.88006760  0.12426291  0.87572608  1
  Co  Co99  1  -0.00130970  0.74929612  0.75104929  1
  Co  Co100  1  0.25373369  0.24647190  0.24996575  1
  Co  Co101  1  0.37243091  0.37426163  0.87805687  1
  Co  Co102  1  0.11970114  0.12635081  0.37173787  1
  Co  Co103  1  0.24940480  0.75307989  -0.00176096  1
  Co  Co104  1  0.50130334  -0.00431345  0.75054686  1
  Co  Co105  1  0.75215805  0.74528955  -0.00268763  1
  Co  Co106  1  0.74927736  0.00394612  -0.00402824  1
  Co  Co107  1  0.75153866  0.24968297  -0.00269589  1
  Co  Co108  1  0.12571119  0.37014807  0.12696799  1
  Co  Co109  1  0.50275554  0.49894459  -0.00015261  1
  Co  Co110  1  -0.00034466  0.25343293  0.74981361  1
  Co  Co111  1  -0.00145392  -0.00178337  0.74719526  1
  Co  Co112  1  0.75027847  0.49993957  0.75368697  1
  Co  Co113  1  0.75127766  0.00384210  0.50120248  1
  Co  Co114  1  -0.00281334  -0.00517788  0.24945602  1
  Co  Co115  1  0.37397854  0.87728715  0.12417401  1
  Co  Co116  1  0.62508381  0.62639580  0.12513999  1
  Co  Co117  1  0.37916442  0.12321914  0.37517251  1
  Co  Co118  1  0.62018134  0.12713737  0.87516838  1
  Co  Co119  1  -0.00666461  0.25471304  0.24978215  1
  Co  Co120  1  0.62183101  0.62557748  0.37466831  1
  Co  Co121  1  0.74931825  0.50342723  0.49827298  1
  Co  Co122  1  0.87704048  0.87706810  0.87732126  1
  Co  Co123  1  0.25093555  0.50061891  0.75198203  1
  Co  Co124  1  0.24814284  0.50062053  0.49883409  1
  Co  Co125  1  0.00055101  0.49883875  0.74982864  1
  Co  Co126  1  -0.00033800  0.74924050  0.50131292  1
  Co  Co127  1  0.50083871  0.25165615  0.50002029  1
