# generated using pymatgen
data_Fe45Co19
_symmetry_space_group_name_H-M   'P 1'
_cell_length_a   11.41538190
_cell_length_b   11.41696138
_cell_length_c   11.41682233
_cell_angle_alpha   90.00027631
_cell_angle_beta   89.99825334
_cell_angle_gamma   89.98907141
_symmetry_Int_Tables_number   1
_chemical_formula_structural   Fe45Co19
_chemical_formula_sum   'Fe90 Co38'
_cell_volume   1487.94271519
_cell_formula_units_Z   2
loop_
 _symmetry_equiv_pos_site_id
 _symmetry_equiv_pos_as_xyz
  1  'x, y, z'
loop_
 _atom_site_type_symbol
 _atom_site_label
 _atom_site_symmetry_multiplicity
 _atom_site_fract_x
 _atom_site_fract_y
 _atom_site_fract_z
 _atom_site_occupancy
  Fe  Fe0  1  0.87686424  0.37341376  0.37235147  1
  Fe  Fe1  1  0.75205882  0.25083288  -0.00047059  1
  Fe  Fe2  1  0.24708655  0.49901660  0.75221099  1
  Fe  Fe3  1  0.12759792  0.62458819  0.12127815  1
  Fe  Fe4  1  0.11948906  0.12666413  0.37806709  1
  Fe  Fe5  1  0.24989940  -0.00161066  0.75190784  1
  Fe  Fe6  1  0.87617373  0.12401389  0.62518906  1
  Fe  Fe7  1  0.24952580  0.00164916  0.25289620  1
  Fe  Fe8  1  0.37263295  0.62635192  0.37026773  1
  Fe  Fe9  1  0.00140276  0.74792718  0.75064512  1
  Fe  Fe10  1  0.12551246  0.87316501  0.37692900  1
  Fe  Fe11  1  0.00126100  -0.00104472  0.75059760  1
  Fe  Fe12  1  0.75210848  0.24986581  0.49972173  1
  Fe  Fe13  1  0.50387943  0.50179922  0.74825367  1
  Fe  Fe14  1  0.25251036  -0.00190691  -0.00250236  1
  Fe  Fe15  1  0.12687669  0.87224171  0.62437269  1
  Fe  Fe16  1  0.74915358  0.75083266  0.24903073  1
  Fe  Fe17  1  0.49980194  0.25039173  0.50053039  1
  Fe  Fe18  1  0.74407842  0.50333468  0.74827344  1
  Fe  Fe19  1  0.62334574  0.87783466  0.12726596  1
  Fe  Fe20  1  0.75266248  0.00053261  0.49841719  1
  Fe  Fe21  1  0.50186625  0.24941445  0.74866902  1
  Fe  Fe22  1  0.37344733  0.12520750  0.62545891  1
  Fe  Fe23  1  0.12434672  0.62693142  0.37675982  1
  Fe  Fe24  1  0.75078949  0.74943941  -0.00009694  1
  Fe  Fe25  1  0.62479703  0.37470695  0.87490394  1
  Fe  Fe26  1  0.25128952  -0.00120289  0.49843614  1
  Fe  Fe27  1  0.24939971  0.50097716  0.49943370  1
  Fe  Fe28  1  0.75177082  0.24730581  0.25053921  1
  Fe  Fe29  1  0.49672585  -0.00030413  0.49862643  1
  Fe  Fe30  1  0.62354955  0.12345361  0.12538961  1
  Fe  Fe31  1  0.87762144  0.12303160  0.12814088  1
  Fe  Fe32  1  0.12318882  0.37282466  0.37673422  1
  Fe  Fe33  1  0.37455241  0.37567832  0.62668914  1
  Fe  Fe34  1  0.12506529  0.12735936  0.87719881  1
  Fe  Fe35  1  0.87504786  0.87383487  0.87471673  1
  Fe  Fe36  1  0.62483305  0.12332913  0.37406460  1
  Fe  Fe37  1  0.25004160  0.25137324  0.50055004  1
  Fe  Fe38  1  0.75177193  0.00122639  -0.00046903  1
  Fe  Fe39  1  0.49658997  0.24819969  0.24854096  1
  Fe  Fe40  1  0.62563810  0.62412045  0.12397854  1
  Fe  Fe41  1  0.49716621  0.74997623  0.00207527  1
  Fe  Fe42  1  0.12709479  0.62654523  0.87856264  1
  Fe  Fe43  1  0.74935059  0.49980638  0.25008789  1
  Fe  Fe44  1  0.75133054  0.49828923  0.00115696  1
  Fe  Fe45  1  0.49638649  0.49746153  0.00210140  1
  Fe  Fe46  1  0.12498874  0.87139730  0.87814464  1
  Fe  Fe47  1  -0.00012042  0.74995228  0.50180188  1
  Fe  Fe48  1  0.37607324  0.87667886  0.13036150  1
  Fe  Fe49  1  0.62528044  0.87579424  0.87396146  1
  Fe  Fe50  1  0.62609266  0.12321430  0.62560914  1
  Fe  Fe51  1  0.50305144  0.74888698  0.75082006  1
  Fe  Fe52  1  0.37501232  0.62618035  0.87426561  1
  Fe  Fe53  1  0.12929010  0.37511727  0.11987145  1
  Fe  Fe54  1  0.62477428  0.37487107  0.37565331  1
  Fe  Fe55  1  0.49746279  0.75034447  0.49762076  1
  Fe  Fe56  1  0.62631892  0.62444652  0.37683059  1
  Fe  Fe57  1  0.37434317  0.37563725  0.37186618  1
  Fe  Fe58  1  0.87324922  0.62537216  0.62485426  1
  Fe  Fe59  1  0.00359652  0.49938973  0.74968080  1
  Fe  Fe60  1  -0.00317292  0.25218274  0.00051453  1
  Fe  Fe61  1  0.87744159  0.87601642  0.12397239  1
  Fe  Fe62  1  0.00148076  0.25410083  0.74944133  1
  Fe  Fe63  1  0.00193448  0.49855030  0.24710216  1
  Fe  Fe64  1  0.12616865  0.12469066  0.12099710  1
  Fe  Fe65  1  0.62507079  0.12438155  0.87445818  1
  Fe  Fe66  1  0.49484212  0.25246183  0.00182809  1
  Fe  Fe67  1  0.37579513  0.12456684  0.87427398  1
  Fe  Fe68  1  0.62596095  0.87504283  0.62652926  1
  Fe  Fe69  1  0.62283874  0.87727858  0.37186480  1
  Fe  Fe70  1  0.24984483  0.24838668  0.24898392  1
  Fe  Fe71  1  0.87593282  0.62419417  0.37340610  1
  Fe  Fe72  1  0.87535043  0.12631519  0.87245214  1
  Fe  Fe73  1  0.00015531  0.49871185  0.50204306  1
  Fe  Fe74  1  0.87311269  0.62384172  0.87445676  1
  Fe  Fe75  1  0.12442466  0.12568242  0.62392640  1
  Fe  Fe76  1  0.62478618  0.37411143  0.12619990  1
  Fe  Fe77  1  0.75101331  0.75096345  0.49882397  1
  Fe  Fe78  1  0.12355579  0.87545144  0.12100048  1
  Fe  Fe79  1  0.87713851  0.87733292  0.37292872  1
  Fe  Fe80  1  0.37408964  0.87383866  0.62713020  1
  Fe  Fe81  1  0.49958249  0.50018624  0.49954653  1
  Fe  Fe82  1  0.49847182  -0.00027298  -0.00150692  1
  Fe  Fe83  1  0.87190964  0.37650724  0.62765813  1
  Fe  Fe84  1  0.37277680  0.62603850  0.62651272  1
  Fe  Fe85  1  0.37239711  0.62166625  0.13034821  1
  Fe  Fe86  1  -0.00373163  0.49954582  0.00112950  1
  Fe  Fe87  1  0.87387788  0.87382508  0.62760688  1
  Fe  Fe88  1  0.24857958  0.25318161  0.75276859  1
  Fe  Fe89  1  0.00157328  0.74965414  0.24716614  1
  Co  Co90  1  0.25487517  0.75074758  0.00177488  1
  Co  Co91  1  0.37184993  0.37794518  0.13055874  1
  Co  Co92  1  0.37421784  0.12684499  0.37724343  1
  Co  Co93  1  0.25525731  0.49897396  -0.00342572  1
  Co  Co94  1  -0.00241304  0.74667865  0.00003464  1
  Co  Co95  1  0.37696629  0.87371429  0.87255462  1
  Co  Co96  1  0.74701912  0.74695663  0.75170997  1
  Co  Co97  1  0.12710647  0.37557187  0.62368289  1
  Co  Co98  1  0.50269918  0.74679379  0.24975371  1
  Co  Co99  1  0.75109056  0.49854629  0.49948736  1
  Co  Co100  1  0.00325250  0.25100510  0.24523928  1
  Co  Co101  1  0.50356536  0.50003313  0.25110542  1
  Co  Co102  1  0.75217235  0.00066753  0.24971225  1
  Co  Co103  1  0.62361099  0.62438800  0.88066901  1
  Co  Co104  1  0.25204471  0.74884375  0.49956879  1
  Co  Co105  1  0.12622982  0.62598412  0.62364010  1
  Co  Co106  1  0.24893607  0.74981842  0.75194209  1
  Co  Co107  1  0.24651122  0.75062013  0.24778037  1
  Co  Co108  1  -0.00091559  0.00212981  -0.00266910  1
  Co  Co109  1  0.75096341  0.00047901  0.75075028  1
  Co  Co110  1  0.37476812  0.87264779  0.37090414  1
  Co  Co111  1  0.87323164  0.37512193  0.12725790  1
  Co  Co112  1  0.37348435  0.12224382  0.12296393  1
  Co  Co113  1  0.62526848  0.62809924  0.61907964  1
  Co  Co114  1  0.49972048  0.00103472  0.74952506  1
  Co  Co115  1  -0.00273917  0.25291785  0.50421823  1
  Co  Co116  1  0.49710046  0.00454856  0.25259288  1
  Co  Co117  1  0.74800576  0.24951916  0.74939126  1
  Co  Co118  1  0.87338933  0.62537499  0.12715296  1
  Co  Co119  1  0.25606783  0.25218152  -0.00159396  1
  Co  Co120  1  0.37754648  0.37564555  0.87028889  1
  Co  Co121  1  0.88048183  0.12544623  0.37402284  1
  Co  Co122  1  0.87298647  0.37744353  0.87219600  1
  Co  Co123  1  0.00019606  -0.00233627  0.50176567  1
  Co  Co124  1  0.24418994  0.49949459  0.25266391  1
  Co  Co125  1  0.00308927  -0.00074485  0.25039822  1
  Co  Co126  1  0.12327526  0.37514455  0.88032897  1
  Co  Co127  1  0.62469973  0.37487858  0.62334357  1
