# generated using pymatgen
data_Fe45Co19
_symmetry_space_group_name_H-M   'P 1'
_cell_length_a   11.41559585
_cell_length_b   11.41645438
_cell_length_c   11.41774871
_cell_angle_alpha   90.00038725
_cell_angle_beta   89.99954676
_cell_angle_gamma   89.98874661
_symmetry_Int_Tables_number   1
_chemical_formula_structural   Fe45Co19
_chemical_formula_sum   'Fe90 Co38'
_cell_volume   1488.02525653
_cell_formula_units_Z   2
loop_
 _symmetry_equiv_pos_site_id
 _symmetry_equiv_pos_as_xyz
  1  'x, y, z'
loop_
 _atom_site_type_symbol
 _atom_site_label
 _atom_site_symmetry_multiplicity
 _atom_site_fract_x
 _atom_site_fract_y
 _atom_site_fract_z
 _atom_site_occupancy
  Fe  Fe0  1  0.24919921  0.25003420  -0.00152516  1
  Fe  Fe1  1  0.75007473  0.75476873  0.74988164  1
  Fe  Fe2  1  0.00166142  0.24873156  -0.00186104  1
  Fe  Fe3  1  0.87698802  0.87853036  0.62082804  1
  Fe  Fe4  1  0.24606253  0.50077347  0.74890815  1
  Fe  Fe5  1  0.87401869  0.12183316  0.37864034  1
  Fe  Fe6  1  0.12580036  0.12990846  0.37670159  1
  Fe  Fe7  1  0.50206034  0.50247958  0.75068422  1
  Fe  Fe8  1  0.87776151  0.62817592  0.62597698  1
  Fe  Fe9  1  -0.00132708  0.75090185  -0.00255882  1
  Fe  Fe10  1  0.75176049  0.75060169  0.25163741  1
  Fe  Fe11  1  0.50095862  0.00065762  0.00084657  1
  Fe  Fe12  1  0.24946479  0.00008753  0.74767888  1
  Fe  Fe13  1  0.87661089  0.87654849  0.12647063  1
  Fe  Fe14  1  0.00271316  0.49914586  -0.00251302  1
  Fe  Fe15  1  0.00405462  0.50268752  0.75158853  1
  Fe  Fe16  1  0.37351306  0.62607632  0.87684999  1
  Fe  Fe17  1  0.37330131  0.12226958  0.87457748  1
  Fe  Fe18  1  0.50391631  0.49721303  0.25165579  1
  Fe  Fe19  1  0.25063173  0.75433158  0.00391994  1
  Fe  Fe20  1  0.49942051  0.24748563  0.74941727  1
  Fe  Fe21  1  0.75178775  0.75400949  0.49801899  1
  Fe  Fe22  1  0.37421333  0.12412125  0.12594737  1
  Fe  Fe23  1  0.49980158  0.25195243  0.25440142  1
  Fe  Fe24  1  0.62702173  0.62810959  0.62456076  1
  Fe  Fe25  1  0.74907546  0.49980223  0.74763841  1
  Fe  Fe26  1  0.75125786  0.25270236  0.25165187  1
  Fe  Fe27  1  0.37185084  0.62196798  0.37440366  1
  Fe  Fe28  1  0.24818307  -0.00033331  0.50094360  1
  Fe  Fe29  1  0.50097651  0.49963928  0.50013597  1
  Fe  Fe30  1  0.12237543  0.87272135  0.37505626  1
  Fe  Fe31  1  0.50145286  0.25045952  -0.00240236  1
  Fe  Fe32  1  0.12096617  0.87110238  0.62476984  1
  Fe  Fe33  1  0.62648553  0.12297402  0.62229969  1
  Fe  Fe34  1  0.00311954  0.50085049  0.50110549  1
  Fe  Fe35  1  0.49915161  0.74863582  0.49846124  1
  Fe  Fe36  1  0.24875067  -0.00214597  0.24793921  1
  Fe  Fe37  1  0.37542148  0.87601644  0.87726395  1
  Fe  Fe38  1  0.87838421  0.37485117  0.62699223  1
  Fe  Fe39  1  0.25104451  0.25253402  0.24958722  1
  Fe  Fe40  1  0.25194736  0.24935191  0.74813000  1
  Fe  Fe41  1  0.62598827  0.62419336  0.12421700  1
  Fe  Fe42  1  0.87462803  0.62359479  0.12427715  1
  Fe  Fe43  1  0.87505987  0.37426668  0.87388744  1
  Fe  Fe44  1  0.62508588  0.12815819  0.12683188  1
  Fe  Fe45  1  0.87608030  0.37459470  0.12422689  1
  Fe  Fe46  1  0.87351074  0.62202230  0.37543601  1
  Fe  Fe47  1  0.50168030  0.00157454  0.49664185  1
  Fe  Fe48  1  0.50214678  -0.00072100  0.74970225  1
  Fe  Fe49  1  -0.00134668  0.74830489  0.25177928  1
  Fe  Fe50  1  0.24997967  0.75035163  0.74941124  1
  Fe  Fe51  1  0.74813296  0.24966874  -0.00234570  1
  Fe  Fe52  1  0.87511606  0.37784771  0.37546629  1
  Fe  Fe53  1  0.24946000  0.74918966  0.50007406  1
  Fe  Fe54  1  0.50094964  0.00292068  0.25300926  1
  Fe  Fe55  1  0.25040574  0.75223566  0.24745487  1
  Fe  Fe56  1  -0.00215060  0.24512818  0.75074030  1
  Fe  Fe57  1  0.62249295  0.87329339  0.12643183  1
  Fe  Fe58  1  0.75175126  0.24491158  0.75015071  1
  Fe  Fe59  1  0.25423499  0.25293149  0.50271692  1
  Fe  Fe60  1  0.74820168  -0.00133618  0.25200781  1
  Fe  Fe61  1  0.87406963  0.12499245  0.12460214  1
  Fe  Fe62  1  0.74770813  0.49700564  -0.00042588  1
  Fe  Fe63  1  0.12515222  0.87652353  0.87541413  1
  Fe  Fe64  1  0.37391898  0.62412108  0.62510545  1
  Fe  Fe65  1  0.75313736  0.25141610  0.50116925  1
  Fe  Fe66  1  0.49874478  0.74706912  0.25116170  1
  Fe  Fe67  1  0.00120209  0.00293205  0.25174443  1
  Fe  Fe68  1  0.12336519  0.12812562  0.62356314  1
  Fe  Fe69  1  0.37539202  0.87628347  0.37426801  1
  Fe  Fe70  1  0.00212966  0.49820120  0.24988469  1
  Fe  Fe71  1  0.62949558  0.62261421  0.37641256  1
  Fe  Fe72  1  -0.00128934  0.00258046  0.74915729  1
  Fe  Fe73  1  0.24663342  0.49687526  0.24954377  1
  Fe  Fe74  1  0.62409264  0.37348131  0.62460428  1
  Fe  Fe75  1  0.37613405  0.62367510  0.12445701  1
  Fe  Fe76  1  0.12571068  0.12645565  0.12516042  1
  Fe  Fe77  1  0.37725288  0.87562661  0.62319022  1
  Fe  Fe78  1  0.24564766  0.49837333  0.50206099  1
  Fe  Fe79  1  0.87108022  0.88123146  0.87645970  1
  Fe  Fe80  1  0.50183763  0.75013974  0.75253086  1
  Fe  Fe81  1  0.50350284  0.49882479  -0.00278421  1
  Fe  Fe82  1  0.37674149  0.37543057  0.12472273  1
  Fe  Fe83  1  0.37510074  0.37530411  0.87202628  1
  Fe  Fe84  1  0.87277290  0.62480052  0.87440418  1
  Fe  Fe85  1  0.24680417  0.49768222  -0.00059256  1
  Fe  Fe86  1  0.74877831  0.75177319  0.00007975  1
  Fe  Fe87  1  0.49615203  0.24952389  0.49801203  1
  Fe  Fe88  1  0.12364634  0.62625300  0.12427134  1
  Fe  Fe89  1  0.00138453  0.00236330  0.00021343  1
  Co  Co90  1  0.12400017  0.37076297  0.37589928  1
  Co  Co91  1  0.12457704  0.37195666  0.87216404  1
  Co  Co92  1  0.74592979  -0.00424053  0.49714305  1
  Co  Co93  1  0.12292815  0.37245537  0.12508603  1
  Co  Co94  1  0.75228876  0.49938920  0.50564896  1
  Co  Co95  1  0.87860612  0.87822408  0.37480710  1
  Co  Co96  1  0.11920810  0.87484069  0.12591670  1
  Co  Co97  1  0.37411244  0.37743053  0.37534988  1
  Co  Co98  1  0.38053293  0.87640095  0.12652127  1
  Co  Co99  1  -0.00357348  0.24903505  0.25073760  1
  Co  Co100  1  0.74925032  0.49773484  0.24720830  1
  Co  Co101  1  0.37660211  0.37824463  0.62659851  1
  Co  Co102  1  0.62922996  0.62555519  0.87383276  1
  Co  Co103  1  0.75029551  0.00130477  0.74648420  1
  Co  Co104  1  0.62747952  0.37514453  0.37895455  1
  Co  Co105  1  0.12280533  0.37139575  0.62658824  1
  Co  Co106  1  0.62633311  0.37378064  0.87068073  1
  Co  Co107  1  0.12640607  0.62593191  0.37371215  1
  Co  Co108  1  0.62777095  0.12867684  0.37632829  1
  Co  Co109  1  0.62624885  0.12224079  0.87458214  1
  Co  Co110  1  -0.00299733  0.75262605  0.75425700  1
  Co  Co111  1  -0.00432444  0.25063155  0.49958052  1
  Co  Co112  1  0.62211285  0.87272231  0.37324772  1
  Co  Co113  1  0.12688830  0.12383663  0.87384063  1
  Co  Co114  1  -0.00163961  0.74798601  0.49679668  1
  Co  Co115  1  0.00426640  0.00159673  0.49926478  1
  Co  Co116  1  0.62708245  0.87807118  0.87629536  1
  Co  Co117  1  0.87254072  0.12197782  0.87795887  1
  Co  Co118  1  0.62486149  0.37236474  0.12544571  1
  Co  Co119  1  0.37099772  0.12360896  0.37434314  1
  Co  Co120  1  0.62268982  0.87497922  0.62360354  1
  Co  Co121  1  0.50124715  0.74867821  -0.00173912  1
  Co  Co122  1  0.74704948  0.00091091  0.00555228  1
  Co  Co123  1  0.12286040  0.62977576  0.62637961  1
  Co  Co124  1  0.12626714  0.62905896  0.87605776  1
  Co  Co125  1  0.24960995  -0.00173454  0.00322128  1
  Co  Co126  1  0.87380820  0.12016861  0.62009547  1
  Co  Co127  1  0.37602813  0.12110156  0.62431028  1
