# generated using pymatgen
data_Fe45Co19
_symmetry_space_group_name_H-M   'P 1'
_cell_length_a   11.41531266
_cell_length_b   11.41532059
_cell_length_c   11.41476465
_cell_angle_alpha   89.99998880
_cell_angle_beta   89.99977429
_cell_angle_gamma   90.00303698
_symmetry_Int_Tables_number   1
_chemical_formula_structural   Fe45Co19
_chemical_formula_sum   'Fe90 Co38'
_cell_volume   1487.45174290
_cell_formula_units_Z   2
loop_
 _symmetry_equiv_pos_site_id
 _symmetry_equiv_pos_as_xyz
  1  'x, y, z'
loop_
 _atom_site_type_symbol
 _atom_site_label
 _atom_site_symmetry_multiplicity
 _atom_site_fract_x
 _atom_site_fract_y
 _atom_site_fract_z
 _atom_site_occupancy
  Fe  Fe0  1  0.87646494  0.37477538  0.12615594  1
  Fe  Fe1  1  0.62364031  0.12668046  0.62645120  1
  Fe  Fe2  1  0.74988117  0.49749381  0.00143945  1
  Fe  Fe3  1  0.62224689  0.87244810  0.62416143  1
  Fe  Fe4  1  0.37570046  0.87681319  0.37594584  1
  Fe  Fe5  1  0.87168687  0.12473145  0.37300483  1
  Fe  Fe6  1  0.50255271  0.00050895  0.25198049  1
  Fe  Fe7  1  0.25153165  0.75140832  0.24741948  1
  Fe  Fe8  1  0.12543904  0.37417707  0.37446256  1
  Fe  Fe9  1  0.49666826  0.24374084  -0.00625185  1
  Fe  Fe10  1  0.37963815  0.87674097  0.12293686  1
  Fe  Fe11  1  0.49876173  0.25088919  0.25424265  1
  Fe  Fe12  1  0.12827349  0.12730082  0.37291564  1
  Fe  Fe13  1  0.25333480  0.00269897  0.00229042  1
  Fe  Fe14  1  0.75112998  0.75033968  0.24677612  1
  Fe  Fe15  1  0.74826125  0.49822369  0.24798499  1
  Fe  Fe16  1  0.00004922  0.49950212  -0.00100871  1
  Fe  Fe17  1  0.62092618  0.37320231  0.12316469  1
  Fe  Fe18  1  0.00057350  0.50018285  0.49990895  1
  Fe  Fe19  1  0.87312211  0.87717172  0.87520801  1
  Fe  Fe20  1  0.37316511  0.62423798  0.37406300  1
  Fe  Fe21  1  0.50274429  0.00237972  0.75394757  1
  Fe  Fe22  1  0.00135267  -0.00006225  0.75114933  1
  Fe  Fe23  1  0.12580938  0.87456478  0.37560593  1
  Fe  Fe24  1  0.87376978  0.87775824  0.37158151  1
  Fe  Fe25  1  0.24968741  0.00120678  0.24777412  1
  Fe  Fe26  1  0.74747971  0.25362847  0.74942143  1
  Fe  Fe27  1  0.25348634  0.24963821  0.50078978  1
  Fe  Fe28  1  0.00111530  0.25069018  0.75194598  1
  Fe  Fe29  1  0.25124667  -0.00002643  0.50255541  1
  Fe  Fe30  1  0.50153178  0.74465203  0.75492824  1
  Fe  Fe31  1  0.37585069  0.62393619  0.12437975  1
  Fe  Fe32  1  0.37300280  0.37615623  0.87475506  1
  Fe  Fe33  1  0.87241767  0.12319064  0.12843369  1
  Fe  Fe34  1  0.62651528  0.12699939  0.37700135  1
  Fe  Fe35  1  0.00122426  0.24950006  0.24829975  1
  Fe  Fe36  1  0.24997602  0.49380150  0.24412944  1
  Fe  Fe37  1  0.61673027  0.37777946  0.62668910  1
  Fe  Fe38  1  0.87380945  0.12561196  0.62666074  1
  Fe  Fe39  1  0.87450134  0.62252011  0.37367934  1
  Fe  Fe40  1  0.12721991  0.62543769  0.87574102  1
  Fe  Fe41  1  -0.00132492  0.24957067  0.49972795  1
  Fe  Fe42  1  0.62518166  0.62486424  0.37695322  1
  Fe  Fe43  1  0.12605970  0.87591102  0.87692000  1
  Fe  Fe44  1  0.25107114  0.75033886  0.50162587  1
  Fe  Fe45  1  0.62500077  0.62550050  0.12298281  1
  Fe  Fe46  1  0.87364344  0.62092465  0.87115887  1
  Fe  Fe47  1  0.24871030  -0.00186015  0.74754152  1
  Fe  Fe48  1  0.49957512  0.74938538  0.25036975  1
  Fe  Fe49  1  0.75332602  0.74946229  0.00246319  1
  Fe  Fe50  1  0.11958483  0.62872527  0.62607355  1
  Fe  Fe51  1  0.87942364  0.87335215  0.62511568  1
  Fe  Fe52  1  0.87675067  0.37733274  0.62723549  1
  Fe  Fe53  1  0.12223556  0.87667825  0.12405220  1
  Fe  Fe54  1  0.37922390  0.62265438  0.62583134  1
  Fe  Fe55  1  0.37913940  0.12710686  0.62557354  1
  Fe  Fe56  1  0.50020704  0.50018645  0.25229567  1
  Fe  Fe57  1  0.00040455  0.00107580  0.49837423  1
  Fe  Fe58  1  0.25058797  0.50049887  0.50262247  1
  Fe  Fe59  1  0.75166991  0.74709946  0.50339061  1
  Fe  Fe60  1  0.12770423  0.37128818  0.88116316  1
  Fe  Fe61  1  -0.00082397  0.00403984  0.00049742  1
  Fe  Fe62  1  0.75034496  0.74680801  0.74731001  1
  Fe  Fe63  1  0.74861227  -0.00111142  0.50193542  1
  Fe  Fe64  1  0.37646361  0.87482027  0.87680707  1
  Fe  Fe65  1  0.25127973  0.74982265  0.00295337  1
  Fe  Fe66  1  0.12411198  0.62261972  0.12564025  1
  Fe  Fe67  1  0.62535436  0.87388448  0.87727280  1
  Fe  Fe68  1  0.62476951  0.37456188  0.87564951  1
  Fe  Fe69  1  0.37397980  0.37468712  0.37670492  1
  Fe  Fe70  1  -0.00309368  0.74934034  0.00052620  1
  Fe  Fe71  1  0.86956376  0.12511271  0.87201339  1
  Fe  Fe72  1  0.74756572  0.00124576  0.00144101  1
  Fe  Fe73  1  0.25162327  0.25058463  0.74922865  1
  Fe  Fe74  1  0.62404153  0.12771675  0.12440715  1
  Fe  Fe75  1  0.12534389  0.37299370  0.62371124  1
  Fe  Fe76  1  0.87416666  0.37588445  0.87329788  1
  Fe  Fe77  1  0.12433051  0.12552778  0.62509568  1
  Fe  Fe78  1  0.74878826  0.50031840  0.50339747  1
  Fe  Fe79  1  0.62260773  0.87365716  0.12217840  1
  Fe  Fe80  1  0.12851526  0.12749637  0.87815046  1
  Fe  Fe81  1  0.24898573  0.49967926  0.74898374  1
  Fe  Fe82  1  -0.00237231  0.75019550  0.24839880  1
  Fe  Fe83  1  0.12600394  0.62446473  0.37220882  1
  Fe  Fe84  1  0.87316693  0.37487449  0.37379214  1
  Fe  Fe85  1  0.74781623  0.25317964  0.50142813  1
  Fe  Fe86  1  0.37904169  0.87496927  0.62536384  1
  Fe  Fe87  1  0.49800770  0.50556900  -0.00507802  1
  Fe  Fe88  1  0.62475574  0.87287563  0.37683533  1
  Fe  Fe89  1  0.24856801  0.75220545  0.74843653  1
  Co  Co90  1  0.74510112  0.50010169  0.74723471  1
  Co  Co91  1  0.25689406  0.24926000  0.00541175  1
  Co  Co92  1  0.49836019  0.74613112  -0.00172227  1
  Co  Co93  1  -0.00116471  0.74896904  0.49449604  1
  Co  Co94  1  0.88004574  0.62289470  0.62878175  1
  Co  Co95  1  0.49900494  0.49820690  0.49577324  1
  Co  Co96  1  0.37842328  0.37561235  0.62696356  1
  Co  Co97  1  0.00071592  0.49816221  0.25015744  1
  Co  Co98  1  0.74878808  0.25190775  0.24846229  1
  Co  Co99  1  0.61981381  0.62296231  0.62271527  1
  Co  Co100  1  0.37003803  0.12259518  0.87181161  1
  Co  Co101  1  0.25110822  0.49948913  0.00335454  1
  Co  Co102  1  0.50103376  0.00480723  -0.00327482  1
  Co  Co103  1  0.75137997  0.25094107  0.00097150  1
  Co  Co104  1  0.50101882  0.00122518  0.49924753  1
  Co  Co105  1  0.38354633  0.37549420  0.12136391  1
  Co  Co106  1  0.74852213  -0.00366860  0.74664423  1
  Co  Co107  1  0.00590038  0.49562685  0.75172473  1
  Co  Co108  1  -0.00026890  0.75251387  0.75551816  1
  Co  Co109  1  0.63184469  0.12518454  0.87250227  1
  Co  Co110  1  0.37336623  0.12471919  0.37419536  1
  Co  Co111  1  0.25176616  0.25530075  0.24565309  1
  Co  Co112  1  0.49943713  0.50390651  0.75697339  1
  Co  Co113  1  0.37745984  0.12449461  0.12904057  1
  Co  Co114  1  0.00349306  0.00212346  0.25015584  1
  Co  Co115  1  0.63149640  0.62584436  0.87768749  1
  Co  Co116  1  0.49755489  0.74881542  0.49740592  1
  Co  Co117  1  0.62722972  0.37604349  0.37375796  1
  Co  Co118  1  0.87472133  0.62141346  0.12504040  1
  Co  Co119  1  -0.00563865  0.24678865  -0.00038378  1
  Co  Co120  1  0.49950276  0.24876798  0.75499521  1
  Co  Co121  1  0.36805211  0.62709036  0.87520477  1
  Co  Co122  1  0.49998120  0.25185895  0.49716586  1
  Co  Co123  1  0.12094843  0.87365302  0.62317170  1
  Co  Co124  1  0.12153898  0.37230084  0.12021347  1
  Co  Co125  1  0.12738481  0.12809117  0.12324621  1
  Co  Co126  1  0.87538869  0.87996245  0.12612049  1
  Co  Co127  1  0.74399845  -0.00034169  0.24943936  1
