# generated using pymatgen
data_Fe45Co19
_symmetry_space_group_name_H-M   'P 1'
_cell_length_a   11.41516145
_cell_length_b   11.41493981
_cell_length_c   11.41619441
_cell_angle_alpha   89.99264982
_cell_angle_beta   89.99863602
_cell_angle_gamma   90.00653796
_symmetry_Int_Tables_number   1
_chemical_formula_structural   Fe45Co19
_chemical_formula_sum   'Fe90 Co38'
_cell_volume   1487.56870584
_cell_formula_units_Z   2
loop_
 _symmetry_equiv_pos_site_id
 _symmetry_equiv_pos_as_xyz
  1  'x, y, z'
loop_
 _atom_site_type_symbol
 _atom_site_label
 _atom_site_symmetry_multiplicity
 _atom_site_fract_x
 _atom_site_fract_y
 _atom_site_fract_z
 _atom_site_occupancy
  Fe  Fe0  1  -0.00029421  0.74632138  0.50179103  1
  Fe  Fe1  1  0.75204519  0.75204856  0.00161359  1
  Fe  Fe2  1  0.12450175  0.12816743  0.87820150  1
  Fe  Fe3  1  0.00347635  0.50305143  0.24679236  1
  Fe  Fe4  1  0.24980302  0.00139384  0.75118846  1
  Fe  Fe5  1  0.37785603  0.12716674  0.37859635  1
  Fe  Fe6  1  0.87323614  0.37457305  0.87427856  1
  Fe  Fe7  1  0.50138639  0.00250928  0.25184030  1
  Fe  Fe8  1  0.12695544  0.37328092  0.87748621  1
  Fe  Fe9  1  0.00175789  0.49775010  0.00301323  1
  Fe  Fe10  1  0.62382617  0.87457488  0.62641477  1
  Fe  Fe11  1  0.37780634  0.12423118  0.62348772  1
  Fe  Fe12  1  0.87498589  0.62410437  0.87642899  1
  Fe  Fe13  1  0.24922539  -0.00078353  -0.00189051  1
  Fe  Fe14  1  0.37378501  0.62107415  0.62430529  1
  Fe  Fe15  1  0.24990652  0.00226414  0.25042790  1
  Fe  Fe16  1  0.50017330  0.74742051  0.24916733  1
  Fe  Fe17  1  0.62586701  0.13141885  0.87547895  1
  Fe  Fe18  1  -0.00157680  0.25116926  0.75037952  1
  Fe  Fe19  1  0.87638038  0.87429126  0.62813175  1
  Fe  Fe20  1  0.74664796  0.50004969  0.25176916  1
  Fe  Fe21  1  0.50204026  0.49555645  0.00006420  1
  Fe  Fe22  1  0.62561133  0.12649120  0.12162979  1
  Fe  Fe23  1  0.12294622  0.87317378  0.37360009  1
  Fe  Fe24  1  0.87498665  0.12805669  0.62256179  1
  Fe  Fe25  1  0.74944686  0.50087103  0.75091846  1
  Fe  Fe26  1  0.37279973  0.37872346  0.62745598  1
  Fe  Fe27  1  0.74647882  0.49680077  0.49657433  1
  Fe  Fe28  1  0.37601387  0.87514176  0.62632234  1
  Fe  Fe29  1  0.12652784  0.62553971  0.88054927  1
  Fe  Fe30  1  0.62428478  0.62274945  0.62343679  1
  Fe  Fe31  1  0.75315673  0.74849526  0.24779908  1
  Fe  Fe32  1  0.62586238  0.62361865  0.12500565  1
  Fe  Fe33  1  0.12698117  0.37585867  0.62643316  1
  Fe  Fe34  1  0.25044030  0.24825077  0.24899470  1
  Fe  Fe35  1  0.12497796  0.12696344  0.62466095  1
  Fe  Fe36  1  0.75089368  0.24785020  0.24870921  1
  Fe  Fe37  1  0.25137857  0.74673404  0.75183698  1
  Fe  Fe38  1  0.62518586  0.62551834  0.87633958  1
  Fe  Fe39  1  0.24800013  0.50116388  0.24625276  1
  Fe  Fe40  1  0.12442830  0.12635751  0.37693234  1
  Fe  Fe41  1  0.62536584  0.87166376  0.87228293  1
  Fe  Fe42  1  -0.00610153  0.75253863  0.00470124  1
  Fe  Fe43  1  0.49984948  0.74940884  0.49979195  1
  Fe  Fe44  1  0.37625395  0.12429137  0.12053819  1
  Fe  Fe45  1  0.50138885  0.50022146  0.75306488  1
  Fe  Fe46  1  0.62745187  0.87729045  0.12736919  1
  Fe  Fe47  1  0.74701754  0.49596137  0.00025109  1
  Fe  Fe48  1  0.50183476  0.00150692  0.75029530  1
  Fe  Fe49  1  0.50267508  -0.00081840  -0.00202900  1
  Fe  Fe50  1  0.12422573  0.12796556  0.12078373  1
  Fe  Fe51  1  0.24941779  0.74844467  0.49935978  1
  Fe  Fe52  1  0.87350274  0.11972719  0.12042331  1
  Fe  Fe53  1  0.87446695  0.37695160  0.12660119  1
  Fe  Fe54  1  0.62536016  0.87339186  0.37352824  1
  Fe  Fe55  1  0.75051072  0.74889816  0.50123464  1
  Fe  Fe56  1  0.37792639  0.37360228  0.12766723  1
  Fe  Fe57  1  0.74996729  0.00246207  0.75101866  1
  Fe  Fe58  1  0.50007280  0.75119383  0.00001930  1
  Fe  Fe59  1  -0.00149242  0.24882088  0.24856819  1
  Fe  Fe60  1  0.12513655  0.87344034  0.12626165  1
  Fe  Fe61  1  0.00042075  0.00100746  0.24942963  1
  Fe  Fe62  1  0.75161011  0.74681624  0.74904184  1
  Fe  Fe63  1  0.37692310  0.87627281  0.87339270  1
  Fe  Fe64  1  0.37392127  0.62541808  0.12185552  1
  Fe  Fe65  1  0.87566351  0.62401465  0.37454902  1
  Fe  Fe66  1  0.37561820  0.87691464  0.12592253  1
  Fe  Fe67  1  0.00058634  0.00042755  0.50104221  1
  Fe  Fe68  1  0.37524652  0.87581622  0.37343177  1
  Fe  Fe69  1  0.50186311  0.49475238  0.49455871  1
  Fe  Fe70  1  0.62131142  0.13009032  0.38081788  1
  Fe  Fe71  1  0.25131620  0.25357596  0.49919326  1
  Fe  Fe72  1  0.87593239  0.37367302  0.37539257  1
  Fe  Fe73  1  0.37410388  0.62208723  0.37497056  1
  Fe  Fe74  1  0.74848060  0.00084820  0.49988686  1
  Fe  Fe75  1  -0.00075884  0.00198240  0.75155859  1
  Fe  Fe76  1  0.87422101  0.12628723  0.87893782  1
  Fe  Fe77  1  0.12385829  0.87279893  0.62707967  1
  Fe  Fe78  1  0.12166485  0.87257113  0.87342033  1
  Fe  Fe79  1  0.24935240  0.74792486  0.24986709  1
  Fe  Fe80  1  0.37374680  0.62205427  0.87825601  1
  Fe  Fe81  1  0.50002749  0.25196177  0.74903959  1
  Fe  Fe82  1  0.12544986  0.37555274  0.37256256  1
  Fe  Fe83  1  0.25018683  -0.00050043  0.50007608  1
  Fe  Fe84  1  0.00206675  0.50253826  0.74931685  1
  Fe  Fe85  1  0.87597508  0.12726099  0.37910397  1
  Fe  Fe86  1  0.25261647  0.24948991  0.75259569  1
  Fe  Fe87  1  0.87366969  0.37552145  0.62445498  1
  Fe  Fe88  1  0.87537615  0.87569816  0.37225377  1
  Fe  Fe89  1  0.00274424  0.50094366  0.50153884  1
  Co  Co90  1  0.50033729  0.50451505  0.25045990  1
  Co  Co91  1  0.49923681  0.25843413  0.50425949  1
  Co  Co92  1  0.74630939  -0.00179912  -0.00533450  1
  Co  Co93  1  -0.00409806  0.74842816  0.24567381  1
  Co  Co94  1  0.62263483  0.12489621  0.62305914  1
  Co  Co95  1  0.00235108  0.25302416  0.50084787  1
  Co  Co96  1  0.24964869  0.49762230  0.49710586  1
  Co  Co97  1  0.87527796  0.87434171  0.87249542  1
  Co  Co98  1  0.62734827  0.37729068  0.62905998  1
  Co  Co99  1  -0.00059345  0.74373465  0.74962932  1
  Co  Co100  1  0.75108851  0.25475958  0.00333227  1
  Co  Co101  1  0.62311979  0.37442813  0.12971614  1
  Co  Co102  1  0.62581422  0.62707909  0.37447164  1
  Co  Co103  1  0.12399453  0.62458258  0.37368169  1
  Co  Co104  1  0.37711489  0.12464398  0.87626644  1
  Co  Co105  1  0.24761447  0.50178060  0.75395398  1
  Co  Co106  1  0.62727528  0.37177326  0.87256087  1
  Co  Co107  1  0.50009316  0.25441712  -0.00119335  1
  Co  Co108  1  0.12711511  0.62896691  0.12036717  1
  Co  Co109  1  0.62255079  0.37014998  0.36796607  1
  Co  Co110  1  -0.00426885  0.25302542  0.00129795  1
  Co  Co111  1  0.25305142  0.75451759  -0.00174165  1
  Co  Co112  1  0.49940275  0.24481761  0.24756710  1
  Co  Co113  1  0.87005310  0.88331208  0.12730126  1
  Co  Co114  1  0.87247349  0.61971807  0.12425179  1
  Co  Co115  1  0.37489511  0.37636492  0.87378184  1
  Co  Co116  1  0.87240511  0.62149846  0.62413361  1
  Co  Co117  1  0.12905735  0.62423145  0.62468968  1
  Co  Co118  1  0.37537093  0.37439134  0.36881855  1
  Co  Co119  1  0.00198406  -0.00286246  -0.00061466  1
  Co  Co120  1  0.75214549  0.24865393  0.74776397  1
  Co  Co121  1  0.49788280  0.74586312  0.74967751  1
  Co  Co122  1  0.25415933  0.25209922  -0.00051377  1
  Co  Co123  1  0.24971784  0.49454873  0.00385122  1
  Co  Co124  1  0.50055146  -0.00370036  0.49899511  1
  Co  Co125  1  0.12486277  0.37006610  0.12537924  1
  Co  Co126  1  0.74712617  0.00610057  0.25539421  1
  Co  Co127  1  0.74667856  0.25352954  0.50132932  1
