# generated using pymatgen
data_Fe45Co19
_symmetry_space_group_name_H-M   'P 1'
_cell_length_a   11.41581435
_cell_length_b   11.41389529
_cell_length_c   11.41510396
_cell_angle_alpha   90.00790630
_cell_angle_beta   90.00684160
_cell_angle_gamma   89.99637264
_symmetry_Int_Tables_number   1
_chemical_formula_structural   Fe45Co19
_chemical_formula_sum   'Fe90 Co38'
_cell_volume   1487.37557028
_cell_formula_units_Z   2
loop_
 _symmetry_equiv_pos_site_id
 _symmetry_equiv_pos_as_xyz
  1  'x, y, z'
loop_
 _atom_site_type_symbol
 _atom_site_label
 _atom_site_symmetry_multiplicity
 _atom_site_fract_x
 _atom_site_fract_y
 _atom_site_fract_z
 _atom_site_occupancy
  Fe  Fe0  1  0.24828585  0.25231728  0.74959101  1
  Fe  Fe1  1  0.12426216  0.37409648  0.87812167  1
  Fe  Fe2  1  0.37502800  0.62746857  0.87464436  1
  Fe  Fe3  1  0.37133071  0.12462982  0.12422099  1
  Fe  Fe4  1  0.50031680  0.75016045  0.24974092  1
  Fe  Fe5  1  0.62373708  0.87464571  0.37792979  1
  Fe  Fe6  1  0.49910929  0.24901389  0.50169994  1
  Fe  Fe7  1  0.24844665  0.25127564  0.24880284  1
  Fe  Fe8  1  0.75194882  0.75075306  0.74769376  1
  Fe  Fe9  1  0.00119246  0.50669046  0.00090176  1
  Fe  Fe10  1  0.74924446  0.75016345  0.25047781  1
  Fe  Fe11  1  0.24961589  -0.00493300  0.25155579  1
  Fe  Fe12  1  0.12605398  0.12521448  0.87596319  1
  Fe  Fe13  1  0.62588304  0.12177135  0.12322254  1
  Fe  Fe14  1  0.62689103  0.12466429  0.87531825  1
  Fe  Fe15  1  0.50113899  0.50449648  -0.00255888  1
  Fe  Fe16  1  0.24699712  -0.00452739  0.74930876  1
  Fe  Fe17  1  0.37436189  0.37717323  0.62551303  1
  Fe  Fe18  1  0.24617714  0.50092061  0.49923508  1
  Fe  Fe19  1  0.37254503  0.62418376  0.62625791  1
  Fe  Fe20  1  0.62635104  0.62427790  0.37523116  1
  Fe  Fe21  1  0.87606192  0.87329269  0.37614134  1
  Fe  Fe22  1  0.37161853  0.12599482  0.87452960  1
  Fe  Fe23  1  0.37671469  0.87166915  0.12218756  1
  Fe  Fe24  1  0.88161806  0.62055550  0.62766104  1
  Fe  Fe25  1  0.62400336  0.37605002  0.12456533  1
  Fe  Fe26  1  0.50103479  0.74795510  0.50134686  1
  Fe  Fe27  1  0.49953494  0.50088828  0.25128959  1
  Fe  Fe28  1  0.49930084  0.24787502  -0.00110411  1
  Fe  Fe29  1  0.49785046  0.50168185  0.49950835  1
  Fe  Fe30  1  0.25017057  0.50349755  -0.00006703  1
  Fe  Fe31  1  0.75067248  -0.00207640  0.25015916  1
  Fe  Fe32  1  0.49799257  -0.00069386  0.25181904  1
  Fe  Fe33  1  0.62363448  0.87529707  0.87614012  1
  Fe  Fe34  1  0.00194918  -0.00334678  0.74877024  1
  Fe  Fe35  1  0.87432540  0.62458110  0.87333588  1
  Fe  Fe36  1  0.37564619  0.87686738  0.62095945  1
  Fe  Fe37  1  -0.00051657  0.25216806  0.75007301  1
  Fe  Fe38  1  0.75009009  -0.00160894  0.50263887  1
  Fe  Fe39  1  0.87497481  0.12622731  0.87289114  1
  Fe  Fe40  1  0.87741001  0.87387583  0.87510025  1
  Fe  Fe41  1  0.62507161  0.62061028  0.62981852  1
  Fe  Fe42  1  0.62413036  0.87726685  0.12179482  1
  Fe  Fe43  1  0.12210357  0.37876144  0.62573410  1
  Fe  Fe44  1  0.75331604  0.25355416  0.50387121  1
  Fe  Fe45  1  0.87658899  0.37917211  0.12581328  1
  Fe  Fe46  1  0.37534184  0.37691828  0.12340337  1
  Fe  Fe47  1  0.24766888  0.50208028  0.75117534  1
  Fe  Fe48  1  0.12411140  0.37692102  0.12532911  1
  Fe  Fe49  1  0.87454639  0.62336939  0.37361275  1
  Fe  Fe50  1  0.12553935  0.63316203  0.87237747  1
  Fe  Fe51  1  0.12311723  0.87122981  0.12076528  1
  Fe  Fe52  1  0.74963370  0.75053723  -0.00098137  1
  Fe  Fe53  1  0.74829495  0.49968842  -0.00438951  1
  Fe  Fe54  1  0.62680160  0.62463022  0.12554772  1
  Fe  Fe55  1  0.12565067  0.12542730  0.62399995  1
  Fe  Fe56  1  0.24888789  -0.00165779  -0.00154690  1
  Fe  Fe57  1  0.75122671  -0.00213315  0.74870335  1
  Fe  Fe58  1  0.37544152  0.87294426  0.87675342  1
  Fe  Fe59  1  0.49997733  -0.00000925  0.74902770  1
  Fe  Fe60  1  -0.00074006  0.00071696  -0.00075094  1
  Fe  Fe61  1  0.00079160  -0.00217423  0.50279376  1
  Fe  Fe62  1  0.24730023  0.74969926  0.50166570  1
  Fe  Fe63  1  0.37059640  0.12358363  0.62220482  1
  Fe  Fe64  1  0.00148526  0.00057463  0.24919327  1
  Fe  Fe65  1  0.37468559  0.37506509  0.87563129  1
  Fe  Fe66  1  0.37045031  0.62721035  0.37110474  1
  Fe  Fe67  1  0.62490731  0.37539853  0.37702138  1
  Fe  Fe68  1  0.87794256  0.37777628  0.37206942  1
  Fe  Fe69  1  0.12541826  0.12592908  0.37478510  1
  Fe  Fe70  1  0.49916746  0.25169956  0.74911949  1
  Fe  Fe71  1  0.49915265  0.74978584  0.74940900  1
  Fe  Fe72  1  0.49971715  0.24850312  0.25019134  1
  Fe  Fe73  1  0.12268743  0.37584787  0.37141388  1
  Fe  Fe74  1  0.87577022  0.12427163  0.37549850  1
  Fe  Fe75  1  0.75076866  0.25140177  0.24954908  1
  Fe  Fe76  1  0.62728041  0.12603219  0.62631586  1
  Fe  Fe77  1  0.75306401  0.25823468  0.74872331  1
  Fe  Fe78  1  0.00108570  0.24729487  0.00320575  1
  Fe  Fe79  1  0.12326191  0.87049692  0.37543815  1
  Fe  Fe80  1  0.75088485  0.25109022  -0.00080345  1
  Fe  Fe81  1  0.75165324  0.49907264  0.50231406  1
  Fe  Fe82  1  0.62679986  0.12478084  0.37568246  1
  Fe  Fe83  1  0.37382001  0.37464780  0.37525686  1
  Fe  Fe84  1  0.87604757  0.87301493  0.12507223  1
  Fe  Fe85  1  -0.00068593  0.25094867  0.50053860  1
  Fe  Fe86  1  -0.00014144  0.74348924  0.24754843  1
  Fe  Fe87  1  0.75187916  0.74810838  0.50314925  1
  Fe  Fe88  1  0.87464611  0.12370126  0.12636772  1
  Fe  Fe89  1  0.37104286  0.12355476  0.37853571  1
  Co  Co90  1  0.86883585  0.62309397  0.12493410  1
  Co  Co91  1  0.24929433  0.25090537  0.00074530  1
  Co  Co92  1  0.12379362  0.87092443  0.87815930  1
  Co  Co93  1  0.00422418  0.50270731  0.49505171  1
  Co  Co94  1  -0.00151176  0.75293033  0.74967441  1
  Co  Co95  1  0.37428806  0.62573869  0.12737688  1
  Co  Co96  1  0.87965616  0.37514427  0.87946841  1
  Co  Co97  1  0.12337517  0.86939202  0.62527668  1
  Co  Co98  1  -0.00040487  0.24820394  0.24771988  1
  Co  Co99  1  0.12923740  0.62719854  0.37255923  1
  Co  Co100  1  0.37653886  0.87271707  0.37950775  1
  Co  Co101  1  0.49746304  0.00209214  -0.00174180  1
  Co  Co102  1  0.25172555  0.74848404  -0.00025634  1
  Co  Co103  1  0.00308629  0.49987905  0.75622710  1
  Co  Co104  1  0.75350346  0.49421639  0.75095328  1
  Co  Co105  1  0.62146022  0.37874587  0.62477101  1
  Co  Co106  1  0.12197806  0.62617342  0.62820603  1
  Co  Co107  1  0.75394498  -0.00118874  -0.00096468  1
  Co  Co108  1  0.49683843  0.50068467  0.75217554  1
  Co  Co109  1  0.62728476  0.62529663  0.86928167  1
  Co  Co110  1  0.88218822  0.38062894  0.62469266  1
  Co  Co111  1  -0.00079899  0.74693152  0.49888213  1
  Co  Co112  1  0.62430720  0.87320145  0.62469881  1
  Co  Co113  1  -0.00321427  0.74535744  0.00178477  1
  Co  Co114  1  0.50244900  0.00251850  0.50054722  1
  Co  Co115  1  0.87529099  0.12435932  0.62668885  1
  Co  Co116  1  0.24732847  0.25388138  0.50066416  1
  Co  Co117  1  0.50231743  0.74620932  -0.00089425  1
  Co  Co118  1  0.24497683  -0.00371054  0.49923626  1
  Co  Co119  1  0.13105183  0.62726347  0.12636020  1
  Co  Co120  1  0.62205837  0.37506472  0.87375339  1
  Co  Co121  1  0.24973647  0.49814152  0.24943442  1
  Co  Co122  1  0.25011274  0.75433348  0.24852732  1
  Co  Co123  1  0.12822782  0.12282657  0.12517943  1
  Co  Co124  1  0.74833373  0.49894912  0.25191318  1
  Co  Co125  1  0.25269344  0.75248368  0.74831414  1
  Co  Co126  1  0.87604694  0.87455857  0.62326788  1
  Co  Co127  1  0.00108834  0.50622522  0.24795228  1
