# generated using pymatgen
data_Fe45Co19
_symmetry_space_group_name_H-M   'P 1'
_cell_length_a   11.41443288
_cell_length_b   11.41594303
_cell_length_c   11.41515481
_cell_angle_alpha   90.00437942
_cell_angle_beta   90.00361747
_cell_angle_gamma   90.00506688
_symmetry_Int_Tables_number   1
_chemical_formula_structural   Fe45Co19
_chemical_formula_sum   'Fe90 Co38'
_cell_volume   1487.46903420
_cell_formula_units_Z   2
loop_
 _symmetry_equiv_pos_site_id
 _symmetry_equiv_pos_as_xyz
  1  'x, y, z'
loop_
 _atom_site_type_symbol
 _atom_site_label
 _atom_site_symmetry_multiplicity
 _atom_site_fract_x
 _atom_site_fract_y
 _atom_site_fract_z
 _atom_site_occupancy
  Fe  Fe0  1  0.49980181  0.24918084  0.49917659  1
  Fe  Fe1  1  0.62563908  0.87787739  0.87785022  1
  Fe  Fe2  1  0.12848158  0.13134928  0.62537958  1
  Fe  Fe3  1  0.87859369  0.12652929  0.12801344  1
  Fe  Fe4  1  0.12170696  0.62363475  0.62599340  1
  Fe  Fe5  1  0.12606266  0.88001037  0.87709936  1
  Fe  Fe6  1  0.88024005  0.12569922  0.87401562  1
  Fe  Fe7  1  0.50154729  0.25095961  -0.00222945  1
  Fe  Fe8  1  0.37507654  0.37326643  0.12395104  1
  Fe  Fe9  1  0.37422940  0.87666199  0.37387661  1
  Fe  Fe10  1  0.87717955  0.62644963  0.62826182  1
  Fe  Fe11  1  0.37495604  0.37759631  0.87697587  1
  Fe  Fe12  1  0.37326298  0.87552845  0.62459036  1
  Fe  Fe13  1  0.50155119  0.00110732  0.50193984  1
  Fe  Fe14  1  0.12376592  0.87440330  0.12556563  1
  Fe  Fe15  1  0.87501720  0.87431288  0.62452969  1
  Fe  Fe16  1  0.37735068  0.12401400  0.37113034  1
  Fe  Fe17  1  0.50159921  0.49917270  0.49939439  1
  Fe  Fe18  1  0.12227189  0.12704596  0.37558140  1
  Fe  Fe19  1  0.50273656  0.75340663  0.24975113  1
  Fe  Fe20  1  0.62590812  0.62497022  0.62320416  1
  Fe  Fe21  1  0.75018009  0.49914248  0.00157997  1
  Fe  Fe22  1  0.11923634  0.12598594  0.12178671  1
  Fe  Fe23  1  0.24987913  0.74834516  0.49983590  1
  Fe  Fe24  1  -0.00478875  0.49404755  0.50354204  1
  Fe  Fe25  1  0.74753781  0.24927396  0.75323066  1
  Fe  Fe26  1  0.12025921  0.62514157  0.12784547  1
  Fe  Fe27  1  -0.00071109  0.00345253  0.50099400  1
  Fe  Fe28  1  0.24953572  0.74679461  -0.00060931  1
  Fe  Fe29  1  0.62787535  0.87623882  0.62278082  1
  Fe  Fe30  1  0.49968451  0.75013119  -0.00035134  1
  Fe  Fe31  1  0.87624491  0.62078707  0.37061403  1
  Fe  Fe32  1  0.37316341  0.12152556  0.87536281  1
  Fe  Fe33  1  0.12485879  0.37308703  0.37913474  1
  Fe  Fe34  1  -0.00062505  0.75006244  0.49828439  1
  Fe  Fe35  1  0.62422731  0.12566720  0.12355883  1
  Fe  Fe36  1  0.62771318  0.37317470  0.62290393  1
  Fe  Fe37  1  0.25028187  0.00248002  0.50095547  1
  Fe  Fe38  1  0.74981895  0.49973737  0.74873407  1
  Fe  Fe39  1  0.87233557  0.37427851  0.12967561  1
  Fe  Fe40  1  0.24807851  0.24699705  -0.00310912  1
  Fe  Fe41  1  0.50091797  0.49815134  0.75046317  1
  Fe  Fe42  1  0.37675203  0.62457845  0.37306905  1
  Fe  Fe43  1  0.74966509  0.74786483  0.25100569  1
  Fe  Fe44  1  0.25236263  0.50004892  0.50045862  1
  Fe  Fe45  1  -0.00270205  0.49854243  0.00239627  1
  Fe  Fe46  1  0.50038713  0.00004401  0.74931458  1
  Fe  Fe47  1  0.75160062  0.24954470  -0.00033997  1
  Fe  Fe48  1  0.37524664  0.62470295  0.62718409  1
  Fe  Fe49  1  0.50026097  0.75050851  0.49884474  1
  Fe  Fe50  1  0.74910910  0.00342086  0.25227412  1
  Fe  Fe51  1  0.25242682  0.50351370  0.00148210  1
  Fe  Fe52  1  0.75314075  0.00234444  -0.00035498  1
  Fe  Fe53  1  0.24837084  0.74884106  0.25158981  1
  Fe  Fe54  1  0.37668513  0.62529377  0.12768920  1
  Fe  Fe55  1  0.37232578  0.12836685  0.62791099  1
  Fe  Fe56  1  0.24837917  0.24962600  0.25022195  1
  Fe  Fe57  1  0.12528554  0.87652621  0.37544020  1
  Fe  Fe58  1  0.75252948  0.74876503  0.00006170  1
  Fe  Fe59  1  0.62455060  0.12349936  0.87585497  1
  Fe  Fe60  1  0.75039246  0.74889627  0.49772843  1
  Fe  Fe61  1  0.87772915  0.62342340  0.87239897  1
  Fe  Fe62  1  0.00263960  -0.00072138  0.74728314  1
  Fe  Fe63  1  0.87531737  0.12771320  0.62682805  1
  Fe  Fe64  1  0.00476153  0.25604322  0.75087307  1
  Fe  Fe65  1  0.74898024  0.74969168  0.75119085  1
  Fe  Fe66  1  0.87043931  0.37208321  0.37236360  1
  Fe  Fe67  1  0.74918813  0.24236866  0.49638631  1
  Fe  Fe68  1  0.50455639  0.49679141  0.25017289  1
  Fe  Fe69  1  0.87499482  0.87587181  0.87248022  1
  Fe  Fe70  1  0.25036179  0.00240151  0.24522252  1
  Fe  Fe71  1  0.62518430  0.62403159  0.12408863  1
  Fe  Fe72  1  0.12185690  0.62150807  0.87244430  1
  Fe  Fe73  1  -0.00229026  0.75080614  -0.00032687  1
  Fe  Fe74  1  0.49997559  0.25135488  0.75144059  1
  Fe  Fe75  1  0.50439163  0.25308895  0.25111267  1
  Fe  Fe76  1  0.12538871  0.37445406  0.12236133  1
  Fe  Fe77  1  0.62466132  0.62276664  0.87637295  1
  Fe  Fe78  1  0.49965806  -0.00321530  0.24350006  1
  Fe  Fe79  1  0.87459115  0.87518470  0.12770670  1
  Fe  Fe80  1  0.24838919  0.49838137  0.25039080  1
  Fe  Fe81  1  0.12191141  0.62198806  0.37504132  1
  Fe  Fe82  1  0.87440345  0.87913330  0.37558136  1
  Fe  Fe83  1  0.74982919  0.00114078  0.74843076  1
  Fe  Fe84  1  0.50079438  0.75100417  0.75137352  1
  Fe  Fe85  1  0.24900161  0.49577508  0.74884560  1
  Fe  Fe86  1  0.37490149  0.37494285  0.37497731  1
  Fe  Fe87  1  0.37295785  0.87734422  0.87810190  1
  Fe  Fe88  1  0.87494935  0.37565066  0.87370192  1
  Fe  Fe89  1  0.24736433  0.75214379  0.74910212  1
  Co  Co90  1  0.00226412  0.25316874  0.24991439  1
  Co  Co91  1  -0.00356569  -0.00256083  0.00100683  1
  Co  Co92  1  0.62028162  0.12119330  0.37297722  1
  Co  Co93  1  0.74627364  0.24630870  0.25055804  1
  Co  Co94  1  0.37752640  0.13128876  0.12514229  1
  Co  Co95  1  0.62639393  0.37575982  0.87578528  1
  Co  Co96  1  0.25548379  0.24822294  0.49568361  1
  Co  Co97  1  0.75134340  0.00501829  0.50030418  1
  Co  Co98  1  -0.00372507  0.25144928  0.50052643  1
  Co  Co99  1  0.24827025  -0.00051818  0.74793008  1
  Co  Co100  1  0.12450506  0.37889465  0.87996294  1
  Co  Co101  1  0.12392732  0.87419380  0.62091183  1
  Co  Co102  1  0.37128889  0.87083484  0.12279028  1
  Co  Co103  1  0.49865436  -0.00042995  0.00373330  1
  Co  Co104  1  0.63045821  0.37480219  0.37887304  1
  Co  Co105  1  0.74518004  0.50071197  0.24961448  1
  Co  Co106  1  0.12214661  0.12229340  0.87607508  1
  Co  Co107  1  0.37423050  0.62514957  0.87177519  1
  Co  Co108  1  0.00134486  -0.00051420  0.25041213  1
  Co  Co109  1  0.86793629  0.36935646  0.62520744  1
  Co  Co110  1  0.00229708  0.75311012  0.75213875  1
  Co  Co111  1  -0.00253986  0.25295291  -0.00009357  1
  Co  Co112  1  0.63026603  0.87533009  0.12310438  1
  Co  Co113  1  0.24861464  0.25352358  0.75595371  1
  Co  Co114  1  -0.00111854  0.75158630  0.25242236  1
  Co  Co115  1  0.75298971  0.50264209  0.50039798  1
  Co  Co116  1  -0.00038020  0.49238094  0.74529007  1
  Co  Co117  1  0.62597803  0.37378827  0.12153268  1
  Co  Co118  1  0.13001312  0.37125568  0.61959757  1
  Co  Co119  1  0.25095377  0.00390691  0.00548355  1
  Co  Co120  1  0.62602764  0.87765379  0.37570625  1
  Co  Co121  1  0.49837321  0.50082444  0.00031168  1
  Co  Co122  1  0.00162579  0.49468111  0.25039246  1
  Co  Co123  1  0.37480423  0.37327644  0.62409030  1
  Co  Co124  1  0.62525116  0.12675349  0.62681130  1
  Co  Co125  1  0.87697179  0.62366962  0.12772500  1
  Co  Co126  1  0.87889681  0.12661794  0.37177745  1
  Co  Co127  1  0.62441824  0.62566498  0.37563197  1
