# generated using pymatgen
data_Fe45Co19
_symmetry_space_group_name_H-M   'P 1'
_cell_length_a   11.41548594
_cell_length_b   11.41626137
_cell_length_c   11.41533289
_cell_angle_alpha   90.00096557
_cell_angle_beta   89.98991049
_cell_angle_gamma   90.00215241
_symmetry_Int_Tables_number   1
_chemical_formula_structural   Fe45Co19
_chemical_formula_sum   'Fe90 Co38'
_cell_volume   1487.67094272
_cell_formula_units_Z   2
loop_
 _symmetry_equiv_pos_site_id
 _symmetry_equiv_pos_as_xyz
  1  'x, y, z'
loop_
 _atom_site_type_symbol
 _atom_site_label
 _atom_site_symmetry_multiplicity
 _atom_site_fract_x
 _atom_site_fract_y
 _atom_site_fract_z
 _atom_site_occupancy
  Fe  Fe0  1  0.87827230  0.12299363  0.37655313  1
  Fe  Fe1  1  0.87209785  0.37697891  0.62432772  1
  Fe  Fe2  1  0.12416224  0.62287218  0.37575960  1
  Fe  Fe3  1  0.37503180  0.12559630  0.62349042  1
  Fe  Fe4  1  0.00065810  -0.00123720  0.00164588  1
  Fe  Fe5  1  0.12618811  0.87355055  0.12449025  1
  Fe  Fe6  1  0.87222795  0.62240076  0.87330135  1
  Fe  Fe7  1  0.87268469  0.87472617  0.12432955  1
  Fe  Fe8  1  0.12415159  0.12434996  0.62457238  1
  Fe  Fe9  1  -0.00100976  0.74922316  0.24944695  1
  Fe  Fe10  1  0.12240792  0.12291679  0.87387027  1
  Fe  Fe11  1  0.49824762  0.74835744  0.49948098  1
  Fe  Fe12  1  0.49926978  0.25096663  0.74963703  1
  Fe  Fe13  1  0.87243845  0.87576327  0.87418171  1
  Fe  Fe14  1  0.62656499  0.12574861  0.62700837  1
  Fe  Fe15  1  0.62225573  0.37847093  0.37600008  1
  Fe  Fe16  1  0.25091225  -0.00084451  0.25089716  1
  Fe  Fe17  1  0.00164715  0.49899067  0.74847071  1
  Fe  Fe18  1  0.37925172  0.87944342  0.87700411  1
  Fe  Fe19  1  -0.00651755  0.00100152  0.74484005  1
  Fe  Fe20  1  0.25217781  0.49946037  0.24820479  1
  Fe  Fe21  1  0.50180370  0.24962998  0.00022374  1
  Fe  Fe22  1  0.00067509  0.25202699  0.50088152  1
  Fe  Fe23  1  0.50003346  -0.00042670  0.24934723  1
  Fe  Fe24  1  0.49788308  0.25163377  0.25033367  1
  Fe  Fe25  1  0.62655465  0.87369610  0.12469780  1
  Fe  Fe26  1  0.62142351  0.62438411  0.62748594  1
  Fe  Fe27  1  0.75106604  0.00035665  0.25142103  1
  Fe  Fe28  1  0.50160547  0.49761314  0.00014027  1
  Fe  Fe29  1  0.75011722  0.74277818  0.49857637  1
  Fe  Fe30  1  0.74871184  0.50067757  0.25144553  1
  Fe  Fe31  1  0.25191396  0.25132360  0.25166454  1
  Fe  Fe32  1  0.25107499  0.24926118  0.49743664  1
  Fe  Fe33  1  0.37378189  0.12402399  0.12311892  1
  Fe  Fe34  1  0.25282908  0.49978335  0.75008242  1
  Fe  Fe35  1  0.25305785  0.00115800  0.75133592  1
  Fe  Fe36  1  0.37603879  0.87396764  0.62313382  1
  Fe  Fe37  1  0.25159395  0.74995588  0.25317793  1
  Fe  Fe38  1  0.49942756  0.25009031  0.49948448  1
  Fe  Fe39  1  0.24879458  0.24888424  -0.00267074  1
  Fe  Fe40  1  0.62531032  0.87667548  0.62643895  1
  Fe  Fe41  1  0.62607948  0.62596650  0.12470850  1
  Fe  Fe42  1  0.62341283  0.12354577  0.37507377  1
  Fe  Fe43  1  0.74634214  0.00106964  -0.00230139  1
  Fe  Fe44  1  0.12362168  0.87659425  0.87305581  1
  Fe  Fe45  1  0.37477904  0.62623478  0.12356709  1
  Fe  Fe46  1  0.12658947  0.62585382  0.12187898  1
  Fe  Fe47  1  0.12528833  0.87452256  0.62486790  1
  Fe  Fe48  1  0.75163812  0.24940897  0.75301815  1
  Fe  Fe49  1  0.12751693  0.37619782  0.12212617  1
  Fe  Fe50  1  0.25060473  0.24786104  0.75240999  1
  Fe  Fe51  1  0.25137783  -0.00007395  0.49824473  1
  Fe  Fe52  1  0.12445505  0.12485837  0.12516919  1
  Fe  Fe53  1  0.74998873  0.25195031  0.49694409  1
  Fe  Fe54  1  -0.00149464  0.25122342  0.75073452  1
  Fe  Fe55  1  0.25325094  0.50144883  0.50259165  1
  Fe  Fe56  1  0.12899808  0.62741186  0.62669971  1
  Fe  Fe57  1  0.75031871  0.74691977  0.25321264  1
  Fe  Fe58  1  0.74341579  0.49756724  0.74929311  1
  Fe  Fe59  1  -0.00146923  0.74866074  0.74980937  1
  Fe  Fe60  1  0.25138444  0.75014968  -0.00367263  1
  Fe  Fe61  1  0.38051073  0.62397484  0.87144299  1
  Fe  Fe62  1  -0.00177692  0.74542907  0.50326050  1
  Fe  Fe63  1  0.12198866  0.12239836  0.37488327  1
  Fe  Fe64  1  0.74760114  0.49791069  -0.00029977  1
  Fe  Fe65  1  0.75185346  0.00104479  0.50300052  1
  Fe  Fe66  1  0.49998416  0.74958227  0.25149567  1
  Fe  Fe67  1  -0.00011251  0.49810295  -0.00085882  1
  Fe  Fe68  1  -0.00087019  0.25253295  0.24953456  1
  Fe  Fe69  1  0.74563746  0.74980901  0.75290089  1
  Fe  Fe70  1  0.87625298  0.87464899  0.37764944  1
  Fe  Fe71  1  0.37470964  0.37492963  0.87540559  1
  Fe  Fe72  1  0.12193268  0.87621997  0.37712445  1
  Fe  Fe73  1  0.50446845  0.75096110  -0.00274301  1
  Fe  Fe74  1  0.49792229  0.49870349  0.24721932  1
  Fe  Fe75  1  0.62694740  0.12814574  0.12710070  1
  Fe  Fe76  1  0.75009777  0.25194316  -0.00252674  1
  Fe  Fe77  1  0.12799091  0.37393741  0.62627708  1
  Fe  Fe78  1  0.75191964  0.25243423  0.25320788  1
  Fe  Fe79  1  0.25293875  0.75169390  0.75189546  1
  Fe  Fe80  1  0.87793409  0.38221174  0.37657798  1
  Fe  Fe81  1  -0.00201879  0.74937232  -0.00170234  1
  Fe  Fe82  1  0.87435193  0.62402234  0.12499305  1
  Fe  Fe83  1  -0.00139255  0.25404588  -0.00208652  1
  Fe  Fe84  1  0.62429790  0.87513095  0.37691949  1
  Fe  Fe85  1  0.12571663  0.62421639  0.87474583  1
  Fe  Fe86  1  0.37513390  0.87550753  0.12249709  1
  Fe  Fe87  1  0.12479617  0.37836640  0.37655490  1
  Fe  Fe88  1  0.87478689  0.12587552  0.12401976  1
  Fe  Fe89  1  0.49721320  0.49865212  0.50534370  1
  Co  Co90  1  0.75346181  0.00225909  0.74810601  1
  Co  Co91  1  0.87353265  0.37828387  0.87235825  1
  Co  Co92  1  0.24779921  -0.00031792  -0.00086910  1
  Co  Co93  1  0.37593334  0.37624984  0.37645870  1
  Co  Co94  1  0.37587511  0.62810493  0.62804734  1
  Co  Co95  1  0.87933108  0.62081270  0.37370063  1
  Co  Co96  1  0.37196362  0.37127946  0.62538001  1
  Co  Co97  1  0.74843335  0.74932445  -0.00254408  1
  Co  Co98  1  0.62627660  0.37333005  0.12692693  1
  Co  Co99  1  0.62729130  0.37154975  0.62327130  1
  Co  Co100  1  0.49824605  0.00184385  0.74834085  1
  Co  Co101  1  0.25214440  0.50214221  -0.00230866  1
  Co  Co102  1  0.87145112  0.62281899  0.63044178  1
  Co  Co103  1  0.87313243  0.37553406  0.12597382  1
  Co  Co104  1  0.62444728  0.87953878  0.87233419  1
  Co  Co105  1  0.00104499  0.50234314  0.50715283  1
  Co  Co106  1  0.50142808  0.75300599  0.75105561  1
  Co  Co107  1  0.50050925  0.49464356  0.74718373  1
  Co  Co108  1  0.87642572  0.12405981  0.87773613  1
  Co  Co109  1  -0.00299705  -0.00023650  0.50517462  1
  Co  Co110  1  0.50119841  0.00177408  0.50227078  1
  Co  Co111  1  0.37649358  0.12440336  0.87808489  1
  Co  Co112  1  0.74849833  0.50379158  0.50014858  1
  Co  Co113  1  -0.00120018  -0.00068962  0.24750788  1
  Co  Co114  1  0.62279834  0.62272281  0.87431992  1
  Co  Co115  1  0.37675545  0.12406462  0.37473537  1
  Co  Co116  1  0.61944162  0.62224015  0.37480732  1
  Co  Co117  1  0.25047448  0.74976431  0.49826010  1
  Co  Co118  1  0.37786954  0.87521618  0.37642740  1
  Co  Co119  1  0.37336573  0.37384850  0.12222892  1
  Co  Co120  1  0.87184374  0.86887354  0.62462803  1
  Co  Co121  1  0.62436596  0.12469853  0.87141159  1
  Co  Co122  1  0.62384922  0.37298144  0.87525270  1
  Co  Co123  1  0.12738169  0.37596290  0.87392201  1
  Co  Co124  1  0.00353085  0.49909166  0.24531921  1
  Co  Co125  1  0.87346075  0.13071352  0.62270241  1
  Co  Co126  1  0.37579660  0.62356123  0.37513393  1
  Co  Co127  1  0.50461351  0.00201279  0.00238536  1
