# generated using pymatgen
data_Fe45Co19
_symmetry_space_group_name_H-M   'P 1'
_cell_length_a   11.41435525
_cell_length_b   11.41361373
_cell_length_c   11.41530974
_cell_angle_alpha   89.98768478
_cell_angle_beta   90.00388063
_cell_angle_gamma   90.00823405
_symmetry_Int_Tables_number   1
_chemical_formula_structural   Fe45Co19
_chemical_formula_sum   'Fe90 Co38'
_cell_volume   1487.17556060
_cell_formula_units_Z   2
loop_
 _symmetry_equiv_pos_site_id
 _symmetry_equiv_pos_as_xyz
  1  'x, y, z'
loop_
 _atom_site_type_symbol
 _atom_site_label
 _atom_site_symmetry_multiplicity
 _atom_site_fract_x
 _atom_site_fract_y
 _atom_site_fract_z
 _atom_site_occupancy
  Fe  Fe0  1  0.12557244  0.62574876  0.12550635  1
  Fe  Fe1  1  0.00039447  0.49901273  0.50269962  1
  Fe  Fe2  1  0.75231606  -0.00280023  0.49876415  1
  Fe  Fe3  1  0.37412359  0.37484537  0.12724585  1
  Fe  Fe4  1  0.50293113  0.25076270  0.49995668  1
  Fe  Fe5  1  0.50205273  0.24904398  0.24869695  1
  Fe  Fe6  1  0.24977186  0.50072086  0.75044991  1
  Fe  Fe7  1  0.25217115  0.24721180  0.75296007  1
  Fe  Fe8  1  0.50068565  0.49926351  0.00328751  1
  Fe  Fe9  1  0.62238819  0.37416046  0.87484541  1
  Fe  Fe10  1  0.24847645  -0.00110275  0.49943937  1
  Fe  Fe11  1  -0.00286756  0.24958566  -0.00159611  1
  Fe  Fe12  1  0.87461587  0.37539514  0.37444565  1
  Fe  Fe13  1  0.12050899  0.87525311  0.12989565  1
  Fe  Fe14  1  0.24946752  0.74837723  0.75070838  1
  Fe  Fe15  1  0.37338372  0.62410912  0.62241693  1
  Fe  Fe16  1  0.75455048  0.75025655  0.25048390  1
  Fe  Fe17  1  0.24965737  0.25187696  0.49748651  1
  Fe  Fe18  1  0.75164491  -0.00046726  0.75279304  1
  Fe  Fe19  1  0.50206915  0.74826244  0.49805472  1
  Fe  Fe20  1  0.37524237  0.12583246  0.62329967  1
  Fe  Fe21  1  0.24962430  -0.00157263  -0.00144734  1
  Fe  Fe22  1  0.12382524  0.37409038  0.87637792  1
  Fe  Fe23  1  0.25159827  0.24890574  -0.00107183  1
  Fe  Fe24  1  0.12286518  0.62340967  0.87628244  1
  Fe  Fe25  1  0.87347814  0.12560971  0.62246167  1
  Fe  Fe26  1  0.12580948  0.62256472  0.37401741  1
  Fe  Fe27  1  0.62449088  0.38026483  0.37024423  1
  Fe  Fe28  1  0.24993525  -0.00093053  0.25018779  1
  Fe  Fe29  1  0.12408626  0.37642180  0.37230195  1
  Fe  Fe30  1  0.50111073  0.00009353  0.49962992  1
  Fe  Fe31  1  0.62615512  0.62522050  0.62633340  1
  Fe  Fe32  1  0.24971972  0.25063982  0.25109972  1
  Fe  Fe33  1  0.37545013  0.37591086  0.62280425  1
  Fe  Fe34  1  0.87443800  0.62445092  0.37660875  1
  Fe  Fe35  1  0.62744333  0.62548192  0.12718793  1
  Fe  Fe36  1  0.25075773  0.00294719  0.75250157  1
  Fe  Fe37  1  0.75208395  -0.00656162  -0.00204263  1
  Fe  Fe38  1  0.50407116  0.75420894  0.00286745  1
  Fe  Fe39  1  0.87485158  0.37557023  0.87352782  1
  Fe  Fe40  1  0.50250078  -0.00222889  0.00373406  1
  Fe  Fe41  1  0.74919030  0.75169670  0.49835768  1
  Fe  Fe42  1  0.37560050  0.87427961  0.62557003  1
  Fe  Fe43  1  0.12475744  0.12422294  0.62502305  1
  Fe  Fe44  1  0.75968316  0.00024511  0.25080127  1
  Fe  Fe45  1  0.62912269  0.37552300  0.12706663  1
  Fe  Fe46  1  -0.00176809  0.24709559  0.75062322  1
  Fe  Fe47  1  0.62380179  0.87472266  0.62688889  1
  Fe  Fe48  1  0.37447226  0.12287835  0.12426752  1
  Fe  Fe49  1  0.63106189  0.12390849  0.12507521  1
  Fe  Fe50  1  0.37575835  0.62648805  0.87836916  1
  Fe  Fe51  1  -0.00364181  0.24602764  0.24950168  1
  Fe  Fe52  1  0.50026286  0.00292940  0.74901746  1
  Fe  Fe53  1  0.87271555  0.62382122  0.62517248  1
  Fe  Fe54  1  0.37159066  0.62771641  0.12456980  1
  Fe  Fe55  1  0.37603774  0.12519178  0.37483858  1
  Fe  Fe56  1  0.75083742  0.49982669  -0.00127680  1
  Fe  Fe57  1  0.37830046  0.37326320  0.87601048  1
  Fe  Fe58  1  0.00034845  0.74934231  0.50154421  1
  Fe  Fe59  1  0.49847922  0.75019396  0.24946236  1
  Fe  Fe60  1  0.74916624  0.24921961  0.75050794  1
  Fe  Fe61  1  0.87294001  0.37222158  0.12510606  1
  Fe  Fe62  1  0.62721048  0.12227419  0.37404009  1
  Fe  Fe63  1  -0.00346425  0.00008611  -0.00087051  1
  Fe  Fe64  1  0.87628176  0.62895416  0.87864975  1
  Fe  Fe65  1  0.74842378  0.25209362  0.49886760  1
  Fe  Fe66  1  0.74955010  0.75070466  0.75285589  1
  Fe  Fe67  1  0.24861422  0.75063923  0.49752785  1
  Fe  Fe68  1  0.12335856  0.12544066  0.12298537  1
  Fe  Fe69  1  0.37406249  0.61924794  0.37392062  1
  Fe  Fe70  1  0.62323188  0.12733390  0.87697366  1
  Fe  Fe71  1  0.62687016  0.37749767  0.62749636  1
  Fe  Fe72  1  0.49940827  0.50129185  0.74935392  1
  Fe  Fe73  1  0.37614228  0.87668106  0.37294074  1
  Fe  Fe74  1  -0.00022357  0.25113450  0.50118241  1
  Fe  Fe75  1  0.24757509  0.49754093  0.00202796  1
  Fe  Fe76  1  -0.00145839  0.50059310  0.24579822  1
  Fe  Fe77  1  0.11880947  0.87658579  0.37210651  1
  Fe  Fe78  1  0.87738640  0.87504599  0.62771284  1
  Fe  Fe79  1  0.62578384  0.87557165  0.37088077  1
  Fe  Fe80  1  0.37826363  0.87444692  0.87513955  1
  Fe  Fe81  1  0.87548518  0.62959376  0.11946334  1
  Fe  Fe82  1  0.12286005  0.87520146  0.62733139  1
  Fe  Fe83  1  0.12173747  0.12229056  0.37516254  1
  Fe  Fe84  1  0.12520359  0.37524129  0.62705215  1
  Fe  Fe85  1  -0.00127637  0.50210005  0.74897161  1
  Fe  Fe86  1  0.24663123  0.75411911  -0.00009978  1
  Fe  Fe87  1  0.74826732  0.50011924  0.49893157  1
  Fe  Fe88  1  0.62378835  0.62613840  0.87516462  1
  Fe  Fe89  1  0.12019294  0.87616081  0.87041831  1
  Co  Co90  1  0.50428239  0.50153884  0.50106693  1
  Co  Co91  1  0.75050943  0.50175222  0.75400222  1
  Co  Co92  1  0.87930567  0.87337358  0.37484570  1
  Co  Co93  1  -0.00236374  0.00452641  0.75135174  1
  Co  Co94  1  0.62857408  0.87689861  0.13189744  1
  Co  Co95  1  0.38003936  0.12474128  0.87819983  1
  Co  Co96  1  0.87302831  0.37543714  0.62571545  1
  Co  Co97  1  -0.00058406  -0.00086348  0.50187608  1
  Co  Co98  1  0.87560682  0.12664117  0.38114175  1
  Co  Co99  1  0.62657973  0.62505107  0.37087322  1
  Co  Co100  1  -0.00106925  0.49790153  0.00224777  1
  Co  Co101  1  0.37416029  0.87460365  0.12517134  1
  Co  Co102  1  0.49900557  0.74762522  0.74874292  1
  Co  Co103  1  0.12313418  0.37008152  0.12409690  1
  Co  Co104  1  0.87171443  0.12576709  0.87711239  1
  Co  Co105  1  -0.00012067  0.74574634  0.74790678  1
  Co  Co106  1  0.24835396  0.49756351  0.24752746  1
  Co  Co107  1  -0.00728109  0.00501990  0.24748646  1
  Co  Co108  1  0.87852837  0.87036332  0.87490096  1
  Co  Co109  1  0.12412580  0.12625860  0.87798845  1
  Co  Co110  1  0.75518382  0.50226047  0.24769018  1
  Co  Co111  1  0.49917266  0.00188491  0.24827329  1
  Co  Co112  1  0.12700303  0.62444730  0.62352337  1
  Co  Co113  1  -0.00179166  0.74554320  0.25078817  1
  Co  Co114  1  0.50093173  0.24897244  0.74639136  1
  Co  Co115  1  0.74911283  0.25394620  -0.00270946  1
  Co  Co116  1  0.49868851  0.50133416  0.24602084  1
  Co  Co117  1  0.75085059  0.24837570  0.25326379  1
  Co  Co118  1  0.24774440  0.49707634  0.49930380  1
  Co  Co119  1  0.87723772  0.87044913  0.12295834  1
  Co  Co120  1  0.87081390  0.12784721  0.11970388  1
  Co  Co121  1  0.24980204  0.75135668  0.25211418  1
  Co  Co122  1  0.00545403  0.75197237  -0.00026082  1
  Co  Co123  1  0.37749003  0.37688081  0.37469555  1
  Co  Co124  1  0.50132872  0.25054286  0.00622040  1
  Co  Co125  1  0.62183806  0.87520153  0.87115654  1
  Co  Co126  1  0.74455935  0.75420620  -0.00128696  1
  Co  Co127  1  0.62816586  0.12288637  0.62407274  1
