# generated using pymatgen
data_Fe45Co19
_symmetry_space_group_name_H-M   'P 1'
_cell_length_a   11.41527015
_cell_length_b   11.41503949
_cell_length_c   11.41488991
_cell_angle_alpha   90.00385390
_cell_angle_beta   89.99975280
_cell_angle_gamma   89.98821879
_symmetry_Int_Tables_number   1
_chemical_formula_structural   Fe45Co19
_chemical_formula_sum   'Fe90 Co38'
_cell_volume   1487.42586460
_cell_formula_units_Z   2
loop_
 _symmetry_equiv_pos_site_id
 _symmetry_equiv_pos_as_xyz
  1  'x, y, z'
loop_
 _atom_site_type_symbol
 _atom_site_label
 _atom_site_symmetry_multiplicity
 _atom_site_fract_x
 _atom_site_fract_y
 _atom_site_fract_z
 _atom_site_occupancy
  Fe  Fe0  1  0.62455616  0.37483746  0.62710640  1
  Fe  Fe1  1  0.37935020  0.62767919  0.12302291  1
  Fe  Fe2  1  0.24984171  0.00498619  0.24790540  1
  Fe  Fe3  1  0.37784975  0.62448488  0.62525885  1
  Fe  Fe4  1  0.75080534  0.25038484  0.50093228  1
  Fe  Fe5  1  0.12439986  0.12672430  0.62094049  1
  Fe  Fe6  1  -0.00014110  0.49425390  0.49694744  1
  Fe  Fe7  1  0.12739741  0.12226203  0.87965827  1
  Fe  Fe8  1  0.50061751  -0.00312494  -0.00145427  1
  Fe  Fe9  1  0.00148510  0.75131387  0.75104192  1
  Fe  Fe10  1  0.24910369  0.49992850  0.00046807  1
  Fe  Fe11  1  0.37697468  0.62651640  0.87425011  1
  Fe  Fe12  1  0.74934542  0.50212885  0.74811611  1
  Fe  Fe13  1  0.62583542  0.37494918  0.87311339  1
  Fe  Fe14  1  0.00141001  0.24965309  0.25213086  1
  Fe  Fe15  1  0.74861374  0.24890591  0.00154621  1
  Fe  Fe16  1  0.87445499  0.12622611  0.37590989  1
  Fe  Fe17  1  -0.00045046  -0.00293848  -0.00012228  1
  Fe  Fe18  1  0.00096350  0.25178173  -0.00054579  1
  Fe  Fe19  1  0.87783610  0.62445349  0.62176407  1
  Fe  Fe20  1  0.87274063  0.37356850  0.87297637  1
  Fe  Fe21  1  0.49919426  0.24642106  0.25127486  1
  Fe  Fe22  1  0.75111681  0.50304240  0.24967832  1
  Fe  Fe23  1  0.37487579  0.37230228  0.87589004  1
  Fe  Fe24  1  0.75170117  0.74875681  0.49882890  1
  Fe  Fe25  1  0.24793075  0.75088399  0.74973280  1
  Fe  Fe26  1  0.62638518  0.12209674  0.87562989  1
  Fe  Fe27  1  0.24958505  0.74910489  0.50089578  1
  Fe  Fe28  1  0.24938443  0.49983474  0.75158041  1
  Fe  Fe29  1  0.49650481  0.50153307  0.25160970  1
  Fe  Fe30  1  0.12706382  0.37433370  0.12727462  1
  Fe  Fe31  1  0.50008704  -0.00172911  0.50023560  1
  Fe  Fe32  1  0.75030458  0.49898357  0.49973740  1
  Fe  Fe33  1  0.62885245  0.87602211  0.37459049  1
  Fe  Fe34  1  0.12476627  0.62422607  0.37503926  1
  Fe  Fe35  1  0.62229774  0.12348042  0.12383352  1
  Fe  Fe36  1  0.87326798  0.37362441  0.12692043  1
  Fe  Fe37  1  0.74920934  -0.00009565  0.74753944  1
  Fe  Fe38  1  0.50016388  0.49873703  -0.00140035  1
  Fe  Fe39  1  0.49897466  0.00226232  0.25358402  1
  Fe  Fe40  1  0.37122377  0.37390801  0.37324364  1
  Fe  Fe41  1  0.37219084  0.87532940  0.37533690  1
  Fe  Fe42  1  0.87301343  0.87511714  0.12673144  1
  Fe  Fe43  1  0.00186062  0.25090285  0.75002462  1
  Fe  Fe44  1  0.37535938  0.37516252  0.62661710  1
  Fe  Fe45  1  0.25034066  0.24310537  0.24883075  1
  Fe  Fe46  1  0.62424094  0.62583753  0.37377025  1
  Fe  Fe47  1  0.50017816  0.49879234  0.49928438  1
  Fe  Fe48  1  0.87162464  0.87448692  0.87596665  1
  Fe  Fe49  1  0.00112343  -0.00044915  0.75040171  1
  Fe  Fe50  1  0.49928359  0.75177770  0.49970959  1
  Fe  Fe51  1  0.25278363  0.74667831  0.25153253  1
  Fe  Fe52  1  0.24957461  0.49897287  0.49975433  1
  Fe  Fe53  1  0.37412256  0.87804946  0.87058742  1
  Fe  Fe54  1  0.62413875  0.12394117  0.62339465  1
  Fe  Fe55  1  0.87446190  0.62730960  0.87676886  1
  Fe  Fe56  1  0.12234146  0.62397151  0.62483207  1
  Fe  Fe57  1  0.00037528  0.49883873  0.75175743  1
  Fe  Fe58  1  0.74879361  0.50194391  0.00181994  1
  Fe  Fe59  1  0.50223958  0.75383289  0.74674090  1
  Fe  Fe60  1  0.62720940  0.37213675  0.37248105  1
  Fe  Fe61  1  0.12527566  0.87461483  0.12717508  1
  Fe  Fe62  1  0.87332345  0.12478666  0.87514396  1
  Fe  Fe63  1  0.37580487  0.12308815  0.62390899  1
  Fe  Fe64  1  -0.00062481  -0.00391432  0.49660182  1
  Fe  Fe65  1  0.00168340  0.75184156  -0.00138495  1
  Fe  Fe66  1  -0.00232236  0.75188810  0.25505438  1
  Fe  Fe67  1  0.25017092  0.75260634  -0.00190535  1
  Fe  Fe68  1  0.75033483  0.00312786  0.24982860  1
  Fe  Fe69  1  0.00081229  0.49908365  -0.00106659  1
  Fe  Fe70  1  0.24943478  0.00082014  0.50019099  1
  Fe  Fe71  1  0.24861194  0.24804496  0.74940226  1
  Fe  Fe72  1  0.74841941  0.74991948  0.74741329  1
  Fe  Fe73  1  0.37528238  0.37206702  0.12494829  1
  Fe  Fe74  1  0.12552861  0.87557814  0.62482416  1
  Fe  Fe75  1  0.87604918  0.12617108  0.62466901  1
  Fe  Fe76  1  0.49831272  0.25040830  0.49851063  1
  Fe  Fe77  1  0.87436660  0.87496829  0.62312048  1
  Fe  Fe78  1  0.00155566  -0.00027513  0.25335518  1
  Fe  Fe79  1  0.12433608  0.62643930  0.12452811  1
  Fe  Fe80  1  0.74345724  0.75144343  0.00538216  1
  Fe  Fe81  1  0.87698626  0.12502384  0.12429908  1
  Fe  Fe82  1  -0.00039142  0.49851337  0.25201654  1
  Fe  Fe83  1  0.37294985  0.12333247  0.87834756  1
  Fe  Fe84  1  0.62440505  0.37502874  0.12686162  1
  Fe  Fe85  1  0.37858317  0.87419124  0.12709735  1
  Fe  Fe86  1  0.62274775  0.62637344  0.87423578  1
  Fe  Fe87  1  0.50040632  0.24765189  0.75164199  1
  Fe  Fe88  1  0.87618940  0.62658100  0.12562704  1
  Fe  Fe89  1  0.00026414  0.25588276  0.49785963  1
  Co  Co90  1  0.62321801  0.62494692  0.62326257  1
  Co  Co91  1  0.74819613  0.24754542  0.74865700  1
  Co  Co92  1  0.00104262  0.75432690  0.49672374  1
  Co  Co93  1  0.37903735  0.12501953  0.12009757  1
  Co  Co94  1  0.87366947  0.37534900  0.62751829  1
  Co  Co95  1  0.13029259  0.87541885  0.37351155  1
  Co  Co96  1  0.62733215  0.87606451  0.62180751  1
  Co  Co97  1  0.74872634  0.24510528  0.24744284  1
  Co  Co98  1  0.50376129  0.25034208  -0.00150417  1
  Co  Co99  1  0.12631979  0.87790229  0.87494654  1
  Co  Co100  1  0.87033228  0.37314844  0.37195779  1
  Co  Co101  1  0.50025954  0.49937564  0.75032572  1
  Co  Co102  1  0.50162339  0.75374782  -0.00182288  1
  Co  Co103  1  0.12184582  0.12360422  0.12181099  1
  Co  Co104  1  0.12489657  0.12575387  0.37834744  1
  Co  Co105  1  0.61911430  0.62415879  0.12734534  1
  Co  Co106  1  0.75181246  0.00325775  0.50080602  1
  Co  Co107  1  0.24851763  0.25016422  0.00292298  1
  Co  Co108  1  0.25214356  0.25078932  0.50082456  1
  Co  Co109  1  0.25256721  0.50439068  0.24757484  1
  Co  Co110  1  0.24764115  0.00303904  0.74759970  1
  Co  Co111  1  0.37451551  0.12386023  0.37792019  1
  Co  Co112  1  0.74995004  -0.00012155  0.00238603  1
  Co  Co113  1  0.50201893  0.00058552  0.74849641  1
  Co  Co114  1  0.62208257  0.87754618  0.12946698  1
  Co  Co115  1  0.62522954  0.12546418  0.37735596  1
  Co  Co116  1  0.86996619  0.87599249  0.37438429  1
  Co  Co117  1  0.25102955  -0.00361915  0.00498017  1
  Co  Co118  1  0.37558816  0.62482358  0.37837314  1
  Co  Co119  1  0.37331052  0.87650582  0.62547305  1
  Co  Co120  1  0.74969357  0.74821994  0.24794953  1
  Co  Co121  1  0.62695080  0.87646430  0.87348011  1
  Co  Co122  1  0.13126030  0.37414951  0.37149116  1
  Co  Co123  1  0.12646618  0.37478013  0.62586801  1
  Co  Co124  1  0.12464181  0.62514220  0.87585433  1
  Co  Co125  1  0.12606639  0.37436351  0.87521027  1
  Co  Co126  1  0.49932668  0.75015798  0.25409407  1
  Co  Co127  1  0.87646428  0.62450631  0.37634525  1
