# generated using pymatgen
data_Fe45Co19
_symmetry_space_group_name_H-M   'P 1'
_cell_length_a   11.41605294
_cell_length_b   11.41477272
_cell_length_c   11.41630792
_cell_angle_alpha   90.00248388
_cell_angle_beta   89.99742421
_cell_angle_gamma   89.99821323
_symmetry_Int_Tables_number   1
_chemical_formula_structural   Fe45Co19
_chemical_formula_sum   'Fe90 Co38'
_cell_volume   1487.67791449
_cell_formula_units_Z   2
loop_
 _symmetry_equiv_pos_site_id
 _symmetry_equiv_pos_as_xyz
  1  'x, y, z'
loop_
 _atom_site_type_symbol
 _atom_site_label
 _atom_site_symmetry_multiplicity
 _atom_site_fract_x
 _atom_site_fract_y
 _atom_site_fract_z
 _atom_site_occupancy
  Fe  Fe0  1  0.37387589  0.37805056  0.62255640  1
  Fe  Fe1  1  0.87657070  0.12270546  0.87379945  1
  Fe  Fe2  1  0.12531472  0.62500955  0.37060777  1
  Fe  Fe3  1  0.87404066  0.37726232  0.62285199  1
  Fe  Fe4  1  0.37393164  0.37933670  0.88078798  1
  Fe  Fe5  1  0.25104255  0.25250835  0.75099463  1
  Fe  Fe6  1  0.12348247  0.12620352  0.87462474  1
  Fe  Fe7  1  0.50199381  0.24946799  0.50089294  1
  Fe  Fe8  1  0.62380626  0.86988414  0.37360890  1
  Fe  Fe9  1  -0.00131021  0.49994757  0.00173056  1
  Fe  Fe10  1  -0.00062546  0.00217900  0.50366340  1
  Fe  Fe11  1  0.12470538  0.37389575  0.87743434  1
  Fe  Fe12  1  0.87548915  0.12476290  0.37432213  1
  Fe  Fe13  1  0.37369101  0.62371767  0.12346227  1
  Fe  Fe14  1  0.49801006  0.75096109  -0.00077031  1
  Fe  Fe15  1  0.12536523  0.37401709  0.12301070  1
  Fe  Fe16  1  0.74789782  0.74443468  0.50179572  1
  Fe  Fe17  1  0.87630079  0.87376215  0.12443497  1
  Fe  Fe18  1  0.62439682  0.62686372  0.87414598  1
  Fe  Fe19  1  0.50103926  0.50033526  0.24736630  1
  Fe  Fe20  1  0.12579485  0.62560867  0.12794936  1
  Fe  Fe21  1  0.75081082  0.75186939  -0.00109960  1
  Fe  Fe22  1  0.62276725  0.87419625  0.12599246  1
  Fe  Fe23  1  0.37490464  0.87450823  0.62334758  1
  Fe  Fe24  1  -0.00431425  0.75326069  0.74774506  1
  Fe  Fe25  1  0.87556103  0.62636649  0.37437466  1
  Fe  Fe26  1  0.37469580  0.37663548  0.37552367  1
  Fe  Fe27  1  0.62590733  0.37528148  0.87686589  1
  Fe  Fe28  1  0.37431837  0.12518964  0.62401652  1
  Fe  Fe29  1  0.62554939  0.12326285  0.87454208  1
  Fe  Fe30  1  0.12811272  0.87445748  0.12794256  1
  Fe  Fe31  1  0.75434203  -0.00627995  0.75061900  1
  Fe  Fe32  1  0.37487676  0.12375323  0.12658786  1
  Fe  Fe33  1  0.62268258  0.12503126  0.37216524  1
  Fe  Fe34  1  0.49975372  -0.00042892  0.49889409  1
  Fe  Fe35  1  0.62744585  0.12465652  0.62671729  1
  Fe  Fe36  1  0.00086797  0.49932478  0.74924211  1
  Fe  Fe37  1  0.74885525  -0.00010561  0.49901310  1
  Fe  Fe38  1  0.49889778  0.25169578  0.75064334  1
  Fe  Fe39  1  0.24985187  0.25043360  0.24919886  1
  Fe  Fe40  1  0.50197155  0.74672582  0.49925858  1
  Fe  Fe41  1  0.25202887  0.75002715  0.75142197  1
  Fe  Fe42  1  0.24694165  0.74664208  0.50069868  1
  Fe  Fe43  1  0.50176138  0.24916583  0.00013939  1
  Fe  Fe44  1  0.62610233  0.87170822  0.62665827  1
  Fe  Fe45  1  0.50033380  -0.00216602  0.74970719  1
  Fe  Fe46  1  0.37359702  0.62276202  0.62685440  1
  Fe  Fe47  1  -0.00076994  0.24784691  0.50227822  1
  Fe  Fe48  1  0.62677139  0.37755098  0.37486984  1
  Fe  Fe49  1  0.49527867  -0.00416837  0.25249656  1
  Fe  Fe50  1  0.50246331  0.50321708  0.49852787  1
  Fe  Fe51  1  0.75316123  0.49981448  0.25134729  1
  Fe  Fe52  1  -0.00488547  0.25018195  0.00169729  1
  Fe  Fe53  1  0.00166009  0.50385754  0.50136202  1
  Fe  Fe54  1  0.12298720  0.87526877  0.62411804  1
  Fe  Fe55  1  0.12551071  0.12500641  0.37325873  1
  Fe  Fe56  1  0.49795647  0.75178442  0.75374788  1
  Fe  Fe57  1  0.00049718  -0.00056338  0.24870095  1
  Fe  Fe58  1  0.00143224  0.00120039  0.00240874  1
  Fe  Fe59  1  0.75098439  0.25145115  0.75153794  1
  Fe  Fe60  1  0.49950693  -0.00134774  -0.00076709  1
  Fe  Fe61  1  0.12428571  0.62561170  0.87208056  1
  Fe  Fe62  1  0.37435671  0.62514494  0.37222328  1
  Fe  Fe63  1  0.62579187  0.37771818  0.62376445  1
  Fe  Fe64  1  0.00050453  0.74878623  0.00300048  1
  Fe  Fe65  1  0.25156017  0.00083462  0.49686009  1
  Fe  Fe66  1  0.87621713  0.62581242  0.87538079  1
  Fe  Fe67  1  0.12761612  0.37731076  0.62358335  1
  Fe  Fe68  1  0.75013925  0.25095083  0.49754216  1
  Fe  Fe69  1  0.63117151  0.37141134  0.12401988  1
  Fe  Fe70  1  0.49904453  0.49921938  0.75199459  1
  Fe  Fe71  1  0.75172043  0.49946617  -0.00138346  1
  Fe  Fe72  1  -0.00323855  0.25082862  0.24867155  1
  Fe  Fe73  1  0.25036108  0.74847419  -0.00192276  1
  Fe  Fe74  1  0.62793721  0.62726815  0.12740038  1
  Fe  Fe75  1  0.24813607  0.00163900  0.00092238  1
  Fe  Fe76  1  0.87644520  0.87187648  0.37761620  1
  Fe  Fe77  1  0.12241506  0.87547080  0.87428943  1
  Fe  Fe78  1  -0.00287659  0.49994817  0.24730583  1
  Fe  Fe79  1  0.75084352  0.50258506  0.74898269  1
  Fe  Fe80  1  0.12538473  0.87393435  0.37349240  1
  Fe  Fe81  1  0.24970308  0.25033700  0.49875262  1
  Fe  Fe82  1  0.37273358  0.37812805  0.12122252  1
  Fe  Fe83  1  0.24797791  -0.00049424  0.74986841  1
  Fe  Fe84  1  0.50074856  0.25191578  0.24876694  1
  Fe  Fe85  1  -0.00034810  0.24813383  0.74652377  1
  Fe  Fe86  1  0.74968722  -0.00129750  0.24965677  1
  Fe  Fe87  1  0.74950830  0.00068545  0.00135447  1
  Fe  Fe88  1  0.12352898  0.37695342  0.37484477  1
  Fe  Fe89  1  0.37451109  0.12354973  0.87408920  1
  Co  Co90  1  0.75359591  0.75155143  0.75153295  1
  Co  Co91  1  0.24447403  0.50305234  -0.00079748  1
  Co  Co92  1  0.25162137  0.75040772  0.24941014  1
  Co  Co93  1  0.25226557  0.00041106  0.25233230  1
  Co  Co94  1  0.87014257  0.12546232  0.62503649  1
  Co  Co95  1  0.24972890  0.49792450  0.24913928  1
  Co  Co96  1  0.24973654  0.49812672  0.75283765  1
  Co  Co97  1  0.87314558  0.62585506  0.12404516  1
  Co  Co98  1  0.24814228  0.50311211  0.49837105  1
  Co  Co99  1  0.87139530  0.37350978  0.12469461  1
  Co  Co100  1  0.62224848  0.62534757  0.63036626  1
  Co  Co101  1  0.87656317  0.62565792  0.62529319  1
  Co  Co102  1  0.12473749  0.12679275  0.12633396  1
  Co  Co103  1  0.37222292  0.87489568  0.12280076  1
  Co  Co104  1  0.62344866  0.12432473  0.12716586  1
  Co  Co105  1  0.12582831  0.62506368  0.62991934  1
  Co  Co106  1  0.75137368  0.24857500  0.25398280  1
  Co  Co107  1  -0.00124619  0.75072286  0.24907435  1
  Co  Co108  1  0.62479611  0.87456040  0.87558743  1
  Co  Co109  1  0.50572861  0.50057480  0.00299109  1
  Co  Co110  1  0.87599541  0.37662486  0.87327534  1
  Co  Co111  1  0.62595289  0.62563753  0.36930355  1
  Co  Co112  1  -0.00178210  0.00029356  0.74597267  1
  Co  Co113  1  0.74853878  0.50424254  0.50028719  1
  Co  Co114  1  0.87675185  0.37698819  0.37755940  1
  Co  Co115  1  0.37249671  0.87729611  0.87596941  1
  Co  Co116  1  0.37363927  0.86952016  0.37780261  1
  Co  Co117  1  0.37625621  0.12843326  0.37502865  1
  Co  Co118  1  0.12882782  0.12489540  0.62444430  1
  Co  Co119  1  0.00394846  0.74676817  0.49935947  1
  Co  Co120  1  0.87908511  0.87501545  0.87957499  1
  Co  Co121  1  0.75290327  0.75280117  0.24954187  1
  Co  Co122  1  0.25183676  0.24792695  0.00021164  1
  Co  Co123  1  0.37608607  0.62146108  0.87729607  1
  Co  Co124  1  0.87331021  0.12492268  0.12686949  1
  Co  Co125  1  0.87477248  0.87220710  0.61950301  1
  Co  Co126  1  0.75174247  0.24695123  -0.00314919  1
  Co  Co127  1  0.49783143  0.74989472  0.24820382  1
