# generated using pymatgen
data_Fe45Co19
_symmetry_space_group_name_H-M   'P 1'
_cell_length_a   11.41498492
_cell_length_b   11.41552013
_cell_length_c   11.41536325
_cell_angle_alpha   89.99678858
_cell_angle_beta   89.99571558
_cell_angle_gamma   89.99342670
_symmetry_Int_Tables_number   1
_chemical_formula_structural   Fe45Co19
_chemical_formula_sum   'Fe90 Co38'
_cell_volume   1487.51302399
_cell_formula_units_Z   2
loop_
 _symmetry_equiv_pos_site_id
 _symmetry_equiv_pos_as_xyz
  1  'x, y, z'
loop_
 _atom_site_type_symbol
 _atom_site_label
 _atom_site_symmetry_multiplicity
 _atom_site_fract_x
 _atom_site_fract_y
 _atom_site_fract_z
 _atom_site_occupancy
  Fe  Fe0  1  0.12174433  0.12289168  0.12651518  1
  Fe  Fe1  1  0.25025984  0.24964574  0.49995716  1
  Fe  Fe2  1  0.88364679  0.87485285  0.12098101  1
  Fe  Fe3  1  -0.00196624  0.49919099  0.75132577  1
  Fe  Fe4  1  0.50148558  0.49784036  0.75171260  1
  Fe  Fe5  1  0.25257605  -0.00293400  0.74841772  1
  Fe  Fe6  1  -0.00031037  0.50408315  -0.00014914  1
  Fe  Fe7  1  0.24949167  -0.00268830  0.24700864  1
  Fe  Fe8  1  0.87441865  0.37501301  0.38056680  1
  Fe  Fe9  1  0.62500586  0.62612370  0.87536818  1
  Fe  Fe10  1  0.74969816  0.25234253  0.74463116  1
  Fe  Fe11  1  0.74815450  0.49701270  0.74810198  1
  Fe  Fe12  1  0.12449316  0.37508159  0.87505758  1
  Fe  Fe13  1  0.49745275  -0.00094721  0.74851754  1
  Fe  Fe14  1  0.49719888  0.75274748  0.75525991  1
  Fe  Fe15  1  0.25095071  0.25095062  0.24836718  1
  Fe  Fe16  1  0.12536429  0.37739236  0.12634592  1
  Fe  Fe17  1  0.50031749  0.25147835  0.24904014  1
  Fe  Fe18  1  0.12261987  0.37442489  0.62499567  1
  Fe  Fe19  1  0.37331381  0.62610255  0.12449673  1
  Fe  Fe20  1  0.87937207  0.87108882  0.37677200  1
  Fe  Fe21  1  0.24894559  0.75116050  0.50087082  1
  Fe  Fe22  1  0.50132990  0.50159137  -0.00062496  1
  Fe  Fe23  1  0.12145993  0.87318874  0.37358992  1
  Fe  Fe24  1  0.87611733  0.12399730  0.12443439  1
  Fe  Fe25  1  0.50038837  0.75223090  0.24816062  1
  Fe  Fe26  1  0.00032315  0.24671721  -0.00183542  1
  Fe  Fe27  1  -0.00226178  0.00362120  0.75497661  1
  Fe  Fe28  1  0.62699873  0.37668571  0.12310797  1
  Fe  Fe29  1  0.37358502  0.37671206  0.37328087  1
  Fe  Fe30  1  0.00125874  0.74850285  0.75093884  1
  Fe  Fe31  1  0.50011907  -0.00210919  0.00086509  1
  Fe  Fe32  1  0.25167993  0.25200952  0.74947508  1
  Fe  Fe33  1  0.75308054  0.50130631  0.25108845  1
  Fe  Fe34  1  0.49941420  0.49961250  0.24846198  1
  Fe  Fe35  1  0.00122922  0.00143963  0.49963739  1
  Fe  Fe36  1  0.75001154  0.74954010  0.50047052  1
  Fe  Fe37  1  0.75012780  0.24971564  0.24910007  1
  Fe  Fe38  1  0.50196156  0.24990268  -0.00092179  1
  Fe  Fe39  1  0.50001688  0.75035383  0.49925686  1
  Fe  Fe40  1  0.24889168  0.24964163  0.00158772  1
  Fe  Fe41  1  0.74763625  -0.00099594  0.50094902  1
  Fe  Fe42  1  0.75065759  -0.00090195  0.74990112  1
  Fe  Fe43  1  0.12898843  0.62479498  0.62975656  1
  Fe  Fe44  1  0.24810348  0.74972616  -0.00274556  1
  Fe  Fe45  1  0.62722249  0.37556702  0.37859061  1
  Fe  Fe46  1  0.37270980  0.62772255  0.62979033  1
  Fe  Fe47  1  0.62373802  0.62609476  0.62655361  1
  Fe  Fe48  1  0.87126636  0.37259280  0.87727564  1
  Fe  Fe49  1  -0.00231041  0.24887260  0.74968324  1
  Fe  Fe50  1  0.12542431  0.12546428  0.37391473  1
  Fe  Fe51  1  0.37553418  0.37547434  0.87710172  1
  Fe  Fe52  1  0.62760184  0.12486064  0.87497704  1
  Fe  Fe53  1  0.00048589  0.50305956  0.50093248  1
  Fe  Fe54  1  0.24775303  -0.00013767  0.00199717  1
  Fe  Fe55  1  0.75216637  -0.00282520  0.25105831  1
  Fe  Fe56  1  0.87667696  0.87616397  0.62567823  1
  Fe  Fe57  1  -0.00251895  0.50463722  0.24830044  1
  Fe  Fe58  1  0.37756798  0.87655456  0.37504345  1
  Fe  Fe59  1  0.62322774  0.87331060  0.62555620  1
  Fe  Fe60  1  0.25195623  -0.00081887  0.50255808  1
  Fe  Fe61  1  0.62788186  0.62601268  0.12487245  1
  Fe  Fe62  1  0.12371486  0.87502148  0.62597617  1
  Fe  Fe63  1  0.37251942  0.12373224  0.87484925  1
  Fe  Fe64  1  0.24740494  0.75233267  0.24820511  1
  Fe  Fe65  1  0.74949401  0.75233598  -0.00237271  1
  Fe  Fe66  1  0.87361659  0.37599503  0.12206034  1
  Fe  Fe67  1  0.37704013  0.12155327  0.37419980  1
  Fe  Fe68  1  0.62467064  0.87487927  0.12446686  1
  Fe  Fe69  1  0.87351923  0.62656770  0.87602087  1
  Fe  Fe70  1  0.12459221  0.37628488  0.37384514  1
  Fe  Fe71  1  0.75340916  0.75158014  0.25045863  1
  Fe  Fe72  1  0.87445931  0.12625027  0.37779907  1
  Fe  Fe73  1  0.37426986  0.62538420  0.37331298  1
  Fe  Fe74  1  0.25010445  0.50084378  -0.00105975  1
  Fe  Fe75  1  0.12178098  0.87561101  0.87781938  1
  Fe  Fe76  1  0.37666104  0.12468285  0.12566043  1
  Fe  Fe77  1  0.62669489  0.62588455  0.37402753  1
  Fe  Fe78  1  0.61960662  0.12865019  0.62383064  1
  Fe  Fe79  1  0.62582127  0.12246189  0.12570827  1
  Fe  Fe80  1  0.12514424  0.12516316  0.62693787  1
  Fe  Fe81  1  -0.00137740  0.25016239  0.25079179  1
  Fe  Fe82  1  0.75015456  0.75205300  0.75128627  1
  Fe  Fe83  1  0.50000288  0.50189888  0.50061216  1
  Fe  Fe84  1  0.37937037  0.37198522  0.62488902  1
  Fe  Fe85  1  0.87396096  0.62436053  0.62489294  1
  Fe  Fe86  1  0.12474148  0.62548959  0.37395235  1
  Fe  Fe87  1  0.25102550  0.50022537  0.50213010  1
  Fe  Fe88  1  0.75364906  -0.00167978  -0.00281625  1
  Fe  Fe89  1  0.62351232  0.12251901  0.37477276  1
  Co  Co90  1  0.62055829  0.37284462  0.62244714  1
  Co  Co91  1  0.87839925  0.87175990  0.87522927  1
  Co  Co92  1  0.25095392  0.50042719  0.25038464  1
  Co  Co93  1  0.62822557  0.37348483  0.87641413  1
  Co  Co94  1  0.87556498  0.62729172  0.37776828  1
  Co  Co95  1  0.86883970  0.12991767  0.87371251  1
  Co  Co96  1  0.87630176  0.37632726  0.62061728  1
  Co  Co97  1  0.62385572  0.87463006  0.37506680  1
  Co  Co98  1  0.24952764  0.75477538  0.75426795  1
  Co  Co99  1  0.37625846  0.12818204  0.62513029  1
  Co  Co100  1  0.37583435  0.87063005  0.62453954  1
  Co  Co101  1  0.00165160  0.74798110  0.50488250  1
  Co  Co102  1  0.87672402  0.12254933  0.62423921  1
  Co  Co103  1  0.49966630  0.24982367  0.75641231  1
  Co  Co104  1  0.74901083  0.50188163  -0.00241874  1
  Co  Co105  1  0.62381048  0.87684421  0.87461136  1
  Co  Co106  1  0.74757269  0.50270482  0.50271693  1
  Co  Co107  1  0.00171383  0.24761584  0.50025714  1
  Co  Co108  1  0.12954826  0.62317411  0.12571456  1
  Co  Co109  1  0.37441299  0.37584179  0.12352526  1
  Co  Co110  1  0.00048161  0.74559181  0.24574661  1
  Co  Co111  1  -0.00170262  0.00697968  -0.00667240  1
  Co  Co112  1  0.87053523  0.62618836  0.12164384  1
  Co  Co113  1  0.74974062  0.24796465  0.50360726  1
  Co  Co114  1  0.50041487  0.74879130  -0.00123060  1
  Co  Co115  1  0.49987262  -0.00188549  0.50326954  1
  Co  Co116  1  0.37358471  0.62338898  0.87242732  1
  Co  Co117  1  -0.00105675  0.00081490  0.25316472  1
  Co  Co118  1  0.12976446  0.12617347  0.87205237  1
  Co  Co119  1  0.37419980  0.87296890  0.12313359  1
  Co  Co120  1  0.49789741  0.24998131  0.49385668  1
  Co  Co121  1  0.74817246  0.24807059  0.00352584  1
  Co  Co122  1  0.50042256  -0.00288550  0.24714248  1
  Co  Co123  1  0.37517150  0.87773393  0.87833924  1
  Co  Co124  1  0.11920926  0.87764126  0.12220201  1
  Co  Co125  1  0.00415487  0.74277689  0.00003386  1
  Co  Co126  1  0.12781005  0.62156559  0.87015610  1
  Co  Co127  1  0.25159839  0.49447994  0.74887056  1
