# generated using pymatgen
data_Fe45Co19
_symmetry_space_group_name_H-M   'P 1'
_cell_length_a   11.41513856
_cell_length_b   11.41562953
_cell_length_c   11.41362932
_cell_angle_alpha   89.99023095
_cell_angle_beta   89.99312318
_cell_angle_gamma   90.00213973
_symmetry_Int_Tables_number   1
_chemical_formula_structural   Fe45Co19
_chemical_formula_sum   'Fe90 Co38'
_cell_volume   1487.32133491
_cell_formula_units_Z   2
loop_
 _symmetry_equiv_pos_site_id
 _symmetry_equiv_pos_as_xyz
  1  'x, y, z'
loop_
 _atom_site_type_symbol
 _atom_site_label
 _atom_site_symmetry_multiplicity
 _atom_site_fract_x
 _atom_site_fract_y
 _atom_site_fract_z
 _atom_site_occupancy
  Fe  Fe0  1  0.25061553  0.50192598  0.50083128  1
  Fe  Fe1  1  0.50232491  -0.00175824  0.25249478  1
  Fe  Fe2  1  -0.00068185  0.00570043  0.00029023  1
  Fe  Fe3  1  0.87651759  0.37555047  0.62582263  1
  Fe  Fe4  1  0.87337742  0.62582997  0.12659488  1
  Fe  Fe5  1  0.87501980  0.12650549  0.62910375  1
  Fe  Fe6  1  0.24836342  0.00098041  0.50273426  1
  Fe  Fe7  1  0.37637421  0.87554130  0.12530804  1
  Fe  Fe8  1  0.37946787  0.37042547  0.12391373  1
  Fe  Fe9  1  0.62336385  0.87377439  0.88021199  1
  Fe  Fe10  1  0.25166759  0.49895888  0.00207256  1
  Fe  Fe11  1  0.00336681  0.50102659  0.74852347  1
  Fe  Fe12  1  0.62598551  0.12548956  0.62457626  1
  Fe  Fe13  1  0.00140766  0.49967580  0.24847341  1
  Fe  Fe14  1  0.87602403  0.37250605  0.12318841  1
  Fe  Fe15  1  0.75318056  0.00034392  0.50124307  1
  Fe  Fe16  1  0.62406396  0.12715126  0.12480211  1
  Fe  Fe17  1  -0.00149030  0.24522239  -0.00543713  1
  Fe  Fe18  1  0.62530075  0.37479128  0.37750964  1
  Fe  Fe19  1  0.75192036  0.50222295  0.50027430  1
  Fe  Fe20  1  0.24831236  0.49891691  0.24714844  1
  Fe  Fe21  1  0.75295434  0.74739824  0.50031445  1
  Fe  Fe22  1  0.00263458  0.74842998  0.24877626  1
  Fe  Fe23  1  0.49741844  0.75047298  0.49490476  1
  Fe  Fe24  1  0.62564066  0.62491012  0.37394342  1
  Fe  Fe25  1  0.74757077  0.49954095  0.75106473  1
  Fe  Fe26  1  0.37486326  0.37445134  0.62327809  1
  Fe  Fe27  1  0.62561428  0.37344576  0.62215455  1
  Fe  Fe28  1  0.87641030  0.12466619  0.37094198  1
  Fe  Fe29  1  0.37671828  0.87607868  0.62431497  1
  Fe  Fe30  1  0.50101471  0.50104727  0.00255524  1
  Fe  Fe31  1  -0.00059413  0.24908359  0.49994550  1
  Fe  Fe32  1  0.50099620  0.75034997  0.75254395  1
  Fe  Fe33  1  0.12416384  0.87405302  0.37523884  1
  Fe  Fe34  1  -0.00064466  0.00043041  0.50092616  1
  Fe  Fe35  1  0.87049208  0.62554555  0.87244844  1
  Fe  Fe36  1  0.87789510  0.87451191  0.87338338  1
  Fe  Fe37  1  0.62404256  0.87435390  0.62090308  1
  Fe  Fe38  1  0.24604787  -0.00116994  0.24811169  1
  Fe  Fe39  1  0.49937170  0.24837558  0.49852249  1
  Fe  Fe40  1  0.50006021  0.75332572  0.25290394  1
  Fe  Fe41  1  0.62736432  0.12320928  0.37676187  1
  Fe  Fe42  1  0.50061081  -0.00102837  0.75021099  1
  Fe  Fe43  1  0.12463656  0.12669517  0.62959701  1
  Fe  Fe44  1  0.12769485  0.62368805  0.87602184  1
  Fe  Fe45  1  0.12470102  0.37507450  0.37800007  1
  Fe  Fe46  1  0.25265780  0.74955140  0.49752709  1
  Fe  Fe47  1  0.12347364  0.12536762  0.37262482  1
  Fe  Fe48  1  0.87623993  0.87375449  0.37296851  1
  Fe  Fe49  1  0.37529687  0.62517714  0.62583716  1
  Fe  Fe50  1  0.74832109  0.75375859  0.24544041  1
  Fe  Fe51  1  0.87698761  0.87129223  0.62822353  1
  Fe  Fe52  1  0.24922661  0.75351352  0.75329207  1
  Fe  Fe53  1  0.25084083  0.75177592  -0.00022201  1
  Fe  Fe54  1  0.62476907  0.62630023  0.62386009  1
  Fe  Fe55  1  -0.00269900  0.50257769  -0.00037404  1
  Fe  Fe56  1  0.12741598  0.62512493  0.37333378  1
  Fe  Fe57  1  0.50047097  0.25130256  0.75321477  1
  Fe  Fe58  1  -0.00231531  0.74434105  0.50140957  1
  Fe  Fe59  1  0.37367687  0.12211444  0.37530933  1
  Fe  Fe60  1  0.74939495  0.25158249  0.24998411  1
  Fe  Fe61  1  0.74945701  -0.00454997  0.74928711  1
  Fe  Fe62  1  0.50135766  0.49965686  0.74963307  1
  Fe  Fe63  1  0.37154200  0.12399694  0.87142989  1
  Fe  Fe64  1  0.12264053  0.37267125  0.12122443  1
  Fe  Fe65  1  0.12210822  0.87495915  0.12269810  1
  Fe  Fe66  1  0.37411678  0.12508017  0.62719415  1
  Fe  Fe67  1  0.62854611  0.12300554  0.87512904  1
  Fe  Fe68  1  0.37504276  0.62711266  0.12830021  1
  Fe  Fe69  1  0.87590563  0.37619464  0.37537653  1
  Fe  Fe70  1  0.24638192  0.25570973  0.75214520  1
  Fe  Fe71  1  0.24869998  -0.00051726  -0.00171736  1
  Fe  Fe72  1  0.50269692  0.49869256  0.24868450  1
  Fe  Fe73  1  0.75187944  0.25028815  -0.00080859  1
  Fe  Fe74  1  0.49764624  0.00270013  -0.00144622  1
  Fe  Fe75  1  0.75096960  -0.00368595  0.24629679  1
  Fe  Fe76  1  0.75362811  -0.00266530  0.00409916  1
  Fe  Fe77  1  0.37488846  0.37610471  0.37660578  1
  Fe  Fe78  1  0.75163742  0.25240470  0.75217596  1
  Fe  Fe79  1  0.37578350  0.12682698  0.12653446  1
  Fe  Fe80  1  0.12245892  0.87287569  0.62695047  1
  Fe  Fe81  1  0.62430838  0.37570224  0.87938513  1
  Fe  Fe82  1  0.62727916  0.62733869  0.88030705  1
  Fe  Fe83  1  0.74752695  0.49813068  0.24540592  1
  Fe  Fe84  1  0.24917623  0.25119316  0.25052002  1
  Fe  Fe85  1  -0.00060941  0.74705519  -0.00160371  1
  Fe  Fe86  1  0.37455348  0.62340613  0.87445612  1
  Fe  Fe87  1  -0.00137634  0.50589580  0.50187546  1
  Fe  Fe88  1  0.24815301  0.49687720  0.74960866  1
  Fe  Fe89  1  0.25027319  0.24977030  -0.00254480  1
  Co  Co90  1  0.74614761  0.75293139  0.75163644  1
  Co  Co91  1  0.87151216  0.62450948  0.63139941  1
  Co  Co92  1  0.49897270  0.24655297  -0.00531920  1
  Co  Co93  1  0.00147992  0.00008227  0.24908866  1
  Co  Co94  1  0.74960459  0.49939152  0.00353660  1
  Co  Co95  1  0.49942683  0.00136054  0.49990103  1
  Co  Co96  1  0.88181029  0.87450492  0.12564104  1
  Co  Co97  1  0.12517174  0.12770714  0.12526346  1
  Co  Co98  1  0.12833210  0.12263109  0.87102937  1
  Co  Co99  1  0.12322406  0.37461780  0.62119578  1
  Co  Co100  1  0.49548459  0.74798296  -0.00050060  1
  Co  Co101  1  0.00274580  0.74562787  0.75101830  1
  Co  Co102  1  0.87339754  0.62532264  0.36913913  1
  Co  Co103  1  0.50003522  0.24903497  0.25476888  1
  Co  Co104  1  0.00170560  0.25260923  0.25063536  1
  Co  Co105  1  0.62209420  0.36934792  0.12226903  1
  Co  Co106  1  0.49989782  0.50042006  0.50057660  1
  Co  Co107  1  0.37648005  0.37771959  0.87608715  1
  Co  Co108  1  0.37705691  0.87599496  0.87595122  1
  Co  Co109  1  0.61954523  0.87528474  0.12070322  1
  Co  Co110  1  -0.00003236  0.25088603  0.75337560  1
  Co  Co111  1  0.62928486  0.87587349  0.37839763  1
  Co  Co112  1  0.87515046  0.12743134  0.12862852  1
  Co  Co113  1  0.12945005  0.62692305  0.62532460  1
  Co  Co114  1  0.62485629  0.62926342  0.12378967  1
  Co  Co115  1  0.75400161  0.75341352  0.00276689  1
  Co  Co116  1  0.75270789  0.24913991  0.49921872  1
  Co  Co117  1  0.37436715  0.62226272  0.37147011  1
  Co  Co118  1  0.24873576  0.75156962  0.24801858  1
  Co  Co119  1  0.12022916  0.87693044  0.87583468  1
  Co  Co120  1  0.24960788  0.24726840  0.49903093  1
  Co  Co121  1  -0.00081536  0.00166012  0.74990028  1
  Co  Co122  1  0.87107766  0.12212352  0.87209350  1
  Co  Co123  1  0.12519129  0.62483002  0.12361633  1
  Co  Co124  1  0.12258229  0.37742558  0.87911019  1
  Co  Co125  1  0.37137679  0.87926977  0.37444610  1
  Co  Co126  1  0.24976716  -0.00548856  0.74928458  1
  Co  Co127  1  0.87574675  0.37809742  0.87459276  1
