# generated using pymatgen
data_Fe45Co19
_symmetry_space_group_name_H-M   'P 1'
_cell_length_a   11.41592266
_cell_length_b   11.41522077
_cell_length_c   11.41509250
_cell_angle_alpha   89.99642097
_cell_angle_beta   89.99870866
_cell_angle_gamma   89.98804056
_symmetry_Int_Tables_number   1
_chemical_formula_structural   Fe45Co19
_chemical_formula_sum   'Fe90 Co38'
_cell_volume   1487.56091044
_cell_formula_units_Z   2
loop_
 _symmetry_equiv_pos_site_id
 _symmetry_equiv_pos_as_xyz
  1  'x, y, z'
loop_
 _atom_site_type_symbol
 _atom_site_label
 _atom_site_symmetry_multiplicity
 _atom_site_fract_x
 _atom_site_fract_y
 _atom_site_fract_z
 _atom_site_occupancy
  Fe  Fe0  1  0.62822838  0.37268487  0.62193029  1
  Fe  Fe1  1  0.62948397  0.87409186  0.62334021  1
  Fe  Fe2  1  0.00226066  0.49799849  0.74958336  1
  Fe  Fe3  1  0.87292989  0.87382984  0.12347663  1
  Fe  Fe4  1  0.62542655  0.87225785  0.12357344  1
  Fe  Fe5  1  0.25052772  0.50380841  -0.00252498  1
  Fe  Fe6  1  0.87766004  0.62322016  0.37503361  1
  Fe  Fe7  1  0.62371503  0.12845624  0.12526100  1
  Fe  Fe8  1  0.87240848  0.87540343  0.37826130  1
  Fe  Fe9  1  0.87465976  0.87495906  0.87647906  1
  Fe  Fe10  1  -0.00252199  0.25073877  0.49717233  1
  Fe  Fe11  1  0.00178341  0.49839686  0.50121292  1
  Fe  Fe12  1  0.74803777  0.74864776  0.75336788  1
  Fe  Fe13  1  0.62010754  0.12523937  0.87650704  1
  Fe  Fe14  1  0.13156715  0.37244632  0.12456925  1
  Fe  Fe15  1  0.75242753  0.24752892  0.49553999  1
  Fe  Fe16  1  0.12682980  0.87461936  0.37460080  1
  Fe  Fe17  1  0.13101318  0.87153275  0.12475343  1
  Fe  Fe18  1  0.74713313  0.74486542  -0.00301098  1
  Fe  Fe19  1  0.12868102  0.62344509  0.62356079  1
  Fe  Fe20  1  0.37557379  0.87829495  0.37432311  1
  Fe  Fe21  1  0.12997452  0.37355766  0.62399469  1
  Fe  Fe22  1  0.37387689  0.12586297  0.12565052  1
  Fe  Fe23  1  0.12416704  0.37381260  0.37363323  1
  Fe  Fe24  1  0.25300309  0.24906516  0.75619580  1
  Fe  Fe25  1  0.00036120  0.75227154  0.50294508  1
  Fe  Fe26  1  0.87306545  0.37523615  0.62435773  1
  Fe  Fe27  1  0.38355739  0.61922923  0.86865127  1
  Fe  Fe28  1  0.87427347  0.12524535  0.62526822  1
  Fe  Fe29  1  0.12514529  0.12667343  0.62564549  1
  Fe  Fe30  1  0.49696017  0.49826856  0.50505973  1
  Fe  Fe31  1  0.62427612  0.12762888  0.62643358  1
  Fe  Fe32  1  0.00311087  0.74971520  0.00068719  1
  Fe  Fe33  1  0.74971532  0.00077536  0.75119016  1
  Fe  Fe34  1  0.49466234  0.25532061  0.00224500  1
  Fe  Fe35  1  0.87885132  0.12458062  0.87447726  1
  Fe  Fe36  1  0.49878280  0.25625332  0.75119516  1
  Fe  Fe37  1  0.12562429  0.12953515  0.12748617  1
  Fe  Fe38  1  0.49854978  0.25056490  0.49855311  1
  Fe  Fe39  1  0.74938360  0.49875368  0.75192217  1
  Fe  Fe40  1  0.00037067  -0.00377643  0.74721181  1
  Fe  Fe41  1  0.62149756  0.62536629  0.62886557  1
  Fe  Fe42  1  0.00063258  0.25170707  -0.00009090  1
  Fe  Fe43  1  0.87108965  0.37587392  0.11985601  1
  Fe  Fe44  1  0.37256945  0.87408683  0.62569012  1
  Fe  Fe45  1  0.25094028  0.24679483  0.49427481  1
  Fe  Fe46  1  0.74784592  0.00111720  0.25006733  1
  Fe  Fe47  1  -0.00107224  0.25343148  0.75136151  1
  Fe  Fe48  1  0.87846390  0.62057818  0.87710562  1
  Fe  Fe49  1  0.49967778  -0.00413921  0.75083349  1
  Fe  Fe50  1  0.74947467  0.00316238  0.00062122  1
  Fe  Fe51  1  0.25066251  0.00352768  0.75246871  1
  Fe  Fe52  1  0.00219349  0.75031315  0.24906659  1
  Fe  Fe53  1  0.12673222  0.37586087  0.87616995  1
  Fe  Fe54  1  0.12713944  0.87482586  0.87434260  1
  Fe  Fe55  1  0.37728262  0.62331191  0.37486730  1
  Fe  Fe56  1  0.25125175  0.74758585  0.49753613  1
  Fe  Fe57  1  0.62546580  0.37564211  0.37423293  1
  Fe  Fe58  1  0.00090305  0.75144369  0.74825783  1
  Fe  Fe59  1  0.37463256  0.37670851  0.37417658  1
  Fe  Fe60  1  0.50111897  0.49663087  0.24360887  1
  Fe  Fe61  1  0.87666983  0.12603396  0.12566706  1
  Fe  Fe62  1  0.75363387  0.24983437  0.25304873  1
  Fe  Fe63  1  0.87481982  0.62524681  0.62530281  1
  Fe  Fe64  1  0.75038090  0.74859788  0.25184458  1
  Fe  Fe65  1  0.50220627  0.00198329  0.50081355  1
  Fe  Fe66  1  0.25002908  0.00435346  -0.00267507  1
  Fe  Fe67  1  0.25096360  0.74666490  0.75160693  1
  Fe  Fe68  1  0.37454176  0.62667031  0.12725353  1
  Fe  Fe69  1  0.00041448  -0.00252202  0.50347184  1
  Fe  Fe70  1  0.49978298  0.75045547  -0.00338002  1
  Fe  Fe71  1  0.24784805  0.50413491  0.25316630  1
  Fe  Fe72  1  0.49925592  0.74914524  0.50226490  1
  Fe  Fe73  1  0.62380407  0.37964392  0.88115340  1
  Fe  Fe74  1  0.49777336  -0.00334718  0.00165296  1
  Fe  Fe75  1  0.00208078  0.49840827  0.24628930  1
  Fe  Fe76  1  0.74886816  0.50310830  0.49988147  1
  Fe  Fe77  1  0.62169900  0.62351449  0.37297055  1
  Fe  Fe78  1  0.37678896  0.12771772  0.62674465  1
  Fe  Fe79  1  0.74774048  0.50126092  0.24633734  1
  Fe  Fe80  1  0.62504115  0.87581313  0.37587173  1
  Fe  Fe81  1  0.00098252  -0.00199037  0.24834501  1
  Fe  Fe82  1  0.87720524  0.62477375  0.12348870  1
  Fe  Fe83  1  0.25113043  0.00200694  0.25025910  1
  Fe  Fe84  1  0.24928453  0.00317690  0.49965091  1
  Fe  Fe85  1  0.00264420  -0.00115007  0.00153691  1
  Fe  Fe86  1  0.74998637  0.25174152  0.75537904  1
  Fe  Fe87  1  0.49640234  0.25197101  0.24920363  1
  Fe  Fe88  1  0.25159573  0.74573218  -0.00311598  1
  Fe  Fe89  1  0.49719744  0.75408033  0.24979386  1
  Co  Co90  1  0.87451038  0.37901320  0.87897612  1
  Co  Co91  1  0.74761589  0.00500155  0.49913581  1
  Co  Co92  1  0.11998385  0.12523231  0.87362235  1
  Co  Co93  1  0.12201701  0.62432553  0.87358256  1
  Co  Co94  1  0.87421681  0.38069983  0.37530826  1
  Co  Co95  1  0.11989879  0.12458122  0.37363593  1
  Co  Co96  1  0.62227048  0.12708954  0.37209222  1
  Co  Co97  1  0.38133896  0.12439717  0.87466726  1
  Co  Co98  1  0.74463193  0.50654459  0.00258713  1
  Co  Co99  1  0.37540353  0.62555340  0.62813465  1
  Co  Co100  1  0.25228588  0.24684234  0.25480955  1
  Co  Co101  1  0.74783872  0.74453783  0.49846303  1
  Co  Co102  1  0.37121324  0.87367812  0.12367871  1
  Co  Co103  1  0.36798732  0.37123342  0.62310997  1
  Co  Co104  1  0.50051391  -0.00130078  0.24621629  1
  Co  Co105  1  0.50100826  0.49992607  0.00926522  1
  Co  Co106  1  0.37866195  0.12177569  0.37415038  1
  Co  Co107  1  0.25212887  0.24692883  -0.00542490  1
  Co  Co108  1  0.12646018  0.62631281  0.12571016  1
  Co  Co109  1  0.36598280  0.37603381  0.12582374  1
  Co  Co110  1  0.13074128  0.87407949  0.62668860  1
  Co  Co111  1  0.75164268  0.24627570  -0.00435635  1
  Co  Co112  1  0.25033891  0.49914074  0.75005531  1
  Co  Co113  1  0.12102759  0.62583834  0.37658876  1
  Co  Co114  1  0.00441348  0.49785900  0.00272010  1
  Co  Co115  1  0.61722720  0.61866110  0.87073832  1
  Co  Co116  1  0.86834012  0.87345847  0.62397799  1
  Co  Co117  1  -0.00329585  0.25404914  0.24884846  1
  Co  Co118  1  0.50148880  0.75664897  0.75062474  1
  Co  Co119  1  0.62961987  0.36932452  0.12357427  1
  Co  Co120  1  0.62211022  0.63081493  0.12764176  1
  Co  Co121  1  0.62748212  0.87739993  0.87782970  1
  Co  Co122  1  0.25115620  0.50087220  0.49765630  1
  Co  Co123  1  0.37112345  0.87550281  0.87491805  1
  Co  Co124  1  0.25088549  0.74794890  0.25384238  1
  Co  Co125  1  0.87911534  0.12084822  0.37406324  1
  Co  Co126  1  0.49912988  0.49028321  0.74174975  1
  Co  Co127  1  0.37656678  0.38065828  0.87834035  1
