# generated using pymatgen
data_Fe45Co19
_symmetry_space_group_name_H-M   'P 1'
_cell_length_a   11.41488160
_cell_length_b   11.41494028
_cell_length_c   11.41416766
_cell_angle_alpha   90.00036434
_cell_angle_beta   90.00403000
_cell_angle_gamma   90.00284661
_symmetry_Int_Tables_number   1
_chemical_formula_structural   Fe45Co19
_chemical_formula_sum   'Fe90 Co38'
_cell_volume   1487.26822931
_cell_formula_units_Z   2
loop_
 _symmetry_equiv_pos_site_id
 _symmetry_equiv_pos_as_xyz
  1  'x, y, z'
loop_
 _atom_site_type_symbol
 _atom_site_label
 _atom_site_symmetry_multiplicity
 _atom_site_fract_x
 _atom_site_fract_y
 _atom_site_fract_z
 _atom_site_occupancy
  Fe  Fe0  1  0.49950377  0.50138314  0.25148883  1
  Fe  Fe1  1  0.00256709  -0.00136181  0.74648571  1
  Fe  Fe2  1  0.12483404  0.37341852  0.12646132  1
  Fe  Fe3  1  0.74976247  0.25148023  0.25023180  1
  Fe  Fe4  1  0.62745214  0.37989538  0.37628393  1
  Fe  Fe5  1  0.24959690  0.74887654  0.74827879  1
  Fe  Fe6  1  0.62276106  0.87326043  0.62360771  1
  Fe  Fe7  1  0.49927638  0.50221250  0.00140036  1
  Fe  Fe8  1  -0.00030021  0.24953930  -0.00101681  1
  Fe  Fe9  1  0.49631835  0.25151791  0.49917263  1
  Fe  Fe10  1  0.62509989  0.12451504  0.37653301  1
  Fe  Fe11  1  -0.00352769  0.74971445  0.25177839  1
  Fe  Fe12  1  0.37096735  0.62406547  0.37209406  1
  Fe  Fe13  1  0.37665410  0.87675815  0.37165597  1
  Fe  Fe14  1  0.62553466  0.12437909  0.87484346  1
  Fe  Fe15  1  0.74885565  -0.00148668  0.00188872  1
  Fe  Fe16  1  0.37578574  0.12345160  0.62615978  1
  Fe  Fe17  1  0.74966243  0.50216240  0.00362792  1
  Fe  Fe18  1  0.12691408  0.87481453  0.87325563  1
  Fe  Fe19  1  0.37368530  0.37754973  0.87319180  1
  Fe  Fe20  1  0.12712825  0.37555170  0.62186157  1
  Fe  Fe21  1  0.74903495  0.25081966  0.50105308  1
  Fe  Fe22  1  0.74982520  -0.00048507  0.50111584  1
  Fe  Fe23  1  0.25154877  0.24837306  0.25020399  1
  Fe  Fe24  1  0.62309927  0.37528922  0.12494812  1
  Fe  Fe25  1  0.75246478  0.74895825  0.00581558  1
  Fe  Fe26  1  0.12171365  0.87498889  0.12706122  1
  Fe  Fe27  1  0.87419029  0.12527519  0.12489483  1
  Fe  Fe28  1  0.12814657  0.37622438  0.87512186  1
  Fe  Fe29  1  0.50097454  0.74933840  0.75133610  1
  Fe  Fe30  1  0.74917332  -0.00039859  0.25001686  1
  Fe  Fe31  1  -0.00131182  0.49894259  0.25211042  1
  Fe  Fe32  1  0.87593366  0.12575722  0.62378641  1
  Fe  Fe33  1  0.62463144  0.12753338  0.12551884  1
  Fe  Fe34  1  0.12199703  0.62570287  0.62181267  1
  Fe  Fe35  1  -0.00043194  0.24737464  0.25223033  1
  Fe  Fe36  1  0.37573963  0.87387144  0.62521157  1
  Fe  Fe37  1  0.00119120  0.24710557  0.49725606  1
  Fe  Fe38  1  0.37468464  0.87607913  0.87296326  1
  Fe  Fe39  1  0.50085671  0.24942185  0.74937570  1
  Fe  Fe40  1  0.37081986  0.37733666  0.37511032  1
  Fe  Fe41  1  0.86882172  0.62338231  0.37791040  1
  Fe  Fe42  1  0.37562413  0.12164673  0.87301834  1
  Fe  Fe43  1  0.74833714  0.24934615  0.74843556  1
  Fe  Fe44  1  0.74751495  -0.00027405  0.74694675  1
  Fe  Fe45  1  0.25154937  0.25006099  0.00130345  1
  Fe  Fe46  1  0.12577278  0.12499436  0.87338899  1
  Fe  Fe47  1  0.00075144  0.49996108  0.75052950  1
  Fe  Fe48  1  0.87268027  0.87492375  0.37742238  1
  Fe  Fe49  1  -0.00138424  0.00373811  0.25344272  1
  Fe  Fe50  1  0.74977934  0.50434945  0.74577960  1
  Fe  Fe51  1  0.37738978  0.62371409  0.62343587  1
  Fe  Fe52  1  0.24967926  0.75021311  0.49797427  1
  Fe  Fe53  1  0.87377407  0.12417977  0.87432603  1
  Fe  Fe54  1  0.12693631  0.62349259  0.37425131  1
  Fe  Fe55  1  0.87623752  0.62517170  0.87806706  1
  Fe  Fe56  1  0.25074041  0.49918583  0.00425022  1
  Fe  Fe57  1  0.37346511  0.62478958  0.87520426  1
  Fe  Fe58  1  0.12149666  0.62614917  0.12549461  1
  Fe  Fe59  1  0.50384526  0.74704374  0.49258898  1
  Fe  Fe60  1  0.00070887  0.74984770  0.75147858  1
  Fe  Fe61  1  0.49927535  0.25127110  -0.00135563  1
  Fe  Fe62  1  0.87619671  0.37414784  0.12358175  1
  Fe  Fe63  1  0.50030646  -0.00233067  0.00144176  1
  Fe  Fe64  1  0.37372660  0.62848963  0.12945868  1
  Fe  Fe65  1  0.12867483  0.37413363  0.37621656  1
  Fe  Fe66  1  0.87241640  0.37636852  0.87561100  1
  Fe  Fe67  1  0.24930598  0.75221336  0.00264859  1
  Fe  Fe68  1  0.62653755  0.37708524  0.87552822  1
  Fe  Fe69  1  0.50081153  0.00037577  0.49910697  1
  Fe  Fe70  1  0.87741954  0.37620174  0.62329489  1
  Fe  Fe71  1  0.87349449  0.87425049  0.87480400  1
  Fe  Fe72  1  0.00050161  -0.00052052  -0.00063855  1
  Fe  Fe73  1  0.87874664  0.87164060  0.62148057  1
  Fe  Fe74  1  0.49865507  0.24963954  0.25305441  1
  Fe  Fe75  1  0.87254239  0.37607151  0.37711120  1
  Fe  Fe76  1  0.12461469  0.62421493  0.87803244  1
  Fe  Fe77  1  0.25056768  -0.00159797  0.00216401  1
  Fe  Fe78  1  0.74955934  0.74614979  0.74526877  1
  Fe  Fe79  1  0.50102629  0.50227079  0.75145081  1
  Fe  Fe80  1  0.49944815  0.74898736  0.00089100  1
  Fe  Fe81  1  0.62149915  0.37729271  0.62341436  1
  Fe  Fe82  1  0.25083445  -0.00057315  0.24862716  1
  Fe  Fe83  1  0.25118027  0.25023343  0.74761210  1
  Fe  Fe84  1  0.00006237  0.25169756  0.75086226  1
  Fe  Fe85  1  0.62599284  0.87153497  0.87454260  1
  Fe  Fe86  1  0.62220861  0.87125194  0.13018563  1
  Fe  Fe87  1  0.12299132  0.87659062  0.37669259  1
  Fe  Fe88  1  0.37589505  0.12494134  0.12596913  1
  Fe  Fe89  1  0.24731070  0.00073108  0.50280398  1
  Co  Co90  1  0.50298065  -0.00119257  0.74998992  1
  Co  Co91  1  0.75303844  0.49807894  0.24513572  1
  Co  Co92  1  0.75210296  0.75053582  0.24929798  1
  Co  Co93  1  0.00022285  0.74808859  0.49441973  1
  Co  Co94  1  0.00066610  0.49930487  0.49643652  1
  Co  Co95  1  0.24863363  0.49932231  0.24748631  1
  Co  Co96  1  0.75024956  0.25003879  -0.00028394  1
  Co  Co97  1  0.37663646  0.37457042  0.12717525  1
  Co  Co98  1  0.62707981  0.62687275  0.87666269  1
  Co  Co99  1  0.12307559  0.87052545  0.62210005  1
  Co  Co100  1  0.62357632  0.12561767  0.62174309  1
  Co  Co101  1  0.74625819  0.74897877  0.50171646  1
  Co  Co102  1  0.49757313  0.50103038  0.49486038  1
  Co  Co103  1  0.12864564  0.12557911  0.37500725  1
  Co  Co104  1  0.25038056  0.50208437  0.50128467  1
  Co  Co105  1  0.62368311  0.62551642  0.12905988  1
  Co  Co106  1  0.63265834  0.61986418  0.37289079  1
  Co  Co107  1  0.88036929  0.62664393  0.62199540  1
  Co  Co108  1  0.50257220  0.74682971  0.25680657  1
  Co  Co109  1  0.75057900  0.50064592  0.50648035  1
  Co  Co110  1  0.00088665  0.00301966  0.50008173  1
  Co  Co111  1  0.87741761  0.87757350  0.12704120  1
  Co  Co112  1  0.61953138  0.62388759  0.62233889  1
  Co  Co113  1  0.00116573  0.49620189  -0.00044450  1
  Co  Co114  1  0.12428320  0.12809087  0.62488983  1
  Co  Co115  1  0.62597578  0.87711226  0.37318129  1
  Co  Co116  1  0.12508021  0.12511678  0.12596098  1
  Co  Co117  1  0.24806130  -0.00151134  0.74655481  1
  Co  Co118  1  0.87151004  0.12563043  0.37609204  1
  Co  Co119  1  0.37543202  0.37834537  0.62640151  1
  Co  Co120  1  0.37381860  0.12174771  0.37492340  1
  Co  Co121  1  0.25379293  0.24935921  0.50114321  1
  Co  Co122  1  0.24835990  0.50310971  0.74746587  1
  Co  Co123  1  0.24695989  0.75308227  0.25117147  1
  Co  Co124  1  0.87998972  0.62408834  0.12384651  1
  Co  Co125  1  -0.00021366  0.75427934  -0.00027234  1
  Co  Co126  1  0.37753710  0.87187833  0.12906644  1
  Co  Co127  1  0.50109409  0.00216659  0.24895482  1
