# generated using pymatgen
data_Fe45Co19
_symmetry_space_group_name_H-M   'P 1'
_cell_length_a   11.41581851
_cell_length_b   11.41480653
_cell_length_c   11.41528089
_cell_angle_alpha   89.99566332
_cell_angle_beta   90.01311539
_cell_angle_gamma   90.00363679
_symmetry_Int_Tables_number   1
_chemical_formula_structural   Fe45Co19
_chemical_formula_sum   'Fe90 Co38'
_cell_volume   1487.51789711
_cell_formula_units_Z   2
loop_
 _symmetry_equiv_pos_site_id
 _symmetry_equiv_pos_as_xyz
  1  'x, y, z'
loop_
 _atom_site_type_symbol
 _atom_site_label
 _atom_site_symmetry_multiplicity
 _atom_site_fract_x
 _atom_site_fract_y
 _atom_site_fract_z
 _atom_site_occupancy
  Fe  Fe0  1  0.49862912  0.50194485  0.74952619  1
  Fe  Fe1  1  0.87544739  0.37610818  0.12625499  1
  Fe  Fe2  1  0.87548275  0.12493035  0.12169887  1
  Fe  Fe3  1  0.12461114  0.12334328  0.12747455  1
  Fe  Fe4  1  0.50446366  -0.00207297  0.49830308  1
  Fe  Fe5  1  0.75108223  0.00130790  0.74902973  1
  Fe  Fe6  1  0.12285086  0.62619703  0.12345213  1
  Fe  Fe7  1  0.25122309  0.50108171  0.74748751  1
  Fe  Fe8  1  0.37275505  0.62705736  0.87688804  1
  Fe  Fe9  1  0.87470408  0.87571949  0.37420639  1
  Fe  Fe10  1  0.62193938  0.12446588  0.12642925  1
  Fe  Fe11  1  0.37523026  0.37655339  0.12608404  1
  Fe  Fe12  1  0.49983863  -0.00564640  -0.00272425  1
  Fe  Fe13  1  0.74867404  0.49997763  0.50142955  1
  Fe  Fe14  1  0.25054610  0.75254563  0.00223948  1
  Fe  Fe15  1  0.00050579  -0.00188437  -0.00220215  1
  Fe  Fe16  1  0.87863857  0.87542558  0.62485486  1
  Fe  Fe17  1  0.87557332  0.62434042  0.37818673  1
  Fe  Fe18  1  0.62782086  0.37404900  0.37116747  1
  Fe  Fe19  1  0.12506872  0.12505427  0.87384846  1
  Fe  Fe20  1  0.74926134  0.50108915  0.00180558  1
  Fe  Fe21  1  0.74929652  0.75119805  0.50230140  1
  Fe  Fe22  1  0.49912077  0.25041229  0.00103415  1
  Fe  Fe23  1  0.49876972  -0.00292024  0.75162380  1
  Fe  Fe24  1  0.12112724  0.12820652  0.62303682  1
  Fe  Fe25  1  0.25273722  0.50363375  0.24965785  1
  Fe  Fe26  1  0.37526241  0.87351228  0.37885895  1
  Fe  Fe27  1  0.74804503  -0.00047016  0.50103175  1
  Fe  Fe28  1  0.49618717  0.74886453  0.25270728  1
  Fe  Fe29  1  0.87147638  0.37484765  0.37343782  1
  Fe  Fe30  1  0.62526396  0.37512140  0.87292873  1
  Fe  Fe31  1  0.75067147  0.24750060  0.74918653  1
  Fe  Fe32  1  0.25046560  0.24953406  -0.00004470  1
  Fe  Fe33  1  0.87218822  0.87502346  0.87513932  1
  Fe  Fe34  1  0.62141430  0.62650205  0.12462887  1
  Fe  Fe35  1  0.74866958  0.25132937  0.00043839  1
  Fe  Fe36  1  0.12462892  0.62709038  0.62355287  1
  Fe  Fe37  1  0.74815159  -0.00273509  0.00137229  1
  Fe  Fe38  1  0.87825804  0.12502366  0.62295089  1
  Fe  Fe39  1  0.62480749  0.37416108  0.62665181  1
  Fe  Fe40  1  0.25166538  0.74943533  0.25074038  1
  Fe  Fe41  1  0.50026846  0.25067082  0.49984854  1
  Fe  Fe42  1  0.37512223  0.37655400  0.37541305  1
  Fe  Fe43  1  0.12631100  0.62382006  0.37685525  1
  Fe  Fe44  1  -0.00091819  0.24725731  0.25212713  1
  Fe  Fe45  1  0.62561810  0.12356969  0.87503552  1
  Fe  Fe46  1  -0.00018923  0.50156243  0.25078898  1
  Fe  Fe47  1  0.37405219  0.37475789  0.87355424  1
  Fe  Fe48  1  0.25110189  0.49857622  0.50199584  1
  Fe  Fe49  1  0.37566292  0.62929504  0.61913849  1
  Fe  Fe50  1  0.62487694  0.37607707  0.12996472  1
  Fe  Fe51  1  0.62508938  0.87524550  0.62696615  1
  Fe  Fe52  1  0.37584262  0.12400301  0.62259606  1
  Fe  Fe53  1  0.62678384  0.12731390  0.37398432  1
  Fe  Fe54  1  0.12407604  0.37485321  0.12625424  1
  Fe  Fe55  1  0.75259739  0.74766446  0.24872442  1
  Fe  Fe56  1  0.87957983  0.62603680  0.12233588  1
  Fe  Fe57  1  0.62262050  0.87224807  0.12640562  1
  Fe  Fe58  1  0.87467108  0.37618171  0.62718924  1
  Fe  Fe59  1  0.12664209  0.37325236  0.37476737  1
  Fe  Fe60  1  0.25146083  0.24698857  0.25167469  1
  Fe  Fe61  1  0.12132454  0.87496291  0.12844823  1
  Fe  Fe62  1  0.37654761  0.12076192  0.12700823  1
  Fe  Fe63  1  0.00165761  0.75184665  0.49845116  1
  Fe  Fe64  1  0.00043326  0.25063537  -0.00244089  1
  Fe  Fe65  1  0.49767020  0.24870136  0.74944632  1
  Fe  Fe66  1  0.62584811  0.62526293  0.37402005  1
  Fe  Fe67  1  0.87367888  0.62333334  0.87521037  1
  Fe  Fe68  1  0.12646068  0.37086759  0.62685715  1
  Fe  Fe69  1  0.50115629  0.50048590  0.49949298  1
  Fe  Fe70  1  0.12166697  0.87795748  0.37075475  1
  Fe  Fe71  1  0.87553291  0.37761209  0.87308253  1
  Fe  Fe72  1  0.25212640  0.75214954  0.74564398  1
  Fe  Fe73  1  0.24454336  -0.00276211  0.50161070  1
  Fe  Fe74  1  0.62742508  0.62931940  0.87450868  1
  Fe  Fe75  1  0.24816730  0.49981554  0.00002688  1
  Fe  Fe76  1  0.00065269  0.49739704  0.50204072  1
  Fe  Fe77  1  0.12494862  0.37552012  0.87143897  1
  Fe  Fe78  1  0.49997510  0.50098655  -0.00084353  1
  Fe  Fe79  1  -0.00153573  0.74672833  0.75205822  1
  Fe  Fe80  1  0.87841501  0.87266213  0.12584747  1
  Fe  Fe81  1  0.24933807  -0.00048102  0.74546766  1
  Fe  Fe82  1  0.87531006  0.12469983  0.37838931  1
  Fe  Fe83  1  0.37427532  0.12204406  0.37537555  1
  Fe  Fe84  1  0.62655855  0.62689945  0.62689355  1
  Fe  Fe85  1  0.24937863  -0.00232999  0.00236408  1
  Fe  Fe86  1  0.12631662  0.87467077  0.87186470  1
  Fe  Fe87  1  0.37357077  0.12309639  0.87569340  1
  Fe  Fe88  1  0.49803597  0.75355798  0.75122626  1
  Fe  Fe89  1  0.74967212  0.00040574  0.24911960  1
  Co  Co90  1  0.00181035  0.50005693  -0.00177308  1
  Co  Co91  1  0.25070985  -0.00170489  0.25130754  1
  Co  Co92  1  0.49828361  0.75318902  -0.00395766  1
  Co  Co93  1  0.50590356  0.75069663  0.49980024  1
  Co  Co94  1  0.12900853  0.62607593  0.87444722  1
  Co  Co95  1  -0.00108839  0.25356923  0.49849697  1
  Co  Co96  1  0.49766041  0.50218904  0.25224671  1
  Co  Co97  1  -0.00102750  0.00189315  0.75276750  1
  Co  Co98  1  0.00002887  0.74724362  0.25347115  1
  Co  Co99  1  0.74935798  0.25016334  0.50264796  1
  Co  Co100  1  0.74932569  0.50162668  0.74916597  1
  Co  Co101  1  0.50165668  -0.00261269  0.25418332  1
  Co  Co102  1  0.25203593  0.24738517  0.74953789  1
  Co  Co103  1  0.25179597  0.24875980  0.49915849  1
  Co  Co104  1  0.37554289  0.62530648  0.12188545  1
  Co  Co105  1  0.62843831  0.87241049  0.37292163  1
  Co  Co106  1  0.37736623  0.87621289  0.12639909  1
  Co  Co107  1  0.24400316  0.75595773  0.49920705  1
  Co  Co108  1  -0.00311655  0.00378965  0.25007359  1
  Co  Co109  1  0.75301803  0.75031019  0.74710939  1
  Co  Co110  1  0.00237593  0.50271624  0.74823506  1
  Co  Co111  1  0.49794828  0.24977661  0.25095225  1
  Co  Co112  1  0.00140040  0.75115199  -0.00517108  1
  Co  Co113  1  0.11918423  0.87365872  0.62948529  1
  Co  Co114  1  0.37324096  0.62713937  0.38135002  1
  Co  Co115  1  0.37557844  0.37443671  0.62515520  1
  Co  Co116  1  0.12413253  0.12506859  0.37627398  1
  Co  Co117  1  0.62958688  0.87363926  0.87326626  1
  Co  Co118  1  0.37755030  0.87507085  0.61965091  1
  Co  Co119  1  0.00275682  -0.00239534  0.49913137  1
  Co  Co120  1  0.36977277  0.87600877  0.87441763  1
  Co  Co121  1  0.75123557  0.24616399  0.24827078  1
  Co  Co122  1  0.87211174  0.12408127  0.87813061  1
  Co  Co123  1  0.87606764  0.62467941  0.62212369  1
  Co  Co124  1  0.75077174  0.74921466  0.00214021  1
  Co  Co125  1  0.75173528  0.50492394  0.24831379  1
  Co  Co126  1  -0.00220423  0.24835058  0.75181023  1
  Co  Co127  1  0.62306680  0.12420226  0.62601488  1
