# generated using pymatgen
data_Fe45Co19
_symmetry_space_group_name_H-M   'P 1'
_cell_length_a   11.41558150
_cell_length_b   11.41576911
_cell_length_c   11.41634223
_cell_angle_alpha   90.00637933
_cell_angle_beta   89.99636525
_cell_angle_gamma   90.00792084
_symmetry_Int_Tables_number   1
_chemical_formula_structural   Fe45Co19
_chemical_formula_sum   'Fe90 Co38'
_cell_volume   1487.75078077
_cell_formula_units_Z   2
loop_
 _symmetry_equiv_pos_site_id
 _symmetry_equiv_pos_as_xyz
  1  'x, y, z'
loop_
 _atom_site_type_symbol
 _atom_site_label
 _atom_site_symmetry_multiplicity
 _atom_site_fract_x
 _atom_site_fract_y
 _atom_site_fract_z
 _atom_site_occupancy
  Fe  Fe0  1  0.75167407  0.50227772  -0.00498692  1
  Fe  Fe1  1  0.87151255  0.86954461  0.87342378  1
  Fe  Fe2  1  0.24946433  0.74843211  0.74957120  1
  Fe  Fe3  1  0.37563179  0.87445579  0.12708102  1
  Fe  Fe4  1  0.87224992  0.87162165  0.37143270  1
  Fe  Fe5  1  0.62305299  0.87099133  0.37606989  1
  Fe  Fe6  1  0.37690395  0.37253797  0.37228164  1
  Fe  Fe7  1  0.50198215  -0.00103345  0.75100272  1
  Fe  Fe8  1  0.37556737  0.12738896  0.87266692  1
  Fe  Fe9  1  0.24806518  0.50407971  0.25251333  1
  Fe  Fe10  1  0.75270857  -0.00073150  -0.00142510  1
  Fe  Fe11  1  0.87482412  0.62336802  0.12668035  1
  Fe  Fe12  1  0.75031392  0.74630937  0.50242369  1
  Fe  Fe13  1  0.75225733  0.24984427  0.00178362  1
  Fe  Fe14  1  0.25247126  0.74885375  0.50142667  1
  Fe  Fe15  1  0.62272730  0.12876614  0.37861188  1
  Fe  Fe16  1  0.87264278  0.37757294  0.12823397  1
  Fe  Fe17  1  0.75028354  0.50573497  0.75464933  1
  Fe  Fe18  1  -0.00216805  0.75091318  0.50176395  1
  Fe  Fe19  1  -0.00119844  -0.00455077  0.49824074  1
  Fe  Fe20  1  0.00060963  0.25073685  0.24695139  1
  Fe  Fe21  1  0.87413682  0.87890523  0.12957823  1
  Fe  Fe22  1  0.87622187  0.12537904  0.37285411  1
  Fe  Fe23  1  -0.00188993  0.75232079  0.00359088  1
  Fe  Fe24  1  0.25132929  -0.00025553  0.49926622  1
  Fe  Fe25  1  0.12086504  0.12059633  0.12237394  1
  Fe  Fe26  1  -0.00776940  0.50089971  0.49610187  1
  Fe  Fe27  1  0.63132876  0.37653471  0.62224325  1
  Fe  Fe28  1  0.87858649  0.12720197  0.87502896  1
  Fe  Fe29  1  -0.00025276  -0.00371015  0.75036009  1
  Fe  Fe30  1  0.37785470  0.12570107  0.12690796  1
  Fe  Fe31  1  0.37477728  0.37620414  0.62762312  1
  Fe  Fe32  1  0.37597850  0.62217137  0.12403476  1
  Fe  Fe33  1  0.12370285  0.37538219  0.37588978  1
  Fe  Fe34  1  0.24924991  0.25007516  0.24809089  1
  Fe  Fe35  1  0.50347909  0.50081994  0.25268461  1
  Fe  Fe36  1  0.75230837  0.24714523  0.74603256  1
  Fe  Fe37  1  0.62527324  0.12718962  0.87568986  1
  Fe  Fe38  1  0.50323380  -0.00090966  0.25140815  1
  Fe  Fe39  1  0.12802916  0.87168437  0.37421946  1
  Fe  Fe40  1  0.12380470  0.12701186  0.37670574  1
  Fe  Fe41  1  0.12485949  0.37305074  0.87700155  1
  Fe  Fe42  1  0.50028108  0.75047151  0.75040163  1
  Fe  Fe43  1  0.37592960  0.62339515  0.62735632  1
  Fe  Fe44  1  0.62698536  0.86881153  0.87906138  1
  Fe  Fe45  1  0.12347107  0.62384038  0.62178663  1
  Fe  Fe46  1  0.25245214  0.25078733  0.50159333  1
  Fe  Fe47  1  0.24867381  0.00018636  0.25083603  1
  Fe  Fe48  1  0.25184257  0.74963126  0.00139161  1
  Fe  Fe49  1  -0.00601673  0.25319957  0.50344878  1
  Fe  Fe50  1  0.25260208  0.50109976  0.49796767  1
  Fe  Fe51  1  0.49875146  -0.00009001  0.50202812  1
  Fe  Fe52  1  0.62533662  0.62360042  0.62372380  1
  Fe  Fe53  1  0.00157016  0.50239833  0.25284167  1
  Fe  Fe54  1  0.37744367  0.12786215  0.37441736  1
  Fe  Fe55  1  0.62467392  0.12230205  0.12316800  1
  Fe  Fe56  1  0.50278920  0.49990510  0.75426867  1
  Fe  Fe57  1  0.25130214  -0.00073502  -0.00097961  1
  Fe  Fe58  1  0.37703743  0.87030312  0.37197570  1
  Fe  Fe59  1  0.87473136  0.37246444  0.87289964  1
  Fe  Fe60  1  0.50240903  0.25043921  0.74623145  1
  Fe  Fe61  1  0.12395550  0.62584206  0.87845982  1
  Fe  Fe62  1  0.12293528  0.37798621  0.62267268  1
  Fe  Fe63  1  0.62734952  0.37157795  0.37931202  1
  Fe  Fe64  1  0.00571865  0.74884690  0.24724223  1
  Fe  Fe65  1  0.49853485  -0.00135384  -0.00320903  1
  Fe  Fe66  1  0.50040941  0.49946207  0.49951651  1
  Fe  Fe67  1  0.49760892  0.49675488  -0.00720717  1
  Fe  Fe68  1  0.12065934  0.12674279  0.87811396  1
  Fe  Fe69  1  0.74776790  0.24789073  0.24904202  1
  Fe  Fe70  1  -0.00205329  0.49870113  -0.00124019  1
  Fe  Fe71  1  0.74147018  0.74806738  0.24435809  1
  Fe  Fe72  1  0.74683289  0.50392307  0.25518999  1
  Fe  Fe73  1  0.49927361  0.25389062  0.00114514  1
  Fe  Fe74  1  0.75076133  0.00132278  0.49831398  1
  Fe  Fe75  1  0.12635422  0.37909536  0.12469354  1
  Fe  Fe76  1  0.25180548  0.25253413  0.00297892  1
  Fe  Fe77  1  0.24790506  0.00090455  0.75108392  1
  Fe  Fe78  1  -0.00085767  0.50086418  0.75186332  1
  Fe  Fe79  1  0.37933660  0.62946255  0.37412753  1
  Fe  Fe80  1  0.24857517  0.50091167  0.75278579  1
  Fe  Fe81  1  0.37317432  0.87687319  0.62743477  1
  Fe  Fe82  1  0.74950294  0.00008016  0.75117656  1
  Fe  Fe83  1  -0.00112959  0.75043466  0.74648258  1
  Fe  Fe84  1  0.24636338  0.24922814  0.74745585  1
  Fe  Fe85  1  0.62775643  0.87516651  0.62503835  1
  Fe  Fe86  1  0.12152171  0.12322100  0.62308806  1
  Fe  Fe87  1  0.87705112  0.12070721  0.12658388  1
  Fe  Fe88  1  0.12587730  0.87362310  0.87648427  1
  Fe  Fe89  1  0.62582536  0.37829495  0.12349925  1
  Co  Co90  1  0.37521466  0.62632775  0.87404047  1
  Co  Co91  1  0.62850568  0.37129799  0.87376053  1
  Co  Co92  1  0.87123837  0.87616421  0.62464613  1
  Co  Co93  1  0.62200324  0.62956996  0.37856432  1
  Co  Co94  1  0.37475691  0.12288781  0.62738314  1
  Co  Co95  1  -0.00203694  0.25346039  0.00391090  1
  Co  Co96  1  0.50389753  0.25138200  0.24735027  1
  Co  Co97  1  -0.00349745  -0.00483404  -0.00334482  1
  Co  Co98  1  0.37423861  0.87458827  0.87394978  1
  Co  Co99  1  0.75361785  0.50433349  0.49424113  1
  Co  Co100  1  0.12706993  0.87511746  0.62429111  1
  Co  Co101  1  0.25333763  0.49758380  -0.00367902  1
  Co  Co102  1  0.62279686  0.61821179  0.11793270  1
  Co  Co103  1  0.75561118  0.24778097  0.50250951  1
  Co  Co104  1  0.37325977  0.37083081  0.87034004  1
  Co  Co105  1  0.49797938  0.25164048  0.50478166  1
  Co  Co106  1  0.87747515  0.11935414  0.62605550  1
  Co  Co107  1  0.87432734  0.63169134  0.37008521  1
  Co  Co108  1  0.00331931  -0.00147950  0.25413806  1
  Co  Co109  1  0.62426137  0.88036287  0.12027791  1
  Co  Co110  1  0.62602993  0.12413856  0.62367480  1
  Co  Co111  1  0.50539695  0.74890362  0.24337940  1
  Co  Co112  1  0.75190513  0.74889718  0.00732502  1
  Co  Co113  1  0.12621763  0.87810417  0.12431173  1
  Co  Co114  1  0.74934147  0.74628762  0.74694721  1
  Co  Co115  1  0.49859156  0.75075284  0.50574898  1
  Co  Co116  1  0.12381820  0.62628077  0.37993254  1
  Co  Co117  1  0.49773719  0.75022188  0.00239716  1
  Co  Co118  1  0.24779042  0.74620564  0.24790315  1
  Co  Co119  1  0.74543228  0.00096068  0.25326832  1
  Co  Co120  1  0.87275929  0.37253980  0.37077100  1
  Co  Co121  1  0.37615390  0.37923223  0.12906782  1
  Co  Co122  1  0.00007466  0.25219816  0.74688951  1
  Co  Co123  1  0.87655200  0.62962267  0.87612606  1
  Co  Co124  1  0.87023450  0.38087146  0.62796661  1
  Co  Co125  1  0.62482323  0.63150059  0.87889298  1
  Co  Co126  1  0.87495574  0.62332672  0.62572234  1
  Co  Co127  1  0.12557415  0.62224290  0.11945332  1
