# generated using pymatgen
data_Fe45Co19
_symmetry_space_group_name_H-M   'P 1'
_cell_length_a   11.41495237
_cell_length_b   11.41647763
_cell_length_c   11.41508801
_cell_angle_alpha   90.00561790
_cell_angle_beta   89.98395650
_cell_angle_gamma   89.99573992
_symmetry_Int_Tables_number   1
_chemical_formula_structural   Fe45Co19
_chemical_formula_sum   'Fe90 Co38'
_cell_volume   1487.59762927
_cell_formula_units_Z   2
loop_
 _symmetry_equiv_pos_site_id
 _symmetry_equiv_pos_as_xyz
  1  'x, y, z'
loop_
 _atom_site_type_symbol
 _atom_site_label
 _atom_site_symmetry_multiplicity
 _atom_site_fract_x
 _atom_site_fract_y
 _atom_site_fract_z
 _atom_site_occupancy
  Fe  Fe0  1  0.37508614  0.12170599  0.37733283  1
  Fe  Fe1  1  0.00054451  0.75057715  0.74855710  1
  Fe  Fe2  1  0.87492404  0.62285476  0.62563969  1
  Fe  Fe3  1  0.12492012  0.87579028  0.62442713  1
  Fe  Fe4  1  0.87458653  0.87518712  0.87370722  1
  Fe  Fe5  1  0.00141616  0.74806733  0.24950596  1
  Fe  Fe6  1  0.74665169  0.00143282  0.50170107  1
  Fe  Fe7  1  0.12658969  0.87620563  0.37528635  1
  Fe  Fe8  1  0.12493789  0.12439236  0.87540379  1
  Fe  Fe9  1  0.87732726  0.37399838  0.87443156  1
  Fe  Fe10  1  0.75065914  0.25144651  0.74986942  1
  Fe  Fe11  1  0.00092278  0.74953721  0.00129803  1
  Fe  Fe12  1  0.74563862  0.74868756  0.24783219  1
  Fe  Fe13  1  0.37539520  0.87331169  0.12009728  1
  Fe  Fe14  1  0.12646792  0.87560394  0.87632173  1
  Fe  Fe15  1  0.24956602  0.50221684  0.25250112  1
  Fe  Fe16  1  0.12760065  0.87471760  0.12296227  1
  Fe  Fe17  1  0.87588737  0.37416351  0.12692011  1
  Fe  Fe18  1  0.00007085  0.49975292  0.00240805  1
  Fe  Fe19  1  -0.00183243  0.00058182  0.25096786  1
  Fe  Fe20  1  0.62341677  0.37563561  0.87379222  1
  Fe  Fe21  1  0.62364763  0.37733637  0.37499901  1
  Fe  Fe22  1  0.50164999  0.75027695  0.74979448  1
  Fe  Fe23  1  0.00182614  0.25069372  0.74965878  1
  Fe  Fe24  1  0.74936189  0.24982372  0.00099899  1
  Fe  Fe25  1  0.37548260  0.62692829  0.12358380  1
  Fe  Fe26  1  0.25037625  0.50192802  -0.00058792  1
  Fe  Fe27  1  0.74847414  0.50198564  0.24896904  1
  Fe  Fe28  1  0.62263033  0.37544896  0.12595312  1
  Fe  Fe29  1  0.87445480  0.87723984  0.62605013  1
  Fe  Fe30  1  0.49858869  0.24892655  0.25078935  1
  Fe  Fe31  1  0.74927402  0.24811611  0.25115036  1
  Fe  Fe32  1  0.50233130  0.75018600  0.24841626  1
  Fe  Fe33  1  0.50387476  -0.00052708  0.74960038  1
  Fe  Fe34  1  0.62312452  0.12250013  0.37449825  1
  Fe  Fe35  1  0.00096652  0.00014074  0.49950092  1
  Fe  Fe36  1  0.62099219  0.12171655  0.12603559  1
  Fe  Fe37  1  0.87483082  0.62474199  0.37459883  1
  Fe  Fe38  1  0.00116985  0.25172901  0.49610161  1
  Fe  Fe39  1  0.49787207  0.24950566  -0.00143389  1
  Fe  Fe40  1  0.49864968  0.50128043  0.25051365  1
  Fe  Fe41  1  0.12784211  0.37431140  0.87508182  1
  Fe  Fe42  1  0.87301542  0.87562610  0.37456294  1
  Fe  Fe43  1  0.00211912  0.50203056  0.25004473  1
  Fe  Fe44  1  0.49885342  0.25052634  0.50051176  1
  Fe  Fe45  1  0.12564471  0.12503021  0.12530975  1
  Fe  Fe46  1  0.00168746  0.49851922  0.74827178  1
  Fe  Fe47  1  0.12647591  0.12606540  0.62324555  1
  Fe  Fe48  1  0.49849921  0.49986074  -0.00134482  1
  Fe  Fe49  1  0.49643992  0.50181585  0.50504602  1
  Fe  Fe50  1  0.49874582  -0.00128761  -0.00327414  1
  Fe  Fe51  1  0.75007161  0.25224417  0.49919097  1
  Fe  Fe52  1  0.87616454  0.12609453  0.62438581  1
  Fe  Fe53  1  0.00033134  -0.00038285  -0.00067545  1
  Fe  Fe54  1  0.00120010  0.49730735  0.49880947  1
  Fe  Fe55  1  0.24895676  0.74909169  0.25025016  1
  Fe  Fe56  1  0.37424909  0.62792930  0.37772897  1
  Fe  Fe57  1  0.87621673  0.12509616  0.87413154  1
  Fe  Fe58  1  0.37557186  0.87563731  0.37823806  1
  Fe  Fe59  1  0.75084712  0.49970653  0.00039455  1
  Fe  Fe60  1  0.62387198  0.87770710  0.37416263  1
  Fe  Fe61  1  0.74779457  0.74840942  0.50110579  1
  Fe  Fe62  1  0.74593212  0.74947153  0.00244492  1
  Fe  Fe63  1  0.13254364  0.37404268  0.62342043  1
  Fe  Fe64  1  0.12923771  0.62418547  0.62158806  1
  Fe  Fe65  1  0.87602962  0.62526325  0.87467278  1
  Fe  Fe66  1  0.25181618  0.24805740  0.25268959  1
  Fe  Fe67  1  -0.00056263  0.24875127  0.25396833  1
  Fe  Fe68  1  0.49640402  0.25243978  0.75164550  1
  Fe  Fe69  1  0.74957846  0.74970609  0.74852259  1
  Fe  Fe70  1  0.37506259  0.12559160  0.62506650  1
  Fe  Fe71  1  0.62367600  0.37675757  0.62777286  1
  Fe  Fe72  1  0.74712697  0.00162606  0.74895171  1
  Fe  Fe73  1  0.74974895  0.49904878  0.50168329  1
  Fe  Fe74  1  0.62463844  0.62269521  0.87218624  1
  Fe  Fe75  1  0.24919641  0.00072262  0.74985017  1
  Fe  Fe76  1  0.12650821  0.37327333  0.12573652  1
  Fe  Fe77  1  0.37583453  0.87525474  0.62529693  1
  Fe  Fe78  1  0.24887808  0.75063985  0.74995567  1
  Fe  Fe79  1  0.50223331  0.74886898  0.50286562  1
  Fe  Fe80  1  0.37500938  0.62672205  0.87345224  1
  Fe  Fe81  1  0.25258478  0.24662976  -0.00195594  1
  Fe  Fe82  1  0.37395248  0.37507425  0.37681326  1
  Fe  Fe83  1  0.12469129  0.62511476  0.87525183  1
  Fe  Fe84  1  0.87599330  0.12504908  0.12459925  1
  Fe  Fe85  1  0.74811894  0.00027469  -0.00041449  1
  Fe  Fe86  1  0.25316922  0.00010902  0.24839665  1
  Fe  Fe87  1  0.87348249  0.87425058  0.12555946  1
  Fe  Fe88  1  0.37389785  0.37413425  0.12470531  1
  Fe  Fe89  1  0.00066569  0.75118846  0.50051209  1
  Co  Co90  1  0.62528036  0.87362445  0.62508486  1
  Co  Co91  1  0.12660386  0.12208092  0.37425910  1
  Co  Co92  1  0.25377964  0.50050641  0.49819449  1
  Co  Co93  1  0.49531100  -0.00144563  0.25053374  1
  Co  Co94  1  0.87635845  0.37385944  0.62505443  1
  Co  Co95  1  0.37187384  0.62873922  0.62571598  1
  Co  Co96  1  0.25062358  -0.00085996  0.50198627  1
  Co  Co97  1  0.49457408  0.49884047  0.74788704  1
  Co  Co98  1  0.75123813  0.00098827  0.24930013  1
  Co  Co99  1  0.12730809  0.37569088  0.37415051  1
  Co  Co100  1  0.12545139  0.62615362  0.37827264  1
  Co  Co101  1  0.00111589  0.00021014  0.75017682  1
  Co  Co102  1  0.25115861  0.24825658  0.75273706  1
  Co  Co103  1  0.62384048  0.12980865  0.62599005  1
  Co  Co104  1  0.37627177  0.12211147  0.87214220  1
  Co  Co105  1  0.62615732  0.87451558  0.87420946  1
  Co  Co106  1  0.00036230  0.24993995  -0.00054078  1
  Co  Co107  1  0.37292409  0.37530454  0.87630293  1
  Co  Co108  1  0.37701299  0.12545328  0.12407193  1
  Co  Co109  1  0.62420148  0.12685841  0.87441447  1
  Co  Co110  1  0.62351419  0.62352367  0.37650071  1
  Co  Co111  1  0.25033963  0.74842015  -0.00202004  1
  Co  Co112  1  0.25196837  0.50072786  0.75017715  1
  Co  Co113  1  0.75282028  0.49772076  0.75114498  1
  Co  Co114  1  0.12658350  0.62571667  0.12426832  1
  Co  Co115  1  0.62602736  0.62226678  0.62854462  1
  Co  Co116  1  0.87432319  0.37658911  0.37293164  1
  Co  Co117  1  0.87496229  0.62600404  0.12536825  1
  Co  Co118  1  0.25100908  0.00223475  -0.00033070  1
  Co  Co119  1  0.62158216  0.62252866  0.12359132  1
  Co  Co120  1  0.37406708  0.87519330  0.87344530  1
  Co  Co121  1  0.25124335  0.24778750  0.49651797  1
  Co  Co122  1  0.62205423  0.87875533  0.12525294  1
  Co  Co123  1  0.37003148  0.37199162  0.62494970  1
  Co  Co124  1  0.87411484  0.12398939  0.37809978  1
  Co  Co125  1  0.50209208  0.74997582  -0.00182149  1
  Co  Co126  1  0.24987514  0.75331793  0.50034826  1
  Co  Co127  1  0.50154248  0.00049324  0.50251899  1
