# generated using pymatgen
data_Fe45Co19
_symmetry_space_group_name_H-M   'P 1'
_cell_length_a   11.41650602
_cell_length_b   11.41486445
_cell_length_c   11.41567363
_cell_angle_alpha   89.99990097
_cell_angle_beta   90.00079254
_cell_angle_gamma   89.99990298
_symmetry_Int_Tables_number   1
_chemical_formula_structural   Fe45Co19
_chemical_formula_sum   'Fe90 Co38'
_cell_volume   1487.66625699
_cell_formula_units_Z   2
loop_
 _symmetry_equiv_pos_site_id
 _symmetry_equiv_pos_as_xyz
  1  'x, y, z'
loop_
 _atom_site_type_symbol
 _atom_site_label
 _atom_site_symmetry_multiplicity
 _atom_site_fract_x
 _atom_site_fract_y
 _atom_site_fract_z
 _atom_site_occupancy
  Fe  Fe0  1  0.37321378  0.61995784  0.37863189  1
  Fe  Fe1  1  0.37614769  0.87554764  0.37598557  1
  Fe  Fe2  1  0.62488287  0.12785119  0.87220407  1
  Fe  Fe3  1  0.74719586  0.50269156  0.25543238  1
  Fe  Fe4  1  0.12736875  0.87456070  0.37294638  1
  Fe  Fe5  1  0.25334006  -0.00002629  0.00380518  1
  Fe  Fe6  1  0.12744947  0.87450985  0.12864039  1
  Fe  Fe7  1  0.24971758  0.50050934  0.75124609  1
  Fe  Fe8  1  0.87520674  0.87346388  0.87683683  1
  Fe  Fe9  1  0.87297674  0.37671985  0.37609053  1
  Fe  Fe10  1  0.25002232  0.74755841  0.49948238  1
  Fe  Fe11  1  0.75026323  0.24986203  0.50058910  1
  Fe  Fe12  1  0.75062974  -0.00034882  0.74770612  1
  Fe  Fe13  1  0.12598005  0.87512047  0.62399415  1
  Fe  Fe14  1  0.62464965  0.87362525  0.87370096  1
  Fe  Fe15  1  0.12471030  0.62338782  0.12951837  1
  Fe  Fe16  1  0.62593474  0.37607926  0.12692648  1
  Fe  Fe17  1  0.00037761  -0.00070590  0.00152052  1
  Fe  Fe18  1  0.37441020  0.37346064  0.12282589  1
  Fe  Fe19  1  0.87288780  0.87257489  0.12618017  1
  Fe  Fe20  1  0.74683444  0.74738499  0.00252504  1
  Fe  Fe21  1  0.49891568  -0.00241901  0.00017747  1
  Fe  Fe22  1  0.87421728  0.87524636  0.62247250  1
  Fe  Fe23  1  0.12401477  0.37450387  0.62640892  1
  Fe  Fe24  1  0.49872768  0.00073374  0.24955229  1
  Fe  Fe25  1  0.87470663  0.12654274  0.12543786  1
  Fe  Fe26  1  0.87304608  0.12656554  0.87536495  1
  Fe  Fe27  1  0.37629968  0.12608468  0.87668546  1
  Fe  Fe28  1  0.25256789  0.24820715  0.24816845  1
  Fe  Fe29  1  0.49828488  0.49865345  0.25283727  1
  Fe  Fe30  1  0.12965769  0.37754682  0.37252883  1
  Fe  Fe31  1  0.00043986  0.24778205  0.74919124  1
  Fe  Fe32  1  0.49774238  0.50011039  0.74985174  1
  Fe  Fe33  1  0.00176900  0.74820479  0.49567632  1
  Fe  Fe34  1  0.87536731  0.62316032  0.62329669  1
  Fe  Fe35  1  0.37496671  0.37839718  0.62215471  1
  Fe  Fe36  1  0.25111959  0.25077053  0.75048053  1
  Fe  Fe37  1  -0.00065038  0.00093981  0.74753232  1
  Fe  Fe38  1  0.25491466  0.00194659  0.24818173  1
  Fe  Fe39  1  0.37491513  0.12454717  0.62267994  1
  Fe  Fe40  1  0.00209534  0.74912012  0.00304372  1
  Fe  Fe41  1  0.12745960  0.37787087  0.12254111  1
  Fe  Fe42  1  0.25011430  0.25014336  0.49935677  1
  Fe  Fe43  1  0.12662751  0.87453502  0.87517881  1
  Fe  Fe44  1  0.49887520  0.74747704  0.50429408  1
  Fe  Fe45  1  0.49797827  0.25246241  0.25379622  1
  Fe  Fe46  1  0.62509198  0.37429347  0.87354569  1
  Fe  Fe47  1  0.12537232  0.62499598  0.62536894  1
  Fe  Fe48  1  0.37305217  0.37398598  0.87751755  1
  Fe  Fe49  1  0.49932516  0.50098145  -0.00127226  1
  Fe  Fe50  1  0.62409596  0.87351244  0.12683900  1
  Fe  Fe51  1  0.25226777  -0.00194408  0.74900698  1
  Fe  Fe52  1  0.49939467  0.74761223  0.25020496  1
  Fe  Fe53  1  0.00067352  0.75093846  0.74949094  1
  Fe  Fe54  1  0.12554041  0.12467542  0.37223521  1
  Fe  Fe55  1  0.50245752  -0.00054356  0.50101638  1
  Fe  Fe56  1  0.49766789  -0.00295182  0.74831277  1
  Fe  Fe57  1  0.00027096  0.00148014  0.50031728  1
  Fe  Fe58  1  0.00020307  0.25273381  0.24976533  1
  Fe  Fe59  1  0.87267812  0.37674810  0.12551466  1
  Fe  Fe60  1  0.49817567  0.25222535  0.49797429  1
  Fe  Fe61  1  0.00245821  0.25107861  0.00050076  1
  Fe  Fe62  1  0.62656154  0.12605764  0.37347241  1
  Fe  Fe63  1  0.24975274  0.00119386  0.49881224  1
  Fe  Fe64  1  0.00209260  0.24834031  0.49952281  1
  Fe  Fe65  1  0.00033786  0.50028975  0.75196585  1
  Fe  Fe66  1  0.50215176  0.25123201  -0.00106906  1
  Fe  Fe67  1  0.87595685  0.62607235  0.87596457  1
  Fe  Fe68  1  0.87635713  0.37429867  0.87634293  1
  Fe  Fe69  1  0.62533198  0.12703369  0.62665023  1
  Fe  Fe70  1  0.75052600  0.74955148  0.74802134  1
  Fe  Fe71  1  0.37591808  0.62805920  0.12242654  1
  Fe  Fe72  1  0.62341894  0.62606871  0.87326273  1
  Fe  Fe73  1  0.87094663  0.87361587  0.37386349  1
  Fe  Fe74  1  0.87360028  0.12389723  0.37443220  1
  Fe  Fe75  1  0.87626233  0.37618089  0.62265311  1
  Fe  Fe76  1  0.74813805  0.74561722  0.49961977  1
  Fe  Fe77  1  0.12668863  0.12461849  0.87586431  1
  Fe  Fe78  1  0.12536222  0.62492754  0.87595658  1
  Fe  Fe79  1  0.75095258  0.49893502  0.74948220  1
  Fe  Fe80  1  0.00291668  0.50187425  0.49562320  1
  Fe  Fe81  1  0.62455937  0.37720709  0.62399040  1
  Fe  Fe82  1  0.74817501  0.00119557  0.00111222  1
  Fe  Fe83  1  0.74929892  0.50115863  -0.00100398  1
  Fe  Fe84  1  0.62479504  0.12762021  0.12671602  1
  Fe  Fe85  1  0.62578211  0.87291049  0.37494677  1
  Fe  Fe86  1  0.87615390  0.62438788  0.12964052  1
  Fe  Fe87  1  0.49666128  0.75247924  0.74561652  1
  Fe  Fe88  1  0.37395320  0.63073492  0.87598930  1
  Fe  Fe89  1  -0.00175699  -0.00184730  0.25023436  1
  Co  Co90  1  0.12716178  0.12491254  0.62482977  1
  Co  Co91  1  0.49717521  0.25158398  0.74854877  1
  Co  Co92  1  0.87655856  0.62579812  0.37240296  1
  Co  Co93  1  0.00041620  0.49701043  0.25255346  1
  Co  Co94  1  0.24628117  0.75005951  0.00268138  1
  Co  Co95  1  0.74811039  0.25102133  0.00014477  1
  Co  Co96  1  0.37412301  0.62155944  0.62436055  1
  Co  Co97  1  0.62402747  0.62260898  0.62757427  1
  Co  Co98  1  0.25327802  0.74858879  0.25243571  1
  Co  Co99  1  -0.00050721  0.50099905  0.00077342  1
  Co  Co100  1  0.87384735  0.12487116  0.62353597  1
  Co  Co101  1  0.62127870  0.62600549  0.37626923  1
  Co  Co102  1  0.74623132  0.74707764  0.24946175  1
  Co  Co103  1  0.50371567  0.75091821  0.00061740  1
  Co  Co104  1  0.62620766  0.87335364  0.62445613  1
  Co  Co105  1  0.25450203  0.50085543  0.24631494  1
  Co  Co106  1  0.37549865  0.12419364  0.37618566  1
  Co  Co107  1  0.74863264  0.50301165  0.49808438  1
  Co  Co108  1  0.12482342  0.37589305  0.87612012  1
  Co  Co109  1  0.62585827  0.37430636  0.37547571  1
  Co  Co110  1  0.74936412  0.00006372  0.24883450  1
  Co  Co111  1  0.24870838  0.24855259  0.00068225  1
  Co  Co112  1  0.37925051  0.12788316  0.12387154  1
  Co  Co113  1  0.24979202  0.75029699  0.74726017  1
  Co  Co114  1  0.37378190  0.87142173  0.87747397  1
  Co  Co115  1  0.75113351  0.25298852  0.74842326  1
  Co  Co116  1  0.12304673  0.12425256  0.12654959  1
  Co  Co117  1  0.37123306  0.37805585  0.37697912  1
  Co  Co118  1  0.37246698  0.87637146  0.62163488  1
  Co  Co119  1  0.74741782  0.00042025  0.49964843  1
  Co  Co120  1  0.25169404  0.50261799  -0.00049182  1
  Co  Co121  1  0.24571510  0.49994291  0.50219130  1
  Co  Co122  1  0.37650553  0.87119208  0.12530596  1
  Co  Co123  1  0.12727373  0.62275160  0.37076224  1
  Co  Co124  1  0.50244511  0.49904996  0.49886003  1
  Co  Co125  1  0.00131280  0.75210280  0.25229905  1
  Co  Co126  1  0.62233895  0.62088896  0.12583295  1
  Co  Co127  1  0.75130697  0.25006801  0.25092975  1
