# generated using pymatgen
data_Fe45Co19
_symmetry_space_group_name_H-M   'P 1'
_cell_length_a   11.41578597
_cell_length_b   11.41434049
_cell_length_c   11.41306690
_cell_angle_alpha   90.00344914
_cell_angle_beta   89.98777025
_cell_angle_gamma   90.00542160
_symmetry_Int_Tables_number   1
_chemical_formula_structural   Fe45Co19
_chemical_formula_sum   'Fe90 Co38'
_cell_volume   1487.16443802
_cell_formula_units_Z   2
loop_
 _symmetry_equiv_pos_site_id
 _symmetry_equiv_pos_as_xyz
  1  'x, y, z'
loop_
 _atom_site_type_symbol
 _atom_site_label
 _atom_site_symmetry_multiplicity
 _atom_site_fract_x
 _atom_site_fract_y
 _atom_site_fract_z
 _atom_site_occupancy
  Fe  Fe0  1  0.25038942  0.00127565  0.74819562  1
  Fe  Fe1  1  -0.00003546  0.49926353  0.24868085  1
  Fe  Fe2  1  0.87457893  0.62387894  0.37512089  1
  Fe  Fe3  1  0.87381372  0.12661616  0.87650128  1
  Fe  Fe4  1  0.24701535  0.24684752  0.50168861  1
  Fe  Fe5  1  0.62264587  0.12937054  0.86950315  1
  Fe  Fe6  1  0.74942168  0.00055630  0.49997773  1
  Fe  Fe7  1  0.49531672  0.49650715  0.25332913  1
  Fe  Fe8  1  0.50053305  0.75032732  0.74928848  1
  Fe  Fe9  1  -0.00188702  0.74936111  0.24995709  1
  Fe  Fe10  1  0.37745350  0.87612823  0.87534970  1
  Fe  Fe11  1  0.37330061  0.12520410  0.12758407  1
  Fe  Fe12  1  0.12646346  0.87714488  0.12625405  1
  Fe  Fe13  1  0.37541414  0.37450636  0.12384361  1
  Fe  Fe14  1  0.25141627  0.50022809  0.49512371  1
  Fe  Fe15  1  0.37620437  0.87609090  0.12485228  1
  Fe  Fe16  1  0.62356818  0.37362049  0.37334933  1
  Fe  Fe17  1  0.12412959  0.37290456  0.37112324  1
  Fe  Fe18  1  0.62337982  0.62223799  0.37596416  1
  Fe  Fe19  1  0.50398750  0.00347251  0.50311081  1
  Fe  Fe20  1  0.50154623  0.75099426  0.24956251  1
  Fe  Fe21  1  0.49919597  0.00051828  0.25011040  1
  Fe  Fe22  1  0.74998312  0.49781325  0.75171933  1
  Fe  Fe23  1  0.12857786  0.62108474  0.12526863  1
  Fe  Fe24  1  0.25076027  0.00097955  -0.00027752  1
  Fe  Fe25  1  0.87396688  0.37511942  0.62209577  1
  Fe  Fe26  1  0.25038694  0.75004280  0.74924560  1
  Fe  Fe27  1  0.24983744  0.49917201  0.75128315  1
  Fe  Fe28  1  0.87457541  0.62429707  0.62298262  1
  Fe  Fe29  1  0.37564120  0.12658770  0.37419103  1
  Fe  Fe30  1  0.37728275  0.37326258  0.87685825  1
  Fe  Fe31  1  0.50133353  0.49873987  0.74809227  1
  Fe  Fe32  1  0.00090407  0.25059410  0.50046827  1
  Fe  Fe33  1  0.24778341  0.24958711  0.74659128  1
  Fe  Fe34  1  0.75048198  0.49706933  0.25218852  1
  Fe  Fe35  1  0.50241996  0.74865615  0.00252366  1
  Fe  Fe36  1  -0.00294547  -0.00031751  0.75138994  1
  Fe  Fe37  1  -0.00161090  0.00041457  0.00195761  1
  Fe  Fe38  1  0.37294726  0.37490644  0.62192873  1
  Fe  Fe39  1  0.62552723  0.12912079  0.12975678  1
  Fe  Fe40  1  0.25079323  0.75177513  0.49759977  1
  Fe  Fe41  1  0.24873430  0.24958277  0.00256022  1
  Fe  Fe42  1  0.74902998  -0.00160361  0.74812380  1
  Fe  Fe43  1  0.74540411  0.25207057  0.00079651  1
  Fe  Fe44  1  -0.00082100  0.75096766  0.00169245  1
  Fe  Fe45  1  0.37703030  0.87726157  0.62369515  1
  Fe  Fe46  1  0.87003441  0.87460538  0.12665308  1
  Fe  Fe47  1  0.12412304  0.37614945  0.87742249  1
  Fe  Fe48  1  0.12408149  0.62327273  0.87712014  1
  Fe  Fe49  1  0.50188815  0.00353235  0.00044163  1
  Fe  Fe50  1  0.75199070  0.00471935  0.25208803  1
  Fe  Fe51  1  0.12427368  0.12518809  0.87495094  1
  Fe  Fe52  1  0.62377058  0.87431382  0.87540190  1
  Fe  Fe53  1  0.37775228  0.12691440  0.87133565  1
  Fe  Fe54  1  0.87377969  0.37281530  0.12628814  1
  Fe  Fe55  1  0.50006111  0.75002926  0.49863986  1
  Fe  Fe56  1  0.00081743  0.25046744  0.74742318  1
  Fe  Fe57  1  -0.00167730  0.75128515  0.75030958  1
  Fe  Fe58  1  0.62644153  0.62448707  0.62356502  1
  Fe  Fe59  1  0.12259917  0.87497241  0.62444520  1
  Fe  Fe60  1  0.12247365  0.87599613  0.37301651  1
  Fe  Fe61  1  0.12496996  0.87549656  0.87538296  1
  Fe  Fe62  1  0.62128487  0.37528712  0.87779811  1
  Fe  Fe63  1  0.87255355  0.62361441  0.12464979  1
  Fe  Fe64  1  -0.00278079  -0.00191224  0.49919810  1
  Fe  Fe65  1  0.62480453  0.61941974  0.12520146  1
  Fe  Fe66  1  0.37708032  0.62428273  0.87565847  1
  Fe  Fe67  1  0.75053089  0.75193614  0.74999185  1
  Fe  Fe68  1  0.12482268  0.62473779  0.62327410  1
  Fe  Fe69  1  0.74689534  0.00190290  -0.00025241  1
  Fe  Fe70  1  -0.00360850  0.00376869  0.24688474  1
  Fe  Fe71  1  0.12390079  0.12524216  0.37102951  1
  Fe  Fe72  1  0.00346961  0.24860202  0.00568500  1
  Fe  Fe73  1  0.12614649  0.62528285  0.37361144  1
  Fe  Fe74  1  0.62796903  0.37339370  0.62354531  1
  Fe  Fe75  1  0.75065652  0.24912165  0.49464973  1
  Fe  Fe76  1  0.00024645  0.49982347  0.49900930  1
  Fe  Fe77  1  -0.00075612  0.49885030  0.74981172  1
  Fe  Fe78  1  0.74669333  0.74901743  0.00225096  1
  Fe  Fe79  1  0.87330418  0.12670829  0.62457758  1
  Fe  Fe80  1  0.37577901  0.62301999  0.62238258  1
  Fe  Fe81  1  0.50181564  0.24809334  0.50191345  1
  Fe  Fe82  1  0.62618648  0.87635269  0.37282639  1
  Fe  Fe83  1  0.25029489  0.74970332  0.00004379  1
  Fe  Fe84  1  0.87721382  0.37419312  0.87843000  1
  Fe  Fe85  1  0.87355260  0.62455451  0.87737403  1
  Fe  Fe86  1  0.37346259  0.62325373  0.12664647  1
  Fe  Fe87  1  0.25274860  0.75265501  0.25276764  1
  Fe  Fe88  1  0.75293623  0.75156304  0.49692342  1
  Fe  Fe89  1  0.25004710  0.00051347  0.49896930  1
  Co  Co90  1  0.37619768  0.12493836  0.62588259  1
  Co  Co91  1  0.50114419  0.24747075  0.00311376  1
  Co  Co92  1  0.25241184  -0.00174419  0.25281727  1
  Co  Co93  1  -0.00058947  0.24702344  0.24605368  1
  Co  Co94  1  0.49796881  0.25149349  0.24982140  1
  Co  Co95  1  0.62444573  0.37552858  0.12795182  1
  Co  Co96  1  0.62556212  0.62434101  0.87509448  1
  Co  Co97  1  0.87326661  0.87553968  0.37062473  1
  Co  Co98  1  0.62289738  0.12535727  0.37258133  1
  Co  Co99  1  0.75241322  0.25424299  0.75268057  1
  Co  Co100  1  0.75259157  0.25003590  0.25383303  1
  Co  Co101  1  0.25164385  0.49956606  -0.00148934  1
  Co  Co102  1  0.87872763  0.37495904  0.37409556  1
  Co  Co103  1  0.25419185  0.49719703  0.25376730  1
  Co  Co104  1  0.37444759  0.36889166  0.37901544  1
  Co  Co105  1  0.62524164  0.87201955  0.62317859  1
  Co  Co106  1  0.87219887  0.87495006  0.87836080  1
  Co  Co107  1  0.74939545  0.49713894  -0.00069518  1
  Co  Co108  1  0.74764921  0.74642114  0.25138250  1
  Co  Co109  1  0.12173835  0.12221910  0.62488128  1
  Co  Co110  1  0.87023222  0.12798060  0.12145094  1
  Co  Co111  1  0.24960094  0.25125897  0.24823471  1
  Co  Co112  1  0.62911789  0.12965385  0.62849677  1
  Co  Co113  1  -0.00117950  0.50033840  0.00222052  1
  Co  Co114  1  0.87600091  0.87491622  0.62387045  1
  Co  Co115  1  0.12884064  0.12199200  0.12726603  1
  Co  Co116  1  0.75004679  0.49870766  0.49770506  1
  Co  Co117  1  0.87783641  0.12605073  0.37724837  1
  Co  Co118  1  0.12623739  0.37862649  0.12652698  1
  Co  Co119  1  0.50322291  -0.00027605  0.74760539  1
  Co  Co120  1  0.12602446  0.37836388  0.62360365  1
  Co  Co121  1  0.37948419  0.87708975  0.37631132  1
  Co  Co122  1  0.37723881  0.62636375  0.37559383  1
  Co  Co123  1  0.50063722  0.49738909  0.50003187  1
  Co  Co124  1  -0.00188613  0.74986557  0.49703236  1
  Co  Co125  1  0.62656975  0.87795397  0.12706311  1
  Co  Co126  1  0.49924211  0.50088355  0.00038399  1
  Co  Co127  1  0.49868341  0.25378649  0.74586439  1
