# generated using pymatgen
data_Fe45Co19
_symmetry_space_group_name_H-M   'P 1'
_cell_length_a   11.41531383
_cell_length_b   11.41484102
_cell_length_c   11.41454478
_cell_angle_alpha   90.00214014
_cell_angle_beta   90.00136959
_cell_angle_gamma   89.99176235
_symmetry_Int_Tables_number   1
_chemical_formula_structural   Fe45Co19
_chemical_formula_sum   'Fe90 Co38'
_cell_volume   1487.36074190
_cell_formula_units_Z   2
loop_
 _symmetry_equiv_pos_site_id
 _symmetry_equiv_pos_as_xyz
  1  'x, y, z'
loop_
 _atom_site_type_symbol
 _atom_site_label
 _atom_site_symmetry_multiplicity
 _atom_site_fract_x
 _atom_site_fract_y
 _atom_site_fract_z
 _atom_site_occupancy
  Fe  Fe0  1  0.87674082  0.62330852  0.62290959  1
  Fe  Fe1  1  0.50123412  0.00275249  0.75133807  1
  Fe  Fe2  1  0.24737179  0.00237663  -0.00222483  1
  Fe  Fe3  1  0.24706194  0.49392316  -0.00421303  1
  Fe  Fe4  1  0.37334423  0.12629515  0.12086502  1
  Fe  Fe5  1  0.37304691  0.87441235  0.37552895  1
  Fe  Fe6  1  0.62542424  0.62058169  0.62855650  1
  Fe  Fe7  1  0.87714932  0.87580992  0.62310791  1
  Fe  Fe8  1  0.50077747  -0.00229304  0.50009320  1
  Fe  Fe9  1  0.37569023  0.62320492  0.62490037  1
  Fe  Fe10  1  0.49749619  0.24967611  0.75247431  1
  Fe  Fe11  1  0.12495841  0.12604727  0.62497745  1
  Fe  Fe12  1  0.74935486  0.74889756  0.24996781  1
  Fe  Fe13  1  0.74804506  0.25145744  0.50021980  1
  Fe  Fe14  1  0.75134367  0.24775043  0.74935394  1
  Fe  Fe15  1  0.87528397  0.37694716  0.62611461  1
  Fe  Fe16  1  0.12856849  0.37186836  0.36996159  1
  Fe  Fe17  1  0.62260277  0.62283285  0.12314579  1
  Fe  Fe18  1  0.12276651  0.62592018  0.62351367  1
  Fe  Fe19  1  0.87547268  0.62335219  0.37611291  1
  Fe  Fe20  1  0.25189340  0.25131350  0.50351450  1
  Fe  Fe21  1  0.49587489  0.25370954  -0.00389634  1
  Fe  Fe22  1  0.49419866  0.74771219  0.24757465  1
  Fe  Fe23  1  0.74903206  0.75084577  0.49959632  1
  Fe  Fe24  1  0.12720592  0.37248618  0.63134435  1
  Fe  Fe25  1  0.00147153  0.49946164  0.25019228  1
  Fe  Fe26  1  0.49374870  0.50268506  0.25088233  1
  Fe  Fe27  1  0.87598984  0.37387327  0.12805430  1
  Fe  Fe28  1  0.49845679  0.49810726  0.50053229  1
  Fe  Fe29  1  0.12573865  0.87691468  0.12741321  1
  Fe  Fe30  1  0.24892638  0.75553160  0.50460031  1
  Fe  Fe31  1  0.75006275  0.00068982  0.00080670  1
  Fe  Fe32  1  0.49978811  -0.00116651  -0.00088926  1
  Fe  Fe33  1  0.87471085  0.12301897  0.61936141  1
  Fe  Fe34  1  0.50012286  0.25344492  0.49973872  1
  Fe  Fe35  1  0.00060377  0.25132383  0.49924119  1
  Fe  Fe36  1  0.87768194  0.37306741  0.87418596  1
  Fe  Fe37  1  0.62231602  0.37637495  0.12619878  1
  Fe  Fe38  1  0.00024165  0.74851320  0.75138593  1
  Fe  Fe39  1  0.00228635  0.49689664  0.49827282  1
  Fe  Fe40  1  0.49938119  0.74651575  0.75244942  1
  Fe  Fe41  1  0.75003274  0.00247333  0.25087050  1
  Fe  Fe42  1  0.37457126  0.87566545  0.87381413  1
  Fe  Fe43  1  0.74795262  0.25123562  0.00091369  1
  Fe  Fe44  1  0.25026627  0.75229921  0.00095580  1
  Fe  Fe45  1  0.87723514  0.12717875  0.12592028  1
  Fe  Fe46  1  0.74916240  0.00330371  0.74969687  1
  Fe  Fe47  1  0.75020148  0.49824284  -0.00129093  1
  Fe  Fe48  1  0.62378762  0.62439598  0.37402094  1
  Fe  Fe49  1  0.37207831  0.12563806  0.37877036  1
  Fe  Fe50  1  0.75097283  0.74876533  0.74981372  1
  Fe  Fe51  1  0.49802152  0.49748907  -0.00776239  1
  Fe  Fe52  1  0.12417788  0.87541930  0.87308505  1
  Fe  Fe53  1  0.37725070  0.12440757  0.62280298  1
  Fe  Fe54  1  0.24972230  0.49780817  0.50183810  1
  Fe  Fe55  1  0.24952889  0.00392600  0.25160115  1
  Fe  Fe56  1  0.00842597  0.25290300  0.00198895  1
  Fe  Fe57  1  0.00219621  0.50061171  0.75283850  1
  Fe  Fe58  1  0.87623958  0.62412668  0.87744847  1
  Fe  Fe59  1  0.25080578  0.00134214  0.74763056  1
  Fe  Fe60  1  0.49768935  0.00113477  0.25013563  1
  Fe  Fe61  1  0.62372780  0.37673407  0.63026665  1
  Fe  Fe62  1  -0.00049249  0.00288250  0.75110846  1
  Fe  Fe63  1  0.62461756  0.87547286  0.62629135  1
  Fe  Fe64  1  0.12744351  0.62662523  0.37705954  1
  Fe  Fe65  1  0.87512282  0.87587419  0.37567368  1
  Fe  Fe66  1  0.37232253  0.37516886  0.37313488  1
  Fe  Fe67  1  0.75008477  0.75033535  0.00097450  1
  Fe  Fe68  1  0.87335752  0.37251619  0.37108500  1
  Fe  Fe69  1  0.00173594  0.74847465  0.25028841  1
  Fe  Fe70  1  0.00610135  -0.00148680  0.49599648  1
  Fe  Fe71  1  0.49767848  0.24918012  0.25002084  1
  Fe  Fe72  1  0.12563690  0.62085477  0.12209313  1
  Fe  Fe73  1  0.00120867  0.75081474  0.00038446  1
  Fe  Fe74  1  0.00315813  0.00457651  0.25417357  1
  Fe  Fe75  1  0.49778196  0.75058138  0.00001884  1
  Fe  Fe76  1  0.74918328  0.49888163  0.49946685  1
  Fe  Fe77  1  0.62621250  0.87536538  0.87563049  1
  Fe  Fe78  1  0.87637164  0.12721735  0.87789368  1
  Fe  Fe79  1  0.00266384  0.00140358  -0.00058272  1
  Fe  Fe80  1  0.62609801  0.12465140  0.37702133  1
  Fe  Fe81  1  0.62287063  0.12609432  0.12291071  1
  Fe  Fe82  1  0.24934617  0.74919735  0.74896872  1
  Fe  Fe83  1  0.50099945  0.75072609  0.50076335  1
  Fe  Fe84  1  0.62568600  0.37658546  0.37129825  1
  Fe  Fe85  1  0.87666921  0.62273588  0.12352294  1
  Fe  Fe86  1  0.87730616  0.87622098  0.12658673  1
  Fe  Fe87  1  0.62357210  0.87533218  0.12695345  1
  Fe  Fe88  1  0.87509656  0.87588589  0.87554990  1
  Fe  Fe89  1  0.25372496  0.74553815  0.24636754  1
  Co  Co90  1  0.62662706  0.62467501  0.87513082  1
  Co  Co91  1  0.12958040  0.13037017  0.37809939  1
  Co  Co92  1  0.74696246  0.24762047  0.24865777  1
  Co  Co93  1  0.37393918  0.61904328  0.11717142  1
  Co  Co94  1  0.12031873  0.87551691  0.62874388  1
  Co  Co95  1  0.25494763  0.24383551  0.74851081  1
  Co  Co96  1  0.37445920  0.12378217  0.87760874  1
  Co  Co97  1  0.37128421  0.62604438  0.87643061  1
  Co  Co98  1  0.36823625  0.37372164  0.87019567  1
  Co  Co99  1  0.62213561  0.87411893  0.37206670  1
  Co  Co100  1  0.87393525  0.12663797  0.37828568  1
  Co  Co101  1  0.00179389  0.24777232  0.25012130  1
  Co  Co102  1  0.12608157  0.12459121  0.12520866  1
  Co  Co103  1  0.25300312  0.50468201  0.25253331  1
  Co  Co104  1  0.12622132  0.62563022  0.87806709  1
  Co  Co105  1  0.37289983  0.62693848  0.38212227  1
  Co  Co106  1  0.12940135  0.37740810  0.13107729  1
  Co  Co107  1  0.74618364  -0.00237527  0.50000766  1
  Co  Co108  1  0.62294592  0.12752466  0.62384764  1
  Co  Co109  1  0.12950534  0.87169476  0.37118914  1
  Co  Co110  1  0.00241329  0.49460324  -0.00149444  1
  Co  Co111  1  0.24859990  0.50458403  0.74854633  1
  Co  Co112  1  0.37524824  0.37660280  0.62827483  1
  Co  Co113  1  0.37408029  0.37686116  0.12536828  1
  Co  Co114  1  0.75004692  0.50077119  0.24793016  1
  Co  Co115  1  0.49602604  0.50056500  0.75482474  1
  Co  Co116  1  0.12706858  0.36960581  0.86628837  1
  Co  Co117  1  0.75377992  0.49964850  0.75324071  1
  Co  Co118  1  -0.00409628  0.24752146  0.74719103  1
  Co  Co119  1  0.25267798  0.24694379  0.24572219  1
  Co  Co120  1  0.24760435  0.25189460  0.00134284  1
  Co  Co121  1  0.37886609  0.87537808  0.62715177  1
  Co  Co122  1  0.37270379  0.87886259  0.12507698  1
  Co  Co123  1  0.12480741  0.12859196  0.87171188  1
  Co  Co124  1  0.62684435  0.37364785  0.87146956  1
  Co  Co125  1  0.62484182  0.12674698  0.87686543  1
  Co  Co126  1  0.00067629  0.75173917  0.49856223  1
  Co  Co127  1  0.24827828  -0.00304905  0.50357438  1
