# generated using pymatgen
data_Fe45Co19
_symmetry_space_group_name_H-M   'P 1'
_cell_length_a   11.41546751
_cell_length_b   11.41439022
_cell_length_c   11.41465625
_cell_angle_alpha   90.00641788
_cell_angle_beta   90.00210589
_cell_angle_gamma   89.99368553
_symmetry_Int_Tables_number   1
_chemical_formula_structural   Fe45Co19
_chemical_formula_sum   'Fe90 Co38'
_cell_volume   1487.33654660
_cell_formula_units_Z   2
loop_
 _symmetry_equiv_pos_site_id
 _symmetry_equiv_pos_as_xyz
  1  'x, y, z'
loop_
 _atom_site_type_symbol
 _atom_site_label
 _atom_site_symmetry_multiplicity
 _atom_site_fract_x
 _atom_site_fract_y
 _atom_site_fract_z
 _atom_site_occupancy
  Fe  Fe0  1  0.49837071  0.00017606  0.74947839  1
  Fe  Fe1  1  0.49849437  0.25110648  0.50066889  1
  Fe  Fe2  1  0.74823601  0.24938065  -0.00134403  1
  Fe  Fe3  1  -0.00103481  0.49953487  0.00037830  1
  Fe  Fe4  1  0.37324674  0.87613067  0.12631928  1
  Fe  Fe5  1  0.74934312  0.00140663  0.75115046  1
  Fe  Fe6  1  0.49956963  0.50197620  0.25024064  1
  Fe  Fe7  1  0.12742245  0.12669198  0.62306176  1
  Fe  Fe8  1  0.62582323  0.87392382  0.62465129  1
  Fe  Fe9  1  0.24847915  0.74993885  -0.00134927  1
  Fe  Fe10  1  0.00339897  0.74711072  0.74914835  1
  Fe  Fe11  1  0.12498676  0.87744198  0.62313783  1
  Fe  Fe12  1  0.50023071  0.75109944  0.00286128  1
  Fe  Fe13  1  -0.00045425  0.25170126  0.24995370  1
  Fe  Fe14  1  0.87479789  0.87593455  0.12353208  1
  Fe  Fe15  1  0.37437547  0.62626816  0.12496504  1
  Fe  Fe16  1  0.37326647  0.12297168  0.12465754  1
  Fe  Fe17  1  0.12610311  0.37447542  0.87660753  1
  Fe  Fe18  1  0.75140192  0.49995131  0.75294980  1
  Fe  Fe19  1  0.87404803  0.62369791  0.62495807  1
  Fe  Fe20  1  0.62133126  0.37754465  0.87646215  1
  Fe  Fe21  1  0.74837306  0.74982714  0.75102332  1
  Fe  Fe22  1  0.74942547  -0.00073049  0.49931798  1
  Fe  Fe23  1  0.87444266  0.12541995  0.62447440  1
  Fe  Fe24  1  0.50045308  -0.00153742  0.24992170  1
  Fe  Fe25  1  0.12625059  0.62061580  0.62494329  1
  Fe  Fe26  1  0.00349434  0.74985565  0.25013682  1
  Fe  Fe27  1  0.37596548  0.62477014  0.37571101  1
  Fe  Fe28  1  0.00165468  0.74871815  0.49990863  1
  Fe  Fe29  1  0.74686882  -0.00065411  0.25120732  1
  Fe  Fe30  1  0.87583614  0.37416326  0.87645700  1
  Fe  Fe31  1  0.62442311  0.12491809  0.62473820  1
  Fe  Fe32  1  0.25224032  0.50149836  0.75454855  1
  Fe  Fe33  1  0.37321511  0.12807204  0.87453574  1
  Fe  Fe34  1  0.49785137  0.25077642  0.00114042  1
  Fe  Fe35  1  0.87422935  0.12456759  0.37524206  1
  Fe  Fe36  1  0.00142210  0.25158288  0.74974322  1
  Fe  Fe37  1  0.87373117  0.37487356  0.12510381  1
  Fe  Fe38  1  0.24974523  0.49938069  0.25293367  1
  Fe  Fe39  1  0.37740499  0.12725355  0.37371636  1
  Fe  Fe40  1  0.87628593  0.12553622  0.87660796  1
  Fe  Fe41  1  0.12569186  0.37577724  0.12532603  1
  Fe  Fe42  1  0.25060626  0.25073575  0.25147433  1
  Fe  Fe43  1  0.62417741  0.37747860  0.12278031  1
  Fe  Fe44  1  0.00104392  0.00224210  0.74973332  1
  Fe  Fe45  1  0.87587405  0.62505882  0.12471156  1
  Fe  Fe46  1  0.12654007  0.37541226  0.62485862  1
  Fe  Fe47  1  0.12377370  0.87440092  0.87574478  1
  Fe  Fe48  1  0.62191519  0.62368117  0.87644862  1
  Fe  Fe49  1  0.87463463  0.37681605  0.62401896  1
  Fe  Fe50  1  0.25266806  0.00078859  0.49949491  1
  Fe  Fe51  1  0.12797536  0.12396634  0.12214728  1
  Fe  Fe52  1  0.37584411  0.87279481  0.37619577  1
  Fe  Fe53  1  -0.00018003  0.25233943  0.49887019  1
  Fe  Fe54  1  0.50167374  0.74383238  0.50511765  1
  Fe  Fe55  1  0.37493884  0.86925579  0.87021693  1
  Fe  Fe56  1  0.62287742  0.87118894  0.37559739  1
  Fe  Fe57  1  0.25555505  0.49932705  -0.00298134  1
  Fe  Fe58  1  0.74672806  0.24881107  0.25098232  1
  Fe  Fe59  1  0.12734545  0.87719592  0.12520929  1
  Fe  Fe60  1  0.00269914  -0.00052428  0.25042536  1
  Fe  Fe61  1  0.49854356  0.00034180  0.50178587  1
  Fe  Fe62  1  0.74790910  0.25008179  0.75131038  1
  Fe  Fe63  1  0.24915999  0.75051581  0.25251349  1
  Fe  Fe64  1  0.62357677  0.87685141  0.87706436  1
  Fe  Fe65  1  0.87532063  0.87447942  0.62464263  1
  Fe  Fe66  1  0.62357427  0.12056317  0.12079413  1
  Fe  Fe67  1  0.37633225  0.37508259  0.12798041  1
  Fe  Fe68  1  0.62133309  0.37530924  0.37402046  1
  Fe  Fe69  1  0.87808386  0.62585841  0.87628564  1
  Fe  Fe70  1  0.74775293  0.50136954  0.49711041  1
  Fe  Fe71  1  0.74905771  0.75048961  0.25142141  1
  Fe  Fe72  1  0.12579631  0.62330944  0.12435672  1
  Fe  Fe73  1  0.25074735  0.49648227  0.49549585  1
  Fe  Fe74  1  0.74821848  0.25083731  0.49862347  1
  Fe  Fe75  1  0.25137656  -0.00020118  0.74904015  1
  Fe  Fe76  1  0.62478904  0.62523204  0.12569613  1
  Fe  Fe77  1  0.87775522  0.62321225  0.37479801  1
  Fe  Fe78  1  0.49641912  0.50460688  0.74812930  1
  Fe  Fe79  1  0.37332141  0.37462183  0.62524385  1
  Fe  Fe80  1  0.12541297  0.12528897  0.37585845  1
  Fe  Fe81  1  0.62432396  0.37785506  0.62569689  1
  Fe  Fe82  1  0.49976599  0.24936807  0.74878770  1
  Fe  Fe83  1  0.12738779  0.12725209  0.87848330  1
  Fe  Fe84  1  0.24852320  0.75027778  0.50042999  1
  Fe  Fe85  1  0.75003341  0.50032706  0.25071221  1
  Fe  Fe86  1  0.74929889  0.75023726  0.00047678  1
  Fe  Fe87  1  0.87765355  0.87551994  0.37664046  1
  Fe  Fe88  1  0.87760423  0.87508492  0.87627298  1
  Fe  Fe89  1  0.87536999  0.12393390  0.12356069  1
  Co  Co90  1  0.37724289  0.37257268  0.87268601  1
  Co  Co91  1  0.49498906  0.50125884  0.00073799  1
  Co  Co92  1  0.25074183  -0.00022467  0.25327279  1
  Co  Co93  1  0.25298782  0.25329342  0.00194254  1
  Co  Co94  1  0.12471307  0.62409756  0.37408430  1
  Co  Co95  1  0.00054975  0.25080252  0.00130160  1
  Co  Co96  1  0.62273521  0.62585583  0.37238317  1
  Co  Co97  1  0.37417667  0.12678980  0.62564609  1
  Co  Co98  1  0.37616628  0.63179978  0.87388473  1
  Co  Co99  1  0.62294543  0.12503837  0.37686550  1
  Co  Co100  1  0.25180325  -0.00253748  -0.00318587  1
  Co  Co101  1  0.00009868  0.49952734  0.24875797  1
  Co  Co102  1  0.00132147  0.49874697  0.49938501  1
  Co  Co103  1  0.12306511  0.37456328  0.37304967  1
  Co  Co104  1  0.00117848  -0.00009397  0.00080040  1
  Co  Co105  1  0.63038440  0.62228235  0.62676870  1
  Co  Co106  1  0.24889005  0.25058350  0.74926967  1
  Co  Co107  1  0.75099488  0.50115537  -0.00056780  1
  Co  Co108  1  0.25171266  0.25145127  0.49685560  1
  Co  Co109  1  0.50226078  0.24806802  0.24662339  1
  Co  Co110  1  0.62249226  0.12437226  0.87646176  1
  Co  Co111  1  0.75027631  0.74835752  0.49861705  1
  Co  Co112  1  0.87427653  0.37572010  0.37424346  1
  Co  Co113  1  -0.00038828  0.49891903  0.75082472  1
  Co  Co114  1  0.12547355  0.87587390  0.37667010  1
  Co  Co115  1  0.24437514  0.74897213  0.74863627  1
  Co  Co116  1  0.49886058  0.50244428  0.50216981  1
  Co  Co117  1  0.37499651  0.87196570  0.62627782  1
  Co  Co118  1  0.37919393  0.37404051  0.37250346  1
  Co  Co119  1  0.49806509  0.75007265  0.24788152  1
  Co  Co120  1  0.50409515  0.74717391  0.74515140  1
  Co  Co121  1  0.00177133  0.75047570  0.00197501  1
  Co  Co122  1  0.49432333  -0.00226002  -0.00214144  1
  Co  Co123  1  0.12479147  0.62320269  0.87741910  1
  Co  Co124  1  0.36938709  0.62559351  0.62568087  1
  Co  Co125  1  0.75220284  0.00004527  -0.00123097  1
  Co  Co126  1  0.62544868  0.87642539  0.12449615  1
  Co  Co127  1  -0.00017312  0.00143633  0.50029763  1
