# generated using pymatgen
data_Fe45Co19
_symmetry_space_group_name_H-M   'P 1'
_cell_length_a   11.41368000
_cell_length_b   11.41452480
_cell_length_c   11.41441364
_cell_angle_alpha   89.99379477
_cell_angle_beta   90.00203186
_cell_angle_gamma   90.00553884
_symmetry_Int_Tables_number   1
_chemical_formula_structural   Fe45Co19
_chemical_formula_sum   'Fe90 Co38'
_cell_volume   1487.08957812
_cell_formula_units_Z   2
loop_
 _symmetry_equiv_pos_site_id
 _symmetry_equiv_pos_as_xyz
  1  'x, y, z'
loop_
 _atom_site_type_symbol
 _atom_site_label
 _atom_site_symmetry_multiplicity
 _atom_site_fract_x
 _atom_site_fract_y
 _atom_site_fract_z
 _atom_site_occupancy
  Fe  Fe0  1  0.87690596  0.62647463  0.62884967  1
  Fe  Fe1  1  0.62062025  0.37280255  0.62625556  1
  Fe  Fe2  1  0.62450169  0.12825143  0.37355848  1
  Fe  Fe3  1  0.37501650  0.37282045  0.62471395  1
  Fe  Fe4  1  0.87249491  0.12569454  0.62640943  1
  Fe  Fe5  1  0.12603224  0.12691429  0.62658335  1
  Fe  Fe6  1  0.74852483  0.25744130  0.24914261  1
  Fe  Fe7  1  -0.00003480  0.24982371  0.00003331  1
  Fe  Fe8  1  0.00433489  0.50149185  0.50251455  1
  Fe  Fe9  1  0.25035414  -0.00007852  0.75047249  1
  Fe  Fe10  1  0.62384150  0.87468088  0.37545672  1
  Fe  Fe11  1  0.49981867  0.00179449  0.24749866  1
  Fe  Fe12  1  0.75003284  0.00094213  -0.00071875  1
  Fe  Fe13  1  0.24913555  0.24965462  0.49887574  1
  Fe  Fe14  1  0.75208080  0.49560147  0.24990471  1
  Fe  Fe15  1  -0.00155980  0.74685420  0.00033285  1
  Fe  Fe16  1  -0.00192048  0.00263349  0.00150064  1
  Fe  Fe17  1  0.25134463  0.74662804  0.00066794  1
  Fe  Fe18  1  0.75109684  -0.00060765  0.25132171  1
  Fe  Fe19  1  0.50088913  0.25245495  0.24672057  1
  Fe  Fe20  1  0.12879072  0.37406794  0.11939607  1
  Fe  Fe21  1  0.74948510  0.74608995  -0.00177856  1
  Fe  Fe22  1  0.62556360  0.37785191  0.87310539  1
  Fe  Fe23  1  0.24670630  0.74637873  0.49912775  1
  Fe  Fe24  1  0.25112277  0.49508605  0.75371025  1
  Fe  Fe25  1  0.12429813  0.87481192  0.62530584  1
  Fe  Fe26  1  0.12502030  0.87494514  0.12368937  1
  Fe  Fe27  1  0.37527275  0.87432024  0.37629895  1
  Fe  Fe28  1  0.37158685  0.62343429  0.37281028  1
  Fe  Fe29  1  0.37638474  0.12497166  0.87597378  1
  Fe  Fe30  1  0.87416134  0.87416414  0.12421473  1
  Fe  Fe31  1  0.74902740  0.74771399  0.49969679  1
  Fe  Fe32  1  0.37590254  0.87409156  0.62488803  1
  Fe  Fe33  1  0.25080921  0.00283283  0.00064916  1
  Fe  Fe34  1  0.37710821  0.87563207  0.12212814  1
  Fe  Fe35  1  0.87103310  0.13000350  0.12538954  1
  Fe  Fe36  1  0.87218123  0.12902487  0.87419715  1
  Fe  Fe37  1  0.50421039  0.24707915  0.00057197  1
  Fe  Fe38  1  0.24987084  0.75175305  0.75113902  1
  Fe  Fe39  1  0.74992334  0.00112866  0.49989722  1
  Fe  Fe40  1  0.37600571  0.37535208  0.37743026  1
  Fe  Fe41  1  0.87607692  0.87384560  0.37657449  1
  Fe  Fe42  1  0.12817524  0.12812845  0.12655217  1
  Fe  Fe43  1  0.87678299  0.13111051  0.37390695  1
  Fe  Fe44  1  0.12301944  0.62447919  0.87208328  1
  Fe  Fe45  1  0.74806307  0.25218949  0.50072061  1
  Fe  Fe46  1  0.24994334  0.25258563  0.75538424  1
  Fe  Fe47  1  -0.00088213  0.49526299  0.24808389  1
  Fe  Fe48  1  0.87678215  0.37448408  0.62409768  1
  Fe  Fe49  1  0.12820462  0.62350315  0.12800824  1
  Fe  Fe50  1  0.49985629  0.74868628  0.24879024  1
  Fe  Fe51  1  0.74824807  0.74960681  0.75242787  1
  Fe  Fe52  1  0.12262915  0.37265870  0.37760189  1
  Fe  Fe53  1  0.00000466  0.25242393  0.74985378  1
  Fe  Fe54  1  0.50186044  0.74740440  -0.00254821  1
  Fe  Fe55  1  0.25021419  0.00055564  0.24988893  1
  Fe  Fe56  1  0.62593449  0.62129890  0.12459058  1
  Fe  Fe57  1  0.49755089  0.50187462  -0.00145504  1
  Fe  Fe58  1  0.37070216  0.37315408  0.11818828  1
  Fe  Fe59  1  0.24939275  0.00234405  0.50026713  1
  Fe  Fe60  1  -0.00027237  0.49667072  0.75054110  1
  Fe  Fe61  1  0.49879418  0.50063944  0.50161678  1
  Fe  Fe62  1  0.62223091  0.62331920  0.63004544  1
  Fe  Fe63  1  0.37488606  0.12642470  0.37338354  1
  Fe  Fe64  1  0.87483806  0.87369845  0.87569678  1
  Fe  Fe65  1  -0.00027840  0.74937945  0.24969547  1
  Fe  Fe66  1  0.37756689  0.62439819  0.87232415  1
  Fe  Fe67  1  0.62604584  0.87609785  0.62632961  1
  Fe  Fe68  1  -0.00062660  0.00312696  0.24906699  1
  Fe  Fe69  1  0.12451883  0.87603228  0.37466123  1
  Fe  Fe70  1  0.37239525  0.62388641  0.62710316  1
  Fe  Fe71  1  0.37742496  0.87668214  0.87652961  1
  Fe  Fe72  1  0.75439615  0.50029986  -0.00230388  1
  Fe  Fe73  1  0.00278161  0.74676735  0.50102271  1
  Fe  Fe74  1  0.62881676  0.12501874  0.87201713  1
  Fe  Fe75  1  0.62462168  0.87657706  0.12270663  1
  Fe  Fe76  1  0.62449024  0.62104792  0.37356338  1
  Fe  Fe77  1  0.74901157  0.49907483  0.50220215  1
  Fe  Fe78  1  0.87582542  0.62152958  0.37420420  1
  Fe  Fe79  1  0.37690886  0.12808821  0.62663319  1
  Fe  Fe80  1  -0.00110180  0.00244023  0.50096441  1
  Fe  Fe81  1  0.50025686  0.74761602  0.50093311  1
  Fe  Fe82  1  0.50139125  0.00277529  0.50084591  1
  Fe  Fe83  1  0.50191272  0.00067389  0.75006221  1
  Fe  Fe84  1  0.74949216  0.74900847  0.24991263  1
  Fe  Fe85  1  0.12314526  0.12400668  0.87356787  1
  Fe  Fe86  1  0.49778692  0.49781603  0.24791791  1
  Fe  Fe87  1  0.12500165  0.87596363  0.87728559  1
  Fe  Fe88  1  -0.00296924  -0.00217987  0.74960074  1
  Fe  Fe89  1  -0.00258802  0.50103740  -0.00057673  1
  Co  Co90  1  0.62474069  0.12620302  0.62586398  1
  Co  Co91  1  0.00037180  0.24840928  0.50375027  1
  Co  Co92  1  0.87606594  0.62420524  0.87070734  1
  Co  Co93  1  0.12374088  0.12718080  0.37478516  1
  Co  Co94  1  0.24827465  0.24656316  -0.00587224  1
  Co  Co95  1  0.87344294  0.87250471  0.62413098  1
  Co  Co96  1  0.74965455  0.25382406  0.74730454  1
  Co  Co97  1  0.00107661  0.25296396  0.24675704  1
  Co  Co98  1  0.62495447  0.37964883  0.12156772  1
  Co  Co99  1  0.37662441  0.37310561  0.88061992  1
  Co  Co100  1  0.50038864  0.24899167  0.49841380  1
  Co  Co101  1  0.87480566  0.37283809  0.87542731  1
  Co  Co102  1  0.62493100  0.61914785  0.87295744  1
  Co  Co103  1  0.62317901  0.37725192  0.37683362  1
  Co  Co104  1  0.12755238  0.37316508  0.62600125  1
  Co  Co105  1  0.87730442  0.37505986  0.37888735  1
  Co  Co106  1  0.74630510  0.25276090  -0.00019522  1
  Co  Co107  1  0.12592404  0.62229227  0.36949292  1
  Co  Co108  1  0.49646639  0.49650584  0.74950422  1
  Co  Co109  1  0.24778142  0.49997988  0.49979317  1
  Co  Co110  1  0.50035880  0.25045966  0.75378082  1
  Co  Co111  1  0.62886383  0.12448751  0.12741565  1
  Co  Co112  1  0.75152299  -0.00048200  0.75027874  1
  Co  Co113  1  0.12670468  0.62335529  0.63129165  1
  Co  Co114  1  0.25029907  0.25365523  0.25209500  1
  Co  Co115  1  0.25053142  0.50480870  -0.00362794  1
  Co  Co116  1  0.87425809  0.62402673  0.12755883  1
  Co  Co117  1  0.00099651  0.75364084  0.75070241  1
  Co  Co118  1  0.87481119  0.37283991  0.12134895  1
  Co  Co119  1  0.62455050  0.87679297  0.87611350  1
  Co  Co120  1  0.37294904  0.12842786  0.12489475  1
  Co  Co121  1  0.25054846  0.49408821  0.24985671  1
  Co  Co122  1  0.12294416  0.37577370  0.87863538  1
  Co  Co123  1  0.37444234  0.62319164  0.12655716  1
  Co  Co124  1  0.50095382  0.75094849  0.75109286  1
  Co  Co125  1  0.50189006  0.00512382  0.00025207  1
  Co  Co126  1  0.75137612  0.49722918  0.74766943  1
  Co  Co127  1  0.25117669  0.75251017  0.24884811  1
