# generated using pymatgen
data_Fe45Co19
_symmetry_space_group_name_H-M   'P 1'
_cell_length_a   11.41490010
_cell_length_b   11.41499406
_cell_length_c   11.41696757
_cell_angle_alpha   89.99758574
_cell_angle_beta   90.00805078
_cell_angle_gamma   89.99350059
_symmetry_Int_Tables_number   1
_chemical_formula_structural   Fe45Co19
_chemical_formula_sum   'Fe90 Co38'
_cell_volume   1487.64245811
_cell_formula_units_Z   2
loop_
 _symmetry_equiv_pos_site_id
 _symmetry_equiv_pos_as_xyz
  1  'x, y, z'
loop_
 _atom_site_type_symbol
 _atom_site_label
 _atom_site_symmetry_multiplicity
 _atom_site_fract_x
 _atom_site_fract_y
 _atom_site_fract_z
 _atom_site_occupancy
  Fe  Fe0  1  -0.00043124  0.24984085  0.50170714  1
  Fe  Fe1  1  0.00224447  0.75363438  -0.00060913  1
  Fe  Fe2  1  0.87197484  0.12311151  0.62487648  1
  Fe  Fe3  1  0.75137145  0.25425838  -0.00259464  1
  Fe  Fe4  1  0.37212342  0.37540830  0.87146522  1
  Fe  Fe5  1  0.75031045  0.75243730  -0.00110708  1
  Fe  Fe6  1  -0.00014422  0.50187773  0.74920189  1
  Fe  Fe7  1  0.37250571  0.62508892  0.87722324  1
  Fe  Fe8  1  0.12427057  0.62700522  0.62420701  1
  Fe  Fe9  1  0.24669602  0.00194350  -0.00237678  1
  Fe  Fe10  1  -0.00319928  0.24861436  0.75154827  1
  Fe  Fe11  1  0.37275111  0.12629948  0.12460187  1
  Fe  Fe12  1  0.87593438  0.12131743  0.87923526  1
  Fe  Fe13  1  0.87795300  0.62487810  0.37287784  1
  Fe  Fe14  1  -0.00064814  0.75394714  0.49991565  1
  Fe  Fe15  1  0.62411206  0.87478652  0.12367735  1
  Fe  Fe16  1  0.37291468  0.37527598  0.37381928  1
  Fe  Fe17  1  0.50041054  0.24885210  0.25086932  1
  Fe  Fe18  1  0.37412084  0.12545800  0.37565204  1
  Fe  Fe19  1  0.36984800  0.87308552  0.12402583  1
  Fe  Fe20  1  0.62686097  0.12327710  0.37619170  1
  Fe  Fe21  1  0.50258277  -0.00064226  0.50130941  1
  Fe  Fe22  1  0.12184363  0.87863736  0.87206072  1
  Fe  Fe23  1  0.62620945  0.62556019  0.37407390  1
  Fe  Fe24  1  0.62632112  0.12783616  0.12315911  1
  Fe  Fe25  1  0.49953225  0.24856408  0.74863143  1
  Fe  Fe26  1  -0.00072887  -0.00281944  0.50102939  1
  Fe  Fe27  1  0.12611111  0.12255309  0.62807750  1
  Fe  Fe28  1  0.37323672  0.87548652  0.37243366  1
  Fe  Fe29  1  0.12382104  0.37505434  0.37438746  1
  Fe  Fe30  1  0.24757380  0.75026893  0.75142075  1
  Fe  Fe31  1  0.36867854  0.62862171  0.12119391  1
  Fe  Fe32  1  0.50022112  0.25084317  0.50076835  1
  Fe  Fe33  1  0.87714078  0.62464881  0.87719646  1
  Fe  Fe34  1  -0.00131906  -0.00058721  0.74994821  1
  Fe  Fe35  1  0.87454674  0.12611219  0.12125441  1
  Fe  Fe36  1  0.12431113  0.37461438  0.62782535  1
  Fe  Fe37  1  0.62708302  0.37475011  0.37229152  1
  Fe  Fe38  1  0.37707604  0.87465608  0.87718529  1
  Fe  Fe39  1  0.75189795  0.75319299  0.75395064  1
  Fe  Fe40  1  0.24546702  0.50354987  0.24920088  1
  Fe  Fe41  1  0.37407614  0.87515699  0.62579276  1
  Fe  Fe42  1  0.62593383  0.62427581  0.12390441  1
  Fe  Fe43  1  0.75074829  0.75204424  0.25006957  1
  Fe  Fe44  1  0.24761006  -0.00008785  0.50020043  1
  Fe  Fe45  1  0.37358657  0.62413010  0.37585666  1
  Fe  Fe46  1  0.75178758  0.24994487  0.50087362  1
  Fe  Fe47  1  0.87535471  0.62754038  0.62625211  1
  Fe  Fe48  1  0.49827315  0.25181470  -0.00044590  1
  Fe  Fe49  1  0.50008372  0.00059068  0.24827396  1
  Fe  Fe50  1  0.37189932  0.12521288  0.87368302  1
  Fe  Fe51  1  0.37238654  0.37276436  0.12727056  1
  Fe  Fe52  1  0.12617720  0.37263209  0.87344791  1
  Fe  Fe53  1  0.12589313  0.62273738  0.87752070  1
  Fe  Fe54  1  -0.00190376  0.25012604  0.25096109  1
  Fe  Fe55  1  0.25023174  0.49859585  0.50287256  1
  Fe  Fe56  1  0.62765623  0.37223564  0.62881309  1
  Fe  Fe57  1  0.75219926  0.49872608  0.75135242  1
  Fe  Fe58  1  0.50119162  0.75010800  0.75079892  1
  Fe  Fe59  1  0.24785966  0.75206045  0.49818584  1
  Fe  Fe60  1  0.75219834  0.49919702  0.50049485  1
  Fe  Fe61  1  0.75234964  0.75585412  0.49706757  1
  Fe  Fe62  1  0.24720835  0.00334061  0.25146138  1
  Fe  Fe63  1  0.50114036  0.49878300  0.50179076  1
  Fe  Fe64  1  0.49954966  0.50182781  0.24816336  1
  Fe  Fe65  1  0.62573873  0.12579996  0.87543247  1
  Fe  Fe66  1  -0.00298123  0.49853364  0.50048489  1
  Fe  Fe67  1  0.00076040  0.49655735  0.00204559  1
  Fe  Fe68  1  0.50059438  0.00070249  0.00098912  1
  Fe  Fe69  1  0.87545466  0.12366465  0.37590927  1
  Fe  Fe70  1  0.00220534  0.00188304  0.24785575  1
  Fe  Fe71  1  0.49927922  0.50110337  0.74814426  1
  Fe  Fe72  1  0.24873703  0.24955980  0.50096990  1
  Fe  Fe73  1  0.75391774  0.49756290  0.24841424  1
  Fe  Fe74  1  0.49837320  0.74937288  0.24846143  1
  Fe  Fe75  1  0.12488621  0.37217034  0.12494167  1
  Fe  Fe76  1  0.74857179  -0.00222946  0.75114489  1
  Fe  Fe77  1  0.75021782  0.49629145  0.00022164  1
  Fe  Fe78  1  0.50167838  -0.00004930  0.74859979  1
  Fe  Fe79  1  0.12528447  0.12833952  0.12263277  1
  Fe  Fe80  1  0.87758820  0.87652035  0.12367404  1
  Fe  Fe81  1  0.87836658  0.62443296  0.12374566  1
  Fe  Fe82  1  0.75005358  0.00014947  0.24987907  1
  Fe  Fe83  1  0.50127021  0.75086004  0.49904395  1
  Fe  Fe84  1  0.37378216  0.62531762  0.62489613  1
  Fe  Fe85  1  0.37359732  0.12472335  0.62538155  1
  Fe  Fe86  1  0.62776319  0.62765061  0.62465370  1
  Fe  Fe87  1  0.00660563  0.74815227  0.24923969  1
  Fe  Fe88  1  0.49895861  0.49854117  0.00106979  1
  Fe  Fe89  1  0.62428366  0.62453330  0.87659215  1
  Co  Co90  1  0.75135606  -0.00446872  0.49834569  1
  Co  Co91  1  0.25031474  0.24931074  -0.00172257  1
  Co  Co92  1  0.24976667  0.24873046  0.74827560  1
  Co  Co93  1  0.00460073  0.00038973  0.00212503  1
  Co  Co94  1  0.12604826  0.62511504  0.11927024  1
  Co  Co95  1  0.87755854  0.87776651  0.87725342  1
  Co  Co96  1  0.62229951  0.87548465  0.87681993  1
  Co  Co97  1  0.24575623  0.74609519  0.25305008  1
  Co  Co98  1  0.62292034  0.37530439  0.87286000  1
  Co  Co99  1  0.62237725  0.87558902  0.37293541  1
  Co  Co100  1  0.12415180  0.87533523  0.62666838  1
  Co  Co101  1  0.12242040  0.12530138  0.37626265  1
  Co  Co102  1  0.62584901  0.87411208  0.62514409  1
  Co  Co103  1  0.12461071  0.87734733  0.37435855  1
  Co  Co104  1  0.87550386  0.87434778  0.62838436  1
  Co  Co105  1  0.00059001  0.74859183  0.75253151  1
  Co  Co106  1  0.12283951  0.62316403  0.37983188  1
  Co  Co107  1  0.12839519  0.87558634  0.12702290  1
  Co  Co108  1  0.87971610  0.87648330  0.36981842  1
  Co  Co109  1  0.25145178  -0.00221578  0.75129123  1
  Co  Co110  1  0.87676394  0.37324758  0.12453795  1
  Co  Co111  1  0.24872210  0.50207964  0.74828398  1
  Co  Co112  1  0.12481896  0.12537754  0.87190928  1
  Co  Co113  1  0.74848818  -0.00208394  0.00083857  1
  Co  Co114  1  0.62461088  0.37382931  0.12585814  1
  Co  Co115  1  0.75467226  0.24897187  0.75382928  1
  Co  Co116  1  0.24840185  0.24722712  0.25176079  1
  Co  Co117  1  0.87809863  0.37760805  0.87503411  1
  Co  Co118  1  0.87587337  0.37410491  0.37483552  1
  Co  Co119  1  0.62793653  0.12568454  0.62540820  1
  Co  Co120  1  0.00153693  0.50060385  0.24871215  1
  Co  Co121  1  0.25066337  0.49532653  0.00064081  1
  Co  Co122  1  0.24522921  0.75432814  -0.00504266  1
  Co  Co123  1  0.37481663  0.37423576  0.62647907  1
  Co  Co124  1  0.00043223  0.24918103  -0.00304006  1
  Co  Co125  1  0.87506108  0.37487923  0.62698079  1
  Co  Co126  1  0.75210978  0.24838666  0.24970754  1
  Co  Co127  1  0.50117284  0.74858770  0.00184865  1
