# generated using pymatgen
data_Fe45Co19
_symmetry_space_group_name_H-M   'P 1'
_cell_length_a   11.41463809
_cell_length_b   11.41499807
_cell_length_c   11.41503320
_cell_angle_alpha   90.00398496
_cell_angle_beta   90.00744960
_cell_angle_gamma   89.99827863
_symmetry_Int_Tables_number   1
_chemical_formula_structural   Fe45Co19
_chemical_formula_sum   'Fe90 Co38'
_cell_volume   1487.35679654
_cell_formula_units_Z   2
loop_
 _symmetry_equiv_pos_site_id
 _symmetry_equiv_pos_as_xyz
  1  'x, y, z'
loop_
 _atom_site_type_symbol
 _atom_site_label
 _atom_site_symmetry_multiplicity
 _atom_site_fract_x
 _atom_site_fract_y
 _atom_site_fract_z
 _atom_site_occupancy
  Fe  Fe0  1  -0.00724862  0.50408368  0.75029495  1
  Fe  Fe1  1  0.37460985  0.37545637  0.87408131  1
  Fe  Fe2  1  0.50423391  0.75804629  0.49984255  1
  Fe  Fe3  1  0.75087696  0.74941862  0.25071051  1
  Fe  Fe4  1  0.12657133  0.37729762  0.87052051  1
  Fe  Fe5  1  0.24090750  0.25025673  0.50550894  1
  Fe  Fe6  1  0.74839525  0.50105416  0.50158001  1
  Fe  Fe7  1  0.12660232  0.87282808  0.62992376  1
  Fe  Fe8  1  0.49922991  0.75171194  0.25128074  1
  Fe  Fe9  1  0.75117645  -0.00004069  0.00049219  1
  Fe  Fe10  1  0.49668639  0.49879627  0.25029215  1
  Fe  Fe11  1  0.00160459  0.25046286  0.74933463  1
  Fe  Fe12  1  -0.00243947  -0.00331595  0.74886845  1
  Fe  Fe13  1  -0.00088713  0.49867264  0.25162769  1
  Fe  Fe14  1  0.87332653  0.87485962  0.37721498  1
  Fe  Fe15  1  0.12652748  0.87317350  0.12573691  1
  Fe  Fe16  1  0.87475178  0.37396589  0.12527974  1
  Fe  Fe17  1  0.88021907  0.12672701  0.61912193  1
  Fe  Fe18  1  0.00095309  0.25335686  0.25345543  1
  Fe  Fe19  1  0.87541418  0.62461360  0.37850759  1
  Fe  Fe20  1  0.87126230  0.87404299  0.62116630  1
  Fe  Fe21  1  0.49795039  0.24720828  0.74845529  1
  Fe  Fe22  1  -0.00074089  0.75070571  0.24978543  1
  Fe  Fe23  1  0.62293265  0.62452456  0.37625483  1
  Fe  Fe24  1  0.37238064  0.87324971  0.87549922  1
  Fe  Fe25  1  0.24824771  0.25035480  -0.00164466  1
  Fe  Fe26  1  0.37103187  0.87592820  0.37646892  1
  Fe  Fe27  1  0.12710991  0.37689296  0.12609349  1
  Fe  Fe28  1  0.37568321  0.12377150  0.12370668  1
  Fe  Fe29  1  0.87659637  0.12598807  0.87511641  1
  Fe  Fe30  1  0.24811641  0.50552506  -0.00279977  1
  Fe  Fe31  1  0.12432950  0.62495018  0.37378604  1
  Fe  Fe32  1  0.62344593  0.12348965  0.12448471  1
  Fe  Fe33  1  0.87029776  0.37506978  0.87277563  1
  Fe  Fe34  1  0.24397326  0.00008112  0.50021299  1
  Fe  Fe35  1  0.62650655  0.37267382  0.62564532  1
  Fe  Fe36  1  0.50042358  0.75332965  -0.00076563  1
  Fe  Fe37  1  0.74953758  0.75226936  0.00233060  1
  Fe  Fe38  1  0.12493953  0.12228977  0.87183525  1
  Fe  Fe39  1  0.62666887  0.87761731  0.87039078  1
  Fe  Fe40  1  0.88182004  0.12635762  0.38176482  1
  Fe  Fe41  1  0.62543166  0.37341211  0.12679409  1
  Fe  Fe42  1  0.37770848  0.62630810  0.37880505  1
  Fe  Fe43  1  0.25386206  0.50583013  0.75103284  1
  Fe  Fe44  1  0.37232331  0.37447991  0.37922518  1
  Fe  Fe45  1  0.24968864  -0.00171560  0.00168768  1
  Fe  Fe46  1  0.75023412  0.24903318  -0.00036172  1
  Fe  Fe47  1  0.62100395  0.12126702  0.62288036  1
  Fe  Fe48  1  0.49967823  0.25102953  0.00006664  1
  Fe  Fe49  1  0.12196043  0.62487561  0.62854050  1
  Fe  Fe50  1  0.75115728  0.24762464  0.25371359  1
  Fe  Fe51  1  0.75126482  0.50118170  0.24968922  1
  Fe  Fe52  1  0.62128478  0.12190820  0.37813962  1
  Fe  Fe53  1  0.37567788  0.62665893  0.12151924  1
  Fe  Fe54  1  0.25134397  0.74891450  0.24892724  1
  Fe  Fe55  1  0.00303739  0.49493510  0.49857078  1
  Fe  Fe56  1  0.12400596  0.12482362  0.12678620  1
  Fe  Fe57  1  0.24908302  0.50208799  0.50185606  1
  Fe  Fe58  1  0.62452066  0.62495716  0.12456325  1
  Fe  Fe59  1  0.62282135  0.12244477  0.87459240  1
  Fe  Fe60  1  0.00171570  0.25070182  -0.00198476  1
  Fe  Fe61  1  0.62392635  0.62774348  0.62344276  1
  Fe  Fe62  1  0.87613208  0.87165607  0.87688739  1
  Fe  Fe63  1  0.62854212  0.37563526  0.87152190  1
  Fe  Fe64  1  0.62458276  0.87792746  0.12787691  1
  Fe  Fe65  1  0.25371475  0.00180155  0.74723159  1
  Fe  Fe66  1  0.49547960  -0.00124673  0.25112446  1
  Fe  Fe67  1  0.49651261  0.25099526  0.25157255  1
  Fe  Fe68  1  0.00270859  -0.00278038  0.25307412  1
  Fe  Fe69  1  0.37348745  0.37282551  0.62512567  1
  Fe  Fe70  1  0.25322532  0.50240881  0.25005360  1
  Fe  Fe71  1  0.24738887  0.74840434  0.50153277  1
  Fe  Fe72  1  0.87243112  0.37203255  0.62367745  1
  Fe  Fe73  1  0.50049964  0.50072289  0.74762535  1
  Fe  Fe74  1  0.37319202  0.12370845  0.38089028  1
  Fe  Fe75  1  0.37851696  0.62897566  0.62380796  1
  Fe  Fe76  1  0.00118060  -0.00273460  -0.00040151  1
  Fe  Fe77  1  0.75317756  0.00209156  0.25195410  1
  Fe  Fe78  1  0.62509585  0.37591300  0.37593329  1
  Fe  Fe79  1  0.87785596  0.12448714  0.12551246  1
  Fe  Fe80  1  0.62691907  0.62345862  0.87504691  1
  Fe  Fe81  1  0.00091266  0.50251757  -0.00123491  1
  Fe  Fe82  1  0.37579113  0.12429368  0.87548986  1
  Fe  Fe83  1  0.87604256  0.62641722  0.12182823  1
  Fe  Fe84  1  0.50095468  0.49856998  0.00036147  1
  Fe  Fe85  1  0.25088761  0.24825797  0.24968521  1
  Fe  Fe86  1  0.75452197  0.74496001  0.74789972  1
  Fe  Fe87  1  0.75290420  0.00387113  0.74840882  1
  Fe  Fe88  1  0.00206396  0.75237437  0.50030639  1
  Fe  Fe89  1  0.49863939  0.75349623  0.74878525  1
  Co  Co90  1  0.12764710  0.87126666  0.37329944  1
  Co  Co91  1  0.24951830  0.00063932  0.25044170  1
  Co  Co92  1  0.37364337  0.87349125  0.12447416  1
  Co  Co93  1  0.12062813  0.62758880  0.86841134  1
  Co  Co94  1  0.38012463  0.62632802  0.87552120  1
  Co  Co95  1  0.74924800  0.00136333  0.49945600  1
  Co  Co96  1  0.12476124  0.62462649  0.12923759  1
  Co  Co97  1  0.49544353  -0.00181214  0.74676034  1
  Co  Co98  1  0.13040740  0.37674147  0.37100487  1
  Co  Co99  1  0.74740804  0.24669581  0.49885577  1
  Co  Co100  1  0.50101763  0.25161746  0.49975325  1
  Co  Co101  1  0.74639362  0.75031014  0.49778385  1
  Co  Co102  1  0.00497536  0.75012341  -0.00014790  1
  Co  Co103  1  0.25212239  0.74664577  0.75092224  1
  Co  Co104  1  0.87319364  0.62695897  0.88071145  1
  Co  Co105  1  0.37591196  0.12539548  0.61893295  1
  Co  Co106  1  0.74950197  0.24415895  0.74793907  1
  Co  Co107  1  0.12630362  0.87568117  0.87073041  1
  Co  Co108  1  0.00817621  0.25691837  0.50162367  1
  Co  Co109  1  0.37256461  0.37595045  0.12263149  1
  Co  Co110  1  0.87700838  0.62562082  0.61739942  1
  Co  Co111  1  0.24616630  0.74679740  -0.00240063  1
  Co  Co112  1  0.12082789  0.12204056  0.62842365  1
  Co  Co113  1  0.25046851  0.24682354  0.74897522  1
  Co  Co114  1  0.87213958  0.37437159  0.37842621  1
  Co  Co115  1  0.12603939  0.38065318  0.63358944  1
  Co  Co116  1  0.75157237  0.50496544  0.74601295  1
  Co  Co117  1  0.74987618  0.49817029  0.00150799  1
  Co  Co118  1  0.49975061  0.49827125  0.50220432  1
  Co  Co119  1  0.37063898  0.87378314  0.62282636  1
  Co  Co120  1  -0.00485138  0.75025518  0.74829085  1
  Co  Co121  1  0.12266854  0.12624676  0.37478578  1
  Co  Co122  1  0.50063694  -0.00765403  0.50181598  1
  Co  Co123  1  0.00497211  -0.00587428  0.49994615  1
  Co  Co124  1  0.49958797  -0.00299606  -0.00086493  1
  Co  Co125  1  0.63068171  0.87695170  0.62988626  1
  Co  Co126  1  0.87599376  0.87582934  0.12553186  1
  Co  Co127  1  0.62771572  0.87776733  0.37099911  1
