# generated using pymatgen
data_Fe45Co19
_symmetry_space_group_name_H-M   'P 1'
_cell_length_a   11.41603919
_cell_length_b   11.41484629
_cell_length_c   11.41545715
_cell_angle_alpha   90.00810451
_cell_angle_beta   90.00430772
_cell_angle_gamma   90.00510882
_symmetry_Int_Tables_number   1
_chemical_formula_structural   Fe45Co19
_chemical_formula_sum   'Fe90 Co38'
_cell_volume   1487.57482353
_cell_formula_units_Z   2
loop_
 _symmetry_equiv_pos_site_id
 _symmetry_equiv_pos_as_xyz
  1  'x, y, z'
loop_
 _atom_site_type_symbol
 _atom_site_label
 _atom_site_symmetry_multiplicity
 _atom_site_fract_x
 _atom_site_fract_y
 _atom_site_fract_z
 _atom_site_occupancy
  Fe  Fe0  1  0.12732932  0.37516674  0.12271497  1
  Fe  Fe1  1  0.25192415  0.25316511  0.25139224  1
  Fe  Fe2  1  0.87677496  0.37739298  0.62806985  1
  Fe  Fe3  1  0.75346780  0.74657591  0.50040189  1
  Fe  Fe4  1  0.37437206  0.87581765  0.87712547  1
  Fe  Fe5  1  0.62409958  0.37523535  0.61936326  1
  Fe  Fe6  1  -0.00077866  0.74929594  0.50194028  1
  Fe  Fe7  1  0.62544493  0.87209897  0.37642426  1
  Fe  Fe8  1  0.24791754  0.00026193  0.49906234  1
  Fe  Fe9  1  0.25093920  0.25492553  0.74988602  1
  Fe  Fe10  1  0.87563352  0.37726477  0.37479917  1
  Fe  Fe11  1  0.50277742  0.49970760  0.74844324  1
  Fe  Fe12  1  -0.00145355  0.74724494  0.00086745  1
  Fe  Fe13  1  0.49989366  0.74940445  0.24966294  1
  Fe  Fe14  1  0.87276469  0.87891046  0.12360458  1
  Fe  Fe15  1  0.49828983  0.00212110  -0.00188682  1
  Fe  Fe16  1  0.49991499  0.00133501  0.50041946  1
  Fe  Fe17  1  0.87548612  0.87694326  0.37374857  1
  Fe  Fe18  1  0.87546226  0.12605432  0.87383348  1
  Fe  Fe19  1  0.62217584  0.12643211  0.12564374  1
  Fe  Fe20  1  0.00280724  -0.00003995  0.49961419  1
  Fe  Fe21  1  0.12645311  0.12724727  0.87371290  1
  Fe  Fe22  1  0.00061544  0.49937303  -0.00204314  1
  Fe  Fe23  1  0.25212284  0.49926170  0.00135834  1
  Fe  Fe24  1  0.00377153  0.49994261  0.24739623  1
  Fe  Fe25  1  0.62715601  0.62477018  0.62379466  1
  Fe  Fe26  1  0.87354031  0.12348231  0.12708348  1
  Fe  Fe27  1  0.25262382  0.25123688  0.50133516  1
  Fe  Fe28  1  0.75194304  0.75080901  0.75035830  1
  Fe  Fe29  1  0.87606478  0.12394881  0.62742303  1
  Fe  Fe30  1  0.37504282  0.87450412  0.62257042  1
  Fe  Fe31  1  0.24956727  -0.00243328  0.75023442  1
  Fe  Fe32  1  0.37557252  0.12405231  0.62825006  1
  Fe  Fe33  1  0.74965027  0.24941011  -0.00035963  1
  Fe  Fe34  1  0.75147349  0.74968822  0.24815314  1
  Fe  Fe35  1  0.62422019  0.37482498  0.38074970  1
  Fe  Fe36  1  0.12519125  0.87049256  0.62741632  1
  Fe  Fe37  1  0.12631234  0.62774597  0.87250666  1
  Fe  Fe38  1  0.74822487  0.50005843  0.00022190  1
  Fe  Fe39  1  0.00237308  0.00181213  0.00063901  1
  Fe  Fe40  1  0.74944267  0.00109445  0.49956507  1
  Fe  Fe41  1  0.00356882  0.50249452  0.50323818  1
  Fe  Fe42  1  0.87365539  0.87637791  0.87748442  1
  Fe  Fe43  1  0.24813536  0.74494014  0.49947065  1
  Fe  Fe44  1  0.00129314  -0.00225741  0.75039297  1
  Fe  Fe45  1  0.62401704  0.62703808  0.87688188  1
  Fe  Fe46  1  0.12790479  0.87589990  0.12347847  1
  Fe  Fe47  1  0.87414055  0.62057638  0.87266216  1
  Fe  Fe48  1  0.87460930  0.37598890  0.12369657  1
  Fe  Fe49  1  0.25630739  0.25073233  -0.00211296  1
  Fe  Fe50  1  0.12587212  0.37593340  0.37741145  1
  Fe  Fe51  1  0.87535478  0.12287653  0.37216665  1
  Fe  Fe52  1  0.24771863  0.74564103  0.24914948  1
  Fe  Fe53  1  -0.00243872  0.24850362  0.49928348  1
  Fe  Fe54  1  -0.00102561  0.25073151  -0.00062885  1
  Fe  Fe55  1  0.00157416  0.25030255  0.24957292  1
  Fe  Fe56  1  0.37464468  0.62339389  0.12594420  1
  Fe  Fe57  1  0.12728529  0.87183701  0.87582583  1
  Fe  Fe58  1  0.62485136  0.12778463  0.37678304  1
  Fe  Fe59  1  0.74785315  0.49875257  0.25008521  1
  Fe  Fe60  1  0.75089345  0.25356540  0.74950995  1
  Fe  Fe61  1  0.37307283  0.62202922  0.62449976  1
  Fe  Fe62  1  0.62499068  0.87353540  0.62363612  1
  Fe  Fe63  1  0.37438079  0.12427591  0.37464099  1
  Fe  Fe64  1  0.87696526  0.62184558  0.63074683  1
  Fe  Fe65  1  0.62723087  0.87516726  0.12115259  1
  Fe  Fe66  1  0.24436162  0.49622842  0.74553445  1
  Fe  Fe67  1  0.62517013  0.62678456  0.12381771  1
  Fe  Fe68  1  0.61995912  0.37215288  0.12319902  1
  Fe  Fe69  1  0.12443020  0.12823050  0.62626186  1
  Fe  Fe70  1  0.74909916  -0.00178220  0.75007849  1
  Fe  Fe71  1  0.49929034  0.74491478  0.49847900  1
  Fe  Fe72  1  0.37518277  0.62183481  0.87388091  1
  Fe  Fe73  1  0.49724400  0.75039556  0.74942684  1
  Fe  Fe74  1  0.49740563  0.25341354  0.74977391  1
  Fe  Fe75  1  0.37637677  0.12628282  0.12701284  1
  Fe  Fe76  1  0.62263376  0.12508147  0.87265062  1
  Fe  Fe77  1  0.62388034  0.12644472  0.62523031  1
  Fe  Fe78  1  0.74851587  0.25130865  0.25140361  1
  Fe  Fe79  1  0.50021058  -0.00149468  0.25153116  1
  Fe  Fe80  1  0.12487926  0.87407088  0.37281539  1
  Fe  Fe81  1  0.62452899  0.87299712  0.87720399  1
  Fe  Fe82  1  0.87601202  0.62342532  0.37203370  1
  Fe  Fe83  1  0.62247969  0.37509813  0.87779896  1
  Fe  Fe84  1  0.12827142  0.12535671  0.12673397  1
  Fe  Fe85  1  0.50066587  0.50046008  0.25175789  1
  Fe  Fe86  1  0.37389035  0.87272348  0.37510493  1
  Fe  Fe87  1  0.37172298  0.87573889  0.12384792  1
  Fe  Fe88  1  0.00033684  0.74839486  0.24576365  1
  Fe  Fe89  1  0.37491385  0.38047556  0.37845617  1
  Co  Co90  1  0.49963769  0.50188846  0.00149241  1
  Co  Co91  1  0.74665289  0.00020894  0.25103910  1
  Co  Co92  1  0.12207294  0.36991076  0.62152121  1
  Co  Co93  1  0.49916841  0.25194360  0.25460110  1
  Co  Co94  1  0.12709830  0.37256358  0.87935867  1
  Co  Co95  1  0.87334293  0.37680602  0.87563281  1
  Co  Co96  1  0.49573455  0.24860720  -0.00437802  1
  Co  Co97  1  0.12275521  0.62419956  0.37397413  1
  Co  Co98  1  0.12557057  0.62257392  0.12244815  1
  Co  Co99  1  0.25153181  0.74684084  0.00030608  1
  Co  Co100  1  0.87414560  0.62055909  0.12584705  1
  Co  Co101  1  0.37611626  0.37976207  0.87327452  1
  Co  Co102  1  0.12304445  0.63073758  0.63038009  1
  Co  Co103  1  0.75337590  0.74701765  -0.00000605  1
  Co  Co104  1  0.24467589  0.50267173  0.50350761  1
  Co  Co105  1  0.25553587  0.75081932  0.75057145  1
  Co  Co106  1  0.74847069  0.00405988  -0.00141590  1
  Co  Co107  1  0.74542040  0.49768256  0.75037336  1
  Co  Co108  1  0.75474986  0.25073089  0.50065701  1
  Co  Co109  1  0.00663343  0.49546730  0.75216157  1
  Co  Co110  1  0.25071241  0.00302061  -0.00123137  1
  Co  Co111  1  -0.00446048  0.75254190  0.75202742  1
  Co  Co112  1  0.37475282  0.12403137  0.86947489  1
  Co  Co113  1  0.49988384  -0.00390970  0.74930738  1
  Co  Co114  1  0.49634433  0.74955522  0.00038383  1
  Co  Co115  1  0.24990845  0.00043926  0.25193311  1
  Co  Co116  1  0.62735601  0.62557046  0.37388589  1
  Co  Co117  1  0.37783474  0.37485289  0.12536939  1
  Co  Co118  1  0.37717411  0.37910346  0.62362515  1
  Co  Co119  1  0.75253693  0.50131921  0.50040493  1
  Co  Co120  1  -0.00031177  0.25372216  0.75296020  1
  Co  Co121  1  0.24880404  0.49964691  0.24932924  1
  Co  Co122  1  0.12590668  0.12748698  0.37480384  1
  Co  Co123  1  0.00321157  0.00062116  0.24868477  1
  Co  Co124  1  0.49600256  0.24874753  0.50112508  1
  Co  Co125  1  0.37277494  0.62341435  0.37392290  1
  Co  Co126  1  0.87416428  0.87713255  0.62349719  1
  Co  Co127  1  0.50074931  0.50451365  0.49888391  1
