# generated using pymatgen
data_Fe45Co19
_symmetry_space_group_name_H-M   'P 1'
_cell_length_a   11.41524686
_cell_length_b   11.41467766
_cell_length_c   11.41482137
_cell_angle_alpha   90.00923818
_cell_angle_beta   89.99967396
_cell_angle_gamma   90.00287718
_symmetry_Int_Tables_number   1
_chemical_formula_structural   Fe45Co19
_chemical_formula_sum   'Fe90 Co38'
_cell_volume   1487.36676583
_cell_formula_units_Z   2
loop_
 _symmetry_equiv_pos_site_id
 _symmetry_equiv_pos_as_xyz
  1  'x, y, z'
loop_
 _atom_site_type_symbol
 _atom_site_label
 _atom_site_symmetry_multiplicity
 _atom_site_fract_x
 _atom_site_fract_y
 _atom_site_fract_z
 _atom_site_occupancy
  Fe  Fe0  1  0.12696818  0.37305778  0.12319577  1
  Fe  Fe1  1  0.37703672  0.62237577  0.12541704  1
  Fe  Fe2  1  0.12570785  0.37460711  0.62443705  1
  Fe  Fe3  1  0.24980621  0.00457563  0.00248995  1
  Fe  Fe4  1  0.75098732  0.50032077  0.49923080  1
  Fe  Fe5  1  0.37564887  0.87762047  0.12535587  1
  Fe  Fe6  1  0.00081653  0.00157508  0.50021573  1
  Fe  Fe7  1  0.49737975  0.00023566  0.74328235  1
  Fe  Fe8  1  0.74992024  0.00025129  0.25101015  1
  Fe  Fe9  1  0.75130452  0.75062157  0.24983699  1
  Fe  Fe10  1  -0.00106182  0.24966001  0.00016344  1
  Fe  Fe11  1  0.25088851  0.74783268  0.49839885  1
  Fe  Fe12  1  0.24636398  0.74783726  0.75478702  1
  Fe  Fe13  1  0.12708601  0.12833870  0.87483983  1
  Fe  Fe14  1  0.37188231  0.37627060  0.62586258  1
  Fe  Fe15  1  0.62568370  0.62109766  0.12641039  1
  Fe  Fe16  1  0.00165228  0.49939769  0.50096470  1
  Fe  Fe17  1  0.12641036  0.87803238  0.12583315  1
  Fe  Fe18  1  0.12521567  0.87585924  0.37492105  1
  Fe  Fe19  1  0.37312977  0.62398334  0.62796333  1
  Fe  Fe20  1  0.74823740  -0.00071509  0.50151142  1
  Fe  Fe21  1  0.87461187  0.12471539  0.62613779  1
  Fe  Fe22  1  0.74891523  0.00207301  -0.00070806  1
  Fe  Fe23  1  0.37705812  0.62337089  0.37232885  1
  Fe  Fe24  1  0.75215389  0.75078462  0.50315850  1
  Fe  Fe25  1  -0.00192723  0.75111418  0.50470910  1
  Fe  Fe26  1  0.50147809  0.49176871  0.25037512  1
  Fe  Fe27  1  0.87971245  0.62282248  0.87019858  1
  Fe  Fe28  1  0.87386312  0.62329788  0.12513738  1
  Fe  Fe29  1  0.24981990  0.49864626  0.25000967  1
  Fe  Fe30  1  0.12371330  0.62474258  0.12445243  1
  Fe  Fe31  1  -0.00206254  0.75330102  0.24908620  1
  Fe  Fe32  1  0.50027824  0.00017437  0.25194163  1
  Fe  Fe33  1  -0.00012468  0.00143833  -0.00030804  1
  Fe  Fe34  1  0.24572152  0.50050846  0.75398515  1
  Fe  Fe35  1  -0.00121368  0.49800429  0.25081183  1
  Fe  Fe36  1  0.25040944  0.74813859  -0.00070524  1
  Fe  Fe37  1  0.74795047  0.25313012  0.25282588  1
  Fe  Fe38  1  0.87567732  0.12649630  0.37636225  1
  Fe  Fe39  1  0.62350330  0.62425382  0.37418914  1
  Fe  Fe40  1  0.37202221  0.37289232  0.87678744  1
  Fe  Fe41  1  0.37318533  0.87613057  0.87418604  1
  Fe  Fe42  1  0.86942618  0.37655516  0.12487932  1
  Fe  Fe43  1  0.00266695  -0.00015980  0.75145380  1
  Fe  Fe44  1  0.87612032  0.62497712  0.37590988  1
  Fe  Fe45  1  0.62383343  0.62354001  0.62606587  1
  Fe  Fe46  1  0.24835625  0.50132561  -0.00196475  1
  Fe  Fe47  1  0.49804461  0.49723692  0.50030853  1
  Fe  Fe48  1  0.87549943  0.37572483  0.62503271  1
  Fe  Fe49  1  0.12298403  0.62615233  0.37472340  1
  Fe  Fe50  1  0.74966556  0.74771344  -0.00165793  1
  Fe  Fe51  1  0.62579765  0.87518117  0.12439557  1
  Fe  Fe52  1  0.75082113  0.25025854  0.50115416  1
  Fe  Fe53  1  0.74904340  0.00232765  0.74819497  1
  Fe  Fe54  1  0.12575776  0.12589573  0.37293957  1
  Fe  Fe55  1  0.62535210  0.87519835  0.87168082  1
  Fe  Fe56  1  -0.00172365  0.25128642  0.25010211  1
  Fe  Fe57  1  0.74985111  0.24872441  -0.00392501  1
  Fe  Fe58  1  0.25315378  -0.00050322  0.50122966  1
  Fe  Fe59  1  0.62119809  0.12968241  0.12547952  1
  Fe  Fe60  1  0.61981772  0.12836736  0.37946366  1
  Fe  Fe61  1  0.50150611  0.49799864  -0.00212396  1
  Fe  Fe62  1  0.37342457  0.12688677  0.87276673  1
  Fe  Fe63  1  0.12800643  0.12553022  0.62672782  1
  Fe  Fe64  1  0.87511140  0.87643027  0.87357996  1
  Fe  Fe65  1  0.75266439  0.74839487  0.74768085  1
  Fe  Fe66  1  0.49898800  0.75098402  0.50169990  1
  Fe  Fe67  1  0.37613762  0.87444310  0.37427841  1
  Fe  Fe68  1  0.12550563  0.37261959  0.37469229  1
  Fe  Fe69  1  0.62662829  0.37524187  0.62602784  1
  Fe  Fe70  1  0.12775524  0.87464676  0.62645847  1
  Fe  Fe71  1  -0.00281706  -0.00177435  0.25044792  1
  Fe  Fe72  1  0.49841492  0.74959174  0.74977484  1
  Fe  Fe73  1  0.50153043  0.00070566  -0.00262947  1
  Fe  Fe74  1  0.37902670  0.12767370  0.37879569  1
  Fe  Fe75  1  0.24934320  0.24962976  0.50149784  1
  Fe  Fe76  1  0.00050095  0.25067049  0.74955737  1
  Fe  Fe77  1  0.49940292  0.25076010  0.74716527  1
  Fe  Fe78  1  0.87372339  0.12535102  0.12475991  1
  Fe  Fe79  1  0.62455241  0.12571995  0.87070380  1
  Fe  Fe80  1  0.00016479  0.75261983  -0.00066956  1
  Fe  Fe81  1  0.50004825  0.74972891  -0.00007723  1
  Fe  Fe82  1  0.62439225  0.87388765  0.37647988  1
  Fe  Fe83  1  0.62698745  0.37519945  0.87318327  1
  Fe  Fe84  1  0.62321164  0.62327245  0.87193730  1
  Fe  Fe85  1  0.25448657  0.24701334  0.24466692  1
  Fe  Fe86  1  0.25084396  0.74983744  0.24929018  1
  Fe  Fe87  1  0.24888266  0.50161352  0.49841885  1
  Fe  Fe88  1  -0.00001762  0.49756769  -0.00052661  1
  Fe  Fe89  1  0.87440361  0.37620895  0.87173435  1
  Co  Co90  1  0.87526705  0.87944503  0.62688745  1
  Co  Co91  1  0.75019801  0.49862089  0.25426573  1
  Co  Co92  1  0.24950801  0.25145055  0.74865727  1
  Co  Co93  1  0.37466237  0.37499804  0.11991325  1
  Co  Co94  1  0.62415114  0.12658267  0.62259047  1
  Co  Co95  1  0.12655347  0.62531091  0.62552260  1
  Co  Co96  1  0.87703884  0.37412353  0.37813578  1
  Co  Co97  1  0.25110789  0.00087214  0.74849337  1
  Co  Co98  1  0.49857850  0.25567875  0.50383563  1
  Co  Co99  1  0.75059612  0.24938270  0.74964307  1
  Co  Co100  1  0.62568836  0.87358392  0.62672542  1
  Co  Co101  1  0.87441040  0.87562352  0.37783029  1
  Co  Co102  1  0.50131310  0.25057285  -0.00391136  1
  Co  Co103  1  0.87537633  0.12403557  0.87388205  1
  Co  Co104  1  0.12594174  0.37116098  0.87810250  1
  Co  Co105  1  0.25044103  0.24470992  0.00458195  1
  Co  Co106  1  0.75018101  0.50266337  -0.00458114  1
  Co  Co107  1  0.37670777  0.62363160  0.87463758  1
  Co  Co108  1  0.37446260  0.12785682  0.62306597  1
  Co  Co109  1  0.49924042  0.49727201  0.75015313  1
  Co  Co110  1  0.50061784  0.75087823  0.24783711  1
  Co  Co111  1  0.11976689  0.62457699  0.87644798  1
  Co  Co112  1  0.62855025  0.37441526  0.12112126  1
  Co  Co113  1  0.87645977  0.62124858  0.62676468  1
  Co  Co114  1  0.38343648  0.12478204  0.12432272  1
  Co  Co115  1  0.49777124  -0.00405445  0.50454780  1
  Co  Co116  1  0.74943975  0.50083234  0.74948839  1
  Co  Co117  1  0.25326103  0.00338185  0.25062703  1
  Co  Co118  1  0.37143891  0.86984334  0.62734991  1
  Co  Co119  1  0.12666446  0.87683783  0.87662452  1
  Co  Co120  1  0.62562303  0.37378380  0.37872228  1
  Co  Co121  1  0.00475023  0.49692845  0.74859854  1
  Co  Co122  1  0.49931161  0.25617850  0.25068489  1
  Co  Co123  1  0.12075491  0.12425691  0.12735637  1
  Co  Co124  1  0.37101661  0.37293839  0.37652040  1
  Co  Co125  1  0.87256743  0.87651553  0.12200142  1
  Co  Co126  1  0.00169102  0.24799249  0.50204654  1
  Co  Co127  1  0.00116943  0.75251049  0.74765343  1
