# generated using pymatgen
data_Fe45Co19
_symmetry_space_group_name_H-M   'P 1'
_cell_length_a   11.41628976
_cell_length_b   11.41525522
_cell_length_c   11.41525428
_cell_angle_alpha   89.99456036
_cell_angle_beta   89.99770596
_cell_angle_gamma   90.00900106
_symmetry_Int_Tables_number   1
_chemical_formula_structural   Fe45Co19
_chemical_formula_sum   'Fe90 Co38'
_cell_volume   1487.63432839
_cell_formula_units_Z   2
loop_
 _symmetry_equiv_pos_site_id
 _symmetry_equiv_pos_as_xyz
  1  'x, y, z'
loop_
 _atom_site_type_symbol
 _atom_site_label
 _atom_site_symmetry_multiplicity
 _atom_site_fract_x
 _atom_site_fract_y
 _atom_site_fract_z
 _atom_site_occupancy
  Fe  Fe0  1  0.75084384  0.75024865  -0.00103682  1
  Fe  Fe1  1  0.62620065  0.37212603  0.87591014  1
  Fe  Fe2  1  0.24949882  0.50219555  0.25099729  1
  Fe  Fe3  1  0.50177512  0.49765677  0.24957193  1
  Fe  Fe4  1  0.37537468  0.12343543  0.62061911  1
  Fe  Fe5  1  0.74656544  0.00109449  0.25176587  1
  Fe  Fe6  1  0.12280284  0.12706720  0.62382578  1
  Fe  Fe7  1  0.62672936  0.37417524  0.62366635  1
  Fe  Fe8  1  -0.00368066  0.25330517  0.74828371  1
  Fe  Fe9  1  0.25263933  0.75025466  -0.00120274  1
  Fe  Fe10  1  0.25206805  0.75079480  0.74938071  1
  Fe  Fe11  1  0.24915568  0.74805457  0.25210174  1
  Fe  Fe12  1  0.87598821  0.62300884  0.12364676  1
  Fe  Fe13  1  0.50238540  0.75592878  0.24652998  1
  Fe  Fe14  1  0.12643210  0.37074108  0.87611986  1
  Fe  Fe15  1  0.24837694  0.75056428  0.49845026  1
  Fe  Fe16  1  0.12268823  0.12835770  0.87731365  1
  Fe  Fe17  1  -0.00105868  0.49680980  -0.00245788  1
  Fe  Fe18  1  0.75186709  0.74820405  0.50139526  1
  Fe  Fe19  1  0.12475114  0.12704550  0.12296142  1
  Fe  Fe20  1  0.62450772  0.62873410  0.37393632  1
  Fe  Fe21  1  -0.00020611  -0.00098838  0.49811192  1
  Fe  Fe22  1  0.12715115  0.87450045  0.12709138  1
  Fe  Fe23  1  0.24845677  -0.00038406  0.49666718  1
  Fe  Fe24  1  0.87679651  0.62289650  0.37321956  1
  Fe  Fe25  1  0.74841785  0.50191161  0.25016358  1
  Fe  Fe26  1  0.87383538  0.12665330  0.37522718  1
  Fe  Fe27  1  0.12575914  0.87493325  0.62509166  1
  Fe  Fe28  1  0.62101878  0.12658236  0.87675434  1
  Fe  Fe29  1  0.37894456  0.62446638  0.87664720  1
  Fe  Fe30  1  0.37543549  0.62400042  0.62363386  1
  Fe  Fe31  1  0.37521418  0.37563787  0.62222939  1
  Fe  Fe32  1  0.25248020  0.00148622  0.25247979  1
  Fe  Fe33  1  0.24891575  0.00075547  -0.00056050  1
  Fe  Fe34  1  0.49921005  -0.00152759  0.74862440  1
  Fe  Fe35  1  -0.00358595  0.25456938  0.50040512  1
  Fe  Fe36  1  0.24909558  0.49981571  0.75071988  1
  Fe  Fe37  1  0.87317888  0.87727957  0.62694385  1
  Fe  Fe38  1  0.50215651  0.49873888  0.74987196  1
  Fe  Fe39  1  0.74814035  0.50064357  0.49857303  1
  Fe  Fe40  1  0.87783393  0.61938975  0.62974478  1
  Fe  Fe41  1  0.62286459  0.12381080  0.12641871  1
  Fe  Fe42  1  0.50010573  -0.00537462  0.00415858  1
  Fe  Fe43  1  0.62567332  0.12483106  0.62303020  1
  Fe  Fe44  1  0.12693553  0.37455375  0.12559741  1
  Fe  Fe45  1  0.37793496  0.62450600  0.12341860  1
  Fe  Fe46  1  0.25082372  0.00214848  0.75051864  1
  Fe  Fe47  1  -0.00229904  0.75069289  0.24848045  1
  Fe  Fe48  1  0.49868334  0.24953418  0.74720881  1
  Fe  Fe49  1  0.25095883  0.50014924  -0.00023397  1
  Fe  Fe50  1  0.50129433  0.75333537  0.50224993  1
  Fe  Fe51  1  0.75072266  0.24824823  0.24902076  1
  Fe  Fe52  1  0.62612786  0.37118825  0.37623100  1
  Fe  Fe53  1  0.25329313  0.24807510  0.24902118  1
  Fe  Fe54  1  0.00018132  -0.00117358  0.75095639  1
  Fe  Fe55  1  0.12114386  0.62460024  0.37390955  1
  Fe  Fe56  1  0.24852794  0.49872369  0.49800279  1
  Fe  Fe57  1  0.12193934  0.62690890  0.87397001  1
  Fe  Fe58  1  -0.00207311  0.25110818  0.24883309  1
  Fe  Fe59  1  0.74821873  0.50016946  -0.00158001  1
  Fe  Fe60  1  0.12271436  0.62477403  0.12363288  1
  Fe  Fe61  1  0.75010002  0.00327540  0.75201435  1
  Fe  Fe62  1  0.49737907  0.25341594  0.00464292  1
  Fe  Fe63  1  0.87831293  0.12394046  0.87832582  1
  Fe  Fe64  1  0.12464958  0.12836796  0.37595589  1
  Fe  Fe65  1  0.62595503  0.87527142  0.87463325  1
  Fe  Fe66  1  0.49794274  0.24891508  0.24891765  1
  Fe  Fe67  1  0.49807775  0.75370576  0.74860659  1
  Fe  Fe68  1  0.12223957  0.62319230  0.62749417  1
  Fe  Fe69  1  0.00063487  0.00044474  0.24976324  1
  Fe  Fe70  1  0.74908502  0.00139253  0.49853108  1
  Fe  Fe71  1  0.00164542  0.49434486  0.49776991  1
  Fe  Fe72  1  0.87302795  0.37631780  0.12578782  1
  Fe  Fe73  1  0.75226022  0.24736207  0.74771081  1
  Fe  Fe74  1  0.37855741  0.62637764  0.37539249  1
  Fe  Fe75  1  -0.00073394  0.75132510  0.50083951  1
  Fe  Fe76  1  0.62346732  0.62582308  0.12317088  1
  Fe  Fe77  1  0.87152489  0.87957540  0.12337336  1
  Fe  Fe78  1  0.62188917  0.62606469  0.87683291  1
  Fe  Fe79  1  0.12536034  0.87443171  0.87375172  1
  Fe  Fe80  1  -0.00260885  0.75380596  -0.00158230  1
  Fe  Fe81  1  0.75235318  0.74898557  0.75077069  1
  Fe  Fe82  1  0.87307469  0.87396595  0.37371145  1
  Fe  Fe83  1  0.75171226  0.24632605  0.00234749  1
  Fe  Fe84  1  0.37537570  0.37312207  0.37660945  1
  Fe  Fe85  1  0.37575477  0.37544597  0.87620649  1
  Fe  Fe86  1  0.25250012  0.24790159  0.74889768  1
  Fe  Fe87  1  0.62439948  0.62477661  0.62599963  1
  Fe  Fe88  1  0.50341412  -0.00192037  0.49569892  1
  Fe  Fe89  1  0.37681276  0.12457755  0.87857501  1
  Co  Co90  1  0.62599195  0.12812761  0.37428813  1
  Co  Co91  1  0.37563125  0.87332909  0.37469597  1
  Co  Co92  1  0.12414950  0.87414090  0.37292111  1
  Co  Co93  1  0.37256280  0.37804714  0.12652574  1
  Co  Co94  1  0.50199604  0.50024568  0.49904754  1
  Co  Co95  1  0.00222821  0.49566757  0.75594065  1
  Co  Co96  1  0.62853602  0.87620224  0.62612015  1
  Co  Co97  1  0.25297468  0.24983698  0.00078410  1
  Co  Co98  1  0.62825367  0.87099598  0.37472211  1
  Co  Co99  1  0.50145549  0.24855277  0.50120980  1
  Co  Co100  1  -0.00357823  0.25118472  0.00317090  1
  Co  Co101  1  0.50176334  0.49612842  0.00114873  1
  Co  Co102  1  0.87471718  0.12149246  0.12596769  1
  Co  Co103  1  0.74506452  0.50115587  0.75294603  1
  Co  Co104  1  0.00057449  0.49890372  0.24874404  1
  Co  Co105  1  0.75268548  0.74727608  0.24788604  1
  Co  Co106  1  0.00323405  -0.00109127  0.00163735  1
  Co  Co107  1  0.37299515  0.87725464  0.62253316  1
  Co  Co108  1  0.62766060  0.37353642  0.12586681  1
  Co  Co109  1  0.87233186  0.38134854  0.62736287  1
  Co  Co110  1  0.37445198  0.87682694  0.87467805  1
  Co  Co111  1  0.37611619  0.12562456  0.37705979  1
  Co  Co112  1  0.12683411  0.37239464  0.37111871  1
  Co  Co113  1  0.50079219  -0.00218019  0.25108983  1
  Co  Co114  1  0.87302464  0.87871201  0.87579313  1
  Co  Co115  1  0.49952207  0.75508519  0.00148069  1
  Co  Co116  1  0.37043847  0.87441955  0.12706304  1
  Co  Co117  1  0.87646373  0.62326330  0.87303974  1
  Co  Co118  1  0.12547225  0.37426296  0.62723930  1
  Co  Co119  1  0.24891796  0.25036927  0.50124039  1
  Co  Co120  1  0.37641911  0.12185619  0.12294389  1
  Co  Co121  1  0.87003880  0.37389341  0.87467323  1
  Co  Co122  1  0.63084615  0.87572835  0.12470534  1
  Co  Co123  1  0.75345458  0.24960887  0.50302179  1
  Co  Co124  1  0.87186483  0.37565078  0.37242122  1
  Co  Co125  1  -0.00218664  0.75276040  0.75010252  1
  Co  Co126  1  0.74754262  0.00474241  -0.00221471  1
  Co  Co127  1  0.87666369  0.12214186  0.62401307  1
