# generated using pymatgen
data_Fe45Co19
_symmetry_space_group_name_H-M   'P 1'
_cell_length_a   11.41524868
_cell_length_b   11.41439205
_cell_length_c   11.41360836
_cell_angle_alpha   89.99552776
_cell_angle_beta   89.99908761
_cell_angle_gamma   89.99851818
_symmetry_Int_Tables_number   1
_chemical_formula_structural   Fe45Co19
_chemical_formula_sum   'Fe90 Co38'
_cell_volume   1487.17175077
_cell_formula_units_Z   2
loop_
 _symmetry_equiv_pos_site_id
 _symmetry_equiv_pos_as_xyz
  1  'x, y, z'
loop_
 _atom_site_type_symbol
 _atom_site_label
 _atom_site_symmetry_multiplicity
 _atom_site_fract_x
 _atom_site_fract_y
 _atom_site_fract_z
 _atom_site_occupancy
  Fe  Fe0  1  0.62402431  0.11926374  0.87036913  1
  Fe  Fe1  1  0.37444458  0.12491497  0.12378427  1
  Fe  Fe2  1  0.87463160  0.87586040  0.12461390  1
  Fe  Fe3  1  0.00287439  0.00325161  0.00038854  1
  Fe  Fe4  1  0.37249087  0.12640147  0.62331961  1
  Fe  Fe5  1  0.87482765  0.12619424  0.12601836  1
  Fe  Fe6  1  0.49878410  0.24939131  0.74946160  1
  Fe  Fe7  1  0.25227323  -0.00132893  0.75074405  1
  Fe  Fe8  1  0.87874873  0.62990996  0.37554438  1
  Fe  Fe9  1  0.75037673  0.50182577  0.49985358  1
  Fe  Fe10  1  0.87392095  0.87383869  0.87635417  1
  Fe  Fe11  1  0.50287272  0.24802806  -0.00152816  1
  Fe  Fe12  1  -0.00132710  -0.00148934  0.25149306  1
  Fe  Fe13  1  0.37263432  0.87553181  0.12087723  1
  Fe  Fe14  1  0.00111009  -0.00124443  0.50014034  1
  Fe  Fe15  1  0.12525210  0.87638941  0.87364462  1
  Fe  Fe16  1  0.12356773  0.62220523  0.87392142  1
  Fe  Fe17  1  0.87394873  0.87119744  0.62095401  1
  Fe  Fe18  1  0.24841050  0.74883775  -0.00198260  1
  Fe  Fe19  1  0.37393563  0.37584119  0.62522183  1
  Fe  Fe20  1  -0.00232583  0.49946967  -0.00006112  1
  Fe  Fe21  1  0.62471503  0.62464001  0.12512854  1
  Fe  Fe22  1  0.62394217  0.12416684  0.62481195  1
  Fe  Fe23  1  0.62311187  0.62656065  0.62486954  1
  Fe  Fe24  1  0.74888792  0.00003919  -0.00191275  1
  Fe  Fe25  1  0.37689132  0.12460400  0.37626586  1
  Fe  Fe26  1  0.37542436  0.62673864  0.87483753  1
  Fe  Fe27  1  0.00143295  0.25243034  0.24943348  1
  Fe  Fe28  1  0.74718764  0.24801779  0.25683302  1
  Fe  Fe29  1  0.87624580  0.12541294  0.87497580  1
  Fe  Fe30  1  0.12734642  0.62433032  0.62751917  1
  Fe  Fe31  1  0.49887041  0.50110446  0.50134262  1
  Fe  Fe32  1  0.49978159  0.49949664  0.75060302  1
  Fe  Fe33  1  0.87293831  0.62532711  0.12421247  1
  Fe  Fe34  1  0.12827051  0.37725565  0.62715282  1
  Fe  Fe35  1  0.12866291  0.37874006  0.12514185  1
  Fe  Fe36  1  0.25137100  0.50015764  0.75321346  1
  Fe  Fe37  1  0.87563983  0.37679673  0.87353783  1
  Fe  Fe38  1  0.49709786  -0.00218776  0.50303955  1
  Fe  Fe39  1  0.00205649  0.25297088  0.74907802  1
  Fe  Fe40  1  0.37716983  0.37550264  0.37466471  1
  Fe  Fe41  1  -0.00329445  -0.00175323  0.74754138  1
  Fe  Fe42  1  0.62767125  0.87618894  0.12516273  1
  Fe  Fe43  1  0.87236012  0.37256754  0.12475477  1
  Fe  Fe44  1  0.74975409  0.74983383  0.75225808  1
  Fe  Fe45  1  0.62586005  0.37371950  0.62290354  1
  Fe  Fe46  1  0.24965138  0.25065629  0.25091384  1
  Fe  Fe47  1  0.74890758  0.25060174  0.75067868  1
  Fe  Fe48  1  0.62603818  0.37563751  0.12526559  1
  Fe  Fe49  1  0.12235023  0.62387622  0.37150096  1
  Fe  Fe50  1  0.62610648  0.12393317  0.12665550  1
  Fe  Fe51  1  0.62020404  0.62624845  0.37314486  1
  Fe  Fe52  1  0.25208654  0.50271257  0.49796026  1
  Fe  Fe53  1  0.50176872  0.25138274  0.25166211  1
  Fe  Fe54  1  -0.00087588  0.49955691  0.50286419  1
  Fe  Fe55  1  0.75314793  0.00279247  0.49779821  1
  Fe  Fe56  1  0.87511222  0.62553943  0.62629688  1
  Fe  Fe57  1  0.24892343  0.25024099  0.49938790  1
  Fe  Fe58  1  0.12551806  0.87614001  0.12469389  1
  Fe  Fe59  1  0.74758150  0.25022110  -0.00359937  1
  Fe  Fe60  1  0.12705990  0.12360025  0.62676074  1
  Fe  Fe61  1  0.37376765  0.37335758  0.87705201  1
  Fe  Fe62  1  0.62449059  0.87436839  0.37744703  1
  Fe  Fe63  1  0.00075278  0.74980334  0.74888602  1
  Fe  Fe64  1  0.49871089  0.75286552  0.75052774  1
  Fe  Fe65  1  -0.00084417  0.74840552  0.00078854  1
  Fe  Fe66  1  0.37513268  0.12088322  0.87656228  1
  Fe  Fe67  1  0.62687969  0.62391028  0.87782372  1
  Fe  Fe68  1  0.87568262  0.37151452  0.38019291  1
  Fe  Fe69  1  0.50284431  0.75478536  -0.00170922  1
  Fe  Fe70  1  0.75117763  0.49924030  0.25230750  1
  Fe  Fe71  1  0.24946554  0.74759202  0.50082853  1
  Fe  Fe72  1  0.49866175  -0.00216971  0.24799115  1
  Fe  Fe73  1  0.24982161  0.74839908  0.24882787  1
  Fe  Fe74  1  0.12388328  0.12520005  0.37459419  1
  Fe  Fe75  1  0.37959362  0.62786526  0.37251583  1
  Fe  Fe76  1  0.87570627  0.13042199  0.62123816  1
  Fe  Fe77  1  0.37027582  0.87133684  0.62543685  1
  Fe  Fe78  1  0.00378980  0.24887713  -0.00089493  1
  Fe  Fe79  1  0.12337909  0.87221885  0.37626127  1
  Fe  Fe80  1  0.75013172  0.49882229  0.75076544  1
  Fe  Fe81  1  0.75068338  0.75110846  0.25110831  1
  Fe  Fe82  1  0.49744269  0.49853224  0.00326696  1
  Fe  Fe83  1  0.24477895  0.24585475  -0.00272581  1
  Fe  Fe84  1  0.12552831  0.37911631  0.37334412  1
  Fe  Fe85  1  0.62758007  0.87601460  0.62598576  1
  Fe  Fe86  1  0.37463410  0.87305922  0.37553235  1
  Fe  Fe87  1  0.25025049  -0.00010452  0.25035775  1
  Fe  Fe88  1  0.12562022  0.62078637  0.12704186  1
  Fe  Fe89  1  0.75323697  0.00164976  0.25561162  1
  Co  Co90  1  -0.00450017  0.49817790  0.24950733  1
  Co  Co91  1  -0.00105741  0.49933312  0.74784493  1
  Co  Co92  1  0.49492474  -0.00184622  0.74618521  1
  Co  Co93  1  0.74908494  0.75176741  -0.00034041  1
  Co  Co94  1  0.62306067  0.37690196  0.87492679  1
  Co  Co95  1  0.62283483  0.37952756  0.37679183  1
  Co  Co96  1  0.75597556  0.00113875  0.74741717  1
  Co  Co97  1  0.87748061  0.87010024  0.37761482  1
  Co  Co98  1  0.74488600  0.24713611  0.49626843  1
  Co  Co99  1  0.12397489  0.12465356  0.12983115  1
  Co  Co100  1  0.50099113  0.75459837  0.24717436  1
  Co  Co101  1  0.37441543  0.62461290  0.62741660  1
  Co  Co102  1  0.12341912  0.12192252  0.86833365  1
  Co  Co103  1  0.00013339  0.75037041  0.24563396  1
  Co  Co104  1  0.24972872  0.74963519  0.75177238  1
  Co  Co105  1  0.12522398  0.37827741  0.87539478  1
  Co  Co106  1  0.75119114  0.49802817  -0.00001698  1
  Co  Co107  1  0.50366840  -0.00124461  0.00136185  1
  Co  Co108  1  0.61898269  0.12015501  0.37676084  1
  Co  Co109  1  0.37722126  0.63055994  0.12432611  1
  Co  Co110  1  0.87384180  0.62453470  0.87451432  1
  Co  Co111  1  0.49959132  0.25081768  0.50087400  1
  Co  Co112  1  0.24534426  0.00359270  0.00016480  1
  Co  Co113  1  0.00698371  0.25233180  0.50294881  1
  Co  Co114  1  0.62675003  0.87902910  0.87001302  1
  Co  Co115  1  0.25107186  0.24996900  0.75146518  1
  Co  Co116  1  0.00408315  0.74806706  0.50442135  1
  Co  Co117  1  0.74763276  0.74708541  0.49900645  1
  Co  Co118  1  0.12800029  0.87600305  0.62603697  1
  Co  Co119  1  0.37301407  0.87723082  0.87809828  1
  Co  Co120  1  0.25677618  0.50180493  0.24877053  1
  Co  Co121  1  0.49924220  0.75160357  0.50405503  1
  Co  Co122  1  0.37252546  0.36904252  0.12207185  1
  Co  Co123  1  0.49637879  0.49767506  0.24520478  1
  Co  Co124  1  0.88092076  0.12919124  0.37648341  1
  Co  Co125  1  0.25354050  0.50189112  0.00045152  1
  Co  Co126  1  0.87162461  0.37253530  0.62323218  1
  Co  Co127  1  0.24952828  -0.00001702  0.49853145  1
