# generated using pymatgen
data_Fe45Co19
_symmetry_space_group_name_H-M   'P 1'
_cell_length_a   11.41495917
_cell_length_b   11.41565578
_cell_length_c   11.41437422
_cell_angle_alpha   90.00556667
_cell_angle_beta   89.99421023
_cell_angle_gamma   89.99216802
_symmetry_Int_Tables_number   1
_chemical_formula_structural   Fe45Co19
_chemical_formula_sum   'Fe90 Co38'
_cell_volume   1487.39845314
_cell_formula_units_Z   2
loop_
 _symmetry_equiv_pos_site_id
 _symmetry_equiv_pos_as_xyz
  1  'x, y, z'
loop_
 _atom_site_type_symbol
 _atom_site_label
 _atom_site_symmetry_multiplicity
 _atom_site_fract_x
 _atom_site_fract_y
 _atom_site_fract_z
 _atom_site_occupancy
  Fe  Fe0  1  0.00051809  0.75117288  0.24769434  1
  Fe  Fe1  1  0.62224549  0.12634478  0.37576313  1
  Fe  Fe2  1  0.62631110  0.37738633  0.12276402  1
  Fe  Fe3  1  0.00542877  0.49767017  0.00297798  1
  Fe  Fe4  1  0.12390045  0.62642198  0.62585286  1
  Fe  Fe5  1  0.62591881  0.62713281  0.62389648  1
  Fe  Fe6  1  0.74916238  -0.00022568  0.24859262  1
  Fe  Fe7  1  -0.00140416  0.75118229  0.50195436  1
  Fe  Fe8  1  0.24913083  0.74956979  0.25019332  1
  Fe  Fe9  1  0.49593834  -0.00022213  0.25090374  1
  Fe  Fe10  1  0.87349870  0.12791313  0.62524195  1
  Fe  Fe11  1  0.87398342  0.37471449  0.12413111  1
  Fe  Fe12  1  0.12464154  0.12361066  0.37502600  1
  Fe  Fe13  1  0.75101729  0.50071382  0.24864314  1
  Fe  Fe14  1  0.87361156  0.87607120  0.37598788  1
  Fe  Fe15  1  0.24871196  0.25206388  -0.00086245  1
  Fe  Fe16  1  0.37366436  0.87258226  0.62433790  1
  Fe  Fe17  1  0.00166449  0.75107649  0.00133823  1
  Fe  Fe18  1  0.00267918  -0.00198924  0.24666821  1
  Fe  Fe19  1  0.25019655  0.74912595  0.75205133  1
  Fe  Fe20  1  0.87586970  0.87491868  0.87511287  1
  Fe  Fe21  1  0.12633251  0.87383267  0.87543824  1
  Fe  Fe22  1  0.25248766  -0.00101876  0.49714355  1
  Fe  Fe23  1  0.12698660  0.87600336  0.37570413  1
  Fe  Fe24  1  0.74952871  0.00111455  0.49983581  1
  Fe  Fe25  1  0.50137601  0.24916169  -0.00226606  1
  Fe  Fe26  1  0.37686072  0.37909604  0.87196848  1
  Fe  Fe27  1  0.25090958  -0.00052542  0.75018430  1
  Fe  Fe28  1  0.12591853  0.37382904  0.62722004  1
  Fe  Fe29  1  0.62394452  0.87627474  0.87661427  1
  Fe  Fe30  1  0.50106323  0.50031796  0.24901809  1
  Fe  Fe31  1  0.87782615  0.37424320  0.87355396  1
  Fe  Fe32  1  0.49823648  -0.00068797  0.75089996  1
  Fe  Fe33  1  0.62450507  0.37096455  0.62893474  1
  Fe  Fe34  1  0.87595400  0.12477271  0.37486406  1
  Fe  Fe35  1  0.12464267  0.37683805  0.37221459  1
  Fe  Fe36  1  0.24930540  0.50234549  0.75213903  1
  Fe  Fe37  1  0.74871497  0.75018425  0.00196133  1
  Fe  Fe38  1  0.74973005  0.49778336  0.50224272  1
  Fe  Fe39  1  0.50222128  0.75000786  0.25006719  1
  Fe  Fe40  1  0.12251383  0.62393506  0.37438239  1
  Fe  Fe41  1  0.87532622  0.62429089  0.12417013  1
  Fe  Fe42  1  0.49585826  0.25431157  0.49839695  1
  Fe  Fe43  1  0.74802330  0.75050374  0.24872369  1
  Fe  Fe44  1  0.37404038  0.37424438  0.12673954  1
  Fe  Fe45  1  0.62232954  0.12332194  0.12378487  1
  Fe  Fe46  1  0.74824708  0.24983841  0.24976636  1
  Fe  Fe47  1  0.49723377  0.50304579  0.00230479  1
  Fe  Fe48  1  0.74954039  -0.00096044  0.00137491  1
  Fe  Fe49  1  0.74742684  0.25057857  -0.00406581  1
  Fe  Fe50  1  0.62693853  0.87326163  0.62330216  1
  Fe  Fe51  1  0.24884394  0.50239883  0.24718367  1
  Fe  Fe52  1  0.00343415  0.25152327  0.00076864  1
  Fe  Fe53  1  0.12622334  0.12508328  0.62348946  1
  Fe  Fe54  1  0.25017933  0.49973674  0.49996084  1
  Fe  Fe55  1  0.49964487  0.75088348  0.49769002  1
  Fe  Fe56  1  0.24948242  0.00189061  0.00339888  1
  Fe  Fe57  1  0.37483686  0.62453762  0.37487313  1
  Fe  Fe58  1  0.49751283  0.49763140  0.50137716  1
  Fe  Fe59  1  0.00006987  -0.00072198  0.74832742  1
  Fe  Fe60  1  0.37477779  0.62534989  0.62520587  1
  Fe  Fe61  1  0.25143616  0.24880914  0.75160522  1
  Fe  Fe62  1  0.75151798  0.75024341  0.75068585  1
  Fe  Fe63  1  0.74862911  0.49792020  0.75211850  1
  Fe  Fe64  1  0.87608522  0.12511156  0.87493714  1
  Fe  Fe65  1  0.49879349  0.75003990  0.75231452  1
  Fe  Fe66  1  0.25221631  0.25351375  0.49829679  1
  Fe  Fe67  1  0.62392694  0.62306590  0.87690537  1
  Fe  Fe68  1  0.87556896  0.37641549  0.37643859  1
  Fe  Fe69  1  0.00209283  -0.00148536  0.00262516  1
  Fe  Fe70  1  0.87789822  0.62508144  0.87557328  1
  Fe  Fe71  1  0.25176870  0.74437715  -0.00130574  1
  Fe  Fe72  1  0.87603664  0.62303388  0.37629904  1
  Fe  Fe73  1  0.00113879  0.49942716  0.74920756  1
  Fe  Fe74  1  -0.00047401  0.25112637  0.24917329  1
  Fe  Fe75  1  0.49845643  -0.00262587  0.49933519  1
  Fe  Fe76  1  -0.00037633  0.25180371  0.50127121  1
  Fe  Fe77  1  0.37493832  0.12640823  0.62331572  1
  Fe  Fe78  1  0.62437777  0.12885286  0.62604722  1
  Fe  Fe79  1  0.49877075  0.74943253  0.00067677  1
  Fe  Fe80  1  0.62631711  0.62437629  0.37613126  1
  Fe  Fe81  1  0.87469406  0.62451531  0.62497668  1
  Fe  Fe82  1  0.74956515  0.00027733  0.74998689  1
  Fe  Fe83  1  0.37565928  0.12260707  0.87654323  1
  Fe  Fe84  1  0.12543054  0.87502475  0.62401358  1
  Fe  Fe85  1  0.37369760  0.87487555  0.12496833  1
  Fe  Fe86  1  0.12384865  0.12565142  0.87477513  1
  Fe  Fe87  1  0.62481290  0.37506151  0.37474998  1
  Fe  Fe88  1  0.87593689  0.12529368  0.12428799  1
  Fe  Fe89  1  0.25257320  0.24547591  0.25028105  1
  Co  Co90  1  0.75048671  0.25044788  0.49772685  1
  Co  Co91  1  0.75204180  0.74965960  0.49883419  1
  Co  Co92  1  0.12515139  0.37481744  0.87191712  1
  Co  Co93  1  0.25161355  0.00310318  0.24926615  1
  Co  Co94  1  0.50290099  0.50294301  0.74618714  1
  Co  Co95  1  0.12933477  0.87357404  0.12364614  1
  Co  Co96  1  0.12389519  0.12693328  0.12543328  1
  Co  Co97  1  0.87419545  0.37347464  0.62665491  1
  Co  Co98  1  0.62635305  0.87591467  0.37549982  1
  Co  Co99  1  0.62450562  0.12087762  0.87496349  1
  Co  Co100  1  0.62663176  0.62337343  0.12389526  1
  Co  Co101  1  0.87395638  0.87474877  0.12485305  1
  Co  Co102  1  0.37725577  0.12681434  0.12310102  1
  Co  Co103  1  0.50166268  0.25103853  0.24931000  1
  Co  Co104  1  0.37392394  0.37569520  0.62976090  1
  Co  Co105  1  0.37657509  0.62171655  0.87271349  1
  Co  Co106  1  0.12308213  0.62540915  0.87555404  1
  Co  Co107  1  -0.00032109  0.75243309  0.74849499  1
  Co  Co108  1  0.37343413  0.37709499  0.37033209  1
  Co  Co109  1  0.62311297  0.87678178  0.12501858  1
  Co  Co110  1  0.00071621  0.24757563  0.74826400  1
  Co  Co111  1  0.74865260  0.25105527  0.75597182  1
  Co  Co112  1  -0.00132879  0.49938038  0.24699193  1
  Co  Co113  1  0.75230753  0.49964381  -0.00249072  1
  Co  Co114  1  0.12834256  0.37334375  0.12896257  1
  Co  Co115  1  0.49859614  0.24656992  0.75403697  1
  Co  Co116  1  0.62037737  0.37910016  0.87501554  1
  Co  Co117  1  0.24934078  0.49996717  0.00045178  1
  Co  Co118  1  0.00150394  0.49889426  0.50174290  1
  Co  Co119  1  0.87278646  0.87608955  0.62413528  1
  Co  Co120  1  0.24896644  0.74772421  0.50003505  1
  Co  Co121  1  0.37279708  0.87527302  0.87634184  1
  Co  Co122  1  0.37281045  0.87272611  0.37419851  1
  Co  Co123  1  -0.00058569  -0.00019611  0.50107549  1
  Co  Co124  1  0.12431298  0.62507616  0.12482240  1
  Co  Co125  1  0.49805486  -0.00115901  -0.00121933  1
  Co  Co126  1  0.37454679  0.62550444  0.12797450  1
  Co  Co127  1  0.37695579  0.12641316  0.37712962  1
