# generated using pymatgen
data_Fe45Co19
_symmetry_space_group_name_H-M   'P 1'
_cell_length_a   11.41480639
_cell_length_b   11.41568370
_cell_length_c   11.41429795
_cell_angle_alpha   89.98934787
_cell_angle_beta   89.98677905
_cell_angle_gamma   89.99679556
_symmetry_Int_Tables_number   1
_chemical_formula_structural   Fe45Co19
_chemical_formula_sum   'Fe90 Co38'
_cell_volume   1487.37220600
_cell_formula_units_Z   2
loop_
 _symmetry_equiv_pos_site_id
 _symmetry_equiv_pos_as_xyz
  1  'x, y, z'
loop_
 _atom_site_type_symbol
 _atom_site_label
 _atom_site_symmetry_multiplicity
 _atom_site_fract_x
 _atom_site_fract_y
 _atom_site_fract_z
 _atom_site_occupancy
  Fe  Fe0  1  0.62381684  0.37494411  0.87455492  1
  Fe  Fe1  1  0.87584473  0.37648650  0.37566869  1
  Fe  Fe2  1  0.87312057  0.62285053  0.62269074  1
  Fe  Fe3  1  0.62441386  0.62458884  0.12392637  1
  Fe  Fe4  1  0.62247940  0.12694341  0.37359297  1
  Fe  Fe5  1  0.62425093  0.37543200  0.12614421  1
  Fe  Fe6  1  0.37138922  0.12333049  0.87439887  1
  Fe  Fe7  1  0.37334171  0.37754748  0.87686855  1
  Fe  Fe8  1  0.75067788  0.49976407  0.25230506  1
  Fe  Fe9  1  0.37768409  0.87521671  0.37726675  1
  Fe  Fe10  1  0.49927345  0.49988667  0.74882533  1
  Fe  Fe11  1  0.37462013  0.87501538  0.12657304  1
  Fe  Fe12  1  0.62497855  0.62520398  0.87407513  1
  Fe  Fe13  1  -0.00080451  0.24874947  0.49980704  1
  Fe  Fe14  1  0.75164060  0.24966579  0.25081461  1
  Fe  Fe15  1  0.49987412  0.50110253  0.25219670  1
  Fe  Fe16  1  0.37398674  0.62337623  0.87886291  1
  Fe  Fe17  1  0.87705905  0.62741345  0.87443091  1
  Fe  Fe18  1  0.37145828  0.62576277  0.37681920  1
  Fe  Fe19  1  -0.00140729  0.74709619  0.25115208  1
  Fe  Fe20  1  0.87594373  0.87875476  0.62575227  1
  Fe  Fe21  1  0.37670204  0.87323932  0.62170046  1
  Fe  Fe22  1  -0.00063942  0.74949452  0.49982504  1
  Fe  Fe23  1  0.49876619  -0.00013148  -0.00018713  1
  Fe  Fe24  1  0.75096798  0.25083007  -0.00135862  1
  Fe  Fe25  1  0.87754204  0.87366392  0.87468811  1
  Fe  Fe26  1  0.24699903  0.50041813  0.75179492  1
  Fe  Fe27  1  0.88163295  0.37482165  0.87179017  1
  Fe  Fe28  1  0.37048648  0.87640820  0.87456529  1
  Fe  Fe29  1  -0.00064166  0.50218737  0.49863323  1
  Fe  Fe30  1  0.12451039  0.87429567  0.37391319  1
  Fe  Fe31  1  0.12371340  0.63281077  0.87360340  1
  Fe  Fe32  1  0.37555482  0.37441556  0.37769947  1
  Fe  Fe33  1  0.12478327  0.12403275  0.37349675  1
  Fe  Fe34  1  0.00268435  0.00221222  0.75334908  1
  Fe  Fe35  1  0.49757428  0.25181298  0.74910055  1
  Fe  Fe36  1  0.37439419  0.38052947  0.12294573  1
  Fe  Fe37  1  0.24922389  0.25248042  0.74882383  1
  Fe  Fe38  1  0.00279414  0.50180990  -0.00189383  1
  Fe  Fe39  1  0.12349248  0.37614758  0.37301006  1
  Fe  Fe40  1  0.87439366  0.62444410  0.12586114  1
  Fe  Fe41  1  0.74883806  0.00004199  0.25105573  1
  Fe  Fe42  1  0.62534351  0.37593275  0.62523967  1
  Fe  Fe43  1  0.74992600  -0.00018036  -0.00239584  1
  Fe  Fe44  1  0.12576165  0.87569862  0.12688548  1
  Fe  Fe45  1  0.62410558  0.87510215  0.87232508  1
  Fe  Fe46  1  0.62367492  0.87326516  0.37938905  1
  Fe  Fe47  1  0.37236473  0.12753174  0.62286866  1
  Fe  Fe48  1  0.25081698  0.74861222  0.25095465  1
  Fe  Fe49  1  0.00210502  0.24723390  -0.00295361  1
  Fe  Fe50  1  0.87715461  0.37606368  0.12435863  1
  Fe  Fe51  1  0.12741091  0.62257525  0.12846914  1
  Fe  Fe52  1  0.50140048  0.74881234  0.25143752  1
  Fe  Fe53  1  0.75352147  0.25057915  0.75028017  1
  Fe  Fe54  1  0.62342029  0.12521253  0.12583776  1
  Fe  Fe55  1  0.75076108  0.74980696  0.00017243  1
  Fe  Fe56  1  0.62551611  0.12445931  0.87256502  1
  Fe  Fe57  1  0.49847297  0.74966991  -0.00015912  1
  Fe  Fe58  1  0.50057755  0.25078088  0.50190597  1
  Fe  Fe59  1  0.12459479  0.37754922  0.12675221  1
  Fe  Fe60  1  0.00089221  -0.00001141  0.49803654  1
  Fe  Fe61  1  0.87319137  0.87378439  0.37437318  1
  Fe  Fe62  1  0.75047381  0.49888134  -0.00232636  1
  Fe  Fe63  1  0.37473773  0.12211062  0.12712821  1
  Fe  Fe64  1  0.87605102  0.12262432  0.12443205  1
  Fe  Fe65  1  0.75079309  0.25242984  0.50000689  1
  Fe  Fe66  1  0.12638995  0.87334311  0.62746288  1
  Fe  Fe67  1  0.12682982  0.12534236  0.62425089  1
  Fe  Fe68  1  0.25038892  -0.00071786  0.49898838  1
  Fe  Fe69  1  0.00458942  -0.00110994  -0.00354573  1
  Fe  Fe70  1  0.49992654  0.00169168  0.74567506  1
  Fe  Fe71  1  0.12195439  0.37421121  0.62693480  1
  Fe  Fe72  1  0.25167289  0.25115832  0.25121313  1
  Fe  Fe73  1  0.24882679  0.25059902  0.00026406  1
  Fe  Fe74  1  0.75211254  0.49885153  0.74937388  1
  Fe  Fe75  1  0.50260479  0.50039694  0.50059075  1
  Fe  Fe76  1  0.37656785  0.12495323  0.37474065  1
  Fe  Fe77  1  0.12535525  0.12288367  0.12792459  1
  Fe  Fe78  1  0.49953829  0.25036161  0.00034176  1
  Fe  Fe79  1  0.12687083  0.62808937  0.62366306  1
  Fe  Fe80  1  0.37307709  0.62334956  0.62255702  1
  Fe  Fe81  1  0.62486312  0.87495876  0.12417332  1
  Fe  Fe82  1  0.87398295  0.12410164  0.62470674  1
  Fe  Fe83  1  -0.00238364  0.24850181  0.25120441  1
  Fe  Fe84  1  0.75019033  0.75195743  0.74634117  1
  Fe  Fe85  1  0.63090566  0.62716263  0.37975846  1
  Fe  Fe86  1  0.74578163  0.00018844  0.50241989  1
  Fe  Fe87  1  0.49836694  0.74730537  0.74792595  1
  Fe  Fe88  1  0.24710727  0.49782730  0.49923068  1
  Fe  Fe89  1  0.87504947  0.87588052  0.12594427  1
  Co  Co90  1  0.25039496  -0.00127096  0.74601207  1
  Co  Co91  1  0.24763255  0.25079793  0.49817139  1
  Co  Co92  1  0.25086356  -0.00066726  0.25267234  1
  Co  Co93  1  0.49682641  0.25248389  0.24814200  1
  Co  Co94  1  0.62690905  0.62396688  0.62499220  1
  Co  Co95  1  0.37333292  0.37661230  0.62329805  1
  Co  Co96  1  0.62383097  0.37339278  0.37445942  1
  Co  Co97  1  0.12621542  0.62480923  0.37486125  1
  Co  Co98  1  0.74881797  0.75071795  0.24824129  1
  Co  Co99  1  0.74907566  -0.00216841  0.74936359  1
  Co  Co100  1  0.62030760  0.87227671  0.62454160  1
  Co  Co101  1  -0.00247409  0.50198443  0.25217771  1
  Co  Co102  1  0.24763591  -0.00179530  0.00138242  1
  Co  Co103  1  0.13135110  0.12447907  0.87346024  1
  Co  Co104  1  0.25261680  0.49837060  0.25256187  1
  Co  Co105  1  0.24446761  0.50153426  -0.00301888  1
  Co  Co106  1  0.62679979  0.12895415  0.62731953  1
  Co  Co107  1  0.49996298  0.74534366  0.50103989  1
  Co  Co108  1  0.12201622  0.37300410  0.87187222  1
  Co  Co109  1  0.50286126  0.49960628  -0.00020068  1
  Co  Co110  1  -0.00291609  0.75007634  0.74510449  1
  Co  Co111  1  0.24888051  0.75208304  0.49950019  1
  Co  Co112  1  0.75252084  0.75328456  0.50598280  1
  Co  Co113  1  0.87938274  0.37468704  0.62646927  1
  Co  Co114  1  -0.00162061  -0.00028906  0.25181429  1
  Co  Co115  1  0.50159205  -0.00215437  0.25061325  1
  Co  Co116  1  0.50085071  0.00395891  0.50315591  1
  Co  Co117  1  0.25441799  0.74884033  0.74802680  1
  Co  Co118  1  0.00071109  0.75022362  0.00452775  1
  Co  Co119  1  0.87187449  0.62740960  0.37656616  1
  Co  Co120  1  0.00035697  0.24343430  0.74990334  1
  Co  Co121  1  0.25051329  0.74998672  0.00243598  1
  Co  Co122  1  0.75075609  0.49587017  0.50034450  1
  Co  Co123  1  0.12684790  0.87004748  0.87190431  1
  Co  Co124  1  0.37541285  0.62330647  0.12425453  1
  Co  Co125  1  0.00219939  0.50502758  0.74893732  1
  Co  Co126  1  0.87358049  0.12394333  0.87544783  1
  Co  Co127  1  0.87414297  0.12292291  0.37679538  1
