# generated using pymatgen
data_Fe45Co19
_symmetry_space_group_name_H-M   'P 1'
_cell_length_a   11.41448956
_cell_length_b   11.41507739
_cell_length_c   11.41597994
_cell_angle_alpha   89.99357365
_cell_angle_beta   90.00360381
_cell_angle_gamma   89.99436357
_symmetry_Int_Tables_number   1
_chemical_formula_structural   Fe45Co19
_chemical_formula_sum   'Fe90 Co38'
_cell_volume   1487.47113457
_cell_formula_units_Z   2
loop_
 _symmetry_equiv_pos_site_id
 _symmetry_equiv_pos_as_xyz
  1  'x, y, z'
loop_
 _atom_site_type_symbol
 _atom_site_label
 _atom_site_symmetry_multiplicity
 _atom_site_fract_x
 _atom_site_fract_y
 _atom_site_fract_z
 _atom_site_occupancy
  Fe  Fe0  1  0.12423103  0.87432513  0.87458078  1
  Fe  Fe1  1  0.87348825  0.62467695  0.12413178  1
  Fe  Fe2  1  0.50233350  0.25184925  -0.00167614  1
  Fe  Fe3  1  0.62426318  0.12640358  0.62340666  1
  Fe  Fe4  1  0.00104549  0.00036788  0.50110133  1
  Fe  Fe5  1  0.37075712  0.87610587  0.62680069  1
  Fe  Fe6  1  0.74934255  0.49912209  0.25327089  1
  Fe  Fe7  1  0.49960070  0.75041449  0.50082321  1
  Fe  Fe8  1  0.87656605  0.87315637  0.37509760  1
  Fe  Fe9  1  0.49963529  0.00012323  0.49945025  1
  Fe  Fe10  1  0.12298657  0.37488630  0.37702302  1
  Fe  Fe11  1  0.37613887  0.62460712  0.87354555  1
  Fe  Fe12  1  0.12294102  0.12493958  0.12363838  1
  Fe  Fe13  1  0.75144276  0.50236222  0.49896624  1
  Fe  Fe14  1  -0.00135861  0.24904483  0.50272020  1
  Fe  Fe15  1  0.37199116  0.87575511  0.12535951  1
  Fe  Fe16  1  0.12807805  0.37800173  0.12415664  1
  Fe  Fe17  1  0.37687837  0.37809303  0.37520823  1
  Fe  Fe18  1  0.24947836  0.74851685  0.24993997  1
  Fe  Fe19  1  0.75179292  0.00140576  0.50070814  1
  Fe  Fe20  1  0.12357792  0.62417515  0.37572762  1
  Fe  Fe21  1  0.25242075  0.50189313  0.74864211  1
  Fe  Fe22  1  0.37477516  0.87642882  0.87518428  1
  Fe  Fe23  1  0.62630030  0.87409731  0.12395925  1
  Fe  Fe24  1  0.62674698  0.87500966  0.62604329  1
  Fe  Fe25  1  0.50070771  0.75194329  0.75038284  1
  Fe  Fe26  1  0.37488609  0.12566897  0.12385099  1
  Fe  Fe27  1  0.87688677  0.87266498  0.62528691  1
  Fe  Fe28  1  0.50211731  0.74886947  -0.00017305  1
  Fe  Fe29  1  0.37624863  0.37382570  0.87322186  1
  Fe  Fe30  1  0.37420176  0.62112664  0.12677691  1
  Fe  Fe31  1  0.49902318  0.00044504  0.75051478  1
  Fe  Fe32  1  0.50137100  -0.00087410  0.00097154  1
  Fe  Fe33  1  0.75267157  0.74797445  0.49970744  1
  Fe  Fe34  1  0.87462260  0.87205605  0.12199944  1
  Fe  Fe35  1  0.62553310  0.87516582  0.37584713  1
  Fe  Fe36  1  0.12609577  0.37648452  0.87401678  1
  Fe  Fe37  1  0.00006075  0.25140252  0.74917626  1
  Fe  Fe38  1  0.62462411  0.37322970  0.37887307  1
  Fe  Fe39  1  0.24820139  0.25002987  0.25157011  1
  Fe  Fe40  1  0.87545929  0.87229521  0.87636208  1
  Fe  Fe41  1  -0.00257482  0.25422071  0.24753742  1
  Fe  Fe42  1  0.74816771  0.74825040  0.25186013  1
  Fe  Fe43  1  0.12760594  0.62185216  0.12324785  1
  Fe  Fe44  1  -0.00055548  0.74678300  0.75096852  1
  Fe  Fe45  1  0.25256392  0.50091292  0.50200889  1
  Fe  Fe46  1  0.87414836  0.37372599  0.87690593  1
  Fe  Fe47  1  0.24851195  0.25031550  -0.00218636  1
  Fe  Fe48  1  0.12552227  0.12327048  0.62629926  1
  Fe  Fe49  1  0.24746669  0.00200202  -0.00189935  1
  Fe  Fe50  1  0.50085288  0.49914188  0.00105298  1
  Fe  Fe51  1  0.12727366  0.37512550  0.62517636  1
  Fe  Fe52  1  0.37332950  0.37627517  0.12751305  1
  Fe  Fe53  1  0.87496523  0.12866644  0.12174323  1
  Fe  Fe54  1  -0.00002794  0.50021548  -0.00127642  1
  Fe  Fe55  1  0.50161017  0.74874322  0.24863106  1
  Fe  Fe56  1  0.87491935  0.12754144  0.37524935  1
  Fe  Fe57  1  0.74686242  0.50141526  -0.00379134  1
  Fe  Fe58  1  0.75137806  -0.00037478  0.75045598  1
  Fe  Fe59  1  0.00004282  0.00029573  0.75061425  1
  Fe  Fe60  1  0.12489443  0.62670168  0.62620472  1
  Fe  Fe61  1  0.12627228  0.87809886  0.37441820  1
  Fe  Fe62  1  0.24892329  0.75138928  0.50107642  1
  Fe  Fe63  1  0.37893574  0.62230523  0.37508977  1
  Fe  Fe64  1  -0.00204595  0.50256725  0.50113890  1
  Fe  Fe65  1  0.24860000  0.74757371  -0.00168549  1
  Fe  Fe66  1  0.75092893  0.50101011  0.75019935  1
  Fe  Fe67  1  0.62692965  0.12638537  0.12668103  1
  Fe  Fe68  1  0.62824600  0.37403476  0.12496876  1
  Fe  Fe69  1  0.62561398  0.62658778  0.62596328  1
  Fe  Fe70  1  -0.00137428  0.50081434  0.75045025  1
  Fe  Fe71  1  0.74998223  0.24946579  0.75020535  1
  Fe  Fe72  1  -0.00192229  0.49796932  0.24944356  1
  Fe  Fe73  1  0.62378900  0.37132142  0.62359472  1
  Fe  Fe74  1  0.75075787  0.00044201  0.25005502  1
  Fe  Fe75  1  0.37387704  0.12196201  0.37355315  1
  Fe  Fe76  1  0.87445720  0.37523458  0.62377630  1
  Fe  Fe77  1  0.00224422  0.75047402  0.24785702  1
  Fe  Fe78  1  0.87874495  0.12803723  0.87711160  1
  Fe  Fe79  1  0.62368247  0.12469996  0.87455499  1
  Fe  Fe80  1  0.50159107  -0.00094183  0.24940517  1
  Fe  Fe81  1  0.37457959  0.12590446  0.62583708  1
  Fe  Fe82  1  0.25043410  0.24640685  0.75326699  1
  Fe  Fe83  1  0.49761821  0.49800102  0.74475549  1
  Fe  Fe84  1  0.74601322  0.74754575  -0.00505838  1
  Fe  Fe85  1  0.50157095  0.24963118  0.25215989  1
  Fe  Fe86  1  0.25029778  0.24818311  0.49792480  1
  Fe  Fe87  1  -0.00024352  -0.00100295  0.24733378  1
  Fe  Fe88  1  0.75081522  0.00051673  -0.00153251  1
  Fe  Fe89  1  0.37292124  0.87677780  0.37308364  1
  Co  Co90  1  0.24927830  0.74977215  0.75162234  1
  Co  Co91  1  0.62437927  0.87687074  0.87424900  1
  Co  Co92  1  0.11940277  0.12560116  0.87625056  1
  Co  Co93  1  0.50024648  0.24925023  0.75102357  1
  Co  Co94  1  0.00279525  0.74781671  0.00118680  1
  Co  Co95  1  0.37278784  0.36963645  0.62528543  1
  Co  Co96  1  0.24860940  0.49992545  0.25391811  1
  Co  Co97  1  0.00229165  0.25584103  0.00151590  1
  Co  Co98  1  0.12137975  0.12570757  0.37382810  1
  Co  Co99  1  0.49720470  0.24868627  0.49808907  1
  Co  Co100  1  0.12417935  0.87511229  0.62766272  1
  Co  Co101  1  0.87670955  0.62583063  0.37271282  1
  Co  Co102  1  0.87528384  0.62633913  0.62613524  1
  Co  Co103  1  0.75237858  0.24828140  0.50189359  1
  Co  Co104  1  0.00129887  0.75011020  0.49941580  1
  Co  Co105  1  0.37441112  0.62922290  0.62529529  1
  Co  Co106  1  0.12536489  0.62286481  0.87425142  1
  Co  Co107  1  0.24848625  0.00237591  0.24799206  1
  Co  Co108  1  0.74726087  0.24940819  -0.00309004  1
  Co  Co109  1  0.86998903  0.37707823  0.12038949  1
  Co  Co110  1  0.37815634  0.12478689  0.87774964  1
  Co  Co111  1  0.50447418  0.49892483  0.24848081  1
  Co  Co112  1  0.75205462  0.25252751  0.25118651  1
  Co  Co113  1  0.24975871  0.00238980  0.75312786  1
  Co  Co114  1  0.87569213  0.12477193  0.62674961  1
  Co  Co115  1  0.62208293  0.62467583  0.37725397  1
  Co  Co116  1  0.62128913  0.62316467  0.87060526  1
  Co  Co117  1  0.24895261  -0.00004984  0.50156451  1
  Co  Co118  1  0.62663505  0.62473481  0.12486940  1
  Co  Co119  1  0.25253601  0.49915977  -0.00317383  1
  Co  Co120  1  0.87445845  0.62585119  0.87599166  1
  Co  Co121  1  0.49856660  0.49931144  0.50548312  1
  Co  Co122  1  0.62722097  0.12479827  0.37546902  1
  Co  Co123  1  0.62379853  0.37659958  0.87168985  1
  Co  Co124  1  -0.00083987  -0.00279008  0.00103887  1
  Co  Co125  1  0.75017336  0.75043918  0.75123589  1
  Co  Co126  1  0.12735170  0.87600947  0.12407214  1
  Co  Co127  1  0.87653878  0.37441843  0.37884024  1
