# generated using pymatgen
data_Fe45Co19
_symmetry_space_group_name_H-M   'P 1'
_cell_length_a   11.41535990
_cell_length_b   11.41486244
_cell_length_c   11.41455174
_cell_angle_alpha   90.00144910
_cell_angle_beta   89.99444221
_cell_angle_gamma   90.00232688
_symmetry_Int_Tables_number   1
_chemical_formula_structural   Fe45Co19
_chemical_formula_sum   'Fe90 Co38'
_cell_volume   1487.37044941
_cell_formula_units_Z   2
loop_
 _symmetry_equiv_pos_site_id
 _symmetry_equiv_pos_as_xyz
  1  'x, y, z'
loop_
 _atom_site_type_symbol
 _atom_site_label
 _atom_site_symmetry_multiplicity
 _atom_site_fract_x
 _atom_site_fract_y
 _atom_site_fract_z
 _atom_site_occupancy
  Fe  Fe0  1  0.75119447  0.74945356  0.25180417  1
  Fe  Fe1  1  0.25034461  0.74785232  0.74878585  1
  Fe  Fe2  1  0.74788953  0.00019657  0.75217159  1
  Fe  Fe3  1  0.87508119  0.87893728  0.37270732  1
  Fe  Fe4  1  0.37000905  0.62113843  0.12913808  1
  Fe  Fe5  1  0.62320118  0.62468218  0.62633457  1
  Fe  Fe6  1  0.62429186  0.62438987  0.37490346  1
  Fe  Fe7  1  0.49941259  0.25094456  0.75085728  1
  Fe  Fe8  1  0.12558470  0.12595408  0.62164879  1
  Fe  Fe9  1  0.74871349  0.49881379  0.24806706  1
  Fe  Fe10  1  0.49857216  0.50039569  0.00110874  1
  Fe  Fe11  1  0.12553791  0.37564822  0.87526119  1
  Fe  Fe12  1  0.62371775  0.62678676  0.87573297  1
  Fe  Fe13  1  0.37463405  0.12503192  0.87473373  1
  Fe  Fe14  1  0.87732121  0.12329120  0.87480132  1
  Fe  Fe15  1  0.49728346  0.74997377  0.24826110  1
  Fe  Fe16  1  0.24747949  0.00022830  -0.00016377  1
  Fe  Fe17  1  0.74801242  0.24976357  0.24786347  1
  Fe  Fe18  1  0.62531486  0.37296222  0.87928971  1
  Fe  Fe19  1  0.87782154  0.37747769  0.87627861  1
  Fe  Fe20  1  0.61959533  0.12346175  0.37691931  1
  Fe  Fe21  1  0.62497838  0.37618947  0.37454494  1
  Fe  Fe22  1  0.37444170  0.37636770  0.62652591  1
  Fe  Fe23  1  0.37379165  0.62385512  0.87434235  1
  Fe  Fe24  1  0.87661040  0.37484017  0.12618624  1
  Fe  Fe25  1  0.49805384  0.75015689  0.50051561  1
  Fe  Fe26  1  0.49997634  0.49974637  0.50078629  1
  Fe  Fe27  1  0.87812946  0.62161434  0.62271040  1
  Fe  Fe28  1  0.75051294  0.49951333  0.00081721  1
  Fe  Fe29  1  0.12474509  0.37061484  0.37876192  1
  Fe  Fe30  1  -0.00005892  0.74913996  0.75141371  1
  Fe  Fe31  1  0.24768653  0.24843326  0.75065441  1
  Fe  Fe32  1  0.87409064  0.87650103  0.62555290  1
  Fe  Fe33  1  0.00084470  0.25122755  0.74862218  1
  Fe  Fe34  1  0.75285510  0.25150556  0.75080042  1
  Fe  Fe35  1  0.75116165  0.74967177  0.49980555  1
  Fe  Fe36  1  0.25097389  0.25084933  -0.00040632  1
  Fe  Fe37  1  -0.00014655  0.24978306  -0.00066863  1
  Fe  Fe38  1  0.62555801  0.87342294  0.12314001  1
  Fe  Fe39  1  0.12718593  0.62868551  0.37086858  1
  Fe  Fe40  1  0.75173540  -0.00246075  -0.00222374  1
  Fe  Fe41  1  0.24850042  0.00134706  0.75111248  1
  Fe  Fe42  1  -0.00111822  0.75127246  0.49661923  1
  Fe  Fe43  1  0.25161787  0.74984173  0.49922029  1
  Fe  Fe44  1  0.49775214  0.75110501  0.75185715  1
  Fe  Fe45  1  0.87762271  0.62747867  0.12511283  1
  Fe  Fe46  1  0.24537697  0.50303344  0.74688407  1
  Fe  Fe47  1  0.24718878  0.74710972  0.00115096  1
  Fe  Fe48  1  0.37285683  0.37754447  0.87427892  1
  Fe  Fe49  1  0.87507871  0.12346927  0.62320874  1
  Fe  Fe50  1  0.50260198  0.25058583  0.24581056  1
  Fe  Fe51  1  0.00733571  0.50397757  0.00294956  1
  Fe  Fe52  1  0.00087979  -0.00506788  0.00326843  1
  Fe  Fe53  1  0.87860287  0.37883229  0.62035981  1
  Fe  Fe54  1  0.37735647  0.87923681  0.37531199  1
  Fe  Fe55  1  0.62268115  0.87608274  0.37657024  1
  Fe  Fe56  1  0.12493135  0.12344912  0.37675497  1
  Fe  Fe57  1  0.87911503  0.62435669  0.87578532  1
  Fe  Fe58  1  0.25586864  0.24571828  0.50020047  1
  Fe  Fe59  1  0.37426906  0.62211639  0.37285597  1
  Fe  Fe60  1  0.12614958  0.87377532  0.62251470  1
  Fe  Fe61  1  0.74632025  0.00157573  0.24934240  1
  Fe  Fe62  1  0.75384396  0.75242552  -0.00218539  1
  Fe  Fe63  1  0.50025420  -0.00149215  0.75254186  1
  Fe  Fe64  1  0.62549978  0.87557902  0.62445633  1
  Fe  Fe65  1  0.62490132  0.12886731  0.87929063  1
  Fe  Fe66  1  0.00259823  0.00006486  0.74807097  1
  Fe  Fe67  1  0.25021070  0.00014438  0.25000180  1
  Fe  Fe68  1  0.37361707  0.87503465  0.12277720  1
  Fe  Fe69  1  0.87550990  0.12312977  0.37595233  1
  Fe  Fe70  1  0.24932805  0.25003452  0.24964623  1
  Fe  Fe71  1  0.62394834  0.37474600  0.62459707  1
  Fe  Fe72  1  0.87407874  0.12387687  0.12499590  1
  Fe  Fe73  1  0.37592670  0.12461826  0.12612998  1
  Fe  Fe74  1  0.62353444  0.12582583  0.62300403  1
  Fe  Fe75  1  0.37358840  0.87689989  0.62558007  1
  Fe  Fe76  1  0.62485327  0.62652008  0.12462889  1
  Fe  Fe77  1  0.24751729  0.50201597  0.50126671  1
  Fe  Fe78  1  0.12489779  0.12613562  0.12410410  1
  Fe  Fe79  1  0.75143151  0.74919970  0.75115685  1
  Fe  Fe80  1  0.12517368  0.87359954  0.87515324  1
  Fe  Fe81  1  0.75100725  0.25108819  0.49869680  1
  Fe  Fe82  1  0.49949179  -0.00171087  -0.00141668  1
  Fe  Fe83  1  0.37627243  0.37523378  0.37363378  1
  Fe  Fe84  1  0.00410913  0.49853358  0.25081380  1
  Fe  Fe85  1  0.75017626  0.49944455  0.75063365  1
  Fe  Fe86  1  0.87433107  0.62032764  0.37613975  1
  Fe  Fe87  1  0.00007468  0.24924391  0.25137754  1
  Fe  Fe88  1  0.37276181  0.37794590  0.12654586  1
  Fe  Fe89  1  0.12411435  0.87703039  0.37216869  1
  Co  Co90  1  0.62416658  0.87145181  0.87632676  1
  Co  Co91  1  0.00115071  0.00210818  0.24776556  1
  Co  Co92  1  0.87408047  0.37694618  0.37453571  1
  Co  Co93  1  0.50112835  -0.00212188  0.24558174  1
  Co  Co94  1  0.25220360  0.00182067  0.49849484  1
  Co  Co95  1  0.50148105  0.49885267  0.75234965  1
  Co  Co96  1  0.24640968  0.50109748  0.00149054  1
  Co  Co97  1  0.00630710  0.50129246  0.49630805  1
  Co  Co98  1  0.24438363  0.49457800  0.25213702  1
  Co  Co99  1  0.12586606  0.87153441  0.12931165  1
  Co  Co100  1  0.75457016  0.25059842  0.00090472  1
  Co  Co101  1  0.87307888  0.87477358  0.12864702  1
  Co  Co102  1  0.12792070  0.62950196  0.13250839  1
  Co  Co103  1  0.37906911  0.12464151  0.36982590  1
  Co  Co104  1  0.12421145  0.37166267  0.12361139  1
  Co  Co105  1  0.49656917  0.00143766  0.50286052  1
  Co  Co106  1  0.37191224  0.87398552  0.87606238  1
  Co  Co107  1  0.49659775  0.25065077  0.50100605  1
  Co  Co108  1  0.12599177  0.37176083  0.62204741  1
  Co  Co109  1  0.62601478  0.37490357  0.12156986  1
  Co  Co110  1  -0.00308187  0.24842315  0.49946145  1
  Co  Co111  1  0.49465761  0.25217022  0.00202896  1
  Co  Co112  1  0.00209293  0.75194973  0.00174093  1
  Co  Co113  1  0.37692527  0.62419691  0.62499427  1
  Co  Co114  1  0.12440125  0.62621988  0.87358993  1
  Co  Co115  1  0.74705508  0.49997764  0.50154401  1
  Co  Co116  1  0.87727866  0.87583952  0.87198975  1
  Co  Co117  1  0.00052069  -0.00124906  0.50055842  1
  Co  Co118  1  0.50211892  0.50020634  0.24855458  1
  Co  Co119  1  -0.00368498  0.74993940  0.25062017  1
  Co  Co120  1  0.62490085  0.12421272  0.11918614  1
  Co  Co121  1  0.37547802  0.12382325  0.62951502  1
  Co  Co122  1  0.12267829  0.12498446  0.87691897  1
  Co  Co123  1  0.74974508  -0.00016504  0.49952991  1
  Co  Co124  1  0.12192923  0.62876364  0.62319863  1
  Co  Co125  1  0.25602675  0.75453616  0.25181000  1
  Co  Co126  1  0.00371379  0.49909806  0.74891002  1
  Co  Co127  1  0.49595191  0.74735192  0.00231813  1
