# generated using pymatgen
data_Fe45Co19
_symmetry_space_group_name_H-M   'P 1'
_cell_length_a   11.41595323
_cell_length_b   11.41605524
_cell_length_c   11.41481757
_cell_angle_alpha   90.00161497
_cell_angle_beta   90.00688604
_cell_angle_gamma   90.00399499
_symmetry_Int_Tables_number   1
_chemical_formula_structural   Fe45Co19
_chemical_formula_sum   'Fe90 Co38'
_cell_volume   1487.63782780
_cell_formula_units_Z   2
loop_
 _symmetry_equiv_pos_site_id
 _symmetry_equiv_pos_as_xyz
  1  'x, y, z'
loop_
 _atom_site_type_symbol
 _atom_site_label
 _atom_site_symmetry_multiplicity
 _atom_site_fract_x
 _atom_site_fract_y
 _atom_site_fract_z
 _atom_site_occupancy
  Fe  Fe0  1  0.49818937  0.75206585  0.24987789  1
  Fe  Fe1  1  0.62543645  0.62294175  0.37301170  1
  Fe  Fe2  1  -0.00107753  0.49731543  0.00311024  1
  Fe  Fe3  1  0.87728620  0.13034427  0.12590270  1
  Fe  Fe4  1  0.87419056  0.87297005  0.12117824  1
  Fe  Fe5  1  0.37037181  0.87774971  0.87722932  1
  Fe  Fe6  1  0.12525416  0.87709970  0.37629238  1
  Fe  Fe7  1  -0.00061372  0.00160413  0.50334989  1
  Fe  Fe8  1  0.75301900  0.50061162  0.00171362  1
  Fe  Fe9  1  0.62580045  0.12332515  0.37529677  1
  Fe  Fe10  1  0.25039920  0.75051174  0.24829099  1
  Fe  Fe11  1  0.75000216  0.74920783  0.24837173  1
  Fe  Fe12  1  0.50021275  0.49765209  0.25029685  1
  Fe  Fe13  1  0.24978214  0.24929998  0.00074912  1
  Fe  Fe14  1  0.24916574  0.00178831  0.50609046  1
  Fe  Fe15  1  0.12462628  0.62568002  0.12382557  1
  Fe  Fe16  1  0.74969090  0.25175828  0.25223382  1
  Fe  Fe17  1  0.87485220  0.87431725  0.87788658  1
  Fe  Fe18  1  0.75175621  0.75010697  0.75104923  1
  Fe  Fe19  1  0.49587365  0.49819972  -0.00106966  1
  Fe  Fe20  1  0.62493974  0.37848573  0.87119002  1
  Fe  Fe21  1  0.62498718  0.62253197  0.87367805  1
  Fe  Fe22  1  0.49547314  0.00032325  0.74847211  1
  Fe  Fe23  1  0.87494090  0.12576136  0.86933810  1
  Fe  Fe24  1  0.50036924  0.24998419  0.25236337  1
  Fe  Fe25  1  0.75211120  -0.00015366  0.50378469  1
  Fe  Fe26  1  0.87564809  0.87399006  0.37687853  1
  Fe  Fe27  1  0.50034266  0.25123633  -0.00425194  1
  Fe  Fe28  1  -0.00136770  0.49841603  0.75089392  1
  Fe  Fe29  1  0.87446685  0.37665996  0.37640055  1
  Fe  Fe30  1  0.12680191  0.87595817  0.12203971  1
  Fe  Fe31  1  -0.00041387  0.49604195  0.24626825  1
  Fe  Fe32  1  -0.00164333  -0.00277886  0.74514095  1
  Fe  Fe33  1  0.87672667  0.62566374  0.62603741  1
  Fe  Fe34  1  0.49860891  0.74997245  0.00003401  1
  Fe  Fe35  1  0.62732245  0.87836766  0.87684089  1
  Fe  Fe36  1  0.00453072  0.74683071  0.50060028  1
  Fe  Fe37  1  0.87487956  0.12443716  0.37559386  1
  Fe  Fe38  1  0.50242815  0.25069299  0.50050083  1
  Fe  Fe39  1  0.37392845  0.62629440  0.62532708  1
  Fe  Fe40  1  0.62578279  0.87691088  0.37442486  1
  Fe  Fe41  1  0.37447971  0.12432124  0.37608284  1
  Fe  Fe42  1  0.75001881  0.24832997  -0.00291054  1
  Fe  Fe43  1  0.37339692  0.37524331  0.37520138  1
  Fe  Fe44  1  0.25185999  0.49818081  0.00283428  1
  Fe  Fe45  1  0.62488753  0.62363135  0.12478720  1
  Fe  Fe46  1  0.12590827  0.37462603  0.87720624  1
  Fe  Fe47  1  0.62606958  0.12472213  0.62864345  1
  Fe  Fe48  1  0.62781862  0.12182656  0.87130960  1
  Fe  Fe49  1  0.24756300  0.75104083  0.74966424  1
  Fe  Fe50  1  0.12439252  0.62460014  0.87529875  1
  Fe  Fe51  1  0.62329885  0.12351198  0.12425458  1
  Fe  Fe52  1  0.37337776  0.62492048  0.87578300  1
  Fe  Fe53  1  0.00437760  0.50294173  0.49925342  1
  Fe  Fe54  1  0.49902381  0.75077910  0.75188321  1
  Fe  Fe55  1  0.37185571  0.62274264  0.37363475  1
  Fe  Fe56  1  0.62617432  0.37478958  0.12491458  1
  Fe  Fe57  1  0.87492467  0.37298696  0.87530859  1
  Fe  Fe58  1  0.37330465  0.87617684  0.37733011  1
  Fe  Fe59  1  0.12155376  0.13090158  0.12821138  1
  Fe  Fe60  1  0.12399613  0.12434853  0.87029808  1
  Fe  Fe61  1  0.24596522  0.74639296  0.50084945  1
  Fe  Fe62  1  0.49915133  0.49975473  0.50100260  1
  Fe  Fe63  1  0.12377012  0.37583792  0.62401354  1
  Fe  Fe64  1  0.00163442  0.24825373  0.49912889  1
  Fe  Fe65  1  0.00045312  0.00309175  0.00072289  1
  Fe  Fe66  1  0.50048024  0.74851162  0.49883089  1
  Fe  Fe67  1  0.37591656  0.37209660  0.62684612  1
  Fe  Fe68  1  -0.00053284  -0.00034221  0.24991065  1
  Fe  Fe69  1  0.49892383  0.00004368  0.50180388  1
  Fe  Fe70  1  0.74918457  0.74846221  0.49951937  1
  Fe  Fe71  1  0.62499265  0.62292443  0.62882193  1
  Fe  Fe72  1  0.74906827  0.50021656  0.50071380  1
  Fe  Fe73  1  0.62481298  0.87840324  0.12240200  1
  Fe  Fe74  1  0.75122529  0.00046074  0.24837392  1
  Fe  Fe75  1  0.62421761  0.37795868  0.63040661  1
  Fe  Fe76  1  0.62463064  0.87440745  0.62613671  1
  Fe  Fe77  1  0.37402310  0.87786201  0.12131897  1
  Fe  Fe78  1  0.87732774  0.62798077  0.87818912  1
  Fe  Fe79  1  0.24782730  0.49503226  0.24662024  1
  Fe  Fe80  1  0.74951610  0.25186605  0.50329533  1
  Fe  Fe81  1  0.24846460  0.24976029  0.74892746  1
  Fe  Fe82  1  0.37291896  0.12489597  0.87364458  1
  Fe  Fe83  1  0.12640297  0.87720228  0.87533431  1
  Fe  Fe84  1  0.25167415  0.49865160  0.74926644  1
  Fe  Fe85  1  0.24696699  0.24933855  0.49855439  1
  Fe  Fe86  1  0.37715669  0.12619484  0.12481184  1
  Fe  Fe87  1  0.87620201  0.62447969  0.37199034  1
  Fe  Fe88  1  0.24996907  0.00277214  0.24861300  1
  Fe  Fe89  1  0.00142862  0.75091446  0.24877963  1
  Co  Co90  1  0.87534367  0.12835397  0.62774779  1
  Co  Co91  1  0.24660304  0.00594996  0.00199006  1
  Co  Co92  1  0.87598068  0.62710073  0.12415373  1
  Co  Co93  1  0.37627393  0.37180262  0.12508753  1
  Co  Co94  1  0.00364506  0.75120520  0.00005684  1
  Co  Co95  1  0.75235114  0.49870005  0.24871966  1
  Co  Co96  1  0.25223728  0.00033158  0.74517558  1
  Co  Co97  1  0.74738340  0.74853761  -0.00053025  1
  Co  Co98  1  0.75360368  -0.00360380  0.74683298  1
  Co  Co99  1  0.12596185  0.37687311  0.37627906  1
  Co  Co100  1  0.37528509  0.62377586  0.12605658  1
  Co  Co101  1  0.75587843  0.50044534  0.75085065  1
  Co  Co102  1  0.75353310  0.00400152  0.00118593  1
  Co  Co103  1  0.62580545  0.37576922  0.37502148  1
  Co  Co104  1  -0.00068639  0.24865585  -0.00535952  1
  Co  Co105  1  0.49460863  0.50058086  0.75016406  1
  Co  Co106  1  0.00061338  0.75103439  0.75101143  1
  Co  Co107  1  0.49870446  0.00145847  -0.00291864  1
  Co  Co108  1  0.37310328  0.37307901  0.87427549  1
  Co  Co109  1  0.24969161  0.24984615  0.25240144  1
  Co  Co110  1  0.87572786  0.87014396  0.62216199  1
  Co  Co111  1  0.12671995  0.62317143  0.36960679  1
  Co  Co112  1  0.75071670  0.25428802  0.74862860  1
  Co  Co113  1  0.87475206  0.36910002  0.12398996  1
  Co  Co114  1  0.12465812  0.62322887  0.63000756  1
  Co  Co115  1  0.00061370  0.25329938  0.25728866  1
  Co  Co116  1  0.24950785  0.74805730  -0.00024678  1
  Co  Co117  1  0.24971809  0.50035408  0.50256532  1
  Co  Co118  1  0.00083650  0.25453548  0.74944070  1
  Co  Co119  1  0.50125300  0.24874933  0.75337150  1
  Co  Co120  1  0.87797432  0.37623910  0.62203505  1
  Co  Co121  1  0.12294324  0.36851139  0.12240192  1
  Co  Co122  1  0.49864166  -0.00051826  0.25127048  1
  Co  Co123  1  0.12314084  0.12597974  0.62713512  1
  Co  Co124  1  0.37548745  0.12940029  0.62483809  1
  Co  Co125  1  0.12458155  0.87460360  0.62485288  1
  Co  Co126  1  0.12488425  0.12167378  0.37484291  1
  Co  Co127  1  0.37478589  0.87106160  0.62354632  1
