# generated using pymatgen
data_Fe45Co19
_symmetry_space_group_name_H-M   'P 1'
_cell_length_a   11.41478320
_cell_length_b   11.41489945
_cell_length_c   11.41626346
_cell_angle_alpha   89.99604647
_cell_angle_beta   89.98814341
_cell_angle_gamma   89.98964894
_symmetry_Int_Tables_number   1
_chemical_formula_structural   Fe45Co19
_chemical_formula_sum   'Fe90 Co38'
_cell_volume   1487.52311493
_cell_formula_units_Z   2
loop_
 _symmetry_equiv_pos_site_id
 _symmetry_equiv_pos_as_xyz
  1  'x, y, z'
loop_
 _atom_site_type_symbol
 _atom_site_label
 _atom_site_symmetry_multiplicity
 _atom_site_fract_x
 _atom_site_fract_y
 _atom_site_fract_z
 _atom_site_occupancy
  Fe  Fe0  1  0.37615332  0.87812717  0.12642411  1
  Fe  Fe1  1  0.50051995  -0.00001014  0.75431992  1
  Fe  Fe2  1  -0.00154832  0.74962527  0.00138050  1
  Fe  Fe3  1  0.75087180  0.00089129  0.00097228  1
  Fe  Fe4  1  0.50004679  0.00601219  0.25407458  1
  Fe  Fe5  1  0.24790527  0.24776976  0.24732122  1
  Fe  Fe6  1  0.49689700  0.24820839  -0.00072364  1
  Fe  Fe7  1  0.24932314  0.49869889  0.74921441  1
  Fe  Fe8  1  0.12153888  0.87505535  0.12667283  1
  Fe  Fe9  1  0.75155494  -0.00107390  0.49822194  1
  Fe  Fe10  1  0.37242496  0.87606253  0.37175180  1
  Fe  Fe11  1  0.49829258  0.24567528  0.49822731  1
  Fe  Fe12  1  0.37696406  0.37243455  0.62791286  1
  Fe  Fe13  1  0.49960608  0.49859445  0.49973020  1
  Fe  Fe14  1  0.62357391  0.62482475  0.62428973  1
  Fe  Fe15  1  0.24713958  0.00272798  0.24868431  1
  Fe  Fe16  1  0.74953321  0.00311467  0.25028801  1
  Fe  Fe17  1  -0.00054482  0.50004517  0.49850909  1
  Fe  Fe18  1  0.75087267  -0.00082727  0.74942301  1
  Fe  Fe19  1  0.62473920  0.12789739  0.12645646  1
  Fe  Fe20  1  0.50069174  0.75353436  0.49932293  1
  Fe  Fe21  1  0.75420182  0.50161853  0.25235731  1
  Fe  Fe22  1  0.25107884  0.50030184  0.50125095  1
  Fe  Fe23  1  0.24851834  0.75631406  0.74947869  1
  Fe  Fe24  1  0.62819438  0.12548450  0.87609888  1
  Fe  Fe25  1  0.00126414  0.00265753  -0.00315196  1
  Fe  Fe26  1  0.88046315  0.12042368  0.62417859  1
  Fe  Fe27  1  0.74850717  0.75551347  0.50048183  1
  Fe  Fe28  1  0.74884281  0.49951586  0.74799605  1
  Fe  Fe29  1  0.62702315  0.37066215  0.37375551  1
  Fe  Fe30  1  0.24863518  0.74937684  0.24860637  1
  Fe  Fe31  1  0.00687502  0.24516615  0.74606732  1
  Fe  Fe32  1  0.87732512  0.12633093  0.37441749  1
  Fe  Fe33  1  0.62394701  0.37287712  0.12739949  1
  Fe  Fe34  1  0.12091202  0.37619275  0.12438340  1
  Fe  Fe35  1  0.49870806  0.00181103  0.49424943  1
  Fe  Fe36  1  0.37619715  0.37409833  0.12740910  1
  Fe  Fe37  1  0.62389541  0.12246113  0.62344296  1
  Fe  Fe38  1  0.87698437  0.37172765  0.37527326  1
  Fe  Fe39  1  0.12141817  0.62194932  0.12489182  1
  Fe  Fe40  1  0.36605399  0.12600942  0.87357449  1
  Fe  Fe41  1  0.37172766  0.37097717  0.37580760  1
  Fe  Fe42  1  0.75380630  0.25004010  0.00247151  1
  Fe  Fe43  1  0.12433363  0.12307660  0.38141210  1
  Fe  Fe44  1  0.87781814  0.87886704  0.12674193  1
  Fe  Fe45  1  0.37582351  0.87871627  0.62714761  1
  Fe  Fe46  1  0.12583727  0.62509297  0.62448903  1
  Fe  Fe47  1  0.87824393  0.37529775  0.62623731  1
  Fe  Fe48  1  0.49855411  0.00151722  -0.00174894  1
  Fe  Fe49  1  0.50020006  0.75292200  -0.00132078  1
  Fe  Fe50  1  0.24861377  0.50031823  0.25108765  1
  Fe  Fe51  1  0.00139603  0.75369360  0.74770498  1
  Fe  Fe52  1  0.12438854  0.12668696  0.11919170  1
  Fe  Fe53  1  0.12617332  0.36976776  0.87528615  1
  Fe  Fe54  1  0.12556269  0.62724232  0.87528942  1
  Fe  Fe55  1  0.87408480  0.62595963  0.62211099  1
  Fe  Fe56  1  0.37346923  0.62580508  0.37596850  1
  Fe  Fe57  1  0.00198214  0.75616924  0.50019780  1
  Fe  Fe58  1  0.87680276  0.37236843  0.87173160  1
  Fe  Fe59  1  0.75194010  0.49856352  -0.00127524  1
  Fe  Fe60  1  0.00149296  0.50136931  0.75103770  1
  Fe  Fe61  1  0.62567469  0.62395430  0.12481361  1
  Fe  Fe62  1  0.37481013  0.62392611  0.12459090  1
  Fe  Fe63  1  0.74675687  0.75327781  0.74829645  1
  Fe  Fe64  1  0.25017656  0.75290253  0.00170375  1
  Fe  Fe65  1  0.62383979  0.87703257  0.12673389  1
  Fe  Fe66  1  0.24799568  0.75519037  0.50032624  1
  Fe  Fe67  1  0.62376580  0.62572997  0.87359886  1
  Fe  Fe68  1  0.75325324  0.74800221  0.24831436  1
  Fe  Fe69  1  0.87606524  0.12634815  0.87422364  1
  Fe  Fe70  1  0.49889643  0.49913022  -0.00217876  1
  Fe  Fe71  1  0.12393310  0.62717135  0.37527970  1
  Fe  Fe72  1  0.88016542  0.37597903  0.12634217  1
  Fe  Fe73  1  0.37517588  0.62746687  0.87267572  1
  Fe  Fe74  1  0.25008752  0.49873574  -0.00138081  1
  Fe  Fe75  1  0.74977717  0.24789306  0.74722614  1
  Fe  Fe76  1  0.62452181  0.37288711  0.87337365  1
  Fe  Fe77  1  0.12509594  0.37231273  0.37768593  1
  Fe  Fe78  1  0.87463468  0.87481988  0.87448498  1
  Fe  Fe79  1  0.87453490  0.62606863  0.87451825  1
  Fe  Fe80  1  0.49923618  0.49958697  0.25286965  1
  Fe  Fe81  1  0.62738464  0.62467146  0.37692016  1
  Fe  Fe82  1  0.50032402  0.74929419  0.25129002  1
  Fe  Fe83  1  0.75239552  0.24916761  0.50268043  1
  Fe  Fe84  1  0.24824922  0.24570126  0.50949381  1
  Fe  Fe85  1  0.87716311  0.87499256  0.36987503  1
  Fe  Fe86  1  0.62228180  0.37249234  0.62642672  1
  Fe  Fe87  1  0.75019018  0.75147023  0.00197273  1
  Fe  Fe88  1  0.37569384  0.62668853  0.62679547  1
  Fe  Fe89  1  0.37290461  0.37069290  0.87012421  1
  Co  Co90  1  0.24341788  0.24669581  0.74071273  1
  Co  Co91  1  0.87640637  0.12282791  0.12568578  1
  Co  Co92  1  0.00388417  0.00553790  0.24999292  1
  Co  Co93  1  0.24435993  -0.00080821  0.75228959  1
  Co  Co94  1  0.74995997  0.49580274  0.50115070  1
  Co  Co95  1  0.62318430  0.88083774  0.62418877  1
  Co  Co96  1  -0.00292499  0.24873845  -0.00020328  1
  Co  Co97  1  0.49724824  0.24702770  0.25200505  1
  Co  Co98  1  -0.00218598  0.74686643  0.24937371  1
  Co  Co99  1  0.87764224  0.62102867  0.12174795  1
  Co  Co100  1  0.37662946  0.12063907  0.62826047  1
  Co  Co101  1  0.50118983  0.24435111  0.75249658  1
  Co  Co102  1  0.36840069  0.12757146  0.37504210  1
  Co  Co103  1  0.62967076  0.12889779  0.37495750  1
  Co  Co104  1  0.00078660  0.24965217  0.50295071  1
  Co  Co105  1  0.25268838  0.25292562  0.00408052  1
  Co  Co106  1  0.37330651  0.87644915  0.87543131  1
  Co  Co107  1  -0.00422517  -0.00717127  0.49580390  1
  Co  Co108  1  0.12534397  0.87627104  0.37137431  1
  Co  Co109  1  0.00059423  0.49902818  -0.00543776  1
  Co  Co110  1  0.12019932  0.11296212  0.61959509  1
  Co  Co111  1  0.62593357  0.87559873  0.37246987  1
  Co  Co112  1  0.12369695  0.87294965  0.87735780  1
  Co  Co113  1  0.24828987  -0.00396884  0.00133232  1
  Co  Co114  1  0.00228306  -0.00004946  0.75633921  1
  Co  Co115  1  0.12414441  0.88233429  0.62371580  1
  Co  Co116  1  0.62740242  0.87661297  0.87627319  1
  Co  Co117  1  0.25406408  -0.00221345  0.49935402  1
  Co  Co118  1  0.37462105  0.12299347  0.12484093  1
  Co  Co119  1  -0.00103432  0.50104397  0.25574359  1
  Co  Co120  1  0.75488007  0.24939530  0.24718379  1
  Co  Co121  1  0.49974993  0.50011346  0.74982594  1
  Co  Co122  1  0.13041782  0.12851810  0.87876358  1
  Co  Co123  1  0.87477089  0.62798773  0.38162188  1
  Co  Co124  1  0.00267124  0.24624765  0.24995264  1
  Co  Co125  1  0.12289780  0.37945662  0.62274150  1
  Co  Co126  1  0.50151586  0.75427187  0.75004950  1
  Co  Co127  1  0.87528242  0.87665808  0.62765544  1
