# generated using pymatgen
data_Fe45Co19
_symmetry_space_group_name_H-M   'P 1'
_cell_length_a   11.41484148
_cell_length_b   11.41508774
_cell_length_c   11.41507524
_cell_angle_alpha   89.99811162
_cell_angle_beta   90.00077838
_cell_angle_gamma   90.00381632
_symmetry_Int_Tables_number   1
_chemical_formula_structural   Fe45Co19
_chemical_formula_sum   'Fe90 Co38'
_cell_volume   1487.40047477
_cell_formula_units_Z   2
loop_
 _symmetry_equiv_pos_site_id
 _symmetry_equiv_pos_as_xyz
  1  'x, y, z'
loop_
 _atom_site_type_symbol
 _atom_site_label
 _atom_site_symmetry_multiplicity
 _atom_site_fract_x
 _atom_site_fract_y
 _atom_site_fract_z
 _atom_site_occupancy
  Fe  Fe0  1  0.37696730  0.11943837  0.37584143  1
  Fe  Fe1  1  0.74802916  0.49969755  0.49791353  1
  Fe  Fe2  1  0.62692791  0.12313386  0.62333104  1
  Fe  Fe3  1  0.75168871  0.75140169  0.49684710  1
  Fe  Fe4  1  0.37709780  0.37391013  0.12517846  1
  Fe  Fe5  1  0.87387139  0.62928329  0.12768360  1
  Fe  Fe6  1  0.24916294  0.75112040  0.25327293  1
  Fe  Fe7  1  0.50505975  0.50423046  0.00509325  1
  Fe  Fe8  1  0.74919375  0.24964320  0.75192601  1
  Fe  Fe9  1  0.12473898  0.37567934  0.37375888  1
  Fe  Fe10  1  0.87365398  0.37317571  0.12504450  1
  Fe  Fe11  1  0.37792040  0.37666256  0.87625474  1
  Fe  Fe12  1  -0.00353028  0.74685934  0.74960455  1
  Fe  Fe13  1  0.25116811  0.75162527  0.75253999  1
  Fe  Fe14  1  0.12320899  0.12451960  0.37618710  1
  Fe  Fe15  1  -0.00243622  -0.00037241  0.75042166  1
  Fe  Fe16  1  0.12329069  0.12631592  0.12336163  1
  Fe  Fe17  1  0.12203345  0.12501220  0.87710237  1
  Fe  Fe18  1  0.49850179  0.75517493  0.24750170  1
  Fe  Fe19  1  0.37548365  0.37445791  0.62557048  1
  Fe  Fe20  1  0.25100795  0.50052194  -0.00058086  1
  Fe  Fe21  1  0.24930011  -0.00026746  0.25068304  1
  Fe  Fe22  1  -0.00254698  -0.00015905  0.50058729  1
  Fe  Fe23  1  0.75229287  -0.00006851  0.24625364  1
  Fe  Fe24  1  0.12439943  0.62344599  0.87299435  1
  Fe  Fe25  1  0.37406576  0.62853459  0.12589244  1
  Fe  Fe26  1  0.75291272  0.74548477  0.75101806  1
  Fe  Fe27  1  0.37748786  0.12238848  0.87590686  1
  Fe  Fe28  1  0.25190033  0.50079868  0.49877617  1
  Fe  Fe29  1  0.87249068  0.12427004  0.62494463  1
  Fe  Fe30  1  0.50174084  0.24949949  0.00066872  1
  Fe  Fe31  1  -0.00395790  -0.00034712  0.00303008  1
  Fe  Fe32  1  0.62788437  0.87534768  0.62450864  1
  Fe  Fe33  1  0.74927404  -0.00114531  0.75223403  1
  Fe  Fe34  1  0.87645448  0.12599053  0.37302626  1
  Fe  Fe35  1  0.62071585  0.37658666  0.37271280  1
  Fe  Fe36  1  0.12480217  0.87533063  0.12521960  1
  Fe  Fe37  1  0.87535313  0.37446453  0.37401909  1
  Fe  Fe38  1  0.62317496  0.12095353  0.37235486  1
  Fe  Fe39  1  0.12589873  0.62377511  0.12705385  1
  Fe  Fe40  1  0.12571821  0.37621491  0.62695068  1
  Fe  Fe41  1  0.00200606  0.74960442  0.00091986  1
  Fe  Fe42  1  0.49995071  0.24727011  0.49951762  1
  Fe  Fe43  1  0.62365018  0.87800362  0.37419945  1
  Fe  Fe44  1  -0.00041083  0.49942305  0.00314791  1
  Fe  Fe45  1  0.74692939  0.74671945  -0.00192584  1
  Fe  Fe46  1  0.50139418  0.50148879  0.74825193  1
  Fe  Fe47  1  0.25201703  0.24897170  0.75223734  1
  Fe  Fe48  1  0.62081126  0.62422833  0.37249350  1
  Fe  Fe49  1  0.25199075  0.49980854  0.25013999  1
  Fe  Fe50  1  0.12389114  0.87450861  0.62620790  1
  Fe  Fe51  1  0.62595201  0.37510489  0.62461207  1
  Fe  Fe52  1  0.75238152  -0.00061231  0.00243857  1
  Fe  Fe53  1  -0.00220315  0.25073451  0.75157261  1
  Fe  Fe54  1  0.25006137  -0.00301522  -0.00324133  1
  Fe  Fe55  1  -0.00166746  0.75051419  0.50010458  1
  Fe  Fe56  1  0.62108101  0.87112937  0.87364028  1
  Fe  Fe57  1  0.62761176  0.37942776  0.87715009  1
  Fe  Fe58  1  0.50062513  -0.00613656  0.00355063  1
  Fe  Fe59  1  0.24936062  0.75267183  -0.00355122  1
  Fe  Fe60  1  0.25175767  0.75097491  0.49801710  1
  Fe  Fe61  1  0.87626782  0.62428916  0.37357715  1
  Fe  Fe62  1  0.12502524  0.12597518  0.62371203  1
  Fe  Fe63  1  0.62741150  0.62544055  0.62390018  1
  Fe  Fe64  1  0.00222167  0.25132866  0.24861417  1
  Fe  Fe65  1  0.12550317  0.62378290  0.62633090  1
  Fe  Fe66  1  0.24952812  0.25120960  -0.00034961  1
  Fe  Fe67  1  0.75058389  0.24764349  0.00063718  1
  Fe  Fe68  1  0.37522047  0.87938972  0.62565193  1
  Fe  Fe69  1  0.62537362  0.12301967  0.87797812  1
  Fe  Fe70  1  0.74936844  0.24890580  0.49757593  1
  Fe  Fe71  1  0.25020781  -0.00001141  0.75245689  1
  Fe  Fe72  1  0.37361193  0.62384930  0.62443357  1
  Fe  Fe73  1  0.49849073  0.75175475  0.50024003  1
  Fe  Fe74  1  0.87584117  0.87292766  0.87595887  1
  Fe  Fe75  1  0.25193059  0.24969426  0.24984591  1
  Fe  Fe76  1  0.12403617  0.87637130  0.37526345  1
  Fe  Fe77  1  0.74784724  0.50048155  0.24722969  1
  Fe  Fe78  1  0.74592103  0.24897759  0.24898115  1
  Fe  Fe79  1  0.37670245  0.12325038  0.12454829  1
  Fe  Fe80  1  0.12387924  0.62342509  0.37412552  1
  Fe  Fe81  1  0.12485824  0.37718639  0.87488522  1
  Fe  Fe82  1  0.87706748  0.87527589  0.37162891  1
  Fe  Fe83  1  0.87311522  0.37666644  0.62450642  1
  Fe  Fe84  1  0.87178017  0.37982788  0.87629394  1
  Fe  Fe85  1  -0.00010324  0.49865308  0.50001999  1
  Fe  Fe86  1  0.37912180  0.37770718  0.37465011  1
  Fe  Fe87  1  0.37981397  0.62808699  0.87540955  1
  Fe  Fe88  1  0.25121346  0.24922460  0.49947799  1
  Fe  Fe89  1  0.50116055  0.24733521  0.75101590  1
  Co  Co90  1  0.62363959  0.12441531  0.12427222  1
  Co  Co91  1  0.63073005  0.87290171  0.12557283  1
  Co  Co92  1  0.49935574  -0.00416914  0.24495887  1
  Co  Co93  1  0.62154468  0.62583594  0.87323418  1
  Co  Co94  1  0.87442687  0.12417423  0.87448785  1
  Co  Co95  1  -0.00079861  0.25250405  -0.00189749  1
  Co  Co96  1  0.49952101  0.74936592  0.74480119  1
  Co  Co97  1  0.87542903  0.62281164  0.87919848  1
  Co  Co98  1  0.37521944  0.87735800  0.37567283  1
  Co  Co99  1  0.49999828  0.50150367  0.50288305  1
  Co  Co100  1  -0.00101939  0.25068590  0.50040908  1
  Co  Co101  1  0.24781865  -0.00084092  0.50035130  1
  Co  Co102  1  0.87382199  0.62377805  0.61986002  1
  Co  Co103  1  -0.00185010  0.49971886  0.24785569  1
  Co  Co104  1  -0.00270903  0.50178368  0.74967698  1
  Co  Co105  1  0.62461599  0.37128305  0.12449140  1
  Co  Co106  1  0.74938740  0.75102872  0.25562730  1
  Co  Co107  1  0.37405717  0.12346511  0.62506996  1
  Co  Co108  1  -0.00091406  -0.00064248  0.24690796  1
  Co  Co109  1  0.25322809  0.50062929  0.75244180  1
  Co  Co110  1  0.87343232  0.86873091  0.12530139  1
  Co  Co111  1  0.87578224  0.12912453  0.12626372  1
  Co  Co112  1  0.50164278  -0.00040564  0.50256162  1
  Co  Co113  1  0.50059246  0.50066656  0.24430733  1
  Co  Co114  1  0.75017499  0.50403678  0.74945348  1
  Co  Co115  1  0.37868641  0.62559892  0.37366481  1
  Co  Co116  1  0.50305215  0.00196277  0.74926259  1
  Co  Co117  1  0.36912888  0.87380558  0.12500395  1
  Co  Co118  1  0.49926979  0.24796854  0.25081762  1
  Co  Co119  1  0.87286312  0.87474990  0.62605427  1
  Co  Co120  1  0.50094142  0.75184263  0.00478835  1
  Co  Co121  1  0.12687396  0.37498087  0.12539119  1
  Co  Co122  1  0.37964478  0.87368649  0.87330878  1
  Co  Co123  1  0.75243958  -0.00046275  0.49710281  1
  Co  Co124  1  0.62635393  0.63075400  0.13023219  1
  Co  Co125  1  0.74704275  0.50451614  0.00552554  1
  Co  Co126  1  0.00294944  0.75034089  0.25030822  1
  Co  Co127  1  0.12103404  0.87543402  0.87400498  1
