# generated using pymatgen
data_Fe45Co19
_symmetry_space_group_name_H-M   'P 1'
_cell_length_a   11.41441629
_cell_length_b   11.41595376
_cell_length_c   11.41664494
_cell_angle_alpha   90.00618209
_cell_angle_beta   89.99393846
_cell_angle_gamma   90.00258708
_symmetry_Int_Tables_number   1
_chemical_formula_structural   Fe45Co19
_chemical_formula_sum   'Fe90 Co38'
_cell_volume   1487.66243807
_cell_formula_units_Z   2
loop_
 _symmetry_equiv_pos_site_id
 _symmetry_equiv_pos_as_xyz
  1  'x, y, z'
loop_
 _atom_site_type_symbol
 _atom_site_label
 _atom_site_symmetry_multiplicity
 _atom_site_fract_x
 _atom_site_fract_y
 _atom_site_fract_z
 _atom_site_occupancy
  Fe  Fe0  1  0.00337282  0.25114730  0.74664068  1
  Fe  Fe1  1  0.12438589  0.37559884  0.12375678  1
  Fe  Fe2  1  -0.00043808  0.74777910  0.24617398  1
  Fe  Fe3  1  0.87705443  0.87741134  0.87729675  1
  Fe  Fe4  1  0.49614314  -0.00354327  0.74899084  1
  Fe  Fe5  1  0.37514540  0.62552647  0.87400954  1
  Fe  Fe6  1  0.62330647  0.37400115  0.37718422  1
  Fe  Fe7  1  0.50241594  -0.00129286  0.25380059  1
  Fe  Fe8  1  0.62872680  0.12230872  0.12907977  1
  Fe  Fe9  1  0.62248337  0.87339805  0.87332825  1
  Fe  Fe10  1  0.75318788  0.74835590  0.50217795  1
  Fe  Fe11  1  0.00143012  0.74759209  0.00333251  1
  Fe  Fe12  1  0.62340871  0.37591134  0.12354089  1
  Fe  Fe13  1  0.25129510  0.25064153  0.00075626  1
  Fe  Fe14  1  0.00092489  0.49864653  0.75145380  1
  Fe  Fe15  1  0.12388088  0.87613052  0.37505345  1
  Fe  Fe16  1  0.37757553  0.37584866  0.12325065  1
  Fe  Fe17  1  0.12528363  0.87402946  0.87783254  1
  Fe  Fe18  1  0.87545648  0.12538103  0.37443641  1
  Fe  Fe19  1  0.24974109  0.49995031  -0.00008323  1
  Fe  Fe20  1  0.75123689  0.50133778  0.49869111  1
  Fe  Fe21  1  0.24608731  -0.00008052  0.00145281  1
  Fe  Fe22  1  0.74897268  0.50004566  -0.00151670  1
  Fe  Fe23  1  0.12719918  0.62619551  0.87432047  1
  Fe  Fe24  1  0.75158322  0.24976521  0.49914986  1
  Fe  Fe25  1  -0.00164728  0.50372578  0.49914607  1
  Fe  Fe26  1  0.24820594  0.25301321  0.74776093  1
  Fe  Fe27  1  0.62523788  0.62655450  0.62960853  1
  Fe  Fe28  1  0.74952213  -0.00048463  0.49666340  1
  Fe  Fe29  1  0.12564054  0.62401288  0.62743867  1
  Fe  Fe30  1  0.62260961  0.12584434  0.87148829  1
  Fe  Fe31  1  -0.00103409  0.75128951  0.74764824  1
  Fe  Fe32  1  0.37740509  0.37761975  0.62195997  1
  Fe  Fe33  1  0.62742294  0.87763393  0.12550043  1
  Fe  Fe34  1  0.87679741  0.12505692  0.62531558  1
  Fe  Fe35  1  0.12561943  0.12677682  0.87378990  1
  Fe  Fe36  1  0.37577159  0.37761772  0.37903150  1
  Fe  Fe37  1  -0.00302567  0.50155482  0.24962916  1
  Fe  Fe38  1  0.49842350  0.74635342  0.50000163  1
  Fe  Fe39  1  0.50211971  0.00214692  0.00147035  1
  Fe  Fe40  1  0.12751932  0.87872005  0.62246284  1
  Fe  Fe41  1  0.75092597  0.25181835  0.25126556  1
  Fe  Fe42  1  0.50136638  0.00053319  0.49667033  1
  Fe  Fe43  1  0.75049533  0.75143355  -0.00127205  1
  Fe  Fe44  1  0.75047493  0.24563796  -0.00087934  1
  Fe  Fe45  1  0.62763273  0.62703082  0.37277368  1
  Fe  Fe46  1  0.24749588  0.24956746  0.50192118  1
  Fe  Fe47  1  0.37333870  0.87648082  0.12444711  1
  Fe  Fe48  1  0.00176417  0.00001865  0.74956600  1
  Fe  Fe49  1  0.87354908  0.37626676  0.12521416  1
  Fe  Fe50  1  0.62100335  0.37411751  0.62244718  1
  Fe  Fe51  1  -0.00270172  0.24515691  0.00256728  1
  Fe  Fe52  1  0.62342635  0.12563060  0.62404124  1
  Fe  Fe53  1  0.24850878  0.74883371  0.49958225  1
  Fe  Fe54  1  -0.00018930  0.50215020  -0.00012500  1
  Fe  Fe55  1  0.37950351  0.37396105  0.87702429  1
  Fe  Fe56  1  0.74969814  0.49807691  0.75066435  1
  Fe  Fe57  1  0.62757812  0.62432360  0.12608949  1
  Fe  Fe58  1  0.37441138  0.12510478  0.37405729  1
  Fe  Fe59  1  0.49951394  0.75015923  0.24944826  1
  Fe  Fe60  1  0.24835695  0.75158437  0.24805037  1
  Fe  Fe61  1  0.87757515  0.37528118  0.62304039  1
  Fe  Fe62  1  0.12637202  0.62380166  0.37220042  1
  Fe  Fe63  1  0.75053492  -0.00138134  0.75060665  1
  Fe  Fe64  1  0.37482892  0.12427456  0.87441691  1
  Fe  Fe65  1  0.87445946  0.88086908  0.12187046  1
  Fe  Fe66  1  0.87659395  0.37226301  0.87513899  1
  Fe  Fe67  1  0.37489817  0.62342656  0.62613395  1
  Fe  Fe68  1  0.61987215  0.37260331  0.87682127  1
  Fe  Fe69  1  0.49966275  0.25004852  0.25002803  1
  Fe  Fe70  1  0.87462881  0.62622753  0.87338349  1
  Fe  Fe71  1  0.49870479  0.74837672  0.00087123  1
  Fe  Fe72  1  0.87832348  0.87247588  0.37642467  1
  Fe  Fe73  1  0.12486484  0.12376464  0.37592764  1
  Fe  Fe74  1  0.12393581  0.37688805  0.37780078  1
  Fe  Fe75  1  0.37456693  0.87343681  0.37591662  1
  Fe  Fe76  1  0.37216346  0.62376767  0.12725227  1
  Fe  Fe77  1  0.74918564  0.25081928  0.74944583  1
  Fe  Fe78  1  0.49957959  0.50095240  0.25212355  1
  Fe  Fe79  1  0.00196914  0.00179943  0.24660547  1
  Fe  Fe80  1  0.24939656  0.25279036  0.25112297  1
  Fe  Fe81  1  0.75323830  0.75204529  0.24804354  1
  Fe  Fe82  1  0.62383287  0.87278562  0.62450573  1
  Fe  Fe83  1  0.87604501  0.87426506  0.62332030  1
  Fe  Fe84  1  0.37211399  0.12204473  0.62542224  1
  Fe  Fe85  1  0.24867911  0.49563423  0.75072107  1
  Fe  Fe86  1  -0.00058877  0.24921925  0.24917446  1
  Fe  Fe87  1  0.62369731  0.62767596  0.87148179  1
  Fe  Fe88  1  0.37287545  0.12347697  0.12759996  1
  Fe  Fe89  1  0.25418141  0.75563824  0.75011354  1
  Co  Co90  1  0.24867611  -0.00109105  0.25085659  1
  Co  Co91  1  0.87412101  0.62753303  0.37422129  1
  Co  Co92  1  0.12333482  0.37306775  0.87894315  1
  Co  Co93  1  0.12873643  0.12829478  0.12632579  1
  Co  Co94  1  0.49736049  0.25017362  0.74786547  1
  Co  Co95  1  0.12673364  0.12158522  0.62541191  1
  Co  Co96  1  0.62470432  0.86899830  0.37717137  1
  Co  Co97  1  0.50084558  0.24436808  0.00279836  1
  Co  Co98  1  0.87161840  0.62349232  0.12391274  1
  Co  Co99  1  0.37545951  0.87655244  0.88177922  1
  Co  Co100  1  0.12755376  0.62208209  0.12621719  1
  Co  Co101  1  0.62537092  0.12854427  0.37478987  1
  Co  Co102  1  0.24978496  0.74859090  0.00187978  1
  Co  Co103  1  0.75359791  0.75258047  0.75054052  1
  Co  Co104  1  0.25120888  0.49583624  0.24962880  1
  Co  Co105  1  0.74864774  0.00233111  -0.00584172  1
  Co  Co106  1  0.74986138  0.49858625  0.25171565  1
  Co  Co107  1  0.12291607  0.37759359  0.62088621  1
  Co  Co108  1  0.87571506  0.62374105  0.62743213  1
  Co  Co109  1  0.87628260  0.37478479  0.37541220  1
  Co  Co110  1  0.50126018  0.50544045  0.49841477  1
  Co  Co111  1  0.86974407  0.12105062  0.12761918  1
  Co  Co112  1  0.00313428  0.00477967  0.00159877  1
  Co  Co113  1  -0.00103503  0.00038010  0.50003749  1
  Co  Co114  1  0.37479033  0.87696034  0.61887037  1
  Co  Co115  1  0.25067158  -0.00373701  0.75318959  1
  Co  Co116  1  0.12490210  0.87492084  0.12420188  1
  Co  Co117  1  0.49742065  0.24709717  0.50054570  1
  Co  Co118  1  0.00306871  0.74778868  0.50175403  1
  Co  Co119  1  0.37178692  0.62595025  0.37290255  1
  Co  Co120  1  0.49427671  0.75311840  0.74955739  1
  Co  Co121  1  0.74935878  -0.00365632  0.25743592  1
  Co  Co122  1  0.25008790  0.00075157  0.49606812  1
  Co  Co123  1  0.00115879  0.24807348  0.49980935  1
  Co  Co124  1  0.24962504  0.50258125  0.50058449  1
  Co  Co125  1  0.50021770  0.50426951  0.00009125  1
  Co  Co126  1  0.50086710  0.49852453  0.75031534  1
  Co  Co127  1  0.87734294  0.12538244  0.87096377  1
