# generated using pymatgen
data_Fe45Co19
_symmetry_space_group_name_H-M   'P 1'
_cell_length_a   11.41571073
_cell_length_b   11.41580511
_cell_length_c   11.41520532
_cell_angle_alpha   90.00313050
_cell_angle_beta   89.99772511
_cell_angle_gamma   89.99853350
_symmetry_Int_Tables_number   1
_chemical_formula_structural   Fe45Co19
_chemical_formula_sum   'Fe90 Co38'
_cell_volume   1487.62417599
_cell_formula_units_Z   2
loop_
 _symmetry_equiv_pos_site_id
 _symmetry_equiv_pos_as_xyz
  1  'x, y, z'
loop_
 _atom_site_type_symbol
 _atom_site_label
 _atom_site_symmetry_multiplicity
 _atom_site_fract_x
 _atom_site_fract_y
 _atom_site_fract_z
 _atom_site_occupancy
  Fe  Fe0  1  0.75018643  0.74984282  -0.00309279  1
  Fe  Fe1  1  0.37645106  0.87472556  0.12578420  1
  Fe  Fe2  1  0.12648241  0.62190367  0.62799039  1
  Fe  Fe3  1  0.12606925  0.37727390  0.37597212  1
  Fe  Fe4  1  0.62716198  0.12159462  0.37319863  1
  Fe  Fe5  1  0.24927445  0.25036515  0.25079711  1
  Fe  Fe6  1  0.62251087  0.12430584  0.62569610  1
  Fe  Fe7  1  -0.00218542  -0.00157527  -0.00113054  1
  Fe  Fe8  1  -0.00071437  0.50161898  -0.00258486  1
  Fe  Fe9  1  0.37636557  0.12588590  0.12641490  1
  Fe  Fe10  1  0.50020200  -0.00076871  -0.00038903  1
  Fe  Fe11  1  0.25194936  0.74973648  0.75061916  1
  Fe  Fe12  1  0.87394549  0.87203703  0.12446730  1
  Fe  Fe13  1  0.12325035  0.37601016  0.12328673  1
  Fe  Fe14  1  0.87126330  0.37622476  0.37540425  1
  Fe  Fe15  1  0.87326912  0.12796016  0.12499012  1
  Fe  Fe16  1  0.74926432  0.25002559  0.74981961  1
  Fe  Fe17  1  0.12744123  0.87637876  0.62275714  1
  Fe  Fe18  1  0.49430294  0.49976953  0.75007592  1
  Fe  Fe19  1  0.62549579  0.12544577  0.87318709  1
  Fe  Fe20  1  0.49836208  0.74875728  0.75214295  1
  Fe  Fe21  1  0.87770924  0.12498949  0.62176670  1
  Fe  Fe22  1  0.37537641  0.62352163  0.37448131  1
  Fe  Fe23  1  0.12619103  0.37807205  0.62611452  1
  Fe  Fe24  1  0.62748513  0.87839498  0.37419510  1
  Fe  Fe25  1  0.24920402  0.25103777  -0.00079883  1
  Fe  Fe26  1  0.25034749  0.74642045  0.24572350  1
  Fe  Fe27  1  0.74901660  0.24985732  0.49917684  1
  Fe  Fe28  1  0.62360410  0.62406919  0.62587103  1
  Fe  Fe29  1  0.87468235  0.87055138  0.62817377  1
  Fe  Fe30  1  0.87398229  0.62644475  0.12624520  1
  Fe  Fe31  1  0.12393525  0.12498109  0.12497689  1
  Fe  Fe32  1  0.25095013  0.74781073  0.50018068  1
  Fe  Fe33  1  0.87522680  0.37598068  0.62559181  1
  Fe  Fe34  1  0.50255012  0.75028227  0.25112420  1
  Fe  Fe35  1  0.49717950  0.74995170  -0.00274710  1
  Fe  Fe36  1  0.62203948  0.87568142  0.62476260  1
  Fe  Fe37  1  0.50320643  0.25123154  -0.00214778  1
  Fe  Fe38  1  0.37580226  0.87576017  0.62598876  1
  Fe  Fe39  1  0.50355003  0.49879890  0.25093963  1
  Fe  Fe40  1  0.12678658  0.87520750  0.37563089  1
  Fe  Fe41  1  0.12469841  0.62431508  0.37378731  1
  Fe  Fe42  1  0.00053703  -0.00258404  0.74991632  1
  Fe  Fe43  1  0.37408038  0.87540963  0.37400259  1
  Fe  Fe44  1  0.24998667  0.50138995  0.24652597  1
  Fe  Fe45  1  0.87179071  0.62350360  0.37622902  1
  Fe  Fe46  1  0.25165943  0.00001195  -0.00010935  1
  Fe  Fe47  1  0.62526872  0.62746963  0.12410098  1
  Fe  Fe48  1  0.12411004  0.12561124  0.87469707  1
  Fe  Fe49  1  0.74879516  0.74884085  0.50225402  1
  Fe  Fe50  1  0.87399580  0.37333614  0.87414674  1
  Fe  Fe51  1  0.87187312  0.87658599  0.37619458  1
  Fe  Fe52  1  0.00099688  0.74936060  0.50138308  1
  Fe  Fe53  1  0.50176911  0.25177292  0.25221179  1
  Fe  Fe54  1  0.00038303  0.25019189  -0.00174382  1
  Fe  Fe55  1  0.75048191  0.50200398  0.74906627  1
  Fe  Fe56  1  0.37655756  0.12554491  0.87327191  1
  Fe  Fe57  1  0.49972103  0.74791156  0.49893185  1
  Fe  Fe58  1  0.74917430  -0.00125289  0.74840274  1
  Fe  Fe59  1  0.25043002  0.00145505  0.25059346  1
  Fe  Fe60  1  0.25143124  0.25386466  0.75051693  1
  Fe  Fe61  1  0.12418456  0.12401484  0.62278955  1
  Fe  Fe62  1  0.12212294  0.12328086  0.37911467  1
  Fe  Fe63  1  0.75011998  -0.00111487  0.00066476  1
  Fe  Fe64  1  0.62516265  0.87452802  0.87466340  1
  Fe  Fe65  1  0.12626387  0.87258709  0.87872673  1
  Fe  Fe66  1  -0.00167546  0.49990371  0.24913917  1
  Fe  Fe67  1  0.87432360  0.12483586  0.87424971  1
  Fe  Fe68  1  -0.00116852  0.24978910  0.25273169  1
  Fe  Fe69  1  0.25108644  0.00031132  0.75069499  1
  Fe  Fe70  1  0.62887619  0.37366253  0.12463890  1
  Fe  Fe71  1  0.49613627  0.00212652  0.49994706  1
  Fe  Fe72  1  -0.00109942  0.50103680  0.50224727  1
  Fe  Fe73  1  -0.00145615  0.74910005  0.25078047  1
  Fe  Fe74  1  0.49926363  0.24857220  0.49913483  1
  Fe  Fe75  1  0.87576564  0.63012559  0.86883231  1
  Fe  Fe76  1  0.00142334  0.25145884  0.74965432  1
  Fe  Fe77  1  -0.00225732  0.00024308  0.25131362  1
  Fe  Fe78  1  0.12914698  0.62359367  0.87572406  1
  Fe  Fe79  1  0.12370419  0.87297989  0.12451929  1
  Fe  Fe80  1  0.74967016  0.50090785  -0.00278401  1
  Fe  Fe81  1  0.25135283  0.24824339  0.50087821  1
  Fe  Fe82  1  0.62843033  0.62166873  0.37556093  1
  Fe  Fe83  1  0.62323861  0.37699200  0.62409840  1
  Fe  Fe84  1  0.37553373  0.37701965  0.37819241  1
  Fe  Fe85  1  0.62552244  0.12542719  0.12664402  1
  Fe  Fe86  1  0.49812190  0.25313684  0.74989958  1
  Fe  Fe87  1  0.87254405  0.37299427  0.12413348  1
  Fe  Fe88  1  0.50110203  0.49966456  -0.00219400  1
  Fe  Fe89  1  0.37611886  0.37541792  0.12381477  1
  Co  Co90  1  -0.00085493  -0.00508162  0.50190802  1
  Co  Co91  1  0.00032253  0.25482972  0.50021231  1
  Co  Co92  1  0.62341327  0.62432061  0.87376156  1
  Co  Co93  1  0.24942561  0.50301095  0.49974281  1
  Co  Co94  1  0.00611502  0.75127600  0.74962040  1
  Co  Co95  1  0.62473145  0.87138959  0.12334456  1
  Co  Co96  1  0.37410481  0.62577366  0.62441005  1
  Co  Co97  1  0.87593560  0.62896534  0.62737558  1
  Co  Co98  1  0.62596250  0.37731520  0.37823410  1
  Co  Co99  1  0.74864512  0.74984420  0.25104350  1
  Co  Co100  1  0.24985592  0.50073253  0.00419376  1
  Co  Co101  1  0.75082573  0.50077685  0.50442875  1
  Co  Co102  1  0.37538519  0.12457705  0.62902250  1
  Co  Co103  1  -0.00061030  0.74906248  -0.00187112  1
  Co  Co104  1  0.74433828  0.75042315  0.74874697  1
  Co  Co105  1  0.25234032  0.74777770  0.00473517  1
  Co  Co106  1  0.37560897  0.37600074  0.61928872  1
  Co  Co107  1  0.74745624  0.25028488  -0.00281235  1
  Co  Co108  1  0.12068778  0.62528352  0.12397717  1
  Co  Co109  1  0.38071875  0.62332837  0.12555140  1
  Co  Co110  1  0.37389869  0.87502881  0.87427742  1
  Co  Co111  1  0.25540637  0.49664454  0.75078377  1
  Co  Co112  1  0.37537015  0.37508100  0.87912527  1
  Co  Co113  1  0.74841487  0.49960967  0.24710514  1
  Co  Co114  1  0.62575685  0.37679931  0.87142726  1
  Co  Co115  1  0.37164311  0.62385421  0.87630841  1
  Co  Co116  1  0.25426158  0.00144521  0.49975159  1
  Co  Co117  1  0.87403214  0.87267836  0.87110268  1
  Co  Co118  1  0.74987498  -0.00040500  0.50483977  1
  Co  Co119  1  -0.00140324  0.49992952  0.75133070  1
  Co  Co120  1  0.50057812  0.50313234  0.50001981  1
  Co  Co121  1  0.50104194  -0.00098604  0.75144818  1
  Co  Co122  1  0.37567072  0.12570833  0.37181461  1
  Co  Co123  1  0.12511325  0.37728938  0.87557023  1
  Co  Co124  1  0.50046392  -0.00188954  0.24876055  1
  Co  Co125  1  0.74984089  0.24923946  0.25348429  1
  Co  Co126  1  0.87580436  0.12328469  0.37898726  1
  Co  Co127  1  0.75135111  -0.00014834  0.24610299  1
