# generated using pymatgen
data_Fe45Co19
_symmetry_space_group_name_H-M   'P 1'
_cell_length_a   11.41561013
_cell_length_b   11.41465474
_cell_length_c   11.41466316
_cell_angle_alpha   89.98884871
_cell_angle_beta   89.99723782
_cell_angle_gamma   89.99902450
_symmetry_Int_Tables_number   1
_chemical_formula_structural   Fe45Co19
_chemical_formula_sum   'Fe90 Co38'
_cell_volume   1487.39048653
_cell_formula_units_Z   2
loop_
 _symmetry_equiv_pos_site_id
 _symmetry_equiv_pos_as_xyz
  1  'x, y, z'
loop_
 _atom_site_type_symbol
 _atom_site_label
 _atom_site_symmetry_multiplicity
 _atom_site_fract_x
 _atom_site_fract_y
 _atom_site_fract_z
 _atom_site_occupancy
  Fe  Fe0  1  0.25059218  0.75474095  0.49604339  1
  Fe  Fe1  1  0.88013121  0.12716462  0.12312633  1
  Fe  Fe2  1  0.37184450  0.62923358  0.12626970  1
  Fe  Fe3  1  0.74849609  0.49878924  0.00326598  1
  Fe  Fe4  1  0.37323252  0.62314551  0.37336240  1
  Fe  Fe5  1  0.00093042  0.00005987  0.50154078  1
  Fe  Fe6  1  0.12690906  0.62468417  0.37204228  1
  Fe  Fe7  1  0.62211753  0.12859434  0.12347845  1
  Fe  Fe8  1  0.00038954  0.75279959  0.00254002  1
  Fe  Fe9  1  0.12614487  0.12145803  0.37394015  1
  Fe  Fe10  1  0.75037231  0.75097074  0.75087117  1
  Fe  Fe11  1  -0.00046791  0.49931791  0.24941242  1
  Fe  Fe12  1  0.49856759  0.75168630  0.49690646  1
  Fe  Fe13  1  0.62477030  0.37357951  0.37145052  1
  Fe  Fe14  1  0.25207575  0.24835732  0.49881661  1
  Fe  Fe15  1  0.75044021  0.24724680  0.49534488  1
  Fe  Fe16  1  0.62435992  0.37113142  0.62505818  1
  Fe  Fe17  1  0.12701152  0.62639767  0.62468494  1
  Fe  Fe18  1  0.87121817  0.12361981  0.62604108  1
  Fe  Fe19  1  0.37558560  0.37842283  0.87317992  1
  Fe  Fe20  1  0.49642095  0.25040542  0.24943120  1
  Fe  Fe21  1  0.12534056  0.12352720  0.87849331  1
  Fe  Fe22  1  0.74916424  0.75123577  0.49682610  1
  Fe  Fe23  1  0.00104852  0.50094214  0.74758151  1
  Fe  Fe24  1  0.00127802  0.75068223  0.49729903  1
  Fe  Fe25  1  0.50041989  0.24728573  0.49836921  1
  Fe  Fe26  1  0.24943145  0.50025186  0.00135027  1
  Fe  Fe27  1  0.62459373  0.87599396  0.62539415  1
  Fe  Fe28  1  0.50365700  0.00288009  0.49982774  1
  Fe  Fe29  1  0.50204199  0.00651352  0.75284441  1
  Fe  Fe30  1  0.37603253  0.37423980  0.62689646  1
  Fe  Fe31  1  0.12465982  0.12620945  0.62447091  1
  Fe  Fe32  1  0.24989640  -0.00322552  0.00278934  1
  Fe  Fe33  1  0.50044765  0.49872013  0.00292542  1
  Fe  Fe34  1  0.62393030  0.87562309  0.87490430  1
  Fe  Fe35  1  0.37510322  0.62261121  0.62542711  1
  Fe  Fe36  1  0.12876043  0.62901463  0.12726458  1
  Fe  Fe37  1  0.87308492  0.62873130  0.12419625  1
  Fe  Fe38  1  0.62393749  0.62627318  0.37357038  1
  Fe  Fe39  1  0.74875701  0.00118205  0.24858513  1
  Fe  Fe40  1  0.62462440  0.37334648  0.87603524  1
  Fe  Fe41  1  0.87484340  0.62547056  0.87665154  1
  Fe  Fe42  1  0.37479687  0.12116216  0.37538386  1
  Fe  Fe43  1  0.87478071  0.37739836  0.62006267  1
  Fe  Fe44  1  0.12558317  0.62546410  0.87584100  1
  Fe  Fe45  1  0.74672435  0.00119349  0.49682063  1
  Fe  Fe46  1  0.37550906  0.37522056  0.12639335  1
  Fe  Fe47  1  0.62310815  0.62496183  0.87613507  1
  Fe  Fe48  1  0.25037552  0.24739264  0.24902871  1
  Fe  Fe49  1  0.87544904  0.87519583  0.87743278  1
  Fe  Fe50  1  0.25078785  0.25118139  -0.00003850  1
  Fe  Fe51  1  0.37631004  0.12337644  0.12106690  1
  Fe  Fe52  1  0.74853335  -0.00216624  0.00230584  1
  Fe  Fe53  1  0.87525100  0.37732783  0.87659409  1
  Fe  Fe54  1  0.75487840  0.25009834  0.25094574  1
  Fe  Fe55  1  0.87632531  0.87755376  0.37175448  1
  Fe  Fe56  1  -0.00138530  0.00084785  0.75086219  1
  Fe  Fe57  1  0.25206170  0.24716742  0.75143103  1
  Fe  Fe58  1  0.74745029  0.49926869  0.74855082  1
  Fe  Fe59  1  0.87209337  0.12321528  0.87679921  1
  Fe  Fe60  1  0.62472617  0.62922505  0.12584328  1
  Fe  Fe61  1  0.50005477  0.24401758  0.75383585  1
  Fe  Fe62  1  0.49854545  0.50026619  0.24898909  1
  Fe  Fe63  1  0.87346049  0.87569214  0.62454026  1
  Fe  Fe64  1  0.62433470  0.62678442  0.62519076  1
  Fe  Fe65  1  0.49710884  0.74904413  0.75177293  1
  Fe  Fe66  1  0.49940460  -0.00319901  0.24743081  1
  Fe  Fe67  1  0.37605049  0.87880947  0.62509671  1
  Fe  Fe68  1  0.12571533  0.87508407  0.87345695  1
  Fe  Fe69  1  0.12607421  0.37485876  0.37331235  1
  Fe  Fe70  1  0.12464907  0.37625590  0.87437659  1
  Fe  Fe71  1  0.12605971  0.87428469  0.62605022  1
  Fe  Fe72  1  0.75047253  0.25273125  0.00299678  1
  Fe  Fe73  1  -0.00237807  0.24858039  0.49602693  1
  Fe  Fe74  1  0.00158992  0.00129988  0.24452676  1
  Fe  Fe75  1  0.75028152  0.49920688  0.24802944  1
  Fe  Fe76  1  0.00029837  0.50044620  0.00259545  1
  Fe  Fe77  1  0.87524737  0.62118512  0.37724164  1
  Fe  Fe78  1  0.87375417  0.62308753  0.62214755  1
  Fe  Fe79  1  0.25019817  0.49737982  0.50013774  1
  Fe  Fe80  1  0.50106272  0.49816711  0.49909992  1
  Fe  Fe81  1  0.25146419  0.00324816  0.74823369  1
  Fe  Fe82  1  0.12482283  0.37301513  0.62537144  1
  Fe  Fe83  1  0.49582757  0.75266772  -0.00105380  1
  Fe  Fe84  1  0.25403775  0.74842950  0.75317315  1
  Fe  Fe85  1  0.12133700  0.37088761  0.12563005  1
  Fe  Fe86  1  0.62646563  0.86952434  0.12815199  1
  Fe  Fe87  1  -0.00304977  0.24912664  0.75179360  1
  Fe  Fe88  1  -0.00157336  0.74940446  0.74890341  1
  Fe  Fe89  1  0.12757276  0.87186242  0.12832453  1
  Co  Co90  1  0.12361374  0.12824107  0.12268559  1
  Co  Co91  1  0.75199702  0.74825598  0.25449014  1
  Co  Co92  1  0.24794111  -0.00115807  0.50123742  1
  Co  Co93  1  0.50293383  -0.00347546  0.00214256  1
  Co  Co94  1  0.87245474  0.87300268  0.12713197  1
  Co  Co95  1  0.49706792  0.75114921  0.25284291  1
  Co  Co96  1  0.87425411  0.37991196  0.37704239  1
  Co  Co97  1  0.74885909  -0.00243669  0.75240829  1
  Co  Co98  1  0.62962351  0.12568679  0.62678592  1
  Co  Co99  1  -0.00072519  0.24925307  0.25485393  1
  Co  Co100  1  0.50317117  0.49980750  0.74846155  1
  Co  Co101  1  0.62399999  0.37246919  0.12871232  1
  Co  Co102  1  0.74303793  0.49986004  0.50030733  1
  Co  Co103  1  0.25078177  0.00090730  0.24700616  1
  Co  Co104  1  0.12203459  0.87905064  0.37264789  1
  Co  Co105  1  0.25185657  0.75141056  -0.00408808  1
  Co  Co106  1  0.37328758  0.87189026  0.12569560  1
  Co  Co107  1  0.62288277  0.12605973  0.36982347  1
  Co  Co108  1  0.37611452  0.62017316  0.87630000  1
  Co  Co109  1  0.37418260  0.12230819  0.88171038  1
  Co  Co110  1  0.00579256  0.50074369  0.49992226  1
  Co  Co111  1  0.62891380  0.12706044  0.87936199  1
  Co  Co112  1  0.62486712  0.87520008  0.37323884  1
  Co  Co113  1  0.37520188  0.87982861  0.87281148  1
  Co  Co114  1  0.74891745  0.75133308  -0.00220713  1
  Co  Co115  1  0.24986982  0.49754212  0.24788871  1
  Co  Co116  1  0.00084150  -0.00330224  0.00204818  1
  Co  Co117  1  0.37632144  0.88100573  0.37670213  1
  Co  Co118  1  0.87910282  0.37290221  0.12527910  1
  Co  Co119  1  0.49856603  0.25248910  -0.00118608  1
  Co  Co120  1  0.24830488  0.50089413  0.74892950  1
  Co  Co121  1  -0.00001160  0.24972347  -0.00499350  1
  Co  Co122  1  0.25235597  0.75466560  0.25627292  1
  Co  Co123  1  -0.00147788  0.74859321  0.25049572  1
  Co  Co124  1  0.37523513  0.12477691  0.62260089  1
  Co  Co125  1  0.37486489  0.37508689  0.37428265  1
  Co  Co126  1  0.75206344  0.25279943  0.75030270  1
  Co  Co127  1  0.87645796  0.11974263  0.37294672  1
