# generated using pymatgen
data_Fe45Co19
_symmetry_space_group_name_H-M   'P 1'
_cell_length_a   11.41606198
_cell_length_b   11.41532196
_cell_length_c   11.41586669
_cell_angle_alpha   90.00451217
_cell_angle_beta   89.99351647
_cell_angle_gamma   89.99857732
_symmetry_Int_Tables_number   1
_chemical_formula_structural   Fe45Co19
_chemical_formula_sum   'Fe90 Co38'
_cell_volume   1487.69316286
_cell_formula_units_Z   2
loop_
 _symmetry_equiv_pos_site_id
 _symmetry_equiv_pos_as_xyz
  1  'x, y, z'
loop_
 _atom_site_type_symbol
 _atom_site_label
 _atom_site_symmetry_multiplicity
 _atom_site_fract_x
 _atom_site_fract_y
 _atom_site_fract_z
 _atom_site_occupancy
  Fe  Fe0  1  0.49992450  0.00144573  0.50181659  1
  Fe  Fe1  1  0.00177139  0.75047598  0.75082984  1
  Fe  Fe2  1  0.37486771  0.37294440  0.37462927  1
  Fe  Fe3  1  0.87091801  0.37506523  0.37824075  1
  Fe  Fe4  1  0.75204946  0.00267610  0.50041426  1
  Fe  Fe5  1  0.37628054  0.62353540  0.87500473  1
  Fe  Fe6  1  0.49778631  0.49450786  0.00503402  1
  Fe  Fe7  1  0.87374616  0.37325780  0.12449497  1
  Fe  Fe8  1  0.50227406  0.75088568  -0.00024722  1
  Fe  Fe9  1  0.74704128  0.74797831  -0.00290385  1
  Fe  Fe10  1  0.62705525  0.87578390  0.12441114  1
  Fe  Fe11  1  0.24873114  0.24619126  0.49581629  1
  Fe  Fe12  1  0.62390974  0.12552253  0.37339761  1
  Fe  Fe13  1  0.50084699  0.50126394  0.49888023  1
  Fe  Fe14  1  0.25156893  0.00379500  0.49825325  1
  Fe  Fe15  1  0.37710818  0.62695333  0.62551687  1
  Fe  Fe16  1  0.12391456  0.87786328  0.87623389  1
  Fe  Fe17  1  -0.00025630  0.49798751  0.74828340  1
  Fe  Fe18  1  0.12403129  0.12650600  0.12432782  1
  Fe  Fe19  1  -0.00107020  0.50021996  -0.00019390  1
  Fe  Fe20  1  -0.00448093  0.50013647  0.50221075  1
  Fe  Fe21  1  0.37500775  0.62697178  0.12884627  1
  Fe  Fe22  1  0.50093950  0.74975162  0.49752237  1
  Fe  Fe23  1  0.49961146  0.49936922  0.74746409  1
  Fe  Fe24  1  0.25046907  0.50026364  -0.00024049  1
  Fe  Fe25  1  0.62773427  0.37603861  0.62161239  1
  Fe  Fe26  1  0.12531666  0.37238203  0.62490028  1
  Fe  Fe27  1  0.37191390  0.87232171  0.12725670  1
  Fe  Fe28  1  0.37532829  0.87594054  0.87641652  1
  Fe  Fe29  1  0.50136608  0.24775116  0.50179393  1
  Fe  Fe30  1  0.37732508  0.62660214  0.37088325  1
  Fe  Fe31  1  0.62613769  0.12763112  0.12574226  1
  Fe  Fe32  1  0.25085498  0.24819291  0.75418150  1
  Fe  Fe33  1  0.75312100  0.74331898  0.49780355  1
  Fe  Fe34  1  0.62744223  0.87571667  0.37540167  1
  Fe  Fe35  1  0.25271113  0.50171705  0.50106646  1
  Fe  Fe36  1  0.12750892  0.37287476  0.12391319  1
  Fe  Fe37  1  0.75202613  0.00037142  0.00099192  1
  Fe  Fe38  1  0.62583987  0.37848940  0.87638785  1
  Fe  Fe39  1  0.87726607  0.13055507  0.62388309  1
  Fe  Fe40  1  0.87585058  0.87292811  0.12472621  1
  Fe  Fe41  1  0.37482097  0.87488605  0.37267333  1
  Fe  Fe42  1  0.87653612  0.62529218  0.12665877  1
  Fe  Fe43  1  0.12377855  0.87551760  0.62265207  1
  Fe  Fe44  1  0.75235488  0.00099240  0.25038878  1
  Fe  Fe45  1  0.00025503  0.49807751  0.24916972  1
  Fe  Fe46  1  0.00051769  0.25201210  0.25263249  1
  Fe  Fe47  1  0.00478335  0.74960306  0.25194677  1
  Fe  Fe48  1  0.87538018  0.62507256  0.87373467  1
  Fe  Fe49  1  0.25198022  0.00129710  0.74997878  1
  Fe  Fe50  1  0.12290418  0.62539027  0.62345153  1
  Fe  Fe51  1  0.87454813  0.87468033  0.87672959  1
  Fe  Fe52  1  0.74812786  0.74974339  0.25032413  1
  Fe  Fe53  1  0.62373160  0.62172779  0.12602037  1
  Fe  Fe54  1  0.62447812  0.12283195  0.87494230  1
  Fe  Fe55  1  -0.00245283  0.00211724  0.75069934  1
  Fe  Fe56  1  0.87299268  0.37503866  0.87335999  1
  Fe  Fe57  1  0.25064132  0.00403380  0.25122130  1
  Fe  Fe58  1  0.62839983  0.37537626  0.37585988  1
  Fe  Fe59  1  0.24859204  0.74866647  0.49786098  1
  Fe  Fe60  1  0.87474215  0.86994172  0.62346492  1
  Fe  Fe61  1  0.50115325  0.25476691  0.24676251  1
  Fe  Fe62  1  0.49941366  0.00061144  0.00269185  1
  Fe  Fe63  1  0.24905469  0.00133385  0.00053038  1
  Fe  Fe64  1  0.24894634  0.74929995  0.75106557  1
  Fe  Fe65  1  0.37384988  0.37212297  0.62460930  1
  Fe  Fe66  1  0.37439495  0.87403014  0.62425238  1
  Fe  Fe67  1  0.74972413  0.50364634  0.74639849  1
  Fe  Fe68  1  0.24642236  0.74881643  0.00096791  1
  Fe  Fe69  1  0.49966101  0.24957653  0.75086740  1
  Fe  Fe70  1  0.49960933  -0.00153677  0.24789111  1
  Fe  Fe71  1  0.25108737  0.49995862  0.24983615  1
  Fe  Fe72  1  0.87603901  0.12714770  0.12399472  1
  Fe  Fe73  1  0.00390984  0.74918432  0.00142405  1
  Fe  Fe74  1  0.12573790  0.37735341  0.37641596  1
  Fe  Fe75  1  0.87768664  0.12621789  0.37698424  1
  Fe  Fe76  1  0.49870355  -0.00030330  0.74772193  1
  Fe  Fe77  1  0.00041486  0.24861074  -0.00498246  1
  Fe  Fe78  1  0.74866169  0.25141257  0.00029084  1
  Fe  Fe79  1  -0.00218323  -0.00148234  0.24920008  1
  Fe  Fe80  1  0.12386229  0.87796733  0.37623753  1
  Fe  Fe81  1  0.37358614  0.13186273  0.12363428  1
  Fe  Fe82  1  0.12278004  0.12646743  0.62418546  1
  Fe  Fe83  1  0.25086868  0.50122190  0.74887259  1
  Fe  Fe84  1  0.50390953  0.75075383  0.75344671  1
  Fe  Fe85  1  0.74911051  0.25008843  0.74842690  1
  Fe  Fe86  1  0.12565696  0.37689458  0.87419859  1
  Fe  Fe87  1  0.62772176  0.87255328  0.62454334  1
  Fe  Fe88  1  0.75215005  -0.00103562  0.74839643  1
  Fe  Fe89  1  0.74970989  0.49991584  0.24945302  1
  Co  Co90  1  0.87265501  0.37287277  0.62431006  1
  Co  Co91  1  0.12392885  0.62000528  0.37673153  1
  Co  Co92  1  0.87113064  0.12599356  0.87508796  1
  Co  Co93  1  -0.00320498  -0.00150476  0.50284618  1
  Co  Co94  1  -0.00078881  0.74811761  0.49688725  1
  Co  Co95  1  0.37517266  0.37616355  0.87394308  1
  Co  Co96  1  0.12466638  0.62096741  0.12605146  1
  Co  Co97  1  0.63034098  0.37601914  0.12617983  1
  Co  Co98  1  0.62524259  0.12400777  0.62706924  1
  Co  Co99  1  0.87684118  0.62364016  0.37032536  1
  Co  Co100  1  0.24632895  0.24783665  0.25538488  1
  Co  Co101  1  0.62344421  0.62738518  0.62441170  1
  Co  Co102  1  0.74903813  0.24667557  0.50034969  1
  Co  Co103  1  0.74628568  0.74896144  0.75487881  1
  Co  Co104  1  0.38072554  0.12639479  0.37323073  1
  Co  Co105  1  0.24788742  0.24955329  -0.00579406  1
  Co  Co106  1  0.62328626  0.62360559  0.37160769  1
  Co  Co107  1  0.12487853  0.87854319  0.12598699  1
  Co  Co108  1  0.37851176  0.12435056  0.87712118  1
  Co  Co109  1  0.62493515  0.88074677  0.87568466  1
  Co  Co110  1  0.50296598  0.25449525  0.00045414  1
  Co  Co111  1  0.37390742  0.12679738  0.62466077  1
  Co  Co112  1  -0.00206143  0.00106447  -0.00030905  1
  Co  Co113  1  0.36767068  0.37014389  0.12556849  1
  Co  Co114  1  0.62300824  0.61859557  0.87772478  1
  Co  Co115  1  0.00055459  0.25411495  0.49814404  1
  Co  Co116  1  0.24458649  0.74913127  0.25172825  1
  Co  Co117  1  0.12408780  0.62327842  0.87454578  1
  Co  Co118  1  0.11859111  0.12230261  0.37555903  1
  Co  Co119  1  0.12457312  0.12147313  0.87433401  1
  Co  Co120  1  0.50299106  0.75380228  0.24884231  1
  Co  Co121  1  -0.00005562  0.25021179  0.75313951  1
  Co  Co122  1  0.75375830  0.50077687  0.00181844  1
  Co  Co123  1  0.75232022  0.24870186  0.25095671  1
  Co  Co124  1  0.87436168  0.87371883  0.37458732  1
  Co  Co125  1  0.75110568  0.50540787  0.50140812  1
  Co  Co126  1  0.87689746  0.62735107  0.62904519  1
  Co  Co127  1  0.49888719  0.49435782  0.24840720  1
