# generated using pymatgen
data_Fe45Co19
_symmetry_space_group_name_H-M   'P 1'
_cell_length_a   11.41526098
_cell_length_b   11.41485993
_cell_length_c   11.41506261
_cell_angle_alpha   89.99966744
_cell_angle_beta   89.99261294
_cell_angle_gamma   89.99343398
_symmetry_Int_Tables_number   1
_chemical_formula_structural   Fe45Co19
_chemical_formula_sum   'Fe90 Co38'
_cell_volume   1487.42378978
_cell_formula_units_Z   2
loop_
 _symmetry_equiv_pos_site_id
 _symmetry_equiv_pos_as_xyz
  1  'x, y, z'
loop_
 _atom_site_type_symbol
 _atom_site_label
 _atom_site_symmetry_multiplicity
 _atom_site_fract_x
 _atom_site_fract_y
 _atom_site_fract_z
 _atom_site_occupancy
  Fe  Fe0  1  0.12557546  0.37602358  0.12710689  1
  Fe  Fe1  1  0.87307414  0.37674456  0.62506917  1
  Fe  Fe2  1  0.62517467  0.87263200  0.12671685  1
  Fe  Fe3  1  0.74617086  0.75019701  0.75510304  1
  Fe  Fe4  1  0.25322890  0.25080604  0.50018664  1
  Fe  Fe5  1  0.24743037  -0.00301051  0.50047580  1
  Fe  Fe6  1  0.74868168  0.25270578  0.74988390  1
  Fe  Fe7  1  0.12817389  0.62691080  0.37633238  1
  Fe  Fe8  1  0.49913351  0.50282160  0.49931568  1
  Fe  Fe9  1  0.49952422  0.50081192  0.00257684  1
  Fe  Fe10  1  -0.00269868  0.24952615  0.25152625  1
  Fe  Fe11  1  0.25048304  0.24889491  0.25224106  1
  Fe  Fe12  1  0.87584768  0.87330263  0.87690281  1
  Fe  Fe13  1  0.12381754  0.12361309  0.37596752  1
  Fe  Fe14  1  -0.00288638  0.74737350  0.24830240  1
  Fe  Fe15  1  0.00137309  0.74712246  0.74848233  1
  Fe  Fe16  1  0.24970373  0.50265349  0.00009072  1
  Fe  Fe17  1  0.37177610  0.62687020  0.61968136  1
  Fe  Fe18  1  -0.00083487  0.25020957  0.75056348  1
  Fe  Fe19  1  0.12648689  0.37540720  0.62467716  1
  Fe  Fe20  1  0.87420313  0.12469021  0.12488052  1
  Fe  Fe21  1  0.75346190  0.25260554  0.25298606  1
  Fe  Fe22  1  0.49889596  0.75036735  0.25618047  1
  Fe  Fe23  1  0.12251262  0.87229702  0.62510692  1
  Fe  Fe24  1  0.00078155  -0.00172195  0.00076255  1
  Fe  Fe25  1  0.62509514  0.37773939  0.37521223  1
  Fe  Fe26  1  0.12481935  0.12510323  0.62460300  1
  Fe  Fe27  1  0.25096672  0.25064371  0.00016916  1
  Fe  Fe28  1  0.00272527  0.50150347  0.00090563  1
  Fe  Fe29  1  0.37595410  0.87401107  0.87632830  1
  Fe  Fe30  1  0.49895870  0.00126492  0.74939023  1
  Fe  Fe31  1  0.62696517  0.62583049  0.12665397  1
  Fe  Fe32  1  0.12236070  0.37550950  0.37609336  1
  Fe  Fe33  1  0.50490789  -0.00513303  0.49783098  1
  Fe  Fe34  1  -0.00083840  -0.00083702  0.74887561  1
  Fe  Fe35  1  0.49923747  0.50342690  0.25082345  1
  Fe  Fe36  1  0.62547619  0.12443491  0.37470135  1
  Fe  Fe37  1  -0.00150830  0.00006610  0.24926561  1
  Fe  Fe38  1  0.37594464  0.37700481  0.37517172  1
  Fe  Fe39  1  -0.00160257  0.50326081  0.74753442  1
  Fe  Fe40  1  0.62099302  0.37437504  0.87335448  1
  Fe  Fe41  1  0.37777176  0.87292208  0.62137041  1
  Fe  Fe42  1  0.75067893  -0.00103556  0.24917666  1
  Fe  Fe43  1  0.75001174  -0.00133990  0.50118353  1
  Fe  Fe44  1  0.74895594  -0.00139852  0.74978471  1
  Fe  Fe45  1  0.50267399  0.74961124  -0.00146519  1
  Fe  Fe46  1  0.49926124  0.24885375  0.25108695  1
  Fe  Fe47  1  -0.00241610  0.50421017  0.24984527  1
  Fe  Fe48  1  0.37627555  0.11946232  0.37591942  1
  Fe  Fe49  1  0.12576727  0.37554314  0.87290830  1
  Fe  Fe50  1  0.50078032  0.49991508  0.74657271  1
  Fe  Fe51  1  0.87390405  0.62482244  0.87635759  1
  Fe  Fe52  1  0.25068103  0.50110743  0.74848536  1
  Fe  Fe53  1  0.25633931  0.24693883  0.74782396  1
  Fe  Fe54  1  0.62209586  0.12633443  0.87513204  1
  Fe  Fe55  1  0.50185269  0.74895643  0.74920547  1
  Fe  Fe56  1  0.37475511  0.12312670  0.12618864  1
  Fe  Fe57  1  0.37284095  0.62894249  0.12530672  1
  Fe  Fe58  1  0.24925892  -0.00576928  0.00261980  1
  Fe  Fe59  1  0.87581159  0.87492596  0.37663031  1
  Fe  Fe60  1  0.62561855  0.12726374  0.12600326  1
  Fe  Fe61  1  0.62206223  0.12772283  0.62372699  1
  Fe  Fe62  1  0.50109741  -0.00053123  0.00311148  1
  Fe  Fe63  1  0.87461384  0.12511792  0.87452509  1
  Fe  Fe64  1  -0.00033107  0.50661137  0.50249084  1
  Fe  Fe65  1  0.12725683  0.12284710  0.87441462  1
  Fe  Fe66  1  0.75081629  0.25213316  -0.00160153  1
  Fe  Fe67  1  0.37461567  0.37491452  0.12655644  1
  Fe  Fe68  1  0.37521131  0.62588909  0.87557929  1
  Fe  Fe69  1  0.25232544  -0.00019719  0.74854219  1
  Fe  Fe70  1  0.74718879  0.75037183  0.49876212  1
  Fe  Fe71  1  0.87478445  0.12447844  0.62467973  1
  Fe  Fe72  1  0.00466665  0.74822089  0.00206886  1
  Fe  Fe73  1  0.75162267  0.25055775  0.49772859  1
  Fe  Fe74  1  0.00028559  0.25080542  -0.00092764  1
  Fe  Fe75  1  -0.00289246  0.24875816  0.49946888  1
  Fe  Fe76  1  0.12186362  0.87499542  0.37479212  1
  Fe  Fe77  1  0.75269578  0.74808898  0.24940304  1
  Fe  Fe78  1  0.12559271  0.12424382  0.12592010  1
  Fe  Fe79  1  0.74909556  -0.00280804  -0.00021859  1
  Fe  Fe80  1  0.25252203  0.75454222  0.25137362  1
  Fe  Fe81  1  0.62697739  0.62519329  0.62494398  1
  Fe  Fe82  1  0.24917497  0.75012052  0.75136799  1
  Fe  Fe83  1  0.87433139  0.87197468  0.62447899  1
  Fe  Fe84  1  0.75155447  0.50199835  0.49903671  1
  Fe  Fe85  1  0.37666826  0.37464084  0.87460929  1
  Fe  Fe86  1  0.25090292  0.50045105  0.25191197  1
  Fe  Fe87  1  0.74790347  0.50000430  -0.00131851  1
  Fe  Fe88  1  0.87518394  0.37775323  0.12550477  1
  Fe  Fe89  1  0.62446595  0.37472066  0.12682994  1
  Co  Co90  1  0.37789285  0.87243490  0.12500620  1
  Co  Co91  1  0.62537897  0.37514167  0.62201763  1
  Co  Co92  1  0.74946074  0.49887372  0.75175073  1
  Co  Co93  1  0.12532590  0.62400165  0.87371643  1
  Co  Co94  1  0.62164205  0.87807759  0.87402593  1
  Co  Co95  1  0.24709579  0.75121217  -0.00087461  1
  Co  Co96  1  0.87684259  0.37679544  0.87460695  1
  Co  Co97  1  0.50292947  0.74911378  0.49705843  1
  Co  Co98  1  0.37495380  0.12233979  0.87869045  1
  Co  Co99  1  0.49826719  0.25018956  0.00169462  1
  Co  Co100  1  0.24912413  0.49737324  0.49858409  1
  Co  Co101  1  0.86927732  0.62853974  0.62702290  1
  Co  Co102  1  0.62280275  0.62202598  0.87427866  1
  Co  Co103  1  0.87305776  0.62638379  0.37567625  1
  Co  Co104  1  0.12955508  0.62566733  0.12835028  1
  Co  Co105  1  0.49645445  0.24890537  0.74821263  1
  Co  Co106  1  0.37662597  0.87831276  0.37704875  1
  Co  Co107  1  0.62742596  0.62376894  0.37393147  1
  Co  Co108  1  0.87192595  0.62508149  0.12067004  1
  Co  Co109  1  0.50214211  -0.00077386  0.24888118  1
  Co  Co110  1  0.87479807  0.87331522  0.12318113  1
  Co  Co111  1  0.74541413  0.75087234  -0.00311596  1
  Co  Co112  1  0.24971927  -0.00225717  0.24938005  1
  Co  Co113  1  0.62821291  0.87397333  0.37245951  1
  Co  Co114  1  0.37171902  0.62629446  0.37811429  1
  Co  Co115  1  0.24890272  0.75471735  0.49816669  1
  Co  Co116  1  0.87475697  0.12123451  0.37541982  1
  Co  Co117  1  0.13039231  0.62604770  0.62378068  1
  Co  Co118  1  -0.00044077  -0.00120556  0.50216669  1
  Co  Co119  1  0.49810902  0.25216971  0.49761383  1
  Co  Co120  1  0.62439387  0.87355014  0.62654514  1
  Co  Co121  1  0.37578118  0.37685180  0.62380600  1
  Co  Co122  1  0.37877733  0.12137021  0.61876794  1
  Co  Co123  1  0.00027006  0.74649649  0.50090248  1
  Co  Co124  1  0.12351073  0.87320704  0.12821031  1
  Co  Co125  1  0.87711671  0.37904761  0.37622452  1
  Co  Co126  1  0.75129398  0.50031100  0.24947384  1
  Co  Co127  1  0.12437080  0.87546794  0.87262446  1
