# generated using pymatgen
data_Fe45Co19
_symmetry_space_group_name_H-M   'P 1'
_cell_length_a   11.41488347
_cell_length_b   11.41502811
_cell_length_c   11.41531679
_cell_angle_alpha   90.00421040
_cell_angle_beta   89.99882075
_cell_angle_gamma   90.00660452
_symmetry_Int_Tables_number   1
_chemical_formula_structural   Fe45Co19
_chemical_formula_sum   'Fe90 Co38'
_cell_volume   1487.42964094
_cell_formula_units_Z   2
loop_
 _symmetry_equiv_pos_site_id
 _symmetry_equiv_pos_as_xyz
  1  'x, y, z'
loop_
 _atom_site_type_symbol
 _atom_site_label
 _atom_site_symmetry_multiplicity
 _atom_site_fract_x
 _atom_site_fract_y
 _atom_site_fract_z
 _atom_site_occupancy
  Fe  Fe0  1  0.74656283  -0.00119348  0.24952168  1
  Fe  Fe1  1  0.49970225  0.00135897  -0.00063959  1
  Fe  Fe2  1  0.62313463  0.62548791  0.37568575  1
  Fe  Fe3  1  0.37451025  0.62376559  0.12776752  1
  Fe  Fe4  1  0.62374337  0.12542255  0.87445596  1
  Fe  Fe5  1  0.74903533  0.74854200  0.74797462  1
  Fe  Fe6  1  0.37438283  0.87777863  0.62461918  1
  Fe  Fe7  1  0.75150958  0.00009075  -0.00008318  1
  Fe  Fe8  1  0.12612522  0.12623742  0.87119316  1
  Fe  Fe9  1  0.12528562  0.37469862  0.87289011  1
  Fe  Fe10  1  0.62389865  0.37423984  0.37541777  1
  Fe  Fe11  1  -0.00210079  0.25469923  0.74812449  1
  Fe  Fe12  1  0.25161865  0.74943220  0.50023570  1
  Fe  Fe13  1  0.62316216  0.87514726  0.62224091  1
  Fe  Fe14  1  0.49813475  0.49982065  0.25188702  1
  Fe  Fe15  1  0.12899002  0.87766444  0.37474090  1
  Fe  Fe16  1  0.25085636  0.50222340  0.50210755  1
  Fe  Fe17  1  0.12616847  0.62531445  0.87259017  1
  Fe  Fe18  1  0.87589627  0.87473229  0.12505044  1
  Fe  Fe19  1  0.25006321  0.49858386  0.00187334  1
  Fe  Fe20  1  0.00141715  0.00044829  -0.00055078  1
  Fe  Fe21  1  0.25178596  0.24747152  0.50087947  1
  Fe  Fe22  1  0.62531854  0.37364730  0.62397830  1
  Fe  Fe23  1  0.37488727  0.37576031  0.62420346  1
  Fe  Fe24  1  0.87727174  0.37520656  0.37629902  1
  Fe  Fe25  1  0.62461297  0.12540647  0.62548747  1
  Fe  Fe26  1  0.74946569  0.75014101  -0.00024598  1
  Fe  Fe27  1  0.00161990  -0.00000805  0.25002130  1
  Fe  Fe28  1  0.87736764  0.12582603  0.87334520  1
  Fe  Fe29  1  0.87744205  0.62685222  0.37879480  1
  Fe  Fe30  1  0.12338977  0.37429650  0.12781887  1
  Fe  Fe31  1  0.87505633  0.87345934  0.62380217  1
  Fe  Fe32  1  0.74967261  0.50161534  0.50046885  1
  Fe  Fe33  1  0.12581265  0.62534934  0.12678610  1
  Fe  Fe34  1  0.49855379  0.75145086  0.75012901  1
  Fe  Fe35  1  0.75174817  0.25211496  0.75130339  1
  Fe  Fe36  1  0.74909350  0.49751397  -0.00049925  1
  Fe  Fe37  1  0.74978311  -0.00082325  0.74926250  1
  Fe  Fe38  1  0.87712751  0.12682878  0.12614760  1
  Fe  Fe39  1  0.62428338  0.62442180  0.87484154  1
  Fe  Fe40  1  0.87606783  0.87429516  0.87378161  1
  Fe  Fe41  1  0.74889571  0.25184369  -0.00194979  1
  Fe  Fe42  1  0.74649479  0.75231744  0.25088748  1
  Fe  Fe43  1  0.37526639  0.37461065  0.87535617  1
  Fe  Fe44  1  0.12460567  0.12622172  0.12582314  1
  Fe  Fe45  1  0.37393638  0.37624502  0.37564449  1
  Fe  Fe46  1  0.24813508  -0.00057741  0.00035373  1
  Fe  Fe47  1  0.00092950  0.00065846  0.50200001  1
  Fe  Fe48  1  0.12681217  0.87440886  0.62663862  1
  Fe  Fe49  1  0.12447757  0.37647090  0.37631241  1
  Fe  Fe50  1  0.12495347  0.12680510  0.62812694  1
  Fe  Fe51  1  0.00129801  0.75004037  0.00045218  1
  Fe  Fe52  1  0.62413988  0.12455945  0.37600797  1
  Fe  Fe53  1  0.49800666  0.24838627  0.49948122  1
  Fe  Fe54  1  0.62271085  0.37352915  0.12615523  1
  Fe  Fe55  1  0.62392526  0.62621095  0.12590641  1
  Fe  Fe56  1  0.75227889  0.24756149  0.49872864  1
  Fe  Fe57  1  0.87677059  0.62247812  0.87317502  1
  Fe  Fe58  1  0.87854631  0.37226132  0.12488342  1
  Fe  Fe59  1  -0.00204709  0.24797189  0.49931239  1
  Fe  Fe60  1  0.37618541  0.87800242  0.12994184  1
  Fe  Fe61  1  0.25148402  0.74980086  0.25163918  1
  Fe  Fe62  1  0.00101159  0.74877416  0.74816143  1
  Fe  Fe63  1  0.74969808  0.00171204  0.50077995  1
  Fe  Fe64  1  0.00115164  0.75073647  0.25152246  1
  Fe  Fe65  1  0.00129445  0.49957496  0.00065053  1
  Fe  Fe66  1  0.37374367  0.87700477  0.87279256  1
  Fe  Fe67  1  0.37452360  0.12166475  0.62694498  1
  Fe  Fe68  1  0.50039906  0.49842154  -0.00006482  1
  Fe  Fe69  1  0.12669094  0.12404624  0.37508008  1
  Fe  Fe70  1  0.49845525  0.74975012  0.00104805  1
  Fe  Fe71  1  0.75179677  0.24915695  0.25163787  1
  Fe  Fe72  1  0.75235455  0.49984345  0.25055158  1
  Fe  Fe73  1  0.75253015  0.49962821  0.74788841  1
  Fe  Fe74  1  0.87517075  0.62623907  0.12526741  1
  Fe  Fe75  1  0.62132624  0.62549970  0.62281592  1
  Fe  Fe76  1  0.24835593  0.50067839  0.74597788  1
  Fe  Fe77  1  0.12555157  0.87366730  0.87334337  1
  Fe  Fe78  1  0.49793023  0.24856541  0.75163319  1
  Fe  Fe79  1  0.49615486  0.75100860  0.49558756  1
  Fe  Fe80  1  0.49583026  0.24686773  0.25068788  1
  Fe  Fe81  1  0.25067722  0.75142954  0.00108567  1
  Fe  Fe82  1  0.87346569  0.87580705  0.37679017  1
  Fe  Fe83  1  0.25194989  0.24966546  0.24973819  1
  Fe  Fe84  1  0.37333731  0.62496398  0.87311411  1
  Fe  Fe85  1  0.62492175  0.87464713  0.87633955  1
  Fe  Fe86  1  0.12418225  0.62294833  0.37643096  1
  Fe  Fe87  1  0.25239150  0.25000560  0.00052276  1
  Fe  Fe88  1  0.62284074  0.12570222  0.12444741  1
  Fe  Fe89  1  0.49964465  0.49954097  0.74868276  1
  Co  Co90  1  0.37401740  0.62288231  0.37440396  1
  Co  Co91  1  0.37095194  0.88114704  0.37405148  1
  Co  Co92  1  0.49972156  0.00163597  0.49917452  1
  Co  Co93  1  0.49907313  0.25043486  -0.00166674  1
  Co  Co94  1  0.87258851  0.37412022  0.62107752  1
  Co  Co95  1  0.24933206  -0.00016275  0.74988303  1
  Co  Co96  1  0.24791866  0.00219475  0.50465559  1
  Co  Co97  1  0.37332807  0.12332367  0.87554191  1
  Co  Co98  1  0.00094576  0.24934398  0.25384624  1
  Co  Co99  1  0.62525155  0.87606478  0.37836277  1
  Co  Co100  1  0.24908957  0.49836233  0.25003374  1
  Co  Co101  1  0.62334429  0.37543313  0.87288664  1
  Co  Co102  1  0.37639141  0.37550366  0.12535154  1
  Co  Co103  1  0.37204680  0.12021896  0.37504374  1
  Co  Co104  1  0.12484988  0.87359002  0.12635647  1
  Co  Co105  1  0.50004005  0.75192422  0.25325652  1
  Co  Co106  1  0.87511315  0.12123686  0.37385552  1
  Co  Co107  1  0.00287387  0.24904810  -0.00157415  1
  Co  Co108  1  -0.00103680  0.50056869  0.25017746  1
  Co  Co109  1  0.00042755  -0.00123178  0.74865292  1
  Co  Co110  1  0.25123289  0.75002663  0.74803024  1
  Co  Co111  1  0.12385219  0.62659964  0.62370883  1
  Co  Co112  1  0.00341227  0.75421577  0.49922441  1
  Co  Co113  1  0.00045141  0.49861696  0.50379560  1
  Co  Co114  1  0.49975319  0.49845707  0.49923249  1
  Co  Co115  1  0.74801073  0.74855970  0.50061410  1
  Co  Co116  1  0.87504429  0.12524446  0.62626649  1
  Co  Co117  1  0.25323089  0.25054162  0.74935786  1
  Co  Co118  1  0.62291226  0.87501437  0.12266310  1
  Co  Co119  1  0.37646183  0.62509713  0.62483575  1
  Co  Co120  1  0.87833411  0.62725600  0.62234802  1
  Co  Co121  1  0.50113083  -0.00005335  0.75015254  1
  Co  Co122  1  0.00138814  0.49714313  0.74585172  1
  Co  Co123  1  0.24837478  0.00278418  0.24740310  1
  Co  Co124  1  0.50307368  0.00088407  0.25270316  1
  Co  Co125  1  0.87723500  0.37635238  0.87655603  1
  Co  Co126  1  0.37535475  0.12292878  0.12383996  1
  Co  Co127  1  0.12683502  0.37201451  0.62200324  1
