# generated using pymatgen
data_Fe45Co19
_symmetry_space_group_name_H-M   'P 1'
_cell_length_a   11.41592507
_cell_length_b   11.41501769
_cell_length_c   11.41489834
_cell_angle_alpha   89.98955299
_cell_angle_beta   89.99957657
_cell_angle_gamma   90.00382161
_symmetry_Int_Tables_number   1
_chemical_formula_structural   Fe45Co19
_chemical_formula_sum   'Fe90 Co38'
_cell_volume   1487.50946749
_cell_formula_units_Z   2
loop_
 _symmetry_equiv_pos_site_id
 _symmetry_equiv_pos_as_xyz
  1  'x, y, z'
loop_
 _atom_site_type_symbol
 _atom_site_label
 _atom_site_symmetry_multiplicity
 _atom_site_fract_x
 _atom_site_fract_y
 _atom_site_fract_z
 _atom_site_occupancy
  Fe  Fe0  1  0.00250914  0.50119615  -0.00083252  1
  Fe  Fe1  1  0.24569594  -0.00190456  0.00030418  1
  Fe  Fe2  1  0.87412346  0.62687362  0.87584144  1
  Fe  Fe3  1  0.37368096  0.62105541  0.12706304  1
  Fe  Fe4  1  0.75203046  0.75014752  0.50252808  1
  Fe  Fe5  1  0.62709175  0.62515123  0.12393392  1
  Fe  Fe6  1  0.87524212  0.37297792  0.87488713  1
  Fe  Fe7  1  0.75135463  0.75349422  0.00040142  1
  Fe  Fe8  1  0.62246091  0.12451551  0.62262849  1
  Fe  Fe9  1  0.25007672  0.75124025  0.75012093  1
  Fe  Fe10  1  0.75142166  0.49828483  0.00023564  1
  Fe  Fe11  1  0.37214405  0.12662081  0.87862336  1
  Fe  Fe12  1  0.37777284  0.37432057  0.62428715  1
  Fe  Fe13  1  0.88196840  0.87987393  0.12563941  1
  Fe  Fe14  1  0.12462467  0.62456329  0.62454822  1
  Fe  Fe15  1  0.24854458  -0.00050937  0.24889827  1
  Fe  Fe16  1  0.87286600  0.12550976  0.37524676  1
  Fe  Fe17  1  0.62382531  0.37368472  0.12389136  1
  Fe  Fe18  1  0.49975660  0.00076864  0.24958397  1
  Fe  Fe19  1  0.12627252  0.62763449  0.13054451  1
  Fe  Fe20  1  0.37527004  0.87474189  0.12438317  1
  Fe  Fe21  1  -0.00087794  0.49926720  0.75069061  1
  Fe  Fe22  1  0.37368913  0.62514156  0.87612546  1
  Fe  Fe23  1  0.87801189  0.37332353  0.12498101  1
  Fe  Fe24  1  0.62750604  0.87581744  0.37404484  1
  Fe  Fe25  1  -0.00098542  0.50184146  0.25106373  1
  Fe  Fe26  1  0.87407700  0.87662069  0.37387461  1
  Fe  Fe27  1  0.37700427  0.37736742  0.37418021  1
  Fe  Fe28  1  0.25055130  0.25108630  0.50049035  1
  Fe  Fe29  1  0.62544315  0.12077785  0.87877698  1
  Fe  Fe30  1  0.74967529  0.25158292  0.50053317  1
  Fe  Fe31  1  0.24910236  -0.00017301  0.75083028  1
  Fe  Fe32  1  0.37574672  0.87696280  0.62379500  1
  Fe  Fe33  1  0.62562158  0.62440944  0.62550068  1
  Fe  Fe34  1  0.50011359  0.49965434  -0.00023985  1
  Fe  Fe35  1  0.24920077  0.25405748  0.24535230  1
  Fe  Fe36  1  0.75441955  0.74924169  0.24695232  1
  Fe  Fe37  1  0.87473152  0.87604808  0.87460420  1
  Fe  Fe38  1  0.12341154  0.37503381  0.37441552  1
  Fe  Fe39  1  -0.00071425  0.24805813  0.25192264  1
  Fe  Fe40  1  0.75137689  0.50164732  0.74910280  1
  Fe  Fe41  1  0.49945746  0.74981253  0.49811336  1
  Fe  Fe42  1  0.25026961  0.49903311  0.75130467  1
  Fe  Fe43  1  0.74968129  0.24931673  0.74902855  1
  Fe  Fe44  1  0.62342843  0.37649049  0.37789144  1
  Fe  Fe45  1  0.62661446  0.37437504  0.87435822  1
  Fe  Fe46  1  0.74749082  -0.00195717  0.75088805  1
  Fe  Fe47  1  0.50011108  0.24876998  0.75202625  1
  Fe  Fe48  1  0.37621108  0.12861569  0.12301313  1
  Fe  Fe49  1  0.24915963  0.75028578  0.49817949  1
  Fe  Fe50  1  0.00051201  0.74940253  0.49917154  1
  Fe  Fe51  1  0.00363519  0.00333153  0.75404746  1
  Fe  Fe52  1  0.12434254  0.87166550  0.36979928  1
  Fe  Fe53  1  0.12499180  0.87659257  0.62580833  1
  Fe  Fe54  1  -0.00112400  0.74879975  0.74947803  1
  Fe  Fe55  1  0.00103766  0.24703559  -0.00491332  1
  Fe  Fe56  1  0.62404840  0.87630360  0.62364061  1
  Fe  Fe57  1  0.49925316  0.49799243  0.75105759  1
  Fe  Fe58  1  0.24855243  0.50019238  0.49876414  1
  Fe  Fe59  1  0.75158281  0.49842064  0.24960546  1
  Fe  Fe60  1  0.62548580  0.12374808  0.37535684  1
  Fe  Fe61  1  0.00177235  0.75067645  0.00148099  1
  Fe  Fe62  1  0.37369967  0.12432773  0.37596114  1
  Fe  Fe63  1  0.62349098  0.87702618  0.12251341  1
  Fe  Fe64  1  0.62545270  0.62472975  0.37414720  1
  Fe  Fe65  1  0.87485960  0.62191378  0.37882379  1
  Fe  Fe66  1  0.24886704  0.75050261  0.00192805  1
  Fe  Fe67  1  -0.00065592  0.24996805  0.50153472  1
  Fe  Fe68  1  0.49999477  0.25100453  0.24982862  1
  Fe  Fe69  1  0.24851113  0.24902243  0.74857302  1
  Fe  Fe70  1  0.37702228  0.87443218  0.87608150  1
  Fe  Fe71  1  0.12440314  0.37426237  0.62663679  1
  Fe  Fe72  1  0.37485475  0.87652555  0.37515133  1
  Fe  Fe73  1  0.87637949  0.12360150  0.62633130  1
  Fe  Fe74  1  0.12651075  0.62552143  0.87357417  1
  Fe  Fe75  1  0.87447707  0.37694030  0.62347636  1
  Fe  Fe76  1  0.37477362  0.12215631  0.62154007  1
  Fe  Fe77  1  0.12792962  0.12650128  0.37661928  1
  Fe  Fe78  1  0.75109243  0.24970058  0.24828598  1
  Fe  Fe79  1  0.75164527  0.00317757  0.24578931  1
  Fe  Fe80  1  0.62618298  0.62721204  0.87628968  1
  Fe  Fe81  1  0.87553193  0.87637299  0.62639311  1
  Fe  Fe82  1  0.75112482  0.24611975  0.00225530  1
  Fe  Fe83  1  0.50263861  0.75225765  0.75244684  1
  Fe  Fe84  1  0.00195619  0.00057646  0.49736728  1
  Fe  Fe85  1  0.12110443  0.12246368  0.12433986  1
  Fe  Fe86  1  0.37398572  0.62179370  0.37166654  1
  Fe  Fe87  1  0.50001086  0.74923992  0.24817190  1
  Fe  Fe88  1  0.37035983  0.37335944  0.88062641  1
  Fe  Fe89  1  0.37497523  0.62603382  0.62552847  1
  Co  Co90  1  0.88082445  0.12500102  0.12506722  1
  Co  Co91  1  0.74776143  0.49916058  0.50057442  1
  Co  Co92  1  0.49956998  0.00117287  0.75088979  1
  Co  Co93  1  0.50274396  0.49931776  0.24776511  1
  Co  Co94  1  0.12882011  0.12878364  0.87385831  1
  Co  Co95  1  0.37823332  0.37464415  0.12197473  1
  Co  Co96  1  0.49638746  0.00146899  0.00112279  1
  Co  Co97  1  0.12560380  0.87201117  0.87434449  1
  Co  Co98  1  0.24712744  -0.00241859  0.49824850  1
  Co  Co99  1  0.24630891  0.49995033  0.00314072  1
  Co  Co100  1  0.49914867  0.50158820  0.50182405  1
  Co  Co101  1  0.25338512  0.75213569  0.24996300  1
  Co  Co102  1  -0.00627688  0.74563894  0.25055791  1
  Co  Co103  1  0.74878392  0.75123739  0.75041078  1
  Co  Co104  1  0.75351197  0.00149736  0.00381052  1
  Co  Co105  1  0.24458452  0.25198238  0.00576648  1
  Co  Co106  1  0.12631249  0.37423131  0.87352106  1
  Co  Co107  1  0.11782165  0.37431200  0.12520883  1
  Co  Co108  1  0.62182789  0.12521194  0.12456859  1
  Co  Co109  1  0.49923896  0.24874919  0.49874242  1
  Co  Co110  1  0.75087058  0.00056361  0.50099976  1
  Co  Co111  1  0.12087541  0.87490411  0.12894796  1
  Co  Co112  1  0.24768683  0.49368703  0.24794365  1
  Co  Co113  1  0.87405971  0.62262632  0.12183334  1
  Co  Co114  1  0.00342690  0.49925556  0.49969600  1
  Co  Co115  1  0.62337252  0.37448832  0.62515018  1
  Co  Co116  1  0.00071732  0.00319359  0.25604370  1
  Co  Co117  1  0.50061138  -0.00040092  0.49737752  1
  Co  Co118  1  0.12654592  0.62624358  0.37179934  1
  Co  Co119  1  0.87220636  0.12463125  0.87298886  1
  Co  Co120  1  0.00265997  0.00111893  -0.00608616  1
  Co  Co121  1  0.62363450  0.87749739  0.88016539  1
  Co  Co122  1  -0.00038203  0.25030046  0.75010807  1
  Co  Co123  1  0.12548431  0.12480070  0.62435336  1
  Co  Co124  1  0.87591742  0.62394313  0.62359915  1
  Co  Co125  1  0.50267911  0.25073127  -0.00255062  1
  Co  Co126  1  0.87595490  0.37562247  0.37481051  1
  Co  Co127  1  0.49842900  0.74746277  0.00172390  1
