# generated using pymatgen
data_Fe45Co19
_symmetry_space_group_name_H-M   'P 1'
_cell_length_a   11.41494644
_cell_length_b   11.41564691
_cell_length_c   11.41494960
_cell_angle_alpha   90.00748130
_cell_angle_beta   89.98091911
_cell_angle_gamma   90.00879393
_symmetry_Int_Tables_number   1
_chemical_formula_structural   Fe45Co19
_chemical_formula_sum   'Fe90 Co38'
_cell_volume   1487.47053229
_cell_formula_units_Z   2
loop_
 _symmetry_equiv_pos_site_id
 _symmetry_equiv_pos_as_xyz
  1  'x, y, z'
loop_
 _atom_site_type_symbol
 _atom_site_label
 _atom_site_symmetry_multiplicity
 _atom_site_fract_x
 _atom_site_fract_y
 _atom_site_fract_z
 _atom_site_occupancy
  Fe  Fe0  1  0.74871618  0.74981076  0.74956683  1
  Fe  Fe1  1  0.74970049  0.25033905  0.74957129  1
  Fe  Fe2  1  0.12535440  0.37246383  0.12720339  1
  Fe  Fe3  1  0.37057299  0.37364410  0.63027139  1
  Fe  Fe4  1  0.12713061  0.12699116  0.37605145  1
  Fe  Fe5  1  0.62294795  0.12659954  0.62353102  1
  Fe  Fe6  1  0.87238267  0.87813340  0.37567372  1
  Fe  Fe7  1  0.49873190  0.50114944  0.74933321  1
  Fe  Fe8  1  0.74922151  0.74950246  0.25110312  1
  Fe  Fe9  1  0.62203336  0.62462050  0.62119212  1
  Fe  Fe10  1  0.12983845  0.12704150  0.12452315  1
  Fe  Fe11  1  0.62028317  0.87364526  0.62696464  1
  Fe  Fe12  1  0.74868230  0.49572789  0.50072688  1
  Fe  Fe13  1  0.87330403  0.62434890  0.87637197  1
  Fe  Fe14  1  0.00268531  0.50000962  0.74788069  1
  Fe  Fe15  1  0.00543903  0.25102911  0.74955143  1
  Fe  Fe16  1  0.12637444  0.87418470  0.12841592  1
  Fe  Fe17  1  0.24962575  0.25021892  0.50102671  1
  Fe  Fe18  1  0.25023245  0.75220855  -0.00050686  1
  Fe  Fe19  1  0.12589817  0.87769824  0.87221999  1
  Fe  Fe20  1  0.87412429  0.12885476  0.12510221  1
  Fe  Fe21  1  0.74806482  0.25437004  0.00222800  1
  Fe  Fe22  1  0.49844492  0.74977645  0.25389740  1
  Fe  Fe23  1  0.87460633  0.87482626  0.12570646  1
  Fe  Fe24  1  0.62348154  0.87585711  0.87406537  1
  Fe  Fe25  1  0.25334984  0.00466206  0.25061340  1
  Fe  Fe26  1  0.00053607  0.00122712  0.00060176  1
  Fe  Fe27  1  0.74902337  0.00328981  0.25035352  1
  Fe  Fe28  1  0.25205329  -0.00211192  0.50246068  1
  Fe  Fe29  1  0.12388169  0.37384314  0.37407434  1
  Fe  Fe30  1  0.00515923  0.24999441  -0.00125147  1
  Fe  Fe31  1  0.12500769  0.62767329  0.12797987  1
  Fe  Fe32  1  0.25200874  0.00029967  -0.00073882  1
  Fe  Fe33  1  0.00101930  0.49790798  0.49893170  1
  Fe  Fe34  1  0.74706320  0.75122280  0.49892426  1
  Fe  Fe35  1  0.49822534  0.00308921  -0.00039809  1
  Fe  Fe36  1  0.62584045  0.62359586  0.12255240  1
  Fe  Fe37  1  0.00109403  0.75180153  0.00020899  1
  Fe  Fe38  1  0.62327006  0.12497568  0.37784615  1
  Fe  Fe39  1  0.62099880  0.37682981  0.87729247  1
  Fe  Fe40  1  0.37691650  0.87626515  0.87124764  1
  Fe  Fe41  1  0.25394750  0.75086262  0.49776785  1
  Fe  Fe42  1  0.87735946  0.37193150  0.37091438  1
  Fe  Fe43  1  0.74982873  -0.00078682  0.00043930  1
  Fe  Fe44  1  0.62392010  0.87487612  0.12615759  1
  Fe  Fe45  1  0.75070134  0.49589920  0.24607340  1
  Fe  Fe46  1  0.87465842  0.62559853  0.12434076  1
  Fe  Fe47  1  0.87733744  0.37509254  0.87555452  1
  Fe  Fe48  1  0.49757610  0.49957783  0.24773116  1
  Fe  Fe49  1  0.87806720  0.12349915  0.62278321  1
  Fe  Fe50  1  0.37898611  0.62694169  0.62107433  1
  Fe  Fe51  1  0.12468566  0.62564354  0.62198292  1
  Fe  Fe52  1  0.12803069  0.87293881  0.37229537  1
  Fe  Fe53  1  0.62418492  0.12672234  0.12476906  1
  Fe  Fe54  1  0.49700778  0.00312428  0.25104875  1
  Fe  Fe55  1  0.62644754  0.12443011  0.87517277  1
  Fe  Fe56  1  -0.00019754  0.49853878  0.00251695  1
  Fe  Fe57  1  0.25113251  0.49790917  0.00043539  1
  Fe  Fe58  1  0.12496477  0.62339475  0.87598014  1
  Fe  Fe59  1  0.74993410  0.00084074  0.74739172  1
  Fe  Fe60  1  0.49939005  0.74946725  -0.00105519  1
  Fe  Fe61  1  0.87625999  0.12602573  0.87475181  1
  Fe  Fe62  1  0.37333339  0.62685118  0.12547330  1
  Fe  Fe63  1  0.25324211  0.00365701  0.74690868  1
  Fe  Fe64  1  0.49848248  0.25448779  0.50120131  1
  Fe  Fe65  1  0.00093708  0.75097738  0.74931554  1
  Fe  Fe66  1  0.37463212  0.87529900  0.12743343  1
  Fe  Fe67  1  0.74999227  0.25104927  0.49994468  1
  Fe  Fe68  1  0.24965525  0.50061422  0.25115879  1
  Fe  Fe69  1  0.37382932  0.62338459  0.87620173  1
  Fe  Fe70  1  0.87631416  0.87730598  0.62273905  1
  Fe  Fe71  1  0.87479160  0.87529182  0.87519764  1
  Fe  Fe72  1  0.87464369  0.62425850  0.62373131  1
  Fe  Fe73  1  0.74876605  0.49880676  0.74949910  1
  Fe  Fe74  1  0.87481093  0.12496533  0.37743967  1
  Fe  Fe75  1  0.37551262  0.36958094  0.12130119  1
  Fe  Fe76  1  0.25025226  0.50130619  0.49900502  1
  Fe  Fe77  1  0.49732840  0.24721509  0.25051788  1
  Fe  Fe78  1  0.62757390  0.62244314  0.87918944  1
  Fe  Fe79  1  0.00097857  0.00249558  0.25089880  1
  Fe  Fe80  1  0.62372585  0.37507824  0.37300601  1
  Fe  Fe81  1  0.87599170  0.37409058  0.62573369  1
  Fe  Fe82  1  0.12268576  0.12371066  0.62403713  1
  Fe  Fe83  1  0.49739706  -0.00407090  0.50052919  1
  Fe  Fe84  1  0.87557021  0.62364728  0.37517596  1
  Fe  Fe85  1  0.25071896  0.74764836  0.74930034  1
  Fe  Fe86  1  0.62147859  0.62127063  0.37712367  1
  Fe  Fe87  1  0.49788265  0.24733907  0.75187571  1
  Fe  Fe88  1  0.00096797  0.75269397  0.49794108  1
  Fe  Fe89  1  0.37458485  0.37526383  0.37519234  1
  Co  Co90  1  0.37843868  0.62136246  0.37690355  1
  Co  Co91  1  0.00120956  0.50125775  0.24993777  1
  Co  Co92  1  0.87911134  0.37046000  0.12787126  1
  Co  Co93  1  0.24734468  0.25079355  -0.00574402  1
  Co  Co94  1  0.49935983  0.00520727  0.75003184  1
  Co  Co95  1  0.74652152  0.00095968  0.50330530  1
  Co  Co96  1  0.75227368  0.49409175  0.00341205  1
  Co  Co97  1  0.37303147  0.12634758  0.87674690  1
  Co  Co98  1  0.74926552  0.75213877  0.00008508  1
  Co  Co99  1  0.49923282  0.49360270  0.50321892  1
  Co  Co100  1  0.61967175  0.37389876  0.12429663  1
  Co  Co101  1  -0.00244234  0.75080741  0.25136383  1
  Co  Co102  1  0.62692104  0.87776363  0.37258203  1
  Co  Co103  1  -0.00152861  -0.00120159  0.74939974  1
  Co  Co104  1  0.12779214  0.37967591  0.87261952  1
  Co  Co105  1  0.00276335  0.24539622  0.25072817  1
  Co  Co106  1  0.25297149  0.25048820  0.25237823  1
  Co  Co107  1  0.12826696  0.37672900  0.62505638  1
  Co  Co108  1  0.00436943  -0.00188751  0.49692513  1
  Co  Co109  1  0.49970496  0.24643342  -0.00213891  1
  Co  Co110  1  0.37200269  0.12801891  0.12250983  1
  Co  Co111  1  0.50081204  0.74468236  0.75374847  1
  Co  Co112  1  0.37778296  0.87233214  0.62948481  1
  Co  Co113  1  0.12740784  0.87429473  0.62646843  1
  Co  Co114  1  0.49612844  0.50153938  0.00081013  1
  Co  Co115  1  0.37373652  0.37467291  0.87267201  1
  Co  Co116  1  0.12448532  0.62650007  0.37478045  1
  Co  Co117  1  0.25315678  0.74600993  0.25191135  1
  Co  Co118  1  0.00101078  0.25128696  0.50042547  1
  Co  Co119  1  0.37188318  0.87767068  0.37157380  1
  Co  Co120  1  0.25058493  0.50475998  0.74845168  1
  Co  Co121  1  0.37641589  0.12729623  0.62201971  1
  Co  Co122  1  0.62514669  0.37361438  0.62814873  1
  Co  Co123  1  0.37542532  0.12550174  0.37987125  1
  Co  Co124  1  0.12444332  0.12001858  0.87419169  1
  Co  Co125  1  0.74691523  0.24978515  0.25066425  1
  Co  Co126  1  0.49877525  0.75506810  0.49387043  1
  Co  Co127  1  0.24598021  0.24581630  0.75185003  1
