# generated using pymatgen
data_Fe45Co19
_symmetry_space_group_name_H-M   'P 1'
_cell_length_a   11.41519541
_cell_length_b   11.41429216
_cell_length_c   11.41464563
_cell_angle_alpha   89.99968732
_cell_angle_beta   90.00543693
_cell_angle_gamma   89.98820797
_symmetry_Int_Tables_number   1
_chemical_formula_structural   Fe45Co19
_chemical_formula_sum   'Fe90 Co38'
_cell_volume   1487.28691386
_cell_formula_units_Z   2
loop_
 _symmetry_equiv_pos_site_id
 _symmetry_equiv_pos_as_xyz
  1  'x, y, z'
loop_
 _atom_site_type_symbol
 _atom_site_label
 _atom_site_symmetry_multiplicity
 _atom_site_fract_x
 _atom_site_fract_y
 _atom_site_fract_z
 _atom_site_occupancy
  Fe  Fe0  1  0.74792665  0.74995621  0.24737402  1
  Fe  Fe1  1  0.62353696  0.87261991  0.12234802  1
  Fe  Fe2  1  0.24802992  0.49903575  0.24935812  1
  Fe  Fe3  1  0.62306635  0.87254653  0.37638608  1
  Fe  Fe4  1  0.00003115  0.00101078  0.49912892  1
  Fe  Fe5  1  0.00140721  0.74951234  0.00273748  1
  Fe  Fe6  1  0.74842116  0.00082789  0.49837561  1
  Fe  Fe7  1  0.25199857  0.24926170  0.50041754  1
  Fe  Fe8  1  0.49989563  0.24934274  -0.00051301  1
  Fe  Fe9  1  0.12558148  0.12417856  0.12518527  1
  Fe  Fe10  1  0.12320508  0.37532330  0.12659872  1
  Fe  Fe11  1  0.62492429  0.87213365  0.87847362  1
  Fe  Fe12  1  0.87360342  0.12316058  0.13111356  1
  Fe  Fe13  1  0.75120370  0.50117118  0.50020214  1
  Fe  Fe14  1  -0.00046179  0.24995658  0.75176288  1
  Fe  Fe15  1  0.37515379  0.12188359  0.37433282  1
  Fe  Fe16  1  0.37506698  0.62370713  0.87146046  1
  Fe  Fe17  1  0.37198256  0.62732955  0.12977242  1
  Fe  Fe18  1  0.00096945  0.50045552  -0.00156802  1
  Fe  Fe19  1  0.49464385  0.74682743  0.49835970  1
  Fe  Fe20  1  0.87736828  0.62648933  0.37361827  1
  Fe  Fe21  1  0.62539531  0.12666917  0.37181506  1
  Fe  Fe22  1  0.37606010  0.12394112  0.87562045  1
  Fe  Fe23  1  0.25401628  0.74900483  0.49754793  1
  Fe  Fe24  1  0.00005720  -0.00181198  0.75185908  1
  Fe  Fe25  1  0.87504927  0.37686498  0.62639666  1
  Fe  Fe26  1  0.74656469  0.50335285  0.74982803  1
  Fe  Fe27  1  0.00471540  0.75104181  0.24734359  1
  Fe  Fe28  1  0.87618596  0.62306342  0.12614038  1
  Fe  Fe29  1  0.62311807  0.37519492  0.37517193  1
  Fe  Fe30  1  0.25240756  0.50206666  0.50090316  1
  Fe  Fe31  1  0.12714717  0.37315978  0.62604691  1
  Fe  Fe32  1  0.75038448  0.25063455  0.75125509  1
  Fe  Fe33  1  0.87499027  0.87620580  0.12612956  1
  Fe  Fe34  1  0.24879250  -0.00007779  0.75200559  1
  Fe  Fe35  1  0.00228503  0.50026869  0.75074549  1
  Fe  Fe36  1  0.37503831  0.37921525  0.62903750  1
  Fe  Fe37  1  0.74990008  0.50048886  0.24978903  1
  Fe  Fe38  1  0.75204830  0.25099197  0.00113523  1
  Fe  Fe39  1  0.37521991  0.37545867  0.37366926  1
  Fe  Fe40  1  0.62276716  0.37675718  0.62340883  1
  Fe  Fe41  1  0.24829786  0.50335060  -0.00263500  1
  Fe  Fe42  1  0.50159210  -0.00235088  0.24918700  1
  Fe  Fe43  1  0.37265785  0.87152003  0.12644502  1
  Fe  Fe44  1  -0.00261976  0.25074195  0.00115389  1
  Fe  Fe45  1  0.75165854  0.24955850  0.49870796  1
  Fe  Fe46  1  0.37503107  0.12536874  0.12623429  1
  Fe  Fe47  1  0.75000124  0.50177914  -0.00014360  1
  Fe  Fe48  1  0.87657957  0.37442046  0.37185272  1
  Fe  Fe49  1  0.50214731  -0.00116058  0.75202198  1
  Fe  Fe50  1  0.12516290  0.87409213  0.62275028  1
  Fe  Fe51  1  0.12478376  0.87459335  0.37744948  1
  Fe  Fe52  1  0.37450831  0.37417511  0.12432308  1
  Fe  Fe53  1  -0.00046144  -0.00008499  0.00036625  1
  Fe  Fe54  1  0.50021918  0.50248734  -0.00119359  1
  Fe  Fe55  1  0.62493309  0.12586842  0.62641770  1
  Fe  Fe56  1  0.74901416  -0.00068750  -0.00087402  1
  Fe  Fe57  1  0.49817690  0.25137079  0.75265243  1
  Fe  Fe58  1  0.12485787  0.12637969  0.37295836  1
  Fe  Fe59  1  0.75406194  0.74865422  0.50232769  1
  Fe  Fe60  1  0.50055857  0.50050286  0.24905851  1
  Fe  Fe61  1  0.37505467  0.87792165  0.62252125  1
  Fe  Fe62  1  0.25285350  -0.00206143  -0.00269335  1
  Fe  Fe63  1  0.12494435  0.62684825  0.62405780  1
  Fe  Fe64  1  0.25049894  0.24963522  -0.00098728  1
  Fe  Fe65  1  0.50093413  0.74812337  0.74875440  1
  Fe  Fe66  1  0.12496489  0.87333664  0.87783388  1
  Fe  Fe67  1  0.62293891  0.62483067  0.37571924  1
  Fe  Fe68  1  0.49791221  0.74761525  0.00080367  1
  Fe  Fe69  1  -0.00037041  0.50090393  0.50003720  1
  Fe  Fe70  1  0.25081166  0.75030973  0.75098050  1
  Fe  Fe71  1  0.12780729  0.37239536  0.87384083  1
  Fe  Fe72  1  0.12440696  0.37407355  0.37399634  1
  Fe  Fe73  1  0.87451839  0.12462294  0.87482552  1
  Fe  Fe74  1  0.74971993  -0.00298402  0.75236368  1
  Fe  Fe75  1  0.62474055  0.37506009  0.87629972  1
  Fe  Fe76  1  -0.00225602  0.24877414  0.49879000  1
  Fe  Fe77  1  0.62547034  0.12531460  0.12611723  1
  Fe  Fe78  1  -0.00346995  0.75247174  0.74742860  1
  Fe  Fe79  1  0.12576627  0.12621208  0.62615638  1
  Fe  Fe80  1  0.87430712  0.12262904  0.62514636  1
  Fe  Fe81  1  0.62539735  0.37479050  0.12571166  1
  Fe  Fe82  1  0.49862779  0.24971655  0.49943739  1
  Fe  Fe83  1  0.37544371  0.12201655  0.62426100  1
  Fe  Fe84  1  0.87458897  0.62691205  0.87495898  1
  Fe  Fe85  1  0.62447291  0.87326742  0.62252518  1
  Fe  Fe86  1  0.87631236  0.87582570  0.37441509  1
  Fe  Fe87  1  0.24817340  -0.00261044  0.25030800  1
  Fe  Fe88  1  0.75226182  0.75056658  0.74778631  1
  Fe  Fe89  1  0.12523919  0.62505760  0.37474745  1
  Co  Co90  1  0.50464754  0.50174377  0.75170665  1
  Co  Co91  1  0.87631685  0.62245224  0.62591373  1
  Co  Co92  1  0.12483000  0.12521166  0.87688295  1
  Co  Co93  1  0.62506132  0.12515526  0.87596711  1
  Co  Co94  1  0.87397360  0.12249890  0.37128662  1
  Co  Co95  1  0.37708200  0.87367137  0.87416518  1
  Co  Co96  1  0.37556041  0.87857193  0.37523981  1
  Co  Co97  1  0.62415634  0.62611675  0.62061426  1
  Co  Co98  1  0.25302928  0.24742512  0.75076107  1
  Co  Co99  1  0.75137885  0.74894988  0.00420303  1
  Co  Co100  1  -0.00177739  0.74966782  0.50083730  1
  Co  Co101  1  0.75090271  0.25318548  0.24972034  1
  Co  Co102  1  0.49891142  0.25041947  0.24965783  1
  Co  Co103  1  0.87587536  0.37816437  0.12677970  1
  Co  Co104  1  0.24604662  0.50199727  0.75147701  1
  Co  Co105  1  0.62399598  0.62441760  0.12552206  1
  Co  Co106  1  0.12921693  0.87538411  0.12007286  1
  Co  Co107  1  0.87493259  0.87339938  0.87899219  1
  Co  Co108  1  0.12234040  0.62929683  0.87340829  1
  Co  Co109  1  0.87467250  0.87928840  0.62139738  1
  Co  Co110  1  0.37488139  0.62278481  0.62851813  1
  Co  Co111  1  0.00096919  0.50142395  0.25080836  1
  Co  Co112  1  0.74600710  -0.00487130  0.25045199  1
  Co  Co113  1  0.50397275  0.00115485  0.49962475  1
  Co  Co114  1  0.62662992  0.62939286  0.87685546  1
  Co  Co115  1  0.24621364  0.75266945  0.25287817  1
  Co  Co116  1  0.49663979  0.50211407  0.49949070  1
  Co  Co117  1  0.25114900  0.74698272  -0.00289449  1
  Co  Co118  1  0.37374836  0.37750555  0.87524074  1
  Co  Co119  1  0.49904189  -0.00088897  0.00105283  1
  Co  Co120  1  0.37430452  0.62378944  0.36884894  1
  Co  Co121  1  0.87387536  0.37643409  0.87376354  1
  Co  Co122  1  0.12717163  0.62423318  0.12594933  1
  Co  Co123  1  0.24991608  0.25055888  0.24977457  1
  Co  Co124  1  0.00353561  -0.00264457  0.24943534  1
  Co  Co125  1  -0.00059040  0.24949092  0.24880047  1
  Co  Co126  1  0.24694718  0.00064312  0.50021914  1
  Co  Co127  1  0.50150367  0.75083367  0.25059984  1
