# generated using pymatgen
data_Fe45Co19
_symmetry_space_group_name_H-M   'P 1'
_cell_length_a   11.41566077
_cell_length_b   11.41540540
_cell_length_c   11.41625904
_cell_angle_alpha   90.00596843
_cell_angle_beta   90.00216082
_cell_angle_gamma   90.00473735
_symmetry_Int_Tables_number   1
_chemical_formula_structural   Fe45Co19
_chemical_formula_sum   'Fe90 Co38'
_cell_volume   1487.70288211
_cell_formula_units_Z   2
loop_
 _symmetry_equiv_pos_site_id
 _symmetry_equiv_pos_as_xyz
  1  'x, y, z'
loop_
 _atom_site_type_symbol
 _atom_site_label
 _atom_site_symmetry_multiplicity
 _atom_site_fract_x
 _atom_site_fract_y
 _atom_site_fract_z
 _atom_site_occupancy
  Fe  Fe0  1  0.75260318  0.00294798  0.00202450  1
  Fe  Fe1  1  0.37500380  0.87527426  0.12216804  1
  Fe  Fe2  1  0.62472700  0.37546732  0.87481559  1
  Fe  Fe3  1  0.37183178  0.12290979  0.37302769  1
  Fe  Fe4  1  0.75142294  0.49857988  0.24902799  1
  Fe  Fe5  1  0.74880429  0.25087751  0.74889525  1
  Fe  Fe6  1  0.25276895  0.49764933  0.50237609  1
  Fe  Fe7  1  0.74698127  0.75401297  0.24906475  1
  Fe  Fe8  1  -0.00002850  0.50029290  0.49892714  1
  Fe  Fe9  1  0.62476662  0.87382368  0.87558483  1
  Fe  Fe10  1  0.37443279  0.62494192  0.12623694  1
  Fe  Fe11  1  0.62244724  0.62427266  0.62826335  1
  Fe  Fe12  1  0.24814923  0.24770581  -0.00119638  1
  Fe  Fe13  1  0.00124334  0.75210843  0.25208311  1
  Fe  Fe14  1  0.50068184  0.50138172  -0.00170181  1
  Fe  Fe15  1  0.12310484  0.12246943  0.87157658  1
  Fe  Fe16  1  0.37550274  0.12834576  0.62843505  1
  Fe  Fe17  1  0.75109048  0.00199419  0.50095105  1
  Fe  Fe18  1  0.12330061  0.37264587  0.62516516  1
  Fe  Fe19  1  0.37520501  0.12459869  0.12380563  1
  Fe  Fe20  1  0.75252472  0.24632371  0.00249736  1
  Fe  Fe21  1  0.50325366  -0.00208646  0.24820749  1
  Fe  Fe22  1  0.37429364  0.37101536  0.87321772  1
  Fe  Fe23  1  0.75163055  -0.00087768  0.74937729  1
  Fe  Fe24  1  0.12647841  0.62174674  0.37326224  1
  Fe  Fe25  1  0.12162763  0.12341581  0.12535035  1
  Fe  Fe26  1  0.49849561  0.00099757  0.75266196  1
  Fe  Fe27  1  0.87233675  0.87748502  0.37479125  1
  Fe  Fe28  1  0.00214962  0.75020710  -0.00143826  1
  Fe  Fe29  1  0.49999935  0.74928870  0.50004398  1
  Fe  Fe30  1  0.49953977  0.49889818  0.25074090  1
  Fe  Fe31  1  0.62365017  0.87663609  0.62476417  1
  Fe  Fe32  1  0.62736296  0.12377375  0.37385446  1
  Fe  Fe33  1  0.25064395  0.75224398  0.24850961  1
  Fe  Fe34  1  0.61720153  0.37475162  0.62483064  1
  Fe  Fe35  1  0.87610036  0.62455337  0.12651635  1
  Fe  Fe36  1  0.62548132  0.62568519  0.37323690  1
  Fe  Fe37  1  0.87723257  0.12745580  0.62627795  1
  Fe  Fe38  1  0.24888675  0.25214711  0.24856426  1
  Fe  Fe39  1  0.87355562  0.37556522  0.87604584  1
  Fe  Fe40  1  0.74803503  0.74970439  0.50179161  1
  Fe  Fe41  1  0.00006841  0.50024376  0.00022385  1
  Fe  Fe42  1  0.87691050  0.37441441  0.62470774  1
  Fe  Fe43  1  0.74745207  0.50035172  0.50105399  1
  Fe  Fe44  1  0.12323690  0.87769272  0.12452680  1
  Fe  Fe45  1  0.50002757  0.00192388  -0.00134084  1
  Fe  Fe46  1  0.49913447  0.24948015  0.25040837  1
  Fe  Fe47  1  0.49994919  0.00440778  0.50059042  1
  Fe  Fe48  1  0.62501847  0.37464542  0.12436979  1
  Fe  Fe49  1  0.25332143  -0.00348164  0.75125796  1
  Fe  Fe50  1  0.12556859  0.12453446  0.37411207  1
  Fe  Fe51  1  0.25141496  0.75124619  0.50311239  1
  Fe  Fe52  1  0.49645666  0.75174554  0.74873243  1
  Fe  Fe53  1  -0.00152072  0.24864378  -0.00182034  1
  Fe  Fe54  1  0.00023453  0.25409567  0.25007206  1
  Fe  Fe55  1  0.37540597  0.37408404  0.37836130  1
  Fe  Fe56  1  0.62453729  0.37359457  0.37605130  1
  Fe  Fe57  1  0.87622050  0.87259620  0.62516060  1
  Fe  Fe58  1  0.12779297  0.62861780  0.87193884  1
  Fe  Fe59  1  0.37330691  0.87851966  0.37762786  1
  Fe  Fe60  1  0.87476641  0.62537281  0.37428395  1
  Fe  Fe61  1  0.24872962  -0.00155884  -0.00196680  1
  Fe  Fe62  1  0.50218298  0.74705184  0.00121639  1
  Fe  Fe63  1  0.50234606  0.75380482  0.24968014  1
  Fe  Fe64  1  0.87722736  0.87375804  0.87379533  1
  Fe  Fe65  1  0.00015743  0.00173975  0.49942849  1
  Fe  Fe66  1  -0.00046101  0.50056253  0.75107426  1
  Fe  Fe67  1  0.50024408  0.24880452  -0.00249306  1
  Fe  Fe68  1  0.74817294  0.24881001  0.50206088  1
  Fe  Fe69  1  0.00116935  0.75009446  0.49914539  1
  Fe  Fe70  1  0.74912760  0.50142886  0.75088240  1
  Fe  Fe71  1  0.37225729  0.62880039  0.87439633  1
  Fe  Fe72  1  0.37354327  0.62518636  0.37487936  1
  Fe  Fe73  1  0.12677996  0.62618558  0.62694110  1
  Fe  Fe74  1  0.87491817  0.37352837  0.37783667  1
  Fe  Fe75  1  0.24926941  0.24941443  0.50139040  1
  Fe  Fe76  1  0.12429479  0.87536446  0.62743064  1
  Fe  Fe77  1  0.87522016  0.62608899  0.62604895  1
  Fe  Fe78  1  0.37397247  0.37409113  0.12281050  1
  Fe  Fe79  1  0.87583398  0.87846723  0.12623162  1
  Fe  Fe80  1  0.12935481  0.87780956  0.37695818  1
  Fe  Fe81  1  0.12562655  0.37507424  0.87514252  1
  Fe  Fe82  1  0.62730292  0.12492185  0.87451197  1
  Fe  Fe83  1  0.74952117  0.74716291  -0.00181878  1
  Fe  Fe84  1  0.12512361  0.62155113  0.12861058  1
  Fe  Fe85  1  0.12265760  0.12618550  0.62888114  1
  Fe  Fe86  1  0.25413646  0.49699434  0.74723000  1
  Fe  Fe87  1  0.75168560  0.24710604  0.24694376  1
  Fe  Fe88  1  0.25064531  0.50074232  0.00067715  1
  Fe  Fe89  1  0.74806420  0.50370247  -0.00065317  1
  Co  Co90  1  0.50010472  0.50193778  0.49785884  1
  Co  Co91  1  0.62566547  0.12351471  0.62682240  1
  Co  Co92  1  0.62298112  0.62653569  0.87117802  1
  Co  Co93  1  0.12603226  0.37702817  0.37666199  1
  Co  Co94  1  -0.00065970  -0.00027349  -0.00410185  1
  Co  Co95  1  0.50092179  0.24434395  0.49766101  1
  Co  Co96  1  0.25228169  0.49668602  0.24950077  1
  Co  Co97  1  0.37536544  0.87204442  0.87990617  1
  Co  Co98  1  0.49547701  0.49975014  0.75251279  1
  Co  Co99  1  0.24974617  -0.00079907  0.24598977  1
  Co  Co100  1  0.74613940  -0.00010751  0.24720218  1
  Co  Co101  1  0.87675664  0.62485636  0.87493146  1
  Co  Co102  1  0.62519155  0.87744946  0.37973833  1
  Co  Co103  1  0.87405508  0.37512400  0.12166298  1
  Co  Co104  1  -0.00283922  -0.00110106  0.74944170  1
  Co  Co105  1  0.12532064  0.87319156  0.87146924  1
  Co  Co106  1  0.87417980  0.12606973  0.87188391  1
  Co  Co107  1  0.12578777  0.37567305  0.12261334  1
  Co  Co108  1  0.38019275  0.36956029  0.62372525  1
  Co  Co109  1  0.24868256  0.25120989  0.75031809  1
  Co  Co110  1  0.24882856  0.00348015  0.50471363  1
  Co  Co111  1  0.37519787  0.62422772  0.62429410  1
  Co  Co112  1  0.37724135  0.87859623  0.62077431  1
  Co  Co113  1  0.24604884  0.75086017  0.00338218  1
  Co  Co114  1  0.62545063  0.62435398  0.12764175  1
  Co  Co115  1  0.25435232  0.75450986  0.74654300  1
  Co  Co116  1  0.00126657  0.24888834  0.49884577  1
  Co  Co117  1  0.62225617  0.12620621  0.12400738  1
  Co  Co118  1  0.37334384  0.12590992  0.87527807  1
  Co  Co119  1  0.62621009  0.87516388  0.11954711  1
  Co  Co120  1  0.75065761  0.75035444  0.75050577  1
  Co  Co121  1  0.00174168  -0.00217562  0.25471238  1
  Co  Co122  1  -0.00191056  0.49569360  0.25071237  1
  Co  Co123  1  -0.00118492  0.25225705  0.75306435  1
  Co  Co124  1  0.88031073  0.12146141  0.12862810  1
  Co  Co125  1  0.50228946  0.24702674  0.75314428  1
  Co  Co126  1  0.87456907  0.12488531  0.37385061  1
  Co  Co127  1  -0.00097885  0.74877358  0.75004088  1
