# generated using pymatgen
data_Fe45Co19
_symmetry_space_group_name_H-M   'P 1'
_cell_length_a   11.41415833
_cell_length_b   11.41512201
_cell_length_c   11.41441476
_cell_angle_alpha   90.00647884
_cell_angle_beta   90.00286419
_cell_angle_gamma   90.00381595
_symmetry_Int_Tables_number   1
_chemical_formula_structural   Fe45Co19
_chemical_formula_sum   'Fe90 Co38'
_cell_volume   1487.22985669
_cell_formula_units_Z   2
loop_
 _symmetry_equiv_pos_site_id
 _symmetry_equiv_pos_as_xyz
  1  'x, y, z'
loop_
 _atom_site_type_symbol
 _atom_site_label
 _atom_site_symmetry_multiplicity
 _atom_site_fract_x
 _atom_site_fract_y
 _atom_site_fract_z
 _atom_site_occupancy
  Fe  Fe0  1  0.50026537  -0.00259581  -0.00072742  1
  Fe  Fe1  1  0.00095172  0.00091473  0.75007902  1
  Fe  Fe2  1  -0.00268577  0.25185338  0.75027213  1
  Fe  Fe3  1  0.86912440  0.37655633  0.37095052  1
  Fe  Fe4  1  0.11643677  0.62632255  0.61893964  1
  Fe  Fe5  1  0.49869611  0.25594594  0.49598827  1
  Fe  Fe6  1  0.50154773  -0.00140515  0.25050424  1
  Fe  Fe7  1  0.50596835  0.49837741  0.74772632  1
  Fe  Fe8  1  0.00066416  0.49976807  -0.00090625  1
  Fe  Fe9  1  0.37964845  0.62444244  0.62434413  1
  Fe  Fe10  1  0.87327156  0.87611586  0.87162875  1
  Fe  Fe11  1  0.75078966  0.24918986  0.49688248  1
  Fe  Fe12  1  0.74545710  0.00001033  0.74881288  1
  Fe  Fe13  1  0.12381685  0.12693996  0.37906805  1
  Fe  Fe14  1  0.25334917  0.75070327  0.00021930  1
  Fe  Fe15  1  0.74900495  -0.00017485  -0.00053112  1
  Fe  Fe16  1  0.24983822  -0.00026434  0.50081304  1
  Fe  Fe17  1  0.87334378  0.87375818  0.12851520  1
  Fe  Fe18  1  0.87416602  0.12222575  0.62330440  1
  Fe  Fe19  1  0.75114210  0.74703088  0.74782887  1
  Fe  Fe20  1  0.62420179  0.12653468  0.12565609  1
  Fe  Fe21  1  0.75182500  0.50087008  0.00180355  1
  Fe  Fe22  1  0.75707464  0.75381457  0.50300003  1
  Fe  Fe23  1  -0.00151558  -0.00044366  -0.00081294  1
  Fe  Fe24  1  0.25257257  0.25163071  0.00064803  1
  Fe  Fe25  1  0.62483663  0.62491511  0.87729233  1
  Fe  Fe26  1  0.12499038  0.37518774  0.12472412  1
  Fe  Fe27  1  0.24968124  0.00051674  0.74613841  1
  Fe  Fe28  1  0.74681001  0.00227047  0.25137306  1
  Fe  Fe29  1  0.12171097  0.87150591  0.62339603  1
  Fe  Fe30  1  0.25031687  0.74749252  0.74660685  1
  Fe  Fe31  1  0.12461987  0.87217182  0.37700682  1
  Fe  Fe32  1  0.87554730  0.12498253  0.12567745  1
  Fe  Fe33  1  0.87382151  0.37696325  0.12920108  1
  Fe  Fe34  1  0.13000266  0.37553162  0.38129266  1
  Fe  Fe35  1  0.49900278  0.25258312  0.00252419  1
  Fe  Fe36  1  0.37563083  0.62281741  0.12686108  1
  Fe  Fe37  1  0.62030016  0.87091432  0.62666594  1
  Fe  Fe38  1  0.62560425  0.87089329  0.12477408  1
  Fe  Fe39  1  0.12617693  0.87507516  0.12576428  1
  Fe  Fe40  1  0.50246785  0.25333587  0.74916489  1
  Fe  Fe41  1  -0.00096769  0.74953938  0.25183562  1
  Fe  Fe42  1  0.50078312  0.49543966  0.49602952  1
  Fe  Fe43  1  0.37319727  0.37930181  0.13097599  1
  Fe  Fe44  1  0.49759588  0.75169494  -0.00195338  1
  Fe  Fe45  1  0.12544435  0.62558018  0.87541359  1
  Fe  Fe46  1  0.75265205  0.25169376  -0.00062219  1
  Fe  Fe47  1  0.62479693  0.12690613  0.87627357  1
  Fe  Fe48  1  0.50198816  0.25349745  0.25331776  1
  Fe  Fe49  1  0.25016056  0.25065438  0.74712308  1
  Fe  Fe50  1  0.12483566  0.37441004  0.61811789  1
  Fe  Fe51  1  0.37779609  0.12538900  0.62464022  1
  Fe  Fe52  1  0.62875646  0.37678022  0.13001471  1
  Fe  Fe53  1  0.75313933  0.74730291  0.00123884  1
  Fe  Fe54  1  0.12608880  0.12447244  0.12437918  1
  Fe  Fe55  1  0.00215696  0.00012504  0.25144993  1
  Fe  Fe56  1  0.75190969  0.50039631  0.50100205  1
  Fe  Fe57  1  0.37664867  0.12522911  0.87336692  1
  Fe  Fe58  1  0.25298780  0.74820029  0.50136870  1
  Fe  Fe59  1  0.62422807  0.62677684  0.61977867  1
  Fe  Fe60  1  0.00267259  0.50092398  0.25421067  1
  Fe  Fe61  1  0.24702146  0.50083020  0.74531811  1
  Fe  Fe62  1  0.37688522  0.87574962  0.86862993  1
  Fe  Fe63  1  0.37464832  0.37689265  0.87183516  1
  Fe  Fe64  1  0.62778002  0.87148029  0.37517242  1
  Fe  Fe65  1  0.24985850  0.74820890  0.24946636  1
  Fe  Fe66  1  0.50384565  0.74496582  0.25214675  1
  Fe  Fe67  1  0.49928018  0.49787247  0.00128647  1
  Fe  Fe68  1  -0.00077234  0.25054376  0.25315645  1
  Fe  Fe69  1  0.50120643  -0.00306686  0.50105990  1
  Fe  Fe70  1  0.87367030  0.37945314  0.62751901  1
  Fe  Fe71  1  0.24927234  0.24953729  0.25184941  1
  Fe  Fe72  1  0.37450731  0.12326354  0.12806145  1
  Fe  Fe73  1  0.62435325  0.12782113  0.62163143  1
  Fe  Fe74  1  0.12435604  0.62549348  0.12420735  1
  Fe  Fe75  1  0.37620593  0.12415374  0.37474853  1
  Fe  Fe76  1  0.87668111  0.62003378  0.86978580  1
  Fe  Fe77  1  0.25334948  -0.00218741  0.00131294  1
  Fe  Fe78  1  0.12536264  0.12557097  0.87601039  1
  Fe  Fe79  1  0.37372822  0.62106570  0.37430266  1
  Fe  Fe80  1  0.37384337  0.87461503  0.37409935  1
  Fe  Fe81  1  0.12165739  0.12842238  0.62112725  1
  Fe  Fe82  1  0.87417576  0.62730001  0.37447071  1
  Fe  Fe83  1  0.12599393  0.37472519  0.87553415  1
  Fe  Fe84  1  -0.00196690  0.75048737  -0.00158326  1
  Fe  Fe85  1  0.87459069  0.11982691  0.37845278  1
  Fe  Fe86  1  0.74946980  0.25326542  0.75244312  1
  Fe  Fe87  1  -0.00336463  0.25030186  -0.00218995  1
  Fe  Fe88  1  0.37444667  0.62158622  0.87289530  1
  Fe  Fe89  1  0.12547511  0.87392854  0.87357830  1
  Co  Co90  1  0.37694112  0.87404967  0.62695978  1
  Co  Co91  1  0.62175059  0.62546117  0.11995484  1
  Co  Co92  1  0.62279005  0.12503065  0.37804957  1
  Co  Co93  1  0.24846040  0.00017999  0.25268370  1
  Co  Co94  1  -0.00702135  0.25370780  0.49872742  1
  Co  Co95  1  0.62502153  0.37525262  0.87852345  1
  Co  Co96  1  -0.00878411  0.75265143  0.49909478  1
  Co  Co97  1  0.24429844  0.50250785  0.25001939  1
  Co  Co98  1  0.87426837  0.38023785  0.87298786  1
  Co  Co99  1  0.87223224  0.87728675  0.37035125  1
  Co  Co100  1  0.50367851  0.00134194  0.74909592  1
  Co  Co101  1  -0.00197471  0.74976249  0.75076000  1
  Co  Co102  1  0.87766544  0.87940264  0.62897004  1
  Co  Co103  1  0.63131758  0.37625845  0.37223102  1
  Co  Co104  1  0.87356854  0.12349337  0.87338573  1
  Co  Co105  1  0.62868817  0.62668795  0.38373194  1
  Co  Co106  1  0.37696485  0.87349137  0.12952841  1
  Co  Co107  1  0.88062428  0.62373388  0.12653387  1
  Co  Co108  1  0.12371414  0.62760516  0.37964903  1
  Co  Co109  1  0.87803758  0.61988761  0.62782286  1
  Co  Co110  1  0.74695804  0.50976998  0.24818542  1
  Co  Co111  1  0.75067339  0.24366870  0.25200460  1
  Co  Co112  1  0.62659958  0.87209112  0.87438297  1
  Co  Co113  1  0.62712951  0.37349312  0.62039265  1
  Co  Co114  1  0.25022868  0.49959413  0.00092401  1
  Co  Co115  1  0.00560039  0.49745503  0.74885449  1
  Co  Co116  1  0.50099943  0.74623960  0.75185857  1
  Co  Co117  1  0.74620181  -0.00396229  0.50208628  1
  Co  Co118  1  0.25523829  0.24757075  0.50050820  1
  Co  Co119  1  0.74747027  0.74412179  0.24833026  1
  Co  Co120  1  -0.00406463  0.49827848  0.49499897  1
  Co  Co121  1  0.74246868  0.50107374  0.74873687  1
  Co  Co122  1  0.37477953  0.37654669  0.62545908  1
  Co  Co123  1  0.36987894  0.37928231  0.37324882  1
  Co  Co124  1  0.49688010  0.75107570  0.49681658  1
  Co  Co125  1  0.25116815  0.50475398  0.50332519  1
  Co  Co126  1  0.50578282  0.50224156  0.25419442  1
  Co  Co127  1  0.00085801  -0.00305814  0.49987167  1
