# generated using pymatgen
data_Fe45Co19
_symmetry_space_group_name_H-M   'P 1'
_cell_length_a   11.41477699
_cell_length_b   11.41568885
_cell_length_c   11.41457654
_cell_angle_alpha   89.99068262
_cell_angle_beta   89.99914498
_cell_angle_gamma   90.00383533
_symmetry_Int_Tables_number   1
_chemical_formula_structural   Fe45Co19
_chemical_formula_sum   'Fe90 Co38'
_cell_volume   1487.40539312
_cell_formula_units_Z   2
loop_
 _symmetry_equiv_pos_site_id
 _symmetry_equiv_pos_as_xyz
  1  'x, y, z'
loop_
 _atom_site_type_symbol
 _atom_site_label
 _atom_site_symmetry_multiplicity
 _atom_site_fract_x
 _atom_site_fract_y
 _atom_site_fract_z
 _atom_site_occupancy
  Fe  Fe0  1  0.12404422  0.62707618  0.87296043  1
  Fe  Fe1  1  0.62465247  0.37539950  0.37287829  1
  Fe  Fe2  1  0.37284437  0.37078853  0.87601367  1
  Fe  Fe3  1  -0.00014430  0.49993422  0.50083909  1
  Fe  Fe4  1  0.37288521  0.12748571  0.87646217  1
  Fe  Fe5  1  0.62282559  0.87266248  0.37530041  1
  Fe  Fe6  1  0.74738639  0.24992738  0.00406226  1
  Fe  Fe7  1  0.50260882  0.24925030  0.50285404  1
  Fe  Fe8  1  0.24772261  0.24903558  0.24733022  1
  Fe  Fe9  1  0.62721036  0.87701935  0.62478618  1
  Fe  Fe10  1  0.75097551  0.75026416  0.50163648  1
  Fe  Fe11  1  0.37254868  0.37704315  0.12330241  1
  Fe  Fe12  1  0.87532381  0.37226749  0.37381285  1
  Fe  Fe13  1  -0.00092665  -0.00083219  -0.00315230  1
  Fe  Fe14  1  0.24723382  -0.00244331  0.75254908  1
  Fe  Fe15  1  0.00281956  0.24962536  0.00169994  1
  Fe  Fe16  1  0.62515412  0.87011253  0.87798924  1
  Fe  Fe17  1  0.12654691  0.12501285  0.87643966  1
  Fe  Fe18  1  0.75015351  0.00107435  0.75330158  1
  Fe  Fe19  1  0.87533881  0.37590833  0.62487293  1
  Fe  Fe20  1  0.12703120  0.37451009  0.87356375  1
  Fe  Fe21  1  0.12731267  0.62209962  0.12709479  1
  Fe  Fe22  1  0.50159182  0.24924488  0.74968299  1
  Fe  Fe23  1  0.00130951  0.24987263  0.24784296  1
  Fe  Fe24  1  0.75180578  0.00109326  0.49664963  1
  Fe  Fe25  1  0.62572947  0.37668108  0.62595813  1
  Fe  Fe26  1  -0.00166787  0.75183920  0.50262123  1
  Fe  Fe27  1  0.37535416  0.62789115  0.37597637  1
  Fe  Fe28  1  0.12408888  0.12143507  0.62369822  1
  Fe  Fe29  1  0.49871591  0.00068520  0.49734498  1
  Fe  Fe30  1  0.37178628  0.12278022  0.12309346  1
  Fe  Fe31  1  0.62568128  0.62390958  0.62414859  1
  Fe  Fe32  1  0.62688788  0.62352601  0.12247145  1
  Fe  Fe33  1  0.24953519  0.75052679  0.00098537  1
  Fe  Fe34  1  0.74780721  0.25193476  0.24532018  1
  Fe  Fe35  1  -0.00465976  -0.00120864  0.49650344  1
  Fe  Fe36  1  0.12671305  0.87369115  0.37432470  1
  Fe  Fe37  1  0.25132939  0.49812960  0.50210335  1
  Fe  Fe38  1  0.12666631  0.37916057  0.12431243  1
  Fe  Fe39  1  0.37556566  0.87524861  0.62408016  1
  Fe  Fe40  1  0.75025629  0.50112041  0.49649128  1
  Fe  Fe41  1  -0.00191363  0.50012756  0.25020728  1
  Fe  Fe42  1  0.62459910  0.37552757  0.87822855  1
  Fe  Fe43  1  0.87583509  0.12203995  0.62638392  1
  Fe  Fe44  1  0.62499894  0.12624397  0.37282758  1
  Fe  Fe45  1  0.00107500  0.75188729  0.74229659  1
  Fe  Fe46  1  -0.00105402  -0.00041707  0.25330022  1
  Fe  Fe47  1  0.74953899  0.24882821  0.74952904  1
  Fe  Fe48  1  -0.00121624  0.50098894  0.74902875  1
  Fe  Fe49  1  0.75242575  -0.00235094  -0.00125621  1
  Fe  Fe50  1  0.37144629  0.87760622  0.12696806  1
  Fe  Fe51  1  0.00074269  0.24813366  0.74891013  1
  Fe  Fe52  1  0.74895219  0.74914267  0.24898417  1
  Fe  Fe53  1  0.50021248  0.50144210  0.25139960  1
  Fe  Fe54  1  0.87580462  0.87316579  0.12770556  1
  Fe  Fe55  1  0.50137209  0.00028522  0.75132800  1
  Fe  Fe56  1  0.87564159  0.62788423  0.37278633  1
  Fe  Fe57  1  0.75055100  0.24870151  0.50090042  1
  Fe  Fe58  1  0.87578327  0.12470776  0.12475845  1
  Fe  Fe59  1  0.62496041  0.12587549  0.87836837  1
  Fe  Fe60  1  0.37615771  0.37190096  0.37497897  1
  Fe  Fe61  1  0.49998995  0.50091308  0.75095061  1
  Fe  Fe62  1  0.75107522  0.50404092  0.75381818  1
  Fe  Fe63  1  0.75122803  -0.00088651  0.25174045  1
  Fe  Fe64  1  0.49946517  0.74883246  0.24781065  1
  Fe  Fe65  1  0.12530687  0.62549607  0.37474761  1
  Fe  Fe66  1  0.49893008  -0.00063431  -0.00096347  1
  Fe  Fe67  1  0.75502349  0.50398454  -0.00095835  1
  Fe  Fe68  1  -0.00122877  0.50185235  -0.00056756  1
  Fe  Fe69  1  0.25070670  0.49860082  0.74732560  1
  Fe  Fe70  1  0.49950327  0.50092612  0.50013714  1
  Fe  Fe71  1  0.50235131  0.24984106  0.24377488  1
  Fe  Fe72  1  0.37518803  0.87264473  0.87541875  1
  Fe  Fe73  1  0.62437247  0.87499190  0.12338123  1
  Fe  Fe74  1  0.37416669  0.62803166  0.87269082  1
  Fe  Fe75  1  0.87547415  0.37273153  0.87656123  1
  Fe  Fe76  1  0.25441454  0.00006203  0.49505024  1
  Fe  Fe77  1  0.24876973  0.25178927  0.50396943  1
  Fe  Fe78  1  0.12432275  0.12651178  0.37572618  1
  Fe  Fe79  1  0.49694922  0.50138157  -0.00239702  1
  Fe  Fe80  1  0.12419722  0.37410358  0.37629552  1
  Fe  Fe81  1  0.37096841  0.62265769  0.12574997  1
  Fe  Fe82  1  0.49654267  0.00067256  0.25337252  1
  Fe  Fe83  1  0.25016477  0.74988831  0.50177614  1
  Fe  Fe84  1  0.87686591  0.87059595  0.87094186  1
  Fe  Fe85  1  0.24684291  0.75282485  0.74710284  1
  Fe  Fe86  1  0.00013817  0.74911342  0.00441039  1
  Fe  Fe87  1  0.50299295  0.74962271  0.74823466  1
  Fe  Fe88  1  0.12814110  0.87914380  0.12705867  1
  Fe  Fe89  1  0.37520704  0.12468288  0.62594082  1
  Co  Co90  1  0.24682896  0.24994664  0.00341872  1
  Co  Co91  1  0.00383132  0.75046529  0.24870216  1
  Co  Co92  1  0.87503117  0.62582366  0.12857164  1
  Co  Co93  1  0.62495962  0.62678211  0.37453850  1
  Co  Co94  1  0.25194254  0.00231325  0.25642477  1
  Co  Co95  1  0.12433043  0.11837959  0.12499948  1
  Co  Co96  1  0.25044964  0.49864131  0.25508694  1
  Co  Co97  1  0.74787003  0.74674924  0.74961301  1
  Co  Co98  1  0.12146199  0.87061839  0.87636749  1
  Co  Co99  1  0.24937297  0.74954044  0.24937230  1
  Co  Co100  1  0.87631968  0.37441320  0.12369060  1
  Co  Co101  1  0.37486850  0.62611210  0.62619523  1
  Co  Co102  1  0.87426847  0.62332426  0.62406415  1
  Co  Co103  1  0.75194466  0.49978615  0.25100414  1
  Co  Co104  1  0.37600409  0.86928131  0.37456308  1
  Co  Co105  1  -0.00123573  0.24909526  0.50198346  1
  Co  Co106  1  0.37778017  0.37393253  0.62559491  1
  Co  Co107  1  0.75396383  0.74969570  0.00015014  1
  Co  Co108  1  0.87454624  0.87044574  0.37300379  1
  Co  Co109  1  0.24868126  -0.00206044  -0.00458463  1
  Co  Co110  1  0.62319107  0.62764434  0.87957366  1
  Co  Co111  1  0.49586402  0.74960428  0.00349878  1
  Co  Co112  1  0.12589164  0.62351966  0.62434770  1
  Co  Co113  1  0.37635207  0.13261765  0.37498311  1
  Co  Co114  1  0.62535026  0.12295920  0.62458553  1
  Co  Co115  1  0.12188889  0.37651048  0.62567890  1
  Co  Co116  1  0.87248892  0.87866458  0.62803994  1
  Co  Co117  1  0.87388926  0.12901828  0.37164401  1
  Co  Co118  1  0.50091074  0.24938636  0.00292209  1
  Co  Co119  1  0.87439798  0.12741799  0.87711362  1
  Co  Co120  1  0.12546581  0.87976973  0.62053196  1
  Co  Co121  1  0.62464572  0.38275498  0.12237553  1
  Co  Co122  1  0.24809635  0.24960211  0.74639205  1
  Co  Co123  1  0.00209847  0.00045708  0.75296762  1
  Co  Co124  1  0.50155395  0.74983158  0.50285509  1
  Co  Co125  1  0.87995851  0.63005325  0.87303487  1
  Co  Co126  1  0.62535820  0.11876901  0.12438876  1
  Co  Co127  1  0.24935079  0.50121259  -0.00463298  1
