# generated using pymatgen
data_Fe45Co19
_symmetry_space_group_name_H-M   'P 1'
_cell_length_a   11.41477422
_cell_length_b   11.41489829
_cell_length_c   11.41493849
_cell_angle_alpha   89.99316516
_cell_angle_beta   89.99505675
_cell_angle_gamma   90.00759184
_symmetry_Int_Tables_number   1
_chemical_formula_structural   Fe45Co19
_chemical_formula_sum   'Fe90 Co38'
_cell_volume   1487.34918233
_cell_formula_units_Z   2
loop_
 _symmetry_equiv_pos_site_id
 _symmetry_equiv_pos_as_xyz
  1  'x, y, z'
loop_
 _atom_site_type_symbol
 _atom_site_label
 _atom_site_symmetry_multiplicity
 _atom_site_fract_x
 _atom_site_fract_y
 _atom_site_fract_z
 _atom_site_occupancy
  Fe  Fe0  1  0.00001160  0.25127866  -0.00166823  1
  Fe  Fe1  1  0.37719581  0.12461139  0.12738430  1
  Fe  Fe2  1  0.62561861  0.37596899  0.12702285  1
  Fe  Fe3  1  0.62335771  0.62538036  0.37579148  1
  Fe  Fe4  1  0.24961950  0.24717915  0.00190807  1
  Fe  Fe5  1  0.25017746  0.50195423  0.00013691  1
  Fe  Fe6  1  0.25125381  0.50010448  0.74900287  1
  Fe  Fe7  1  0.12442144  0.62712156  0.87489901  1
  Fe  Fe8  1  0.87670810  0.87803455  0.12579846  1
  Fe  Fe9  1  0.49504350  0.24865969  0.50064930  1
  Fe  Fe10  1  0.49915709  0.50077380  0.00125420  1
  Fe  Fe11  1  0.74950345  0.75180568  0.50176155  1
  Fe  Fe12  1  0.37582871  0.62625491  0.87407779  1
  Fe  Fe13  1  0.62249436  0.62420976  0.62252629  1
  Fe  Fe14  1  0.62279942  0.37581935  0.62376800  1
  Fe  Fe15  1  0.12495652  0.62671998  0.12338046  1
  Fe  Fe16  1  0.87472910  0.62531523  0.87327186  1
  Fe  Fe17  1  0.49956477  0.75023134  0.00190993  1
  Fe  Fe18  1  0.12591540  0.12887820  0.37335256  1
  Fe  Fe19  1  0.62509033  0.62563654  0.87500696  1
  Fe  Fe20  1  0.49909357  0.25105351  0.25003491  1
  Fe  Fe21  1  0.12802646  0.87430849  0.87658171  1
  Fe  Fe22  1  0.24966814  0.00040325  0.25032748  1
  Fe  Fe23  1  0.62500249  0.87586912  0.37584309  1
  Fe  Fe24  1  0.25657066  0.00336004  0.49929172  1
  Fe  Fe25  1  0.12762527  0.37454453  0.87449776  1
  Fe  Fe26  1  0.75058743  0.00054335  0.50020018  1
  Fe  Fe27  1  0.62260552  0.12482712  0.37475022  1
  Fe  Fe28  1  0.25054648  0.24968672  0.74598993  1
  Fe  Fe29  1  0.49988656  0.00055517  -0.00144508  1
  Fe  Fe30  1  0.75118678  0.74942894  0.00267997  1
  Fe  Fe31  1  0.00076649  0.49946776  -0.00094793  1
  Fe  Fe32  1  0.37177870  0.12297876  0.87309293  1
  Fe  Fe33  1  0.49716383  -0.00202858  0.25426631  1
  Fe  Fe34  1  0.87531548  0.37654355  0.12668233  1
  Fe  Fe35  1  0.12341235  0.62280327  0.62425876  1
  Fe  Fe36  1  0.74925639  0.50151407  0.00097639  1
  Fe  Fe37  1  0.00304045  0.75236852  0.25148112  1
  Fe  Fe38  1  0.87113834  0.37496060  0.87321249  1
  Fe  Fe39  1  0.00504600  0.49588034  0.25248776  1
  Fe  Fe40  1  0.25070833  0.75134295  0.74627648  1
  Fe  Fe41  1  0.87641510  0.62403328  0.12779165  1
  Fe  Fe42  1  -0.00063980  -0.00018999  0.49753929  1
  Fe  Fe43  1  0.12005599  0.12702150  0.12763976  1
  Fe  Fe44  1  -0.00007674  0.25048187  0.74957349  1
  Fe  Fe45  1  0.62613588  0.37609391  0.87524434  1
  Fe  Fe46  1  0.49980239  0.24981134  0.75108861  1
  Fe  Fe47  1  0.87489985  0.87613474  0.87542518  1
  Fe  Fe48  1  0.37316841  0.87343033  0.12646895  1
  Fe  Fe49  1  0.74945415  0.24631733  0.00451430  1
  Fe  Fe50  1  0.62642991  0.12320980  0.87551738  1
  Fe  Fe51  1  0.74992361  0.24788550  0.50061542  1
  Fe  Fe52  1  0.62444819  0.87706732  0.12559082  1
  Fe  Fe53  1  0.74993463  0.75195317  0.74607007  1
  Fe  Fe54  1  0.87461612  0.12362420  0.87553427  1
  Fe  Fe55  1  0.87447016  0.87514234  0.37516442  1
  Fe  Fe56  1  0.00086190  0.74948580  0.49883210  1
  Fe  Fe57  1  0.75384698  0.24562458  0.24887156  1
  Fe  Fe58  1  0.00279869  0.00034556  -0.00303268  1
  Fe  Fe59  1  0.75092226  -0.00124181  0.74719891  1
  Fe  Fe60  1  0.49952164  0.75335216  0.74707104  1
  Fe  Fe61  1  0.37093298  0.87676060  0.87558219  1
  Fe  Fe62  1  0.87755278  0.12339799  0.62369103  1
  Fe  Fe63  1  0.12880227  0.87501409  0.37721837  1
  Fe  Fe64  1  0.00204446  0.25338669  0.49967853  1
  Fe  Fe65  1  0.49743422  0.50162570  0.25355849  1
  Fe  Fe66  1  0.50085241  0.24879768  -0.00027863  1
  Fe  Fe67  1  0.37380823  0.62795305  0.12912528  1
  Fe  Fe68  1  0.87661744  0.62406594  0.62382504  1
  Fe  Fe69  1  0.87457470  0.37515902  0.37651827  1
  Fe  Fe70  1  0.61899760  0.12025417  0.62397153  1
  Fe  Fe71  1  0.75009075  0.49934609  0.50058635  1
  Fe  Fe72  1  0.74932256  0.24957275  0.74665258  1
  Fe  Fe73  1  0.12628835  0.87356798  0.12251177  1
  Fe  Fe74  1  0.12836814  0.62464950  0.37621390  1
  Fe  Fe75  1  0.25057175  0.49812898  0.50046859  1
  Fe  Fe76  1  0.74820984  0.74907150  0.24893386  1
  Fe  Fe77  1  0.12488403  0.87734254  0.62293406  1
  Fe  Fe78  1  0.75256331  0.00469224  0.24972531  1
  Fe  Fe79  1  0.87593113  0.62479721  0.37390002  1
  Fe  Fe80  1  -0.00150078  0.49697421  0.74900942  1
  Fe  Fe81  1  0.12418581  0.12337250  0.62603862  1
  Fe  Fe82  1  0.62698818  0.87461909  0.87571116  1
  Fe  Fe83  1  0.36890705  0.37188067  0.37451469  1
  Fe  Fe84  1  0.37395823  0.37455233  0.87506749  1
  Fe  Fe85  1  0.50016301  0.49892214  0.74919852  1
  Fe  Fe86  1  0.62620781  0.37312376  0.37475342  1
  Fe  Fe87  1  0.37763764  0.62526374  0.62076318  1
  Fe  Fe88  1  0.00046860  0.75320402  0.74881919  1
  Fe  Fe89  1  0.37252435  0.37525447  0.12530350  1
  Co  Co90  1  0.62099821  0.12351735  0.12786217  1
  Co  Co91  1  0.00096575  -0.00068076  0.75198345  1
  Co  Co92  1  0.24856424  0.00350361  0.00336421  1
  Co  Co93  1  0.25267019  0.24603670  0.50567756  1
  Co  Co94  1  0.88175880  0.12259857  0.12493143  1
  Co  Co95  1  -0.00160838  0.25406124  0.25243924  1
  Co  Co96  1  0.74932491  0.00207758  0.00227230  1
  Co  Co97  1  0.24838798  0.24900825  0.24640660  1
  Co  Co98  1  0.24599428  0.75080750  0.25029112  1
  Co  Co99  1  0.00235409  -0.00279246  0.25346484  1
  Co  Co100  1  0.24720230  -0.00145054  0.74867088  1
  Co  Co101  1  0.13101228  0.37095319  0.37681541  1
  Co  Co102  1  0.74891399  0.50046838  0.25254202  1
  Co  Co103  1  0.37194604  0.62905160  0.37643635  1
  Co  Co104  1  0.50229243  0.74919484  0.25127546  1
  Co  Co105  1  0.00118740  0.49856656  0.49734153  1
  Co  Co106  1  0.74872676  0.50042711  0.74707275  1
  Co  Co107  1  0.87525242  0.37506132  0.62353918  1
  Co  Co108  1  0.50034246  0.75350331  0.49858304  1
  Co  Co109  1  0.37905025  0.12091731  0.62967321  1
  Co  Co110  1  0.37162859  0.86850036  0.37450801  1
  Co  Co111  1  0.24867990  0.50080685  0.24897271  1
  Co  Co112  1  0.49406233  -0.00073565  0.49366165  1
  Co  Co113  1  0.24928824  0.75035191  0.50457144  1
  Co  Co114  1  0.37365294  0.12912176  0.37107787  1
  Co  Co115  1  0.12625177  0.37350401  0.12287355  1
  Co  Co116  1  0.37644381  0.87847597  0.62446985  1
  Co  Co117  1  0.50032787  -0.00244926  0.75508828  1
  Co  Co118  1  -0.00216356  0.75048404  -0.00012328  1
  Co  Co119  1  0.49772191  0.49727767  0.49511686  1
  Co  Co120  1  0.25182938  0.74774941  -0.00106545  1
  Co  Co121  1  0.87823893  0.12497072  0.37689414  1
  Co  Co122  1  0.87812549  0.87590750  0.62236864  1
  Co  Co123  1  0.12712400  0.12663606  0.87317959  1
  Co  Co124  1  0.37586587  0.37558283  0.62564093  1
  Co  Co125  1  0.62152354  0.87899676  0.62312147  1
  Co  Co126  1  0.12568719  0.37610704  0.62509306  1
  Co  Co127  1  0.62412684  0.62319837  0.12542018  1
