# generated using pymatgen
data_Fe45Co19
_symmetry_space_group_name_H-M   'P 1'
_cell_length_a   11.41417688
_cell_length_b   11.41544230
_cell_length_c   11.41515332
_cell_angle_alpha   90.00331419
_cell_angle_beta   90.01373025
_cell_angle_gamma   89.99336023
_symmetry_Int_Tables_number   1
_chemical_formula_structural   Fe45Co19
_chemical_formula_sum   'Fe90 Co38'
_cell_volume   1487.37019428
_cell_formula_units_Z   2
loop_
 _symmetry_equiv_pos_site_id
 _symmetry_equiv_pos_as_xyz
  1  'x, y, z'
loop_
 _atom_site_type_symbol
 _atom_site_label
 _atom_site_symmetry_multiplicity
 _atom_site_fract_x
 _atom_site_fract_y
 _atom_site_fract_z
 _atom_site_occupancy
  Fe  Fe0  1  0.12442255  0.37853847  0.12495076  1
  Fe  Fe1  1  0.87727035  0.87292270  0.87564678  1
  Fe  Fe2  1  0.62379992  0.37463230  0.87808854  1
  Fe  Fe3  1  0.49639224  0.00625990  0.49614601  1
  Fe  Fe4  1  -0.00187818  0.24774970  0.50204787  1
  Fe  Fe5  1  0.87236046  0.12606794  0.37393640  1
  Fe  Fe6  1  -0.00198967  0.50480651  0.49879305  1
  Fe  Fe7  1  0.12560246  0.37394394  0.87523470  1
  Fe  Fe8  1  0.87402049  0.12375290  0.12538153  1
  Fe  Fe9  1  0.62330572  0.62463397  0.12658256  1
  Fe  Fe10  1  -0.00075827  -0.00104412  0.24988385  1
  Fe  Fe11  1  0.87093428  0.12919997  0.86996911  1
  Fe  Fe12  1  0.12586934  0.12289569  0.12585493  1
  Fe  Fe13  1  -0.00136864  0.00366335  0.75116181  1
  Fe  Fe14  1  -0.00236117  0.00336879  0.50163066  1
  Fe  Fe15  1  0.37333842  0.62842966  0.37192353  1
  Fe  Fe16  1  0.00098436  0.49752988  0.74982589  1
  Fe  Fe17  1  0.74998328  0.74835820  0.00102658  1
  Fe  Fe18  1  0.24865533  0.50161758  -0.00109097  1
  Fe  Fe19  1  0.74861607  0.75528657  0.74646626  1
  Fe  Fe20  1  0.49947188  0.24761692  0.00056955  1
  Fe  Fe21  1  0.00057268  0.24933458  -0.00048768  1
  Fe  Fe22  1  0.12204202  0.87493557  0.62408442  1
  Fe  Fe23  1  0.62191185  0.87546263  0.12166274  1
  Fe  Fe24  1  0.24945320  0.25373959  0.24954809  1
  Fe  Fe25  1  0.87762384  0.87103524  0.37648233  1
  Fe  Fe26  1  0.24722141  0.74856667  -0.00120292  1
  Fe  Fe27  1  0.37496066  0.12427105  0.12717129  1
  Fe  Fe28  1  0.75166962  -0.00405585  0.25075308  1
  Fe  Fe29  1  0.37437482  0.12621903  0.87169286  1
  Fe  Fe30  1  0.37705915  0.87324649  0.87675787  1
  Fe  Fe31  1  0.74737542  0.49734389  0.74989927  1
  Fe  Fe32  1  0.50339528  0.25001543  0.25263772  1
  Fe  Fe33  1  0.62365697  0.62740913  0.87151717  1
  Fe  Fe34  1  0.62313773  0.62490060  0.62686177  1
  Fe  Fe35  1  0.12551863  0.37525545  0.37912149  1
  Fe  Fe36  1  0.25253941  0.50108314  0.49897389  1
  Fe  Fe37  1  0.25111068  0.75190509  0.74881030  1
  Fe  Fe38  1  0.37651010  0.87823589  0.62237910  1
  Fe  Fe39  1  0.37798835  0.37709054  0.12429986  1
  Fe  Fe40  1  0.12408264  0.87371433  0.37911566  1
  Fe  Fe41  1  0.62614938  0.12566729  0.87261458  1
  Fe  Fe42  1  0.49864481  0.74709419  0.50085017  1
  Fe  Fe43  1  0.00304030  0.74856332  0.24863814  1
  Fe  Fe44  1  0.50198564  -0.00320668  0.75152608  1
  Fe  Fe45  1  0.24875056  0.75253371  0.24966412  1
  Fe  Fe46  1  0.75048839  0.50406906  0.49874290  1
  Fe  Fe47  1  0.37431876  0.62395201  0.12807749  1
  Fe  Fe48  1  0.12519933  0.62309944  0.62555089  1
  Fe  Fe49  1  0.87590270  0.62282759  0.12431682  1
  Fe  Fe50  1  0.37581363  0.62498808  0.87139044  1
  Fe  Fe51  1  0.37668815  0.87403416  0.12241053  1
  Fe  Fe52  1  0.50227624  0.49974987  0.25568337  1
  Fe  Fe53  1  0.12581743  0.12611344  0.62722223  1
  Fe  Fe54  1  0.12712329  0.12554294  0.37459398  1
  Fe  Fe55  1  0.37972700  0.37121615  0.38051091  1
  Fe  Fe56  1  0.00169393  0.50130146  0.25327062  1
  Fe  Fe57  1  0.50089611  0.50247581  -0.00221165  1
  Fe  Fe58  1  0.24914715  -0.00044284  -0.00220975  1
  Fe  Fe59  1  0.25169650  0.25467989  0.74669106  1
  Fe  Fe60  1  0.24973609  0.74975644  0.50199930  1
  Fe  Fe61  1  0.62161482  0.87247550  0.87822311  1
  Fe  Fe62  1  0.25323120  0.24770496  0.50394776  1
  Fe  Fe63  1  0.24845918  -0.00246824  0.75046470  1
  Fe  Fe64  1  0.87506552  0.37428059  0.62500879  1
  Fe  Fe65  1  0.49792071  -0.00208610  0.25322783  1
  Fe  Fe66  1  0.62988975  0.11904606  0.62659525  1
  Fe  Fe67  1  0.74869039  0.25101912  0.00261630  1
  Fe  Fe68  1  0.00026025  0.25109458  0.24985115  1
  Fe  Fe69  1  0.74871789  0.24799027  0.50095812  1
  Fe  Fe70  1  0.25041506  0.24959434  0.00122047  1
  Fe  Fe71  1  0.62516310  0.12255758  0.12700315  1
  Fe  Fe72  1  0.74661932  0.49853454  0.25198031  1
  Fe  Fe73  1  0.75046132  -0.00065264  -0.00198768  1
  Fe  Fe74  1  0.49981261  0.25314597  0.74647570  1
  Fe  Fe75  1  0.37787922  0.62213026  0.62848119  1
  Fe  Fe76  1  0.62379945  0.87331338  0.37865101  1
  Fe  Fe77  1  0.87489955  0.37865209  0.12291692  1
  Fe  Fe78  1  0.25112507  -0.00317163  0.25289590  1
  Fe  Fe79  1  0.74924593  0.75211244  0.24743179  1
  Fe  Fe80  1  0.87347001  0.37453464  0.87516248  1
  Fe  Fe81  1  0.75393289  0.75036047  0.50444098  1
  Fe  Fe82  1  0.00496956  0.74705916  0.00138054  1
  Fe  Fe83  1  0.25151578  0.49566199  0.74836583  1
  Fe  Fe84  1  0.87323006  0.37534255  0.37590868  1
  Fe  Fe85  1  0.61891683  0.37833534  0.61786628  1
  Fe  Fe86  1  0.74791131  0.25318823  0.24929198  1
  Fe  Fe87  1  -0.00033123  0.74813751  0.74753625  1
  Fe  Fe88  1  0.87445944  0.62385756  0.87376126  1
  Fe  Fe89  1  0.00108264  0.00111695  -0.00195121  1
  Co  Co90  1  0.62180438  0.87805325  0.61865025  1
  Co  Co91  1  0.74456587  0.25613033  0.74646295  1
  Co  Co92  1  0.25239592  0.49554029  0.25453296  1
  Co  Co93  1  0.12549131  0.87679154  0.12407787  1
  Co  Co94  1  0.87890187  0.87731484  0.62598753  1
  Co  Co95  1  -0.00165358  0.74481817  0.50197705  1
  Co  Co96  1  0.12412872  0.37666556  0.62110474  1
  Co  Co97  1  0.37069117  0.12790129  0.37146960  1
  Co  Co98  1  0.62835509  0.63051150  0.37545590  1
  Co  Co99  1  0.75531097  -0.00203147  0.49871980  1
  Co  Co100  1  0.37430699  0.12175338  0.63078278  1
  Co  Co101  1  0.74933602  -0.00761008  0.75252692  1
  Co  Co102  1  0.49901531  0.00333126  -0.00126073  1
  Co  Co103  1  0.49925773  0.50858373  0.49393905  1
  Co  Co104  1  0.87340428  0.62310620  0.62950366  1
  Co  Co105  1  0.62966360  0.12301305  0.37300060  1
  Co  Co106  1  0.12306203  0.87359060  0.87297214  1
  Co  Co107  1  0.37524554  0.37446060  0.87731564  1
  Co  Co108  1  0.00167027  0.25154140  0.74879178  1
  Co  Co109  1  0.50065540  0.49639174  0.75291265  1
  Co  Co110  1  0.62253580  0.37670934  0.12298141  1
  Co  Co111  1  0.12745804  0.62156771  0.12840032  1
  Co  Co112  1  0.12794213  0.12713752  0.87367036  1
  Co  Co113  1  0.49952068  0.75200282  0.25030361  1
  Co  Co114  1  0.62333606  0.37340888  0.38125426  1
  Co  Co115  1  0.74748739  0.50172570  -0.00160625  1
  Co  Co116  1  0.12579522  0.62508966  0.86995576  1
  Co  Co117  1  0.12762421  0.62574203  0.37538867  1
  Co  Co118  1  0.24924732  0.00163024  0.50024586  1
  Co  Co119  1  0.49814396  0.74551063  0.00062976  1
  Co  Co120  1  0.49943424  0.75388239  0.74721737  1
  Co  Co121  1  0.38136890  0.37759889  0.61930170  1
  Co  Co122  1  0.37520991  0.87319777  0.37932252  1
  Co  Co123  1  0.87230494  0.62762185  0.37140267  1
  Co  Co124  1  0.50078990  0.23918921  0.50233119  1
  Co  Co125  1  0.00237123  0.50140115  -0.00273157  1
  Co  Co126  1  0.87021784  0.12593952  0.62945699  1
  Co  Co127  1  0.87720468  0.87396539  0.12238737  1
