# generated using pymatgen
data_Fe45Co19
_symmetry_space_group_name_H-M   'P 1'
_cell_length_a   11.41485182
_cell_length_b   11.41676600
_cell_length_c   11.41419237
_cell_angle_alpha   90.00364457
_cell_angle_beta   89.98793021
_cell_angle_gamma   89.99344274
_symmetry_Int_Tables_number   1
_chemical_formula_structural   Fe45Co19
_chemical_formula_sum   'Fe90 Co38'
_cell_volume   1487.50540476
_cell_formula_units_Z   2
loop_
 _symmetry_equiv_pos_site_id
 _symmetry_equiv_pos_as_xyz
  1  'x, y, z'
loop_
 _atom_site_type_symbol
 _atom_site_label
 _atom_site_symmetry_multiplicity
 _atom_site_fract_x
 _atom_site_fract_y
 _atom_site_fract_z
 _atom_site_occupancy
  Fe  Fe0  1  0.37712385  0.37428279  0.37290909  1
  Fe  Fe1  1  0.37491754  0.12464253  0.62514913  1
  Fe  Fe2  1  -0.00021542  0.50391075  0.74852063  1
  Fe  Fe3  1  0.87318581  0.87210068  0.87792334  1
  Fe  Fe4  1  -0.00160774  0.24795527  0.50300910  1
  Fe  Fe5  1  0.87461786  0.37631564  0.12479635  1
  Fe  Fe6  1  0.87462199  0.62862029  0.37692081  1
  Fe  Fe7  1  0.37879168  0.62111147  0.87587328  1
  Fe  Fe8  1  -0.00023785  0.24961890  0.00162704  1
  Fe  Fe9  1  0.87433425  0.87400185  0.37383786  1
  Fe  Fe10  1  0.74944827  0.25252932  -0.00291544  1
  Fe  Fe11  1  0.24849025  0.00014512  0.75477142  1
  Fe  Fe12  1  0.25002919  0.74762724  0.75200627  1
  Fe  Fe13  1  0.75357982  0.24814283  0.25132748  1
  Fe  Fe14  1  0.49942990  0.74942269  0.25028831  1
  Fe  Fe15  1  0.62748756  0.37611342  0.12731385  1
  Fe  Fe16  1  0.75014507  0.25300117  0.75035428  1
  Fe  Fe17  1  0.25131248  0.75210632  0.25148855  1
  Fe  Fe18  1  0.62686106  0.62316807  0.12395876  1
  Fe  Fe19  1  0.62934012  0.12435408  0.12412025  1
  Fe  Fe20  1  0.50278194  0.74830993  -0.00019657  1
  Fe  Fe21  1  0.12473740  0.62563292  0.12539492  1
  Fe  Fe22  1  0.24954126  0.25068075  0.00073997  1
  Fe  Fe23  1  -0.00079097  0.50204560  0.25133405  1
  Fe  Fe24  1  0.37648343  0.12562902  0.87561171  1
  Fe  Fe25  1  0.87398012  0.12669339  0.87642163  1
  Fe  Fe26  1  -0.00047992  0.24894453  0.74992306  1
  Fe  Fe27  1  0.24921558  0.25119811  0.75052698  1
  Fe  Fe28  1  0.12385658  0.37467683  0.12744567  1
  Fe  Fe29  1  0.12477778  0.12446256  0.12417674  1
  Fe  Fe30  1  0.12276505  0.87538293  0.37306819  1
  Fe  Fe31  1  0.37894600  0.87494133  0.87372212  1
  Fe  Fe32  1  -0.00102751  0.50129547  -0.00011012  1
  Fe  Fe33  1  0.12210198  0.37165468  0.37293697  1
  Fe  Fe34  1  0.62568283  0.12526770  0.62656962  1
  Fe  Fe35  1  0.50146491  0.25256005  0.00183212  1
  Fe  Fe36  1  0.50118948  -0.00103507  0.50092791  1
  Fe  Fe37  1  0.24947405  0.50040069  0.25124190  1
  Fe  Fe38  1  0.25143676  0.75032763  -0.00088099  1
  Fe  Fe39  1  0.24705716  0.50048856  0.74824546  1
  Fe  Fe40  1  0.25028566  0.49982153  0.00177411  1
  Fe  Fe41  1  0.49997307  0.25242472  0.74842402  1
  Fe  Fe42  1  0.00027093  0.50206363  0.50196647  1
  Fe  Fe43  1  -0.00085699  0.75175117  0.50245018  1
  Fe  Fe44  1  -0.00631652  0.00183722  0.24694481  1
  Fe  Fe45  1  0.74997403  -0.00245305  0.50023924  1
  Fe  Fe46  1  0.12753033  0.87391507  0.62665296  1
  Fe  Fe47  1  0.87420541  0.37731118  0.62529224  1
  Fe  Fe48  1  0.50104613  0.50045986  0.25135271  1
  Fe  Fe49  1  0.62785354  0.12627014  0.37606059  1
  Fe  Fe50  1  -0.00339402  0.74857706  0.00346225  1
  Fe  Fe51  1  0.37622488  0.12539972  0.37415542  1
  Fe  Fe52  1  0.37530795  0.37344382  0.12870261  1
  Fe  Fe53  1  -0.00148868  -0.00175693  0.50237527  1
  Fe  Fe54  1  0.50533581  0.00032769  -0.00440462  1
  Fe  Fe55  1  0.87526330  0.37206818  0.37694330  1
  Fe  Fe56  1  0.37042973  0.62188145  0.61832973  1
  Fe  Fe57  1  0.49804683  0.74992537  0.50040926  1
  Fe  Fe58  1  0.24742335  0.25128031  0.49907079  1
  Fe  Fe59  1  0.50310095  0.25220697  0.49988842  1
  Fe  Fe60  1  0.12313649  0.87562218  0.12306982  1
  Fe  Fe61  1  0.12169710  0.12587170  0.37332164  1
  Fe  Fe62  1  0.37723702  0.87716954  0.12411914  1
  Fe  Fe63  1  0.62219807  0.38020251  0.87327058  1
  Fe  Fe64  1  0.12312407  0.37568248  0.87405300  1
  Fe  Fe65  1  0.37558172  0.62549830  0.12650436  1
  Fe  Fe66  1  0.50307532  0.00114010  0.24966919  1
  Fe  Fe67  1  0.75313508  0.75057173  0.24672432  1
  Fe  Fe68  1  0.87236007  0.87342659  0.62851495  1
  Fe  Fe69  1  0.75201435  0.50060288  0.25341639  1
  Fe  Fe70  1  0.62542895  0.87378425  0.37411916  1
  Fe  Fe71  1  0.37551079  0.87686518  0.62682013  1
  Fe  Fe72  1  0.00157027  -0.00094480  0.75432941  1
  Fe  Fe73  1  0.74730231  0.74418719  0.75316133  1
  Fe  Fe74  1  0.12723220  0.62819242  0.37812466  1
  Fe  Fe75  1  0.87265501  0.12295182  0.62589245  1
  Fe  Fe76  1  0.12556274  0.12474792  0.62687119  1
  Fe  Fe77  1  0.62620744  0.62609206  0.37681063  1
  Fe  Fe78  1  0.74626704  -0.00013170  0.75521005  1
  Fe  Fe79  1  0.37564569  0.12401671  0.12396858  1
  Fe  Fe80  1  0.37409931  0.37609571  0.62208665  1
  Fe  Fe81  1  0.24914187  -0.00125778  0.49854241  1
  Fe  Fe82  1  0.62876198  0.37948751  0.62379231  1
  Fe  Fe83  1  0.25059473  -0.00024437  0.24910204  1
  Fe  Fe84  1  0.62810868  0.62154671  0.62326745  1
  Fe  Fe85  1  0.75227705  0.50285004  -0.00468256  1
  Fe  Fe86  1  0.62312886  0.87399217  0.62891638  1
  Fe  Fe87  1  0.00212123  0.74790064  0.74958493  1
  Fe  Fe88  1  0.63012320  0.87607843  0.12289677  1
  Fe  Fe89  1  0.37676619  0.37777957  0.87515434  1
  Co  Co90  1  0.12358790  0.87106699  0.87791997  1
  Co  Co91  1  0.24955556  0.24857322  0.24958904  1
  Co  Co92  1  -0.00450742  0.24813872  0.24657691  1
  Co  Co93  1  0.12757726  0.62755491  0.62119971  1
  Co  Co94  1  0.49805313  0.50078815  0.74407323  1
  Co  Co95  1  0.75255630  0.00028933  0.25284802  1
  Co  Co96  1  0.87041027  0.12341218  0.11951411  1
  Co  Co97  1  0.74891964  0.74509015  -0.00103124  1
  Co  Co98  1  0.25211167  0.75628215  0.49757173  1
  Co  Co99  1  0.61927863  0.62040347  0.87534751  1
  Co  Co100  1  0.62382231  0.13063605  0.87305817  1
  Co  Co101  1  0.87478415  0.12510038  0.37894331  1
  Co  Co102  1  0.87280160  0.62625438  0.62399745  1
  Co  Co103  1  0.12490230  0.12744572  0.87551705  1
  Co  Co104  1  0.24617748  0.49357635  0.49821549  1
  Co  Co105  1  0.62307510  0.86945902  0.87252731  1
  Co  Co106  1  0.75030939  0.25040744  0.50233202  1
  Co  Co107  1  0.74701771  -0.00015253  -0.00702361  1
  Co  Co108  1  0.87444601  0.62221484  0.12581886  1
  Co  Co109  1  -0.00136762  0.74940693  0.24816571  1
  Co  Co110  1  0.87794868  0.62687186  0.87456941  1
  Co  Co111  1  0.49917333  0.49787326  0.00569213  1
  Co  Co112  1  0.37802729  0.87722428  0.37279377  1
  Co  Co113  1  0.12446042  0.62452801  0.87772356  1
  Co  Co114  1  0.75217077  0.50003321  0.49714107  1
  Co  Co115  1  0.74953772  0.75283221  0.50128510  1
  Co  Co116  1  0.12200351  0.37404588  0.62708615  1
  Co  Co117  1  0.24933783  -0.00121318  -0.00198015  1
  Co  Co118  1  0.62650702  0.37363738  0.37371145  1
  Co  Co119  1  -0.00023179  0.00087161  -0.00207372  1
  Co  Co120  1  0.87784810  0.37460368  0.87459895  1
  Co  Co121  1  0.50278069  0.24834786  0.24859505  1
  Co  Co122  1  0.75330797  0.50183099  0.75366138  1
  Co  Co123  1  0.50160565  0.00221257  0.75163177  1
  Co  Co124  1  0.37324791  0.62402450  0.37665744  1
  Co  Co125  1  0.50243793  0.49956423  0.49750306  1
  Co  Co126  1  0.87124760  0.87771389  0.12138796  1
  Co  Co127  1  0.49794786  0.74378914  0.74592174  1
