# generated using pymatgen
data_Fe45Co19
_symmetry_space_group_name_H-M   'P 1'
_cell_length_a   11.41496988
_cell_length_b   11.41444904
_cell_length_c   11.41502840
_cell_angle_alpha   89.98662620
_cell_angle_beta   89.99889532
_cell_angle_gamma   89.99505714
_symmetry_Int_Tables_number   1
_chemical_formula_structural   Fe45Co19
_chemical_formula_sum   'Fe90 Co38'
_cell_volume   1487.32783692
_cell_formula_units_Z   2
loop_
 _symmetry_equiv_pos_site_id
 _symmetry_equiv_pos_as_xyz
  1  'x, y, z'
loop_
 _atom_site_type_symbol
 _atom_site_label
 _atom_site_symmetry_multiplicity
 _atom_site_fract_x
 _atom_site_fract_y
 _atom_site_fract_z
 _atom_site_occupancy
  Fe  Fe0  1  0.12658037  0.37675294  0.37455116  1
  Fe  Fe1  1  0.12295725  0.87324588  0.87510366  1
  Fe  Fe2  1  0.37743542  0.62747791  0.62329739  1
  Fe  Fe3  1  0.49978009  -0.00188766  0.25039501  1
  Fe  Fe4  1  0.74784855  0.25207016  0.25024173  1
  Fe  Fe5  1  0.62354682  0.62166769  0.62453970  1
  Fe  Fe6  1  0.12473498  0.62328004  0.62599082  1
  Fe  Fe7  1  0.87209714  0.12502408  0.12565998  1
  Fe  Fe8  1  0.87533450  0.37419383  0.87565085  1
  Fe  Fe9  1  0.00078876  0.25198744  0.49961271  1
  Fe  Fe10  1  0.87231249  0.12919686  0.87376870  1
  Fe  Fe11  1  0.12637923  0.12040733  0.12701032  1
  Fe  Fe12  1  -0.00138678  0.74548198  -0.00198860  1
  Fe  Fe13  1  -0.00239590  0.74708265  0.75261703  1
  Fe  Fe14  1  0.62104062  0.37751562  0.61997012  1
  Fe  Fe15  1  0.37530414  0.37649609  0.87769881  1
  Fe  Fe16  1  0.00111033  0.25125764  0.24977209  1
  Fe  Fe17  1  0.24958358  0.24945570  0.00368105  1
  Fe  Fe18  1  0.87495169  0.87417998  0.62432727  1
  Fe  Fe19  1  -0.00528273  -0.00128755  0.25284455  1
  Fe  Fe20  1  0.50128648  0.25028188  0.25024314  1
  Fe  Fe21  1  0.37485876  0.12497964  0.37467835  1
  Fe  Fe22  1  0.87162474  0.37608590  0.37257685  1
  Fe  Fe23  1  0.62711631  0.62349220  0.37198325  1
  Fe  Fe24  1  0.74872219  0.74752157  0.50117834  1
  Fe  Fe25  1  0.50347797  0.50038242  0.24566687  1
  Fe  Fe26  1  0.37540575  0.87102468  0.37753356  1
  Fe  Fe27  1  0.74928114  0.49650406  0.00511357  1
  Fe  Fe28  1  0.12517732  0.12470838  0.37465608  1
  Fe  Fe29  1  0.74713360  0.25105710  0.49830550  1
  Fe  Fe30  1  0.62448411  0.12479184  0.62378306  1
  Fe  Fe31  1  -0.00371679  0.74979245  0.24914618  1
  Fe  Fe32  1  -0.00020655  0.25072454  0.00130953  1
  Fe  Fe33  1  0.24883048  -0.00326788  0.50167601  1
  Fe  Fe34  1  0.62801621  0.12361794  0.12579876  1
  Fe  Fe35  1  0.12286289  0.38057232  0.12564216  1
  Fe  Fe36  1  0.37341816  0.87716210  0.12438529  1
  Fe  Fe37  1  0.37679252  0.62868536  0.37423610  1
  Fe  Fe38  1  0.50198793  0.74941059  0.74932090  1
  Fe  Fe39  1  0.37786102  0.37640708  0.62321105  1
  Fe  Fe40  1  0.62516844  0.87677361  0.62525029  1
  Fe  Fe41  1  -0.00171073  0.00195215  0.75019235  1
  Fe  Fe42  1  0.12340888  0.87634575  0.12444349  1
  Fe  Fe43  1  0.37526431  0.62431042  0.87512615  1
  Fe  Fe44  1  0.87468692  0.62233956  0.62741388  1
  Fe  Fe45  1  0.63060214  0.87473131  0.12729204  1
  Fe  Fe46  1  0.12409405  0.12625552  0.62457773  1
  Fe  Fe47  1  0.87616609  0.37418612  0.62623812  1
  Fe  Fe48  1  0.24874281  0.74986435  0.00187910  1
  Fe  Fe49  1  0.75233224  0.00189789  0.49508665  1
  Fe  Fe50  1  0.62563723  0.87424103  0.87575530  1
  Fe  Fe51  1  0.37513231  0.62431738  0.12572245  1
  Fe  Fe52  1  0.62561163  0.62313043  0.87827377  1
  Fe  Fe53  1  -0.00283688  0.00065483  -0.00161626  1
  Fe  Fe54  1  0.12627239  0.12694057  0.87496064  1
  Fe  Fe55  1  0.87384194  0.12931573  0.62559218  1
  Fe  Fe56  1  0.37449621  0.12477368  0.87395436  1
  Fe  Fe57  1  -0.00258774  0.00088132  0.49840511  1
  Fe  Fe58  1  0.12584128  0.62457916  0.37241377  1
  Fe  Fe59  1  0.87168987  0.62331160  0.37420527  1
  Fe  Fe60  1  0.62629398  0.12684237  0.87656918  1
  Fe  Fe61  1  0.24922532  0.25092864  0.24836906  1
  Fe  Fe62  1  0.62241245  0.37535644  0.87906045  1
  Fe  Fe63  1  0.25183165  0.50181153  0.49840880  1
  Fe  Fe64  1  0.25023351  0.75310746  0.74595252  1
  Fe  Fe65  1  0.24934003  0.49794136  0.74996879  1
  Fe  Fe66  1  0.25094456  0.25117164  0.50064109  1
  Fe  Fe67  1  0.75421123  0.75085023  -0.00014494  1
  Fe  Fe68  1  0.00026885  0.74770185  0.50057911  1
  Fe  Fe69  1  0.24992848  -0.00331936  0.74901559  1
  Fe  Fe70  1  0.49795496  0.24906550  0.00228817  1
  Fe  Fe71  1  0.62871507  0.87299949  0.37122257  1
  Fe  Fe72  1  0.49957549  0.74983700  0.00199096  1
  Fe  Fe73  1  0.87643859  0.62015168  0.12507582  1
  Fe  Fe74  1  0.24778376  0.50192782  0.00187217  1
  Fe  Fe75  1  0.37689455  0.12364030  0.62618835  1
  Fe  Fe76  1  0.37786623  0.37492166  0.37330785  1
  Fe  Fe77  1  0.75035630  0.74922655  0.75063945  1
  Fe  Fe78  1  -0.00117948  0.49970632  0.49816926  1
  Fe  Fe79  1  0.37284432  0.12204046  0.12620132  1
  Fe  Fe80  1  0.24929857  0.75073201  0.24877782  1
  Fe  Fe81  1  0.24748596  0.25299360  0.74851732  1
  Fe  Fe82  1  0.37687367  0.87587414  0.87458102  1
  Fe  Fe83  1  0.12348427  0.87411309  0.37568051  1
  Fe  Fe84  1  0.50085676  -0.00076412  0.49859225  1
  Fe  Fe85  1  0.50194233  0.25145575  0.74921292  1
  Fe  Fe86  1  0.00323817  0.49822314  0.75443232  1
  Fe  Fe87  1  0.50140856  0.00005197  0.00003442  1
  Fe  Fe88  1  0.75015829  0.00059248  0.75249828  1
  Fe  Fe89  1  0.74710320  0.49659355  0.74936766  1
  Co  Co90  1  0.00177114  0.50258657  -0.00444618  1
  Co  Co91  1  0.12949907  0.62704669  0.87321624  1
  Co  Co92  1  0.86953922  0.62049980  0.87434510  1
  Co  Co93  1  0.75482216  0.74735811  0.24805875  1
  Co  Co94  1  0.75191472  0.25236502  0.00124763  1
  Co  Co95  1  0.50165417  0.00048667  0.75147876  1
  Co  Co96  1  0.87552940  0.13100486  0.37473320  1
  Co  Co97  1  0.50053400  0.50156341  0.00346834  1
  Co  Co98  1  0.74538837  0.25330307  0.74865330  1
  Co  Co99  1  0.25044917  -0.00239601  0.25309750  1
  Co  Co100  1  0.24681506  0.74970790  0.50150627  1
  Co  Co101  1  0.49787271  0.50338350  0.49735725  1
  Co  Co102  1  0.00261906  0.25200170  0.75084411  1
  Co  Co103  1  0.50607228  0.74940202  0.49985812  1
  Co  Co104  1  0.62267162  0.37082542  0.12321185  1
  Co  Co105  1  0.25233052  0.50069599  0.25094996  1
  Co  Co106  1  0.62695251  0.62956306  0.12266892  1
  Co  Co107  1  0.87354138  0.87049810  0.37801417  1
  Co  Co108  1  0.37958825  0.87387074  0.62292403  1
  Co  Co109  1  0.75505482  0.00086285  0.25362885  1
  Co  Co110  1  0.74682994  0.49836324  0.24529488  1
  Co  Co111  1  -0.00160471  0.50021196  0.25375411  1
  Co  Co112  1  0.49988540  0.75024456  0.24758492  1
  Co  Co113  1  0.87460357  0.87617510  0.12337202  1
  Co  Co114  1  0.50052838  0.50045299  0.75127518  1
  Co  Co115  1  0.24948361  -0.00053435  -0.00261249  1
  Co  Co116  1  0.12688871  0.37343189  0.87940378  1
  Co  Co117  1  0.11946993  0.87453907  0.62565414  1
  Co  Co118  1  0.62362214  0.12438773  0.37310327  1
  Co  Co119  1  0.62376580  0.37796766  0.37682743  1
  Co  Co120  1  0.75061642  -0.00056228  -0.00222305  1
  Co  Co121  1  0.12308879  0.62359652  0.12807842  1
  Co  Co122  1  0.12438078  0.37738298  0.62197673  1
  Co  Co123  1  0.87859801  0.37630778  0.12627910  1
  Co  Co124  1  0.49990330  0.24825562  0.49956739  1
  Co  Co125  1  0.75150087  0.50023272  0.50163936  1
  Co  Co126  1  0.37501510  0.37615012  0.12510364  1
  Co  Co127  1  0.87602654  0.87465754  0.87367958  1
