# generated using pymatgen
data_Fe45Co19
_symmetry_space_group_name_H-M   'P 1'
_cell_length_a   11.41522013
_cell_length_b   11.41540954
_cell_length_c   11.41469430
_cell_angle_alpha   89.99621139
_cell_angle_beta   89.99682083
_cell_angle_gamma   90.00658002
_symmetry_Int_Tables_number   1
_chemical_formula_structural   Fe45Co19
_chemical_formula_sum   'Fe90 Co38'
_cell_volume   1487.44209548
_cell_formula_units_Z   2
loop_
 _symmetry_equiv_pos_site_id
 _symmetry_equiv_pos_as_xyz
  1  'x, y, z'
loop_
 _atom_site_type_symbol
 _atom_site_label
 _atom_site_symmetry_multiplicity
 _atom_site_fract_x
 _atom_site_fract_y
 _atom_site_fract_z
 _atom_site_occupancy
  Fe  Fe0  1  0.24935392  0.24955965  0.74665919  1
  Fe  Fe1  1  0.49778144  0.24988716  -0.00052047  1
  Fe  Fe2  1  0.62735659  0.37449238  0.37925254  1
  Fe  Fe3  1  0.25018532  0.74527896  0.50046634  1
  Fe  Fe4  1  0.24707507  -0.00359929  0.24607634  1
  Fe  Fe5  1  0.62416102  0.62379882  0.87436402  1
  Fe  Fe6  1  0.75229902  0.24775179  0.50052383  1
  Fe  Fe7  1  0.75217898  0.50552685  0.50147376  1
  Fe  Fe8  1  0.37379145  0.12175207  0.87508680  1
  Fe  Fe9  1  0.62794096  0.87554320  0.87476345  1
  Fe  Fe10  1  0.62172842  0.12563136  0.12543679  1
  Fe  Fe11  1  0.11975119  0.12239038  0.62622830  1
  Fe  Fe12  1  0.74822799  0.75008681  0.24986589  1
  Fe  Fe13  1  0.49711681  0.25142157  0.50122489  1
  Fe  Fe14  1  0.87235845  0.87663620  0.87454036  1
  Fe  Fe15  1  0.25082009  0.50426833  0.00221853  1
  Fe  Fe16  1  0.62321775  0.62607925  0.37545673  1
  Fe  Fe17  1  0.50138690  -0.00399917  0.74799833  1
  Fe  Fe18  1  0.36784701  0.37527070  0.37999648  1
  Fe  Fe19  1  -0.00134779  0.74783408  -0.00112712  1
  Fe  Fe20  1  0.49965926  0.25368058  0.25171817  1
  Fe  Fe21  1  0.49883995  0.75202338  0.50028738  1
  Fe  Fe22  1  0.25020331  0.74750161  0.00307294  1
  Fe  Fe23  1  0.37465240  0.12464278  0.37158335  1
  Fe  Fe24  1  -0.00327568  0.74943314  0.49561137  1
  Fe  Fe25  1  0.75215841  0.24746016  0.74836496  1
  Fe  Fe26  1  0.87631807  0.37640962  0.12475146  1
  Fe  Fe27  1  0.87592514  0.87510499  0.12442643  1
  Fe  Fe28  1  0.00227226  0.25520518  0.25352826  1
  Fe  Fe29  1  0.50190168  0.75397846  0.74773340  1
  Fe  Fe30  1  0.50182775  -0.00365603  0.24907413  1
  Fe  Fe31  1  0.37205074  0.37546711  0.87463002  1
  Fe  Fe32  1  0.00335811  0.00281222  -0.00275981  1
  Fe  Fe33  1  0.62405963  0.12469007  0.87521625  1
  Fe  Fe34  1  0.12547679  0.12409114  0.37390551  1
  Fe  Fe35  1  0.37582218  0.37864205  0.12413468  1
  Fe  Fe36  1  0.12769189  0.37633630  0.62011633  1
  Fe  Fe37  1  0.49922558  0.25351561  0.74811016  1
  Fe  Fe38  1  0.87227355  0.87452494  0.62566180  1
  Fe  Fe39  1  0.00234393  0.75501451  0.25420462  1
  Fe  Fe40  1  -0.00024863  0.75298842  0.75104751  1
  Fe  Fe41  1  0.50053039  0.49627750  0.74791115  1
  Fe  Fe42  1  0.62806743  0.87387860  0.37765731  1
  Fe  Fe43  1  0.74904495  0.00168170  0.00117292  1
  Fe  Fe44  1  0.50066183  0.74916580  0.00109983  1
  Fe  Fe45  1  0.49748927  0.49889814  0.50064721  1
  Fe  Fe46  1  0.24953130  0.24461321  0.00342972  1
  Fe  Fe47  1  0.75028934  0.25097976  0.25032676  1
  Fe  Fe48  1  0.12413341  0.62504517  0.87233836  1
  Fe  Fe49  1  0.00005561  0.50131818  -0.00072703  1
  Fe  Fe50  1  0.74964318  0.50242780  0.74663943  1
  Fe  Fe51  1  0.00079839  0.24749280  -0.00213771  1
  Fe  Fe52  1  0.12711827  0.37503339  0.87712821  1
  Fe  Fe53  1  0.37188953  0.87480474  0.37563412  1
  Fe  Fe54  1  0.62323666  0.12535500  0.37569613  1
  Fe  Fe55  1  0.87775088  0.62390610  0.13002081  1
  Fe  Fe56  1  0.12656114  0.87563428  0.87765097  1
  Fe  Fe57  1  0.37619848  0.62579243  0.87341950  1
  Fe  Fe58  1  0.24880578  0.75035979  0.74900043  1
  Fe  Fe59  1  0.12441117  0.62610456  0.12902779  1
  Fe  Fe60  1  0.24748152  0.25266297  0.24816500  1
  Fe  Fe61  1  0.49905294  -0.00226425  0.50147146  1
  Fe  Fe62  1  0.24776554  0.50179073  0.74697214  1
  Fe  Fe63  1  0.62408570  0.12545036  0.62455858  1
  Fe  Fe64  1  0.37647061  0.87496366  0.12225002  1
  Fe  Fe65  1  0.87633393  0.62281888  0.87090580  1
  Fe  Fe66  1  0.37759171  0.62585733  0.62765567  1
  Fe  Fe67  1  0.12433093  0.87386761  0.62109420  1
  Fe  Fe68  1  0.25004780  0.00320485  0.50115801  1
  Fe  Fe69  1  0.87599115  0.12442723  0.37364077  1
  Fe  Fe70  1  0.74876382  0.49879991  0.25061564  1
  Fe  Fe71  1  0.37317986  0.87658173  0.87747886  1
  Fe  Fe72  1  0.75206394  0.00209890  0.50101175  1
  Fe  Fe73  1  0.87571425  0.37660344  0.62292017  1
  Fe  Fe74  1  0.87869393  0.12477708  0.12660922  1
  Fe  Fe75  1  0.24823332  -0.00210012  0.74848893  1
  Fe  Fe76  1  0.62371441  0.37762684  0.12273958  1
  Fe  Fe77  1  0.37698363  0.12400698  0.62724409  1
  Fe  Fe78  1  0.00172979  -0.00467954  0.25384087  1
  Fe  Fe79  1  0.74888556  0.00044260  0.24881814  1
  Fe  Fe80  1  0.37253754  0.62556820  0.36754889  1
  Fe  Fe81  1  -0.00084667  0.25086820  0.75137674  1
  Fe  Fe82  1  0.87374952  0.37726517  0.87585405  1
  Fe  Fe83  1  0.62009523  0.62269491  0.12652713  1
  Fe  Fe84  1  -0.00001316  0.24900618  0.49797709  1
  Fe  Fe85  1  0.75140342  0.74586227  0.00083624  1
  Fe  Fe86  1  0.75153176  0.24923539  0.00127046  1
  Fe  Fe87  1  0.00563481  0.49494296  0.25447974  1
  Fe  Fe88  1  0.00139368  0.50464870  0.49731066  1
  Fe  Fe89  1  0.62733604  0.37621725  0.87601139  1
  Co  Co90  1  -0.00194104  -0.00279154  0.49741438  1
  Co  Co91  1  0.87963191  0.62627454  0.62852641  1
  Co  Co92  1  0.12350103  0.37472596  0.11980408  1
  Co  Co93  1  0.49811416  0.50028321  -0.00307715  1
  Co  Co94  1  0.75005144  0.00355468  0.74864176  1
  Co  Co95  1  0.87293866  0.37643531  0.37711329  1
  Co  Co96  1  0.12760758  0.62733363  0.37009727  1
  Co  Co97  1  0.74952664  0.74669778  0.75053519  1
  Co  Co98  1  0.86967072  0.87474172  0.37449675  1
  Co  Co99  1  0.75159724  0.50375877  0.00162561  1
  Co  Co100  1  0.62774396  0.37471009  0.62282258  1
  Co  Co101  1  0.12084709  0.87348302  0.12069029  1
  Co  Co102  1  0.63034804  0.87321826  0.62298807  1
  Co  Co103  1  0.25039626  0.24168072  0.50275858  1
  Co  Co104  1  0.12989581  0.87399241  0.38030132  1
  Co  Co105  1  0.37734890  0.12364724  0.12805968  1
  Co  Co106  1  0.13102068  0.37504397  0.38321583  1
  Co  Co107  1  0.87847164  0.12397940  0.62440930  1
  Co  Co108  1  -0.00036284  -0.00214495  0.75145331  1
  Co  Co109  1  0.37153651  0.87378753  0.62370915  1
  Co  Co110  1  0.12792097  0.12521925  0.87203099  1
  Co  Co111  1  0.24723978  0.00285214  0.00349894  1
  Co  Co112  1  0.37041654  0.37618440  0.62251807  1
  Co  Co113  1  0.50127151  0.75431109  0.25074439  1
  Co  Co114  1  0.49976273  0.49530912  0.25469590  1
  Co  Co115  1  0.12105503  0.12531724  0.12897167  1
  Co  Co116  1  0.75389538  0.74486637  0.49954715  1
  Co  Co117  1  0.24967235  0.50915024  0.50235583  1
  Co  Co118  1  0.24921650  0.75504138  0.24585517  1
  Co  Co119  1  0.00282065  0.49604008  0.74974936  1
  Co  Co120  1  0.87624176  0.62421678  0.36954236  1
  Co  Co121  1  0.87496167  0.12346443  0.87572444  1
  Co  Co122  1  0.62711299  0.87356037  0.12336514  1
  Co  Co123  1  0.12051122  0.62813295  0.62653891  1
  Co  Co124  1  0.37817272  0.62402377  0.13009385  1
  Co  Co125  1  0.50125291  -0.00030630  0.00065912  1
  Co  Co126  1  0.24705505  0.49586467  0.24836336  1
  Co  Co127  1  0.62155545  0.62684751  0.62298845  1
