# generated using pymatgen
data_Fe45Co19
_symmetry_space_group_name_H-M   'P 1'
_cell_length_a   11.41541769
_cell_length_b   11.41619803
_cell_length_c   11.41745863
_cell_angle_alpha   89.99609316
_cell_angle_beta   90.00685853
_cell_angle_gamma   89.99002389
_symmetry_Int_Tables_number   1
_chemical_formula_structural   Fe45Co19
_chemical_formula_sum   'Fe90 Co38'
_cell_volume   1487.93080993
_cell_formula_units_Z   2
loop_
 _symmetry_equiv_pos_site_id
 _symmetry_equiv_pos_as_xyz
  1  'x, y, z'
loop_
 _atom_site_type_symbol
 _atom_site_label
 _atom_site_symmetry_multiplicity
 _atom_site_fract_x
 _atom_site_fract_y
 _atom_site_fract_z
 _atom_site_occupancy
  Fe  Fe0  1  -0.00307588  0.50067145  -0.00003596  1
  Fe  Fe1  1  0.12513413  0.87451948  0.12679625  1
  Fe  Fe2  1  0.75279275  0.00060161  -0.00036557  1
  Fe  Fe3  1  0.75176584  0.50050574  0.24805353  1
  Fe  Fe4  1  0.75164142  0.49940451  0.50101370  1
  Fe  Fe5  1  0.25270151  0.49909335  0.49919375  1
  Fe  Fe6  1  0.25016344  0.74721529  -0.00088601  1
  Fe  Fe7  1  0.62284026  0.62421115  0.62179432  1
  Fe  Fe8  1  0.87673459  0.37121285  0.62806094  1
  Fe  Fe9  1  0.12574335  0.87680926  0.62704654  1
  Fe  Fe10  1  0.12591865  0.37421714  0.87479583  1
  Fe  Fe11  1  0.12700987  0.12361269  0.62456657  1
  Fe  Fe12  1  0.87612868  0.36989239  0.87306423  1
  Fe  Fe13  1  0.87562264  0.87548717  0.62536525  1
  Fe  Fe14  1  0.75367158  -0.00055556  0.49752017  1
  Fe  Fe15  1  -0.00235810  0.00071618  0.49807244  1
  Fe  Fe16  1  0.75212844  -0.00425768  0.25043515  1
  Fe  Fe17  1  0.37315634  0.12481363  0.37526845  1
  Fe  Fe18  1  0.37485630  0.37323284  0.62528513  1
  Fe  Fe19  1  0.12458787  0.62340698  0.62574222  1
  Fe  Fe20  1  -0.00018521  -0.00139702  0.00230854  1
  Fe  Fe21  1  0.87620031  0.87245377  0.87607109  1
  Fe  Fe22  1  0.24859510  0.25144654  0.24787209  1
  Fe  Fe23  1  0.37135537  0.12462424  0.12249118  1
  Fe  Fe24  1  0.49769807  0.00049393  -0.00138715  1
  Fe  Fe25  1  0.62528177  0.37330025  0.87481714  1
  Fe  Fe26  1  -0.00281611  0.49992365  0.50069196  1
  Fe  Fe27  1  0.75275459  0.00474454  0.75272049  1
  Fe  Fe28  1  0.37226355  0.87626729  0.62580951  1
  Fe  Fe29  1  0.12593177  0.62156286  0.12435880  1
  Fe  Fe30  1  0.62750918  0.37533388  0.12341116  1
  Fe  Fe31  1  0.50078079  0.74818457  0.00126833  1
  Fe  Fe32  1  0.87352757  0.62899230  0.37150501  1
  Fe  Fe33  1  0.62563811  0.87647842  0.87611012  1
  Fe  Fe34  1  0.12970072  0.12512044  0.87794860  1
  Fe  Fe35  1  -0.00144067  0.24894647  0.49840036  1
  Fe  Fe36  1  0.37699111  0.87502878  0.37366474  1
  Fe  Fe37  1  0.62634856  0.12344302  0.37266764  1
  Fe  Fe38  1  0.25026404  0.50072456  0.75164573  1
  Fe  Fe39  1  0.87715403  0.86768578  0.12857141  1
  Fe  Fe40  1  0.87282896  0.12929591  0.12591971  1
  Fe  Fe41  1  -0.00078422  0.74921319  0.75017744  1
  Fe  Fe42  1  -0.00239536  0.49927166  0.24878160  1
  Fe  Fe43  1  0.00255982  0.25119684  0.00249771  1
  Fe  Fe44  1  0.49691366  0.50216837  0.00001290  1
  Fe  Fe45  1  0.74881708  0.74951588  0.75015929  1
  Fe  Fe46  1  0.37239018  0.87363220  0.87374519  1
  Fe  Fe47  1  0.12283755  0.87892667  0.37232354  1
  Fe  Fe48  1  0.00084064  0.75066766  0.49914700  1
  Fe  Fe49  1  0.49916002  0.00046576  0.24766353  1
  Fe  Fe50  1  0.12427403  0.37608728  0.37426763  1
  Fe  Fe51  1  0.24821366  0.74827659  0.25180324  1
  Fe  Fe52  1  0.62592242  0.87822777  0.62540005  1
  Fe  Fe53  1  0.12475361  0.12268217  0.37182019  1
  Fe  Fe54  1  0.62558782  0.37749738  0.37509617  1
  Fe  Fe55  1  0.75138152  0.24951808  0.49783845  1
  Fe  Fe56  1  0.24885422  0.25016832  0.49960907  1
  Fe  Fe57  1  0.50856587  0.74943341  0.24855084  1
  Fe  Fe58  1  0.62538699  0.37311460  0.62628039  1
  Fe  Fe59  1  0.75149120  0.50040570  0.75076094  1
  Fe  Fe60  1  0.74909536  0.74860212  0.00236622  1
  Fe  Fe61  1  0.37899531  0.62633225  0.37539669  1
  Fe  Fe62  1  0.49726707  0.24604184  0.75182368  1
  Fe  Fe63  1  0.12343517  0.37563609  0.62659559  1
  Fe  Fe64  1  0.37465925  0.37401796  0.37344595  1
  Fe  Fe65  1  0.37063856  0.37869341  0.12492568  1
  Fe  Fe66  1  0.50046843  0.49988816  0.75011947  1
  Fe  Fe67  1  0.37606387  0.62555399  0.62448611  1
  Fe  Fe68  1  0.62555991  0.12498315  0.62555014  1
  Fe  Fe69  1  0.50093048  0.25021444  0.24797825  1
  Fe  Fe70  1  0.50109109  0.25052202  0.49849974  1
  Fe  Fe71  1  0.12736335  0.12319087  0.12600821  1
  Fe  Fe72  1  0.62527926  0.62467628  0.87627038  1
  Fe  Fe73  1  0.62777426  0.12419572  0.12455204  1
  Fe  Fe74  1  0.37230127  0.37370086  0.87662395  1
  Fe  Fe75  1  0.75445541  0.50047690  -0.00039288  1
  Fe  Fe76  1  0.12489842  0.62207051  0.37689761  1
  Fe  Fe77  1  0.50125574  0.75056813  0.74883602  1
  Fe  Fe78  1  -0.00173182  0.00354209  0.75208241  1
  Fe  Fe79  1  -0.00142273  0.25218792  0.24937782  1
  Fe  Fe80  1  0.12307702  0.62511700  0.87366266  1
  Fe  Fe81  1  0.49840606  0.00026638  0.50075733  1
  Fe  Fe82  1  0.50043131  0.24936235  0.00097464  1
  Fe  Fe83  1  0.74721237  0.75224422  0.49629506  1
  Fe  Fe84  1  0.24928815  0.75213054  0.49972716  1
  Fe  Fe85  1  0.50003206  0.50034550  0.24941185  1
  Fe  Fe86  1  0.12624248  0.87488218  0.87334665  1
  Fe  Fe87  1  0.49638694  0.00361191  0.75221148  1
  Fe  Fe88  1  0.87561280  0.62643597  0.62640834  1
  Fe  Fe89  1  0.37486436  0.87223560  0.12594525  1
  Co  Co90  1  -0.00288748  0.00081067  0.24602419  1
  Co  Co91  1  0.25081671  0.50334032  -0.00273779  1
  Co  Co92  1  0.00640764  0.74707426  0.25115492  1
  Co  Co93  1  0.24899573  -0.00171028  0.49794297  1
  Co  Co94  1  0.37490815  0.62604096  0.12794762  1
  Co  Co95  1  0.62249294  0.87959813  0.37674199  1
  Co  Co96  1  0.36990860  0.12703135  0.88042791  1
  Co  Co97  1  0.00288725  0.24570488  0.75047023  1
  Co  Co98  1  0.87808213  0.87098311  0.37143565  1
  Co  Co99  1  0.25177171  0.00343079  0.75073897  1
  Co  Co100  1  0.74105739  0.75145051  0.25069774  1
  Co  Co101  1  0.12587811  0.38057446  0.12587606  1
  Co  Co102  1  0.24936595  -0.00492904  0.00186431  1
  Co  Co103  1  0.25073422  0.24890863  0.74878313  1
  Co  Co104  1  0.87778664  0.12808576  0.87906285  1
  Co  Co105  1  0.37704259  0.62635108  0.87309066  1
  Co  Co106  1  0.25055419  0.50090420  0.25295029  1
  Co  Co107  1  0.62437798  0.87919855  0.12076320  1
  Co  Co108  1  0.50111593  0.75318883  0.50170064  1
  Co  Co109  1  0.62372017  0.62072058  0.37790251  1
  Co  Co110  1  0.25222136  -0.00073652  0.24897078  1
  Co  Co111  1  -0.00194349  0.50069160  0.75145503  1
  Co  Co112  1  0.62345383  0.12389283  0.87725900  1
  Co  Co113  1  0.74946670  0.24623071  0.75196900  1
  Co  Co114  1  0.74732618  0.24960397  -0.00236913  1
  Co  Co115  1  0.24896779  0.74802124  0.74915268  1
  Co  Co116  1  0.87577601  0.37580990  0.37508342  1
  Co  Co117  1  0.00286229  0.74973804  -0.00020502  1
  Co  Co118  1  0.24807367  0.25330365  0.00439044  1
  Co  Co119  1  0.37322307  0.12549998  0.62114290  1
  Co  Co120  1  0.62570405  0.62104404  0.12217977  1
  Co  Co121  1  0.87478056  0.12504751  0.37229506  1
  Co  Co122  1  0.87383361  0.37193494  0.12345088  1
  Co  Co123  1  0.87496185  0.62825199  0.87499121  1
  Co  Co124  1  0.49796535  0.49636896  0.50057140  1
  Co  Co125  1  0.87576388  0.62964114  0.12763652  1
  Co  Co126  1  0.87566761  0.12619419  0.62345280  1
  Co  Co127  1  0.74863193  0.25304351  0.25196321  1
