# generated using pymatgen
data_Fe45Co19
_symmetry_space_group_name_H-M   'P 1'
_cell_length_a   11.41575046
_cell_length_b   11.41572772
_cell_length_c   11.41371810
_cell_angle_alpha   89.99387854
_cell_angle_beta   90.00732411
_cell_angle_gamma   89.99853914
_symmetry_Int_Tables_number   1
_chemical_formula_structural   Fe45Co19
_chemical_formula_sum   'Fe90 Co38'
_cell_volume   1487.42543701
_cell_formula_units_Z   2
loop_
 _symmetry_equiv_pos_site_id
 _symmetry_equiv_pos_as_xyz
  1  'x, y, z'
loop_
 _atom_site_type_symbol
 _atom_site_label
 _atom_site_symmetry_multiplicity
 _atom_site_fract_x
 _atom_site_fract_y
 _atom_site_fract_z
 _atom_site_occupancy
  Fe  Fe0  1  0.62719112  0.12814451  0.12348728  1
  Fe  Fe1  1  -0.00050582  -0.00053507  0.74837970  1
  Fe  Fe2  1  0.62366663  0.87465733  0.12199209  1
  Fe  Fe3  1  0.37525796  0.62473813  0.12285307  1
  Fe  Fe4  1  0.24914540  0.49800021  0.50312078  1
  Fe  Fe5  1  0.74785180  0.74918453  0.25072647  1
  Fe  Fe6  1  0.24920225  0.49751797  0.74837539  1
  Fe  Fe7  1  0.62318989  0.37017777  0.11772270  1
  Fe  Fe8  1  0.74839823  0.49443983  0.75350173  1
  Fe  Fe9  1  0.62351936  0.37499941  0.37681711  1
  Fe  Fe10  1  0.12729093  0.62484367  0.87626697  1
  Fe  Fe11  1  0.75104056  0.75591472  0.75077722  1
  Fe  Fe12  1  -0.00065118  0.00035125  0.25045456  1
  Fe  Fe13  1  0.50154443  0.00054396  0.50238198  1
  Fe  Fe14  1  0.50283506  0.50216255  0.50267116  1
  Fe  Fe15  1  0.11936452  0.37630168  0.87220478  1
  Fe  Fe16  1  0.25118944  0.25129587  -0.00220739  1
  Fe  Fe17  1  0.62741010  0.62700607  0.62824084  1
  Fe  Fe18  1  0.50181271  0.74887478  0.50104121  1
  Fe  Fe19  1  0.50225177  0.24924976  0.75164094  1
  Fe  Fe20  1  0.37772717  0.37441641  0.62479874  1
  Fe  Fe21  1  0.87500560  0.87111048  0.12283363  1
  Fe  Fe22  1  0.37568534  0.62341903  0.37599416  1
  Fe  Fe23  1  -0.00193206  0.25090933  0.25236503  1
  Fe  Fe24  1  0.37809300  0.87514569  0.12466696  1
  Fe  Fe25  1  0.50113467  0.75413883  0.75106678  1
  Fe  Fe26  1  -0.00183763  0.24855288  -0.00124372  1
  Fe  Fe27  1  0.37689190  0.62466954  0.87343253  1
  Fe  Fe28  1  -0.00212666  0.74648005  0.49905033  1
  Fe  Fe29  1  0.12560202  0.12665400  0.37669918  1
  Fe  Fe30  1  0.12470869  0.12425734  0.87453462  1
  Fe  Fe31  1  0.62704284  0.88040599  0.87696385  1
  Fe  Fe32  1  0.37886902  0.37506630  0.87546137  1
  Fe  Fe33  1  0.12398565  0.87376990  0.37625057  1
  Fe  Fe34  1  0.12635385  0.62472166  0.37438714  1
  Fe  Fe35  1  0.12542956  0.12679778  0.12606889  1
  Fe  Fe36  1  0.87517447  0.12516902  0.62509547  1
  Fe  Fe37  1  0.50149237  0.49912949  0.24726523  1
  Fe  Fe38  1  0.87165479  0.62353767  0.37247122  1
  Fe  Fe39  1  0.87188673  0.12450805  0.37453216  1
  Fe  Fe40  1  0.75127514  -0.00298254  0.50340367  1
  Fe  Fe41  1  0.49843371  0.24760373  0.49793989  1
  Fe  Fe42  1  0.12444061  0.62418176  0.62587210  1
  Fe  Fe43  1  0.37416332  0.12606322  0.12702615  1
  Fe  Fe44  1  -0.00182472  0.74890489  0.75288114  1
  Fe  Fe45  1  0.49991108  0.24887462  0.25401264  1
  Fe  Fe46  1  -0.00096924  0.50491946  0.00219366  1
  Fe  Fe47  1  0.50126935  0.74831248  0.25135181  1
  Fe  Fe48  1  0.50231888  0.00221580  0.25142482  1
  Fe  Fe49  1  0.12196962  0.87316334  0.62349466  1
  Fe  Fe50  1  0.87312366  0.12800417  0.12725514  1
  Fe  Fe51  1  0.24924564  -0.00079353  0.50224477  1
  Fe  Fe52  1  0.37538841  0.88008319  0.87227487  1
  Fe  Fe53  1  -0.00231475  0.00052303  0.00214112  1
  Fe  Fe54  1  0.75216689  0.25358122  0.50065110  1
  Fe  Fe55  1  0.87260399  0.62432799  0.62569655  1
  Fe  Fe56  1  0.62599142  0.62725828  0.11962325  1
  Fe  Fe57  1  0.62819899  0.12234601  0.87484135  1
  Fe  Fe58  1  0.00046101  0.74634568  0.24690374  1
  Fe  Fe59  1  0.62773671  0.12638039  0.62572457  1
  Fe  Fe60  1  0.12266001  0.87527863  0.87677304  1
  Fe  Fe61  1  0.25171071  0.49755628  0.24946171  1
  Fe  Fe62  1  0.74879911  0.49990816  0.50207746  1
  Fe  Fe63  1  0.87476833  0.87378396  0.37616810  1
  Fe  Fe64  1  0.87324529  0.12104172  0.87329853  1
  Fe  Fe65  1  0.37409544  0.12293045  0.62740390  1
  Fe  Fe66  1  0.25201829  0.49753713  -0.00026067  1
  Fe  Fe67  1  0.12430819  0.37357740  0.37914146  1
  Fe  Fe68  1  0.25072194  0.74983761  0.25006132  1
  Fe  Fe69  1  0.37339104  0.12145068  0.87095485  1
  Fe  Fe70  1  0.62625590  0.87503825  0.37748075  1
  Fe  Fe71  1  0.24733461  0.25288703  0.74839665  1
  Fe  Fe72  1  0.37555393  0.62670076  0.62652751  1
  Fe  Fe73  1  0.00033409  0.50120464  0.24769754  1
  Fe  Fe74  1  0.12518773  0.37423247  0.12423873  1
  Fe  Fe75  1  0.87295222  0.37476147  0.12224542  1
  Fe  Fe76  1  0.87095467  0.62570959  0.87770997  1
  Fe  Fe77  1  0.25342203  0.25236613  0.25317648  1
  Fe  Fe78  1  0.87425336  0.37733092  0.37497605  1
  Fe  Fe79  1  0.12315239  0.12850666  0.62321872  1
  Fe  Fe80  1  0.24879060  -0.00109857  0.24994211  1
  Fe  Fe81  1  0.75260188  0.25512658  0.75256324  1
  Fe  Fe82  1  0.25081346  0.00078070  0.00096905  1
  Fe  Fe83  1  0.37503474  0.87528805  0.37713357  1
  Fe  Fe84  1  0.25031810  0.75215693  0.74877937  1
  Fe  Fe85  1  0.12365003  0.87302468  0.12314580  1
  Fe  Fe86  1  0.74941129  -0.00050222  0.24836811  1
  Fe  Fe87  1  0.25222348  0.75108402  -0.00089620  1
  Fe  Fe88  1  0.50365225  0.49872445  0.75073778  1
  Fe  Fe89  1  0.74621363  0.49849287  0.24676846  1
  Co  Co90  1  0.86973863  0.62536080  0.12493326  1
  Co  Co91  1  0.11777583  0.37539696  0.62652185  1
  Co  Co92  1  0.37496126  0.87569555  0.62508537  1
  Co  Co93  1  0.49672383  0.24365180  -0.00316170  1
  Co  Co94  1  0.50388941  -0.00019346  0.74759986  1
  Co  Co95  1  0.62599828  0.62633211  0.87209762  1
  Co  Co96  1  0.87856242  0.87321741  0.62381283  1
  Co  Co97  1  -0.00164929  0.50576020  0.75137462  1
  Co  Co98  1  0.62937325  0.12415809  0.37715102  1
  Co  Co99  1  0.37823559  0.37839297  0.37722620  1
  Co  Co100  1  0.62127833  0.37249676  0.87989581  1
  Co  Co101  1  0.24997167  0.74895110  0.50135009  1
  Co  Co102  1  -0.00410477  0.25046083  0.49869063  1
  Co  Co103  1  0.88062029  0.37747767  0.87589309  1
  Co  Co104  1  0.62532605  0.62357228  0.37518871  1
  Co  Co105  1  0.74794076  0.75195006  -0.00280250  1
  Co  Co106  1  -0.00076360  0.74594994  0.00023269  1
  Co  Co107  1  0.50110724  0.50317088  -0.00123636  1
  Co  Co108  1  0.74843293  0.25257751  0.25166716  1
  Co  Co109  1  0.37324613  0.12157956  0.37523522  1
  Co  Co110  1  0.25262582  0.25188979  0.50273219  1
  Co  Co111  1  0.62404246  0.37272690  0.62459682  1
  Co  Co112  1  0.37808169  0.37299145  0.12370055  1
  Co  Co113  1  -0.00084321  0.50260493  0.49867425  1
  Co  Co114  1  0.75350197  0.24976955  -0.00527174  1
  Co  Co115  1  0.49969868  0.75107729  -0.00451420  1
  Co  Co116  1  0.49961781  0.00322710  0.00043004  1
  Co  Co117  1  0.24499274  -0.00119190  0.74727194  1
  Co  Co118  1  -0.00228380  0.24708138  0.75061278  1
  Co  Co119  1  0.62551897  0.87313662  0.62319850  1
  Co  Co120  1  0.75099288  -0.00281490  0.74561700  1
  Co  Co121  1  0.74737226  0.49823846  -0.00324322  1
  Co  Co122  1  -0.00082871  0.00133881  0.49883930  1
  Co  Co123  1  0.87594957  0.87729893  0.87669235  1
  Co  Co124  1  0.75165927  0.00106831  0.00418045  1
  Co  Co125  1  0.75048977  0.74832377  0.49974875  1
  Co  Co126  1  0.87990216  0.37784902  0.62726399  1
  Co  Co127  1  0.12958047  0.62466650  0.12435621  1
