# generated using pymatgen
data_Fe45Co19
_symmetry_space_group_name_H-M   'P 1'
_cell_length_a   11.41444465
_cell_length_b   11.41557541
_cell_length_c   11.41486189
_cell_angle_alpha   89.99328203
_cell_angle_beta   89.99347267
_cell_angle_gamma   90.00472187
_symmetry_Int_Tables_number   1
_chemical_formula_structural   Fe45Co19
_chemical_formula_sum   'Fe90 Co38'
_cell_volume   1487.38448763
_cell_formula_units_Z   2
loop_
 _symmetry_equiv_pos_site_id
 _symmetry_equiv_pos_as_xyz
  1  'x, y, z'
loop_
 _atom_site_type_symbol
 _atom_site_label
 _atom_site_symmetry_multiplicity
 _atom_site_fract_x
 _atom_site_fract_y
 _atom_site_fract_z
 _atom_site_occupancy
  Fe  Fe0  1  0.00197776  0.49963399  0.75256828  1
  Fe  Fe1  1  0.87580874  0.62417029  0.62712056  1
  Fe  Fe2  1  0.49886334  0.49941792  0.00556003  1
  Fe  Fe3  1  0.00054009  0.50161559  0.24707594  1
  Fe  Fe4  1  0.25248850  0.25286938  -0.00202532  1
  Fe  Fe5  1  0.87631598  0.12275342  0.37606040  1
  Fe  Fe6  1  0.50013073  0.49969577  0.49975255  1
  Fe  Fe7  1  0.50271835  0.00183850  0.49889166  1
  Fe  Fe8  1  0.49901046  -0.00194241  0.24677813  1
  Fe  Fe9  1  0.62602136  0.12506588  0.12600000  1
  Fe  Fe10  1  0.37646695  0.12432334  0.37368813  1
  Fe  Fe11  1  0.25237512  0.74710631  0.49849651  1
  Fe  Fe12  1  0.49964290  0.49875526  0.74960003  1
  Fe  Fe13  1  0.12729336  0.12508033  0.12539677  1
  Fe  Fe14  1  -0.00461730  0.75029723  -0.00299395  1
  Fe  Fe15  1  0.74892356  -0.00138958  0.00011476  1
  Fe  Fe16  1  0.74916889  0.25093218  0.75185889  1
  Fe  Fe17  1  0.62655659  0.87105226  0.37463580  1
  Fe  Fe18  1  -0.00296058  0.74948847  0.24718690  1
  Fe  Fe19  1  0.75177399  0.74987745  0.75187752  1
  Fe  Fe20  1  0.87438304  0.12364855  0.87597378  1
  Fe  Fe21  1  0.37498289  0.12327591  0.87661668  1
  Fe  Fe22  1  0.37496134  0.37687775  0.37268048  1
  Fe  Fe23  1  0.62308440  0.37387576  0.87722490  1
  Fe  Fe24  1  0.12837777  0.12692414  0.62616792  1
  Fe  Fe25  1  0.87677380  0.37662978  0.37349712  1
  Fe  Fe26  1  0.62300166  0.12746982  0.62467399  1
  Fe  Fe27  1  -0.00161404  0.25064604  0.74930307  1
  Fe  Fe28  1  0.24992769  0.49483627  0.75571652  1
  Fe  Fe29  1  0.87441118  0.12280166  0.12494658  1
  Fe  Fe30  1  0.49950215  0.00052599  0.75038808  1
  Fe  Fe31  1  0.62784904  0.87175788  0.12573741  1
  Fe  Fe32  1  0.37380186  0.62301120  0.87827324  1
  Fe  Fe33  1  0.00186593  0.50038759  0.50120020  1
  Fe  Fe34  1  0.25000246  0.24901035  0.25058937  1
  Fe  Fe35  1  0.62397578  0.87330424  0.87622348  1
  Fe  Fe36  1  0.37418385  0.13023318  0.62540125  1
  Fe  Fe37  1  0.12589675  0.12719099  0.87306674  1
  Fe  Fe38  1  0.87416258  0.37548461  0.87763694  1
  Fe  Fe39  1  0.49869499  0.24920606  0.00318958  1
  Fe  Fe40  1  0.37411583  0.62303212  0.62727637  1
  Fe  Fe41  1  0.87405257  0.87466445  0.37781866  1
  Fe  Fe42  1  0.12702936  0.87346512  0.62552583  1
  Fe  Fe43  1  0.12391218  0.12442152  0.37471602  1
  Fe  Fe44  1  0.00123627  -0.00097138  0.24975597  1
  Fe  Fe45  1  0.12720298  0.62564091  0.62892594  1
  Fe  Fe46  1  0.75350480  0.24982779  0.24938436  1
  Fe  Fe47  1  0.12887446  0.62563322  0.12031875  1
  Fe  Fe48  1  0.00141804  -0.00049732  0.00018890  1
  Fe  Fe49  1  0.12719454  0.87512416  0.12431663  1
  Fe  Fe50  1  0.75046961  -0.00157085  0.25078178  1
  Fe  Fe51  1  0.74855168  0.50455772  0.49790077  1
  Fe  Fe52  1  0.37506746  0.87913967  0.87841614  1
  Fe  Fe53  1  0.74818115  0.24746203  0.49744841  1
  Fe  Fe54  1  0.12580695  0.87313494  0.87451058  1
  Fe  Fe55  1  0.62407283  0.62981867  0.12858960  1
  Fe  Fe56  1  0.25303290  0.75137232  0.75257232  1
  Fe  Fe57  1  0.12865690  0.37321523  0.62557043  1
  Fe  Fe58  1  0.62488244  0.12584499  0.87666820  1
  Fe  Fe59  1  0.75064951  0.50514984  0.25084776  1
  Fe  Fe60  1  0.87329508  0.37501044  0.62373712  1
  Fe  Fe61  1  0.24931856  0.00121569  0.50028610  1
  Fe  Fe62  1  0.74750067  0.49897769  0.75108052  1
  Fe  Fe63  1  0.49525006  0.75124935  0.00410693  1
  Fe  Fe64  1  0.37390645  0.87659218  0.37446273  1
  Fe  Fe65  1  0.87455409  0.12319194  0.62242345  1
  Fe  Fe66  1  0.62871079  0.37324459  0.12482906  1
  Fe  Fe67  1  0.62374067  0.62742080  0.87653078  1
  Fe  Fe68  1  0.00000143  0.74976240  0.50259643  1
  Fe  Fe69  1  0.37603076  0.87513449  0.62430622  1
  Fe  Fe70  1  0.62543899  0.37528084  0.37451256  1
  Fe  Fe71  1  0.12364883  0.62657346  0.37424774  1
  Fe  Fe72  1  0.74953122  0.50257293  0.00106137  1
  Fe  Fe73  1  0.00090138  0.50109224  -0.00076552  1
  Fe  Fe74  1  0.12343696  0.37494706  0.37315731  1
  Fe  Fe75  1  0.62338642  0.87211000  0.62455269  1
  Fe  Fe76  1  0.62251735  0.37259870  0.62406950  1
  Fe  Fe77  1  0.25033911  0.49998380  0.49815863  1
  Fe  Fe78  1  0.12670762  0.87372040  0.37477993  1
  Fe  Fe79  1  0.25348681  0.74993244  0.24647756  1
  Fe  Fe80  1  0.12625901  0.37456117  0.12474637  1
  Fe  Fe81  1  0.74847705  -0.00017915  0.74923368  1
  Fe  Fe82  1  0.62281860  0.62748090  0.62629594  1
  Fe  Fe83  1  0.37866944  0.62199663  0.36853881  1
  Fe  Fe84  1  0.00133009  -0.00082845  0.74908786  1
  Fe  Fe85  1  0.87373825  0.87652464  0.62297907  1
  Fe  Fe86  1  -0.00341034  0.24995136  0.00362197  1
  Fe  Fe87  1  0.49894518  0.74770677  0.49855098  1
  Fe  Fe88  1  0.49896100  0.25131238  0.24781043  1
  Fe  Fe89  1  0.00132858  0.24982296  0.49971860  1
  Co  Co90  1  0.87983366  0.62495881  0.37621798  1
  Co  Co91  1  0.87525082  0.62465069  0.12260434  1
  Co  Co92  1  0.37304767  0.61962500  0.12695464  1
  Co  Co93  1  0.50346769  -0.00028506  0.00187610  1
  Co  Co94  1  0.24960539  0.49578409  -0.00330828  1
  Co  Co95  1  0.37108253  0.37731728  0.12768232  1
  Co  Co96  1  0.49651591  0.75000404  0.75327888  1
  Co  Co97  1  0.87415835  0.62247193  0.87375515  1
  Co  Co98  1  0.25430564  0.75072110  0.00130594  1
  Co  Co99  1  0.37292714  0.12258353  0.12360754  1
  Co  Co100  1  -0.00112027  0.24908136  0.24798759  1
  Co  Co101  1  0.24543345  0.00088688  -0.00167457  1
  Co  Co102  1  0.75142788  0.24922828  0.00021268  1
  Co  Co103  1  0.87384957  0.37806077  0.12517662  1
  Co  Co104  1  0.74985413  0.74580857  0.50005471  1
  Co  Co105  1  0.75483384  0.74719456  0.25125025  1
  Co  Co106  1  0.74528457  0.00119703  0.49949468  1
  Co  Co107  1  0.00392591  -0.00064970  0.50020787  1
  Co  Co108  1  0.11979603  0.37167604  0.87714927  1
  Co  Co109  1  0.24524180  0.50136538  0.25054039  1
  Co  Co110  1  0.37065039  0.88199212  0.12211864  1
  Co  Co111  1  0.50055272  0.25053765  0.49630219  1
  Co  Co112  1  0.75251977  0.74980354  -0.00089296  1
  Co  Co113  1  0.87443450  0.87828485  0.87506750  1
  Co  Co114  1  0.87449202  0.87619427  0.12427142  1
  Co  Co115  1  0.50448848  0.49622582  0.24636583  1
  Co  Co116  1  0.25212157  0.25404221  0.75499912  1
  Co  Co117  1  -0.00181143  0.75103620  0.75076638  1
  Co  Co118  1  0.50040122  0.24958738  0.75235952  1
  Co  Co119  1  0.62018485  0.62826670  0.37107697  1
  Co  Co120  1  0.12660480  0.62820062  0.87580701  1
  Co  Co121  1  0.24865648  0.00061263  0.25109610  1
  Co  Co122  1  0.62347768  0.12472207  0.37015886  1
  Co  Co123  1  0.38145063  0.37583101  0.87660883  1
  Co  Co124  1  0.25085242  -0.00086799  0.74975798  1
  Co  Co125  1  0.49447681  0.75466893  0.24644569  1
  Co  Co126  1  0.37465002  0.37312900  0.62423926  1
  Co  Co127  1  0.24961889  0.25088723  0.49619839  1
