# generated using pymatgen
data_Fe45Co19
_symmetry_space_group_name_H-M   'P 1'
_cell_length_a   11.41486656
_cell_length_b   11.41569585
_cell_length_c   11.41391260
_cell_angle_alpha   90.00101927
_cell_angle_beta   90.00768555
_cell_angle_gamma   89.99336497
_symmetry_Int_Tables_number   1
_chemical_formula_structural   Fe45Co19
_chemical_formula_sum   'Fe90 Co38'
_cell_volume   1487.33145924
_cell_formula_units_Z   2
loop_
 _symmetry_equiv_pos_site_id
 _symmetry_equiv_pos_as_xyz
  1  'x, y, z'
loop_
 _atom_site_type_symbol
 _atom_site_label
 _atom_site_symmetry_multiplicity
 _atom_site_fract_x
 _atom_site_fract_y
 _atom_site_fract_z
 _atom_site_occupancy
  Fe  Fe0  1  0.75061457  0.24971445  0.00068712  1
  Fe  Fe1  1  0.87585499  0.62415460  0.87569052  1
  Fe  Fe2  1  0.49984627  0.49987182  0.00026388  1
  Fe  Fe3  1  0.62624820  0.37399086  0.87442511  1
  Fe  Fe4  1  0.12394578  0.37382189  0.62513802  1
  Fe  Fe5  1  0.74898381  0.24944815  0.25175736  1
  Fe  Fe6  1  0.62442091  0.12307901  0.12534101  1
  Fe  Fe7  1  0.74818625  0.75091687  0.25005029  1
  Fe  Fe8  1  0.75036399  -0.00043517  0.50166535  1
  Fe  Fe9  1  -0.00175304  0.24885803  0.50348682  1
  Fe  Fe10  1  0.49848046  0.49805731  0.50215859  1
  Fe  Fe11  1  0.50183906  0.75245524  0.24632047  1
  Fe  Fe12  1  0.25135801  0.49835038  0.25123993  1
  Fe  Fe13  1  0.62454522  0.37533295  0.12577673  1
  Fe  Fe14  1  -0.00025344  0.25029781  -0.00040622  1
  Fe  Fe15  1  0.62307947  0.62394580  0.87429654  1
  Fe  Fe16  1  0.24824070  0.74864886  0.25119569  1
  Fe  Fe17  1  0.00153067  -0.00512950  0.50262842  1
  Fe  Fe18  1  0.24902563  0.00224498  0.24838186  1
  Fe  Fe19  1  0.87638743  0.12316524  0.37708029  1
  Fe  Fe20  1  0.24962255  0.00055025  0.00072627  1
  Fe  Fe21  1  0.37561878  0.87491292  0.87515163  1
  Fe  Fe22  1  0.74994464  0.49963837  0.24922363  1
  Fe  Fe23  1  0.37618886  0.62481080  0.37483802  1
  Fe  Fe24  1  0.49999806  0.24908449  0.75094559  1
  Fe  Fe25  1  0.49788971  -0.00088979  0.50053921  1
  Fe  Fe26  1  0.62698821  0.12521655  0.62582401  1
  Fe  Fe27  1  0.37596149  0.62609450  0.12443097  1
  Fe  Fe28  1  0.87447613  0.12386431  0.87239575  1
  Fe  Fe29  1  0.75222928  -0.00026851  0.24984926  1
  Fe  Fe30  1  0.62314116  0.12284807  0.37428158  1
  Fe  Fe31  1  0.12295358  0.62318786  0.12675852  1
  Fe  Fe32  1  -0.00220600  0.50093677  0.74734135  1
  Fe  Fe33  1  0.12283924  0.37638753  0.87487573  1
  Fe  Fe34  1  0.87590946  0.62497678  0.12706781  1
  Fe  Fe35  1  0.62401848  0.37647910  0.37566320  1
  Fe  Fe36  1  0.87285107  0.37508383  0.37770742  1
  Fe  Fe37  1  0.62520526  0.62659353  0.62611647  1
  Fe  Fe38  1  0.75232523  0.49992278  0.00171585  1
  Fe  Fe39  1  0.87603198  0.87372551  0.12598190  1
  Fe  Fe40  1  0.37451443  0.37219713  0.12820608  1
  Fe  Fe41  1  0.49841576  0.00088342  0.00143718  1
  Fe  Fe42  1  0.24808136  0.24919312  0.75151722  1
  Fe  Fe43  1  0.75046645  0.74987773  0.00012716  1
  Fe  Fe44  1  0.00197477  0.24963734  0.25071693  1
  Fe  Fe45  1  0.12491506  0.37751587  0.37847794  1
  Fe  Fe46  1  0.25005794  -0.00166882  0.50267418  1
  Fe  Fe47  1  0.25211392  0.74910411  0.75197683  1
  Fe  Fe48  1  0.37413010  0.87510583  0.37321365  1
  Fe  Fe49  1  0.37860398  0.62707633  0.62776010  1
  Fe  Fe50  1  0.12279542  0.62891552  0.62407776  1
  Fe  Fe51  1  0.00109734  0.74875872  -0.00091946  1
  Fe  Fe52  1  0.24951790  0.50261932  -0.00230145  1
  Fe  Fe53  1  0.50081241  -0.00012208  0.75019893  1
  Fe  Fe54  1  0.62482471  0.87743410  0.37300218  1
  Fe  Fe55  1  0.12387422  0.87472719  0.87377588  1
  Fe  Fe56  1  0.12357466  0.12249097  0.37619433  1
  Fe  Fe57  1  0.37564091  0.37664728  0.87226806  1
  Fe  Fe58  1  0.49910093  0.25081619  0.49971572  1
  Fe  Fe59  1  -0.00282301  0.75141810  0.75060734  1
  Fe  Fe60  1  0.24844540  0.75115116  0.49923859  1
  Fe  Fe61  1  0.25087043  0.25093508  0.49896589  1
  Fe  Fe62  1  0.00149358  0.75059141  0.25795347  1
  Fe  Fe63  1  0.24856137  -0.00085446  0.74789814  1
  Fe  Fe64  1  0.24806843  0.74715842  -0.00258725  1
  Fe  Fe65  1  0.12499922  0.37392198  0.12298178  1
  Fe  Fe66  1  0.62582145  0.87498734  0.62502204  1
  Fe  Fe67  1  0.25378430  0.49934334  0.50216803  1
  Fe  Fe68  1  0.49919367  0.24855983  -0.00173447  1
  Fe  Fe69  1  0.50078841  0.75232701  0.50053918  1
  Fe  Fe70  1  0.75357274  0.24844932  0.74791049  1
  Fe  Fe71  1  0.37587113  0.12675043  0.37270019  1
  Fe  Fe72  1  -0.00419966  0.50464249  0.50117292  1
  Fe  Fe73  1  0.75222277  0.00049597  -0.00075898  1
  Fe  Fe74  1  0.62748768  0.37333921  0.62369938  1
  Fe  Fe75  1  0.75162171  0.50030718  0.74695382  1
  Fe  Fe76  1  0.37384621  0.12601454  0.62631257  1
  Fe  Fe77  1  0.12469574  0.12517539  0.87505143  1
  Fe  Fe78  1  0.62468950  0.62343279  0.37460700  1
  Fe  Fe79  1  0.37284631  0.12894395  0.12678944  1
  Fe  Fe80  1  0.50183459  0.75151712  0.00203997  1
  Fe  Fe81  1  0.00025531  0.00045014  0.00190263  1
  Fe  Fe82  1  -0.00118548  -0.00043663  0.74611161  1
  Fe  Fe83  1  0.75086340  0.75305747  0.75154061  1
  Fe  Fe84  1  0.25064381  0.50302746  0.75014036  1
  Fe  Fe85  1  0.12473021  0.87536123  0.12724142  1
  Fe  Fe86  1  -0.00154691  0.49908592  0.25152507  1
  Fe  Fe87  1  0.62582170  0.87768736  0.87704225  1
  Fe  Fe88  1  0.87621435  0.37531633  0.87465134  1
  Fe  Fe89  1  0.87647376  0.12681160  0.12645262  1
  Co  Co90  1  0.87091011  0.62531350  0.37508465  1
  Co  Co91  1  0.12573273  0.12691719  0.12322111  1
  Co  Co92  1  0.24432476  0.25083030  0.25361574  1
  Co  Co93  1  0.62589915  0.62329214  0.12400499  1
  Co  Co94  1  0.00319570  0.75066910  0.49247687  1
  Co  Co95  1  0.12423641  0.87006585  0.62594755  1
  Co  Co96  1  0.87533331  0.37369731  0.12579127  1
  Co  Co97  1  0.74965641  0.24806541  0.49821186  1
  Co  Co98  1  0.25126094  0.25094228  -0.00336862  1
  Co  Co99  1  0.49721889  -0.00185214  0.24735277  1
  Co  Co100  1  0.75142994  -0.00269772  0.74907988  1
  Co  Co101  1  0.12788576  0.62009810  0.37646718  1
  Co  Co102  1  0.87636392  0.87640175  0.87662154  1
  Co  Co103  1  0.62717101  0.12463823  0.87459054  1
  Co  Co104  1  0.50225126  0.49772815  0.74758510  1
  Co  Co105  1  0.87358096  0.12295334  0.62362064  1
  Co  Co106  1  -0.00035336  -0.00006263  0.24892551  1
  Co  Co107  1  0.37356497  0.37250586  0.62801579  1
  Co  Co108  1  0.74658775  0.75019878  0.49797379  1
  Co  Co109  1  0.62809492  0.87892223  0.12398775  1
  Co  Co110  1  0.12843183  0.87888959  0.37346516  1
  Co  Co111  1  0.50314965  0.24934666  0.25041949  1
  Co  Co112  1  0.87485265  0.87112855  0.62060803  1
  Co  Co113  1  -0.00095122  0.24849364  0.74942361  1
  Co  Co114  1  0.37103609  0.87325595  0.12446984  1
  Co  Co115  1  0.87498910  0.37412957  0.62245485  1
  Co  Co116  1  0.50183997  0.75374033  0.75070944  1
  Co  Co117  1  0.74968399  0.50137816  0.50239038  1
  Co  Co118  1  0.37511561  0.87450537  0.62564995  1
  Co  Co119  1  0.38050345  0.62529488  0.87413577  1
  Co  Co120  1  0.12145348  0.62461971  0.87302367  1
  Co  Co121  1  0.87280968  0.87554006  0.37692598  1
  Co  Co122  1  -0.00057467  0.50054420  0.00061053  1
  Co  Co123  1  0.37425682  0.12333888  0.87318078  1
  Co  Co124  1  0.37634920  0.37379187  0.37259594  1
  Co  Co125  1  0.12591178  0.12644055  0.62415382  1
  Co  Co126  1  0.87434877  0.63118621  0.62234359  1
  Co  Co127  1  0.49904177  0.50162581  0.24936321  1
