# generated using pymatgen
data_Fe45Co19
_symmetry_space_group_name_H-M   'P 1'
_cell_length_a   11.41540791
_cell_length_b   11.41601591
_cell_length_c   11.41593241
_cell_angle_alpha   90.00350406
_cell_angle_beta   90.00379881
_cell_angle_gamma   90.00292425
_symmetry_Int_Tables_number   1
_chemical_formula_structural   Fe45Co19
_chemical_formula_sum   'Fe90 Co38'
_cell_volume   1487.70693206
_cell_formula_units_Z   2
loop_
 _symmetry_equiv_pos_site_id
 _symmetry_equiv_pos_as_xyz
  1  'x, y, z'
loop_
 _atom_site_type_symbol
 _atom_site_label
 _atom_site_symmetry_multiplicity
 _atom_site_fract_x
 _atom_site_fract_y
 _atom_site_fract_z
 _atom_site_occupancy
  Fe  Fe0  1  0.25056153  0.50089676  0.49997896  1
  Fe  Fe1  1  0.87237123  0.37681880  0.12688382  1
  Fe  Fe2  1  0.12685379  0.37396273  0.87300912  1
  Fe  Fe3  1  0.87411101  0.37505137  0.62587598  1
  Fe  Fe4  1  0.37295273  0.37346806  0.62665315  1
  Fe  Fe5  1  0.74491742  0.49570309  -0.00004446  1
  Fe  Fe6  1  0.74879245  0.00154390  0.25128834  1
  Fe  Fe7  1  0.12747472  0.62788117  0.62606642  1
  Fe  Fe8  1  0.37447953  0.87776233  0.62451196  1
  Fe  Fe9  1  0.62619479  0.62950745  0.62352108  1
  Fe  Fe10  1  0.24966014  0.00019266  0.49620806  1
  Fe  Fe11  1  0.50076895  -0.00173195  0.49883555  1
  Fe  Fe12  1  0.74904520  0.24797011  0.75130240  1
  Fe  Fe13  1  -0.00028807  0.75077567  0.74969592  1
  Fe  Fe14  1  0.25083218  0.24745957  -0.00050608  1
  Fe  Fe15  1  0.87536634  0.37776689  0.37312811  1
  Fe  Fe16  1  -0.00050344  0.74790101  0.24782663  1
  Fe  Fe17  1  0.12776434  0.62770555  0.87402817  1
  Fe  Fe18  1  -0.00177169  0.24663197  0.49721288  1
  Fe  Fe19  1  0.49938803  0.50118124  0.75045162  1
  Fe  Fe20  1  0.87374062  0.62480563  0.87719241  1
  Fe  Fe21  1  0.12238596  0.87545278  0.37298187  1
  Fe  Fe22  1  0.62444608  0.12518929  0.37654670  1
  Fe  Fe23  1  0.25267519  0.24786979  0.49672506  1
  Fe  Fe24  1  0.25409781  0.24835243  0.25158725  1
  Fe  Fe25  1  0.62735472  0.87223896  0.62505092  1
  Fe  Fe26  1  0.12719270  0.87381822  0.12416781  1
  Fe  Fe27  1  0.49926916  0.75713242  0.00854209  1
  Fe  Fe28  1  0.87245356  0.62833835  0.62361326  1
  Fe  Fe29  1  0.00262015  0.50000637  0.00142642  1
  Fe  Fe30  1  0.50131961  0.50044788  0.24623977  1
  Fe  Fe31  1  -0.00018329  0.24895849  0.74988554  1
  Fe  Fe32  1  0.62232857  0.62886080  0.87847280  1
  Fe  Fe33  1  0.37843432  0.87546112  0.36998982  1
  Fe  Fe34  1  0.62723671  0.12457780  0.12242938  1
  Fe  Fe35  1  -0.00391845  0.75444939  0.49996122  1
  Fe  Fe36  1  0.37273602  0.62743843  0.62618980  1
  Fe  Fe37  1  0.00038024  0.74932671  0.00134587  1
  Fe  Fe38  1  0.62225685  0.87211162  0.37169534  1
  Fe  Fe39  1  0.62306095  0.12127644  0.87830823  1
  Fe  Fe40  1  0.49872244  0.75293193  0.74993267  1
  Fe  Fe41  1  0.87342605  0.87622089  0.12750572  1
  Fe  Fe42  1  0.12707515  0.37308316  0.62636443  1
  Fe  Fe43  1  0.75327678  -0.00382729  0.49728911  1
  Fe  Fe44  1  0.49741677  0.24989230  0.49901242  1
  Fe  Fe45  1  0.12689197  0.37397057  0.12618147  1
  Fe  Fe46  1  0.49750414  0.24774640  0.25004839  1
  Fe  Fe47  1  0.74873915  0.50114459  0.49781452  1
  Fe  Fe48  1  0.24841577  0.00238474  0.25030751  1
  Fe  Fe49  1  0.87364735  0.37522029  0.87444697  1
  Fe  Fe50  1  0.87541403  0.87492002  0.87365789  1
  Fe  Fe51  1  -0.00164578  0.25141484  0.00169921  1
  Fe  Fe52  1  0.12543298  0.37364617  0.37383007  1
  Fe  Fe53  1  0.74763537  0.50243761  0.75108543  1
  Fe  Fe54  1  0.87439653  0.12429290  0.87721197  1
  Fe  Fe55  1  0.87451273  0.12432223  0.12517506  1
  Fe  Fe56  1  0.49778873  0.24541807  0.75015783  1
  Fe  Fe57  1  0.75062559  0.24985506  0.25090226  1
  Fe  Fe58  1  0.00031459  -0.00083051  0.00141566  1
  Fe  Fe59  1  0.12674406  0.87400690  0.87651647  1
  Fe  Fe60  1  0.12264060  0.12695045  0.12745216  1
  Fe  Fe61  1  0.62487482  0.37388398  0.62654533  1
  Fe  Fe62  1  0.12349797  0.87827383  0.62594940  1
  Fe  Fe63  1  0.37643599  0.12061025  0.12216766  1
  Fe  Fe64  1  0.37533396  0.62784138  0.87734607  1
  Fe  Fe65  1  0.50224139  0.49595226  0.00185213  1
  Fe  Fe66  1  0.74861014  0.75346281  0.00022626  1
  Fe  Fe67  1  0.74810233  -0.00213127  0.75257744  1
  Fe  Fe68  1  0.24944052  0.50211510  0.00014146  1
  Fe  Fe69  1  0.25028322  0.50166875  0.24855996  1
  Fe  Fe70  1  0.37351771  0.37324400  0.87455593  1
  Fe  Fe71  1  0.12299278  0.62686072  0.37457716  1
  Fe  Fe72  1  0.74945470  0.74524280  0.25192106  1
  Fe  Fe73  1  0.62112329  0.62771291  0.37608258  1
  Fe  Fe74  1  0.37502013  0.87974064  0.87956641  1
  Fe  Fe75  1  0.75201719  0.24938668  0.49889036  1
  Fe  Fe76  1  0.12375366  0.12568072  0.87555283  1
  Fe  Fe77  1  0.50209240  0.25195546  0.00087856  1
  Fe  Fe78  1  0.25254945  0.00371364  0.75253946  1
  Fe  Fe79  1  0.00073855  0.50119343  0.74945473  1
  Fe  Fe80  1  0.87332155  0.62157030  0.12553743  1
  Fe  Fe81  1  0.37731727  0.62577837  0.37405346  1
  Fe  Fe82  1  0.00085252  0.50061537  0.49999264  1
  Fe  Fe83  1  0.49882613  0.50020421  0.50205141  1
  Fe  Fe84  1  0.25164663  0.75227235  0.49902968  1
  Fe  Fe85  1  0.62472621  0.12334175  0.62318017  1
  Fe  Fe86  1  0.25308769  0.74803673  0.24666797  1
  Fe  Fe87  1  0.62252826  0.37405282  0.37417862  1
  Fe  Fe88  1  0.87566397  0.12042306  0.62563765  1
  Fe  Fe89  1  0.12451582  0.12294163  0.62323045  1
  Co  Co90  1  0.37599252  0.37763387  0.37393073  1
  Co  Co91  1  0.49871133  0.75011230  0.24262757  1
  Co  Co92  1  0.74903797  0.74930203  0.75339739  1
  Co  Co93  1  0.50006048  -0.00075529  0.74779202  1
  Co  Co94  1  0.87646927  0.87575030  0.36939214  1
  Co  Co95  1  -0.00291579  -0.00074177  0.49658800  1
  Co  Co96  1  0.74917918  0.25149132  -0.00083749  1
  Co  Co97  1  0.37686456  0.12098165  0.37560272  1
  Co  Co98  1  0.62611051  0.62560777  0.12152611  1
  Co  Co99  1  0.00110696  0.00032958  0.75363960  1
  Co  Co100  1  0.50510388  -0.00583957  0.00603352  1
  Co  Co101  1  0.74540049  0.50207114  0.25256992  1
  Co  Co102  1  0.62538730  0.37233213  0.12875699  1
  Co  Co103  1  0.37405039  0.37476029  0.12379255  1
  Co  Co104  1  0.25218826  0.74975560  0.00268403  1
  Co  Co105  1  0.87406674  0.87620417  0.62895988  1
  Co  Co106  1  0.75300994  0.75244641  0.49505893  1
  Co  Co107  1  0.25190779  0.24468393  0.75138446  1
  Co  Co108  1  0.12340219  0.12536307  0.37323264  1
  Co  Co109  1  0.25079391  0.50117264  0.75060645  1
  Co  Co110  1  0.00203285  -0.00039044  0.24794709  1
  Co  Co111  1  0.62323775  0.87493512  0.87473753  1
  Co  Co112  1  0.50268374  0.00173525  0.24762898  1
  Co  Co113  1  0.63053122  0.87566350  0.13061680  1
  Co  Co114  1  0.62432658  0.37320756  0.87104367  1
  Co  Co115  1  0.37992855  0.12134668  0.88101448  1
  Co  Co116  1  0.24548949  0.00276409  0.00060120  1
  Co  Co117  1  0.12555869  0.62638447  0.12466771  1
  Co  Co118  1  0.49730682  0.75162694  0.50125004  1
  Co  Co119  1  0.87603089  0.12264166  0.37179351  1
  Co  Co120  1  0.37022620  0.88094282  0.12687991  1
  Co  Co121  1  -0.00240279  0.25183219  0.25021743  1
  Co  Co122  1  0.75092723  -0.00314815  -0.00074105  1
  Co  Co123  1  0.37527677  0.12323435  0.62116169  1
  Co  Co124  1  0.87854636  0.62336962  0.37403206  1
  Co  Co125  1  0.00319350  0.49939474  0.24845018  1
  Co  Co126  1  0.37646142  0.62228677  0.12242566  1
  Co  Co127  1  0.25231698  0.75410396  0.75030426  1
