# generated using pymatgen
data_Fe45Co19
_symmetry_space_group_name_H-M   'P 1'
_cell_length_a   11.41595753
_cell_length_b   11.41471557
_cell_length_c   11.41555762
_cell_angle_alpha   90.01352047
_cell_angle_beta   90.00803604
_cell_angle_gamma   89.99459024
_symmetry_Int_Tables_number   1
_chemical_formula_structural   Fe45Co19
_chemical_formula_sum   'Fe90 Co38'
_cell_volume   1487.56020238
_cell_formula_units_Z   2
loop_
 _symmetry_equiv_pos_site_id
 _symmetry_equiv_pos_as_xyz
  1  'x, y, z'
loop_
 _atom_site_type_symbol
 _atom_site_label
 _atom_site_symmetry_multiplicity
 _atom_site_fract_x
 _atom_site_fract_y
 _atom_site_fract_z
 _atom_site_occupancy
  Fe  Fe0  1  0.37363369  0.37505534  0.12448338  1
  Fe  Fe1  1  0.62362108  0.37452242  0.37694052  1
  Fe  Fe2  1  0.75142241  0.25115083  0.74908867  1
  Fe  Fe3  1  0.62812436  0.62541696  0.37344639  1
  Fe  Fe4  1  0.37370884  0.12649766  0.12405254  1
  Fe  Fe5  1  0.24799233  -0.00145490  0.00087188  1
  Fe  Fe6  1  0.37366917  0.37749054  0.37854700  1
  Fe  Fe7  1  0.00250168  0.50307082  0.75234731  1
  Fe  Fe8  1  0.87548858  0.12675054  0.37815993  1
  Fe  Fe9  1  0.62724884  0.12477377  0.87584556  1
  Fe  Fe10  1  0.50175724  -0.00239776  -0.00102023  1
  Fe  Fe11  1  0.50133918  -0.00098919  0.74953852  1
  Fe  Fe12  1  0.24651192  0.74979448  0.24583816  1
  Fe  Fe13  1  0.00255886  0.00333413  0.50348153  1
  Fe  Fe14  1  0.24466685  0.49886823  0.00112585  1
  Fe  Fe15  1  0.75289455  0.74920600  0.49859602  1
  Fe  Fe16  1  0.00051737  0.24843079  -0.00087487  1
  Fe  Fe17  1  0.75367596  0.49980424  0.25096403  1
  Fe  Fe18  1  0.12350193  0.87516512  0.87457420  1
  Fe  Fe19  1  0.62490183  0.62447961  0.62581774  1
  Fe  Fe20  1  0.00140548  0.49942247  0.00084390  1
  Fe  Fe21  1  0.87654521  0.62611108  0.12696224  1
  Fe  Fe22  1  0.87598936  0.87550734  0.12511295  1
  Fe  Fe23  1  0.12426203  0.87672421  0.37335958  1
  Fe  Fe24  1  0.37459600  0.37972056  0.62143509  1
  Fe  Fe25  1  -0.00037559  0.24650247  0.74708064  1
  Fe  Fe26  1  0.49884453  0.74778442  0.75101683  1
  Fe  Fe27  1  0.49979252  0.74771197  0.49954426  1
  Fe  Fe28  1  0.24800985  0.25159830  -0.00113554  1
  Fe  Fe29  1  0.75098549  0.50074922  0.50027505  1
  Fe  Fe30  1  0.24832802  0.00030951  0.50041727  1
  Fe  Fe31  1  0.37450921  0.12426902  0.87520634  1
  Fe  Fe32  1  0.49856294  0.50174030  0.24841670  1
  Fe  Fe33  1  0.49979280  0.24964182  0.25070973  1
  Fe  Fe34  1  -0.00159031  0.00054095  0.24856253  1
  Fe  Fe35  1  0.37154437  0.62565256  0.87826417  1
  Fe  Fe36  1  0.74957954  -0.00037060  0.49871794  1
  Fe  Fe37  1  0.37481315  0.62183142  0.62565414  1
  Fe  Fe38  1  0.87338104  0.12162229  0.87473442  1
  Fe  Fe39  1  0.62678664  0.62549063  0.87579825  1
  Fe  Fe40  1  0.00045203  0.50348000  0.49905221  1
  Fe  Fe41  1  0.87777191  0.37432832  0.62319770  1
  Fe  Fe42  1  0.37352321  0.62493194  0.37231735  1
  Fe  Fe43  1  0.62760943  0.12477203  0.12477716  1
  Fe  Fe44  1  0.12093823  0.62150084  0.36856343  1
  Fe  Fe45  1  0.75386868  0.74977778  0.75135935  1
  Fe  Fe46  1  0.12579764  0.12573368  0.12669770  1
  Fe  Fe47  1  0.37416408  0.87323870  0.62347904  1
  Fe  Fe48  1  0.37411894  0.87235074  0.37497861  1
  Fe  Fe49  1  0.62613799  0.37613082  0.87501529  1
  Fe  Fe50  1  0.62532338  0.87288446  0.62596104  1
  Fe  Fe51  1  0.49947462  -0.00033101  0.49925257  1
  Fe  Fe52  1  0.75222281  0.50089556  0.74977401  1
  Fe  Fe53  1  0.24801261  0.74743760  0.74942124  1
  Fe  Fe54  1  0.37387483  0.12538120  0.37598904  1
  Fe  Fe55  1  0.74926806  0.75098263  0.00051852  1
  Fe  Fe56  1  0.37512342  0.87267773  0.12328612  1
  Fe  Fe57  1  0.87605371  0.87398487  0.37507051  1
  Fe  Fe58  1  0.87525914  0.37181307  0.12404833  1
  Fe  Fe59  1  0.12564046  0.12481823  0.87260465  1
  Fe  Fe60  1  0.37254761  0.12502840  0.62481528  1
  Fe  Fe61  1  0.50080215  0.25096498  0.00000378  1
  Fe  Fe62  1  0.62679302  0.87508291  0.12745774  1
  Fe  Fe63  1  0.74970754  0.24961744  0.25207243  1
  Fe  Fe64  1  0.62538437  0.87403228  0.37293630  1
  Fe  Fe65  1  0.87762752  0.87501208  0.62563196  1
  Fe  Fe66  1  0.24920693  -0.00256545  0.75011122  1
  Fe  Fe67  1  0.24585528  0.74596515  0.49919193  1
  Fe  Fe68  1  0.24704689  0.25385544  0.25352617  1
  Fe  Fe69  1  0.12254277  0.87153552  0.62576492  1
  Fe  Fe70  1  0.00343149  0.74981317  0.00087871  1
  Fe  Fe71  1  0.87736900  0.37516324  0.87383625  1
  Fe  Fe72  1  0.87312057  0.12541506  0.12368261  1
  Fe  Fe73  1  0.49951714  0.00112343  0.25088377  1
  Fe  Fe74  1  0.75287357  0.49844212  0.00004626  1
  Fe  Fe75  1  0.62699237  0.12675825  0.62241340  1
  Fe  Fe76  1  0.87771548  0.37379502  0.37871115  1
  Fe  Fe77  1  0.87866378  0.62738441  0.62488589  1
  Fe  Fe78  1  0.50069158  0.74646915  0.24636949  1
  Fe  Fe79  1  0.50062231  0.50233344  0.00129009  1
  Fe  Fe80  1  0.87610161  0.87849423  0.87471047  1
  Fe  Fe81  1  0.25126488  -0.00110828  0.24847225  1
  Fe  Fe82  1  0.00284109  0.25241889  0.25272307  1
  Fe  Fe83  1  0.62216292  0.37689827  0.62398428  1
  Fe  Fe84  1  0.49847884  0.25193101  0.74977469  1
  Fe  Fe85  1  0.25119898  0.25425561  0.74989816  1
  Fe  Fe86  1  0.12604168  0.37604709  0.62248933  1
  Fe  Fe87  1  0.37539942  0.87183116  0.87691885  1
  Fe  Fe88  1  0.62656137  0.37551622  0.12507049  1
  Fe  Fe89  1  0.37443344  0.37790303  0.87557489  1
  Co  Co90  1  0.74925170  -0.00078264  0.74926916  1
  Co  Co91  1  0.50245682  0.74829899  0.00226586  1
  Co  Co92  1  0.75260174  0.74980255  0.25008408  1
  Co  Co93  1  0.62948313  0.62260600  0.12512053  1
  Co  Co94  1  0.12389525  0.37396442  0.12492188  1
  Co  Co95  1  0.75132841  0.25137623  -0.00174728  1
  Co  Co96  1  0.62532795  0.12548359  0.37638472  1
  Co  Co97  1  0.00166479  0.74964446  0.49607326  1
  Co  Co98  1  0.00026890  0.00197237  0.74730010  1
  Co  Co99  1  0.12282363  0.62208673  0.12813547  1
  Co  Co100  1  0.74884568  -0.00263497  0.00027011  1
  Co  Co101  1  0.12542793  0.12195724  0.37219476  1
  Co  Co102  1  0.12627245  0.62628416  0.87617741  1
  Co  Co103  1  0.12317082  0.37930999  0.37865063  1
  Co  Co104  1  0.37093685  0.62451991  0.12252125  1
  Co  Co105  1  0.24750745  0.24962219  0.49783268  1
  Co  Co106  1  0.24715493  0.50016778  0.75009353  1
  Co  Co107  1  0.75042483  0.25331376  0.49996607  1
  Co  Co108  1  0.75262879  0.00108061  0.25109270  1
  Co  Co109  1  -0.00032058  0.75243480  0.25024000  1
  Co  Co110  1  0.00487706  0.24614772  0.50118838  1
  Co  Co111  1  0.25068264  0.49701907  0.24940277  1
  Co  Co112  1  0.12309678  0.87756236  0.12689748  1
  Co  Co113  1  -0.00387641  0.49563606  0.24803136  1
  Co  Co114  1  0.12169153  0.37323895  0.87403808  1
  Co  Co115  1  -0.00161184  0.74981809  0.75405847  1
  Co  Co116  1  0.24477548  0.75149881  0.00388314  1
  Co  Co117  1  0.62506638  0.87172771  0.87236524  1
  Co  Co118  1  0.87647967  0.62481597  0.37389500  1
  Co  Co119  1  0.24759306  0.50636368  0.49979128  1
  Co  Co120  1  0.50050965  0.50350672  0.49754242  1
  Co  Co121  1  0.87586017  0.62396237  0.87727065  1
  Co  Co122  1  0.00166208  0.00181132  0.00090507  1
  Co  Co123  1  0.49943744  0.50120370  0.75274926  1
  Co  Co124  1  0.49761145  0.24970023  0.50043668  1
  Co  Co125  1  0.13002958  0.12606898  0.62825454  1
  Co  Co126  1  0.87145438  0.12488932  0.62293619  1
  Co  Co127  1  0.12037972  0.62678878  0.62721677  1
