# generated using pymatgen
data_Fe45Co19
_symmetry_space_group_name_H-M   'P 1'
_cell_length_a   11.42196296
_cell_length_b   11.42279068
_cell_length_c   11.42250908
_cell_angle_alpha   90.00038450
_cell_angle_beta   89.99878035
_cell_angle_gamma   89.99681827
_symmetry_Int_Tables_number   1
_chemical_formula_structural   Fe45Co19
_chemical_formula_sum   'Fe90 Co38'
_cell_volume   1490.30266183
_cell_formula_units_Z   2
loop_
 _symmetry_equiv_pos_site_id
 _symmetry_equiv_pos_as_xyz
  1  'x, y, z'
loop_
 _atom_site_type_symbol
 _atom_site_label
 _atom_site_symmetry_multiplicity
 _atom_site_fract_x
 _atom_site_fract_y
 _atom_site_fract_z
 _atom_site_occupancy
  Fe  Fe0  1  0.25161001  0.25193808  0.25414743  1
  Fe  Fe1  1  0.62418554  0.12301107  0.87173385  1
  Fe  Fe2  1  0.25526262  0.00224897  0.74855864  1
  Fe  Fe3  1  0.25155487  0.50097819  0.74811586  1
  Fe  Fe4  1  0.74714252  0.75252082  0.25114820  1
  Fe  Fe5  1  -0.00054659  0.50166957  0.24994185  1
  Fe  Fe6  1  0.25086800  0.50148124  0.00165807  1
  Fe  Fe7  1  -0.00012120  0.50082912  0.50069534  1
  Fe  Fe8  1  0.12488428  0.62582836  0.62527508  1
  Fe  Fe9  1  0.12537315  0.62703944  0.12717289  1
  Fe  Fe10  1  0.87311894  0.37325539  0.87400217  1
  Fe  Fe11  1  0.87283559  0.37453129  0.62279798  1
  Fe  Fe12  1  0.12399134  0.87377793  0.12777823  1
  Fe  Fe13  1  0.87345972  0.87559502  0.87320352  1
  Fe  Fe14  1  0.12623775  0.12348131  0.87458794  1
  Fe  Fe15  1  0.12514426  0.37519536  0.87424708  1
  Fe  Fe16  1  0.12528433  0.37478306  0.62444063  1
  Fe  Fe17  1  0.62519205  0.87455891  0.62396372  1
  Fe  Fe18  1  0.62809940  0.12281138  0.12736113  1
  Fe  Fe19  1  0.87512310  0.62746343  0.62609082  1
  Fe  Fe20  1  0.62600580  0.37323132  0.12458702  1
  Fe  Fe21  1  0.25114678  -0.00107300  0.00121471  1
  Fe  Fe22  1  0.25423106  0.24833571  0.74977538  1
  Fe  Fe23  1  0.50130764  0.50091718  0.00267420  1
  Fe  Fe24  1  -0.00035334  -0.00042895  0.49803862  1
  Fe  Fe25  1  0.25469013  0.74928614  0.49749995  1
  Fe  Fe26  1  -0.00074677  -0.00133376  0.74755650  1
  Fe  Fe27  1  0.74610696  0.49971533  0.25092678  1
  Fe  Fe28  1  0.74845433  0.75352780  -0.00004700  1
  Fe  Fe29  1  0.37501092  0.12345057  0.12508592  1
  Fe  Fe30  1  0.12618640  0.12381083  0.12724769  1
  Fe  Fe31  1  0.50038084  0.50015521  0.74757469  1
  Fe  Fe32  1  0.50033522  0.24826975  0.25092082  1
  Fe  Fe33  1  0.12629984  0.87635863  0.87385487  1
  Fe  Fe34  1  -0.00103515  0.24761723  0.00125152  1
  Fe  Fe35  1  0.87176919  0.87405373  0.37665344  1
  Fe  Fe36  1  0.25039905  -0.00087473  0.25214648  1
  Fe  Fe37  1  0.86970061  0.12356614  0.12827950  1
  Fe  Fe38  1  0.87190368  0.12406745  0.87431910  1
  Fe  Fe39  1  0.12349996  0.62578292  0.87301358  1
  Fe  Fe40  1  0.25276134  0.74968812  0.74926367  1
  Fe  Fe41  1  0.25302583  0.75057212  0.25346979  1
  Fe  Fe42  1  0.62234746  0.87812801  0.87175599  1
  Fe  Fe43  1  0.74971904  0.50016000  0.00014760  1
  Fe  Fe44  1  0.24949122  0.25335803  0.49537703  1
  Fe  Fe45  1  -0.00102829  -0.00197556  0.25304580  1
  Fe  Fe46  1  0.62587905  0.37366723  0.62523845  1
  Fe  Fe47  1  0.00084916  0.24806933  0.49771838  1
  Fe  Fe48  1  0.74684311  0.50303565  0.49947941  1
  Fe  Fe49  1  0.62081667  0.62760846  0.37362454  1
  Fe  Fe50  1  0.87298417  0.62592072  0.37437523  1
  Fe  Fe51  1  0.37748937  0.62384444  0.12942546  1
  Fe  Fe52  1  0.49644373  0.75194722  0.49898375  1
  Fe  Fe53  1  0.87344253  0.12358049  0.62291291  1
  Fe  Fe54  1  0.37722318  0.37481133  0.87593771  1
  Fe  Fe55  1  -0.00042673  0.75216232  0.00030074  1
  Fe  Fe56  1  0.62468476  0.37337131  0.87292744  1
  Fe  Fe57  1  0.37755474  0.87729087  0.12717766  1
  Fe  Fe58  1  0.12634542  0.62444983  0.37497072  1
  Fe  Fe59  1  0.37643996  0.37641513  0.62145619  1
  Fe  Fe60  1  0.87113117  0.87368644  0.62247704  1
  Fe  Fe61  1  0.25351517  -0.00272603  0.49855331  1
  Fe  Fe62  1  -0.00093762  0.50016611  0.00063394  1
  Fe  Fe63  1  0.62397193  0.12374355  0.62502983  1
  Fe  Fe64  1  0.12742136  0.12406886  0.62260701  1
  Fe  Fe65  1  0.74976755  0.50156528  0.74824158  1
  Fe  Fe66  1  0.37791484  0.62574918  0.87471666  1
  Fe  Fe67  1  0.87402126  0.37484945  0.37574744  1
  Fe  Fe68  1  0.12749366  0.87508711  0.62349743  1
  Fe  Fe69  1  0.62389279  0.62614513  0.87548439  1
  Fe  Fe70  1  0.62319783  0.37425691  0.37640257  1
  Fe  Fe71  1  0.62290640  0.62855477  0.62502784  1
  Fe  Fe72  1  0.62452610  0.87798446  0.12760756  1
  Fe  Fe73  1  -0.00198360  -0.00048874  0.00188715  1
  Fe  Fe74  1  0.25226427  0.75072490  0.00097973  1
  Fe  Fe75  1  0.25046257  0.24949034  0.00022515  1
  Fe  Fe76  1  0.37807943  0.87657429  0.87483751  1
  Fe  Fe77  1  0.50173114  0.24692331  0.00000034  1
  Fe  Fe78  1  0.00006664  0.24801451  0.25241027  1
  Fe  Fe79  1  0.12504808  0.37484653  0.12673618  1
  Fe  Fe80  1  0.37652140  0.37510250  0.12658525  1
  Fe  Fe81  1  0.74911886  0.24666018  0.49782602  1
  Fe  Fe82  1  0.37717785  0.12283803  0.37727026  1
  Fe  Fe83  1  0.87575368  0.62719930  0.87253578  1
  Fe  Fe84  1  0.00027274  0.75055060  0.49888434  1
  Fe  Fe85  1  0.50094751  0.24942509  0.49968228  1
  Fe  Fe86  1  -0.00083536  0.24905087  0.74867622  1
  Fe  Fe87  1  0.87288602  0.62818857  0.12631718  1
  Fe  Fe88  1  0.50089183  0.75129871  0.00266229  1
  Fe  Fe89  1  0.87207693  0.37301404  0.12655032  1
  Co  Co90  1  0.75019618  0.24859187  0.74786604  1
  Co  Co91  1  0.62221220  0.12346827  0.37587724  1
  Co  Co92  1  0.87416124  0.12458522  0.37401647  1
  Co  Co93  1  -0.00142008  0.49801670  0.74836312  1
  Co  Co94  1  0.50468326  0.49829322  0.24828622  1
  Co  Co95  1  0.74858353  -0.00191062  0.25543699  1
  Co  Co96  1  0.37870607  0.62011020  0.37375858  1
  Co  Co97  1  0.49606792  0.00225700  0.74504007  1
  Co  Co98  1  0.49919711  0.75070526  0.74929586  1
  Co  Co99  1  0.37894776  0.87732958  0.37203268  1
  Co  Co100  1  0.37520078  0.87353306  0.62576012  1
  Co  Co101  1  0.87442832  0.87443773  0.12853526  1
  Co  Co102  1  0.74844856  0.75042043  0.75039787  1
  Co  Co103  1  0.50030938  -0.00242940  0.50212454  1
  Co  Co104  1  -0.00024836  0.75040429  0.25413558  1
  Co  Co105  1  0.50166914  0.00112160  0.00161238  1
  Co  Co106  1  0.37447745  0.12716709  0.61827967  1
  Co  Co107  1  0.24999342  0.49778101  0.25172156  1
  Co  Co108  1  0.49691165  0.24858717  0.74846397  1
  Co  Co109  1  0.74779269  0.24804513  -0.00088666  1
  Co  Co110  1  0.62668626  0.62672444  0.12495223  1
  Co  Co111  1  0.50172074  0.00194520  0.25153626  1
  Co  Co112  1  0.12589745  0.87475309  0.37625633  1
  Co  Co113  1  0.38068275  0.37926505  0.37610774  1
  Co  Co114  1  0.74734568  0.00176139  0.49744066  1
  Co  Co115  1  0.37656724  0.12368279  0.87812840  1
  Co  Co116  1  0.50387784  0.50157491  0.50182916  1
  Co  Co117  1  0.74932901  -0.00194828  -0.00030124  1
  Co  Co118  1  0.62254083  0.87438642  0.37690653  1
  Co  Co119  1  0.74731435  0.25080314  0.25414959  1
  Co  Co120  1  0.24905671  0.49983731  0.49917034  1
  Co  Co121  1  0.37640451  0.62432256  0.62339039  1
  Co  Co122  1  0.74805830  0.74824930  0.49863762  1
  Co  Co123  1  0.12121305  0.37674310  0.37435129  1
  Co  Co124  1  0.74988056  -0.00106793  0.74717829  1
  Co  Co125  1  0.00034333  0.75431412  0.74785240  1
  Co  Co126  1  0.12685938  0.12250731  0.37587161  1
  Co  Co127  1  0.49972282  0.75154852  0.24924928  1
