# generated using pymatgen
data_Fe45Co19
_symmetry_space_group_name_H-M   'P 1'
_cell_length_a   11.41588343
_cell_length_b   11.41589430
_cell_length_c   11.41451985
_cell_angle_alpha   90.00956945
_cell_angle_beta   89.99969519
_cell_angle_gamma   89.99744401
_symmetry_Int_Tables_number   1
_chemical_formula_structural   Fe45Co19
_chemical_formula_sum   'Fe90 Co38'
_cell_volume   1487.56895272
_cell_formula_units_Z   2
loop_
 _symmetry_equiv_pos_site_id
 _symmetry_equiv_pos_as_xyz
  1  'x, y, z'
loop_
 _atom_site_type_symbol
 _atom_site_label
 _atom_site_symmetry_multiplicity
 _atom_site_fract_x
 _atom_site_fract_y
 _atom_site_fract_z
 _atom_site_occupancy
  Fe  Fe0  1  0.49723464  0.00038309  0.25425362  1
  Fe  Fe1  1  -0.00182871  0.00375200  -0.00084566  1
  Fe  Fe2  1  0.50301981  0.50145658  0.50011063  1
  Fe  Fe3  1  0.12637776  0.62340978  0.62245113  1
  Fe  Fe4  1  0.12397760  0.62453389  0.87491078  1
  Fe  Fe5  1  0.12687942  0.12376045  0.12742264  1
  Fe  Fe6  1  0.75087930  0.49987520  0.00086595  1
  Fe  Fe7  1  0.12328972  0.37630020  0.12589251  1
  Fe  Fe8  1  0.12168255  0.87304457  0.37636848  1
  Fe  Fe9  1  0.87777828  0.37303400  0.87575922  1
  Fe  Fe10  1  -0.00167311  0.24570283  0.49377378  1
  Fe  Fe11  1  0.62710049  0.12514378  0.87443376  1
  Fe  Fe12  1  0.62311850  0.87602247  0.62207871  1
  Fe  Fe13  1  0.37620360  0.62527310  0.37499957  1
  Fe  Fe14  1  0.62235811  0.12975295  0.37494690  1
  Fe  Fe15  1  0.74895156  0.75275814  0.00228326  1
  Fe  Fe16  1  0.24950373  0.74865188  0.49732265  1
  Fe  Fe17  1  0.62737298  0.62421101  0.12774331  1
  Fe  Fe18  1  0.75052563  0.24872454  0.00205815  1
  Fe  Fe19  1  0.12180669  0.37699728  0.37519630  1
  Fe  Fe20  1  0.75051427  0.25407650  0.74792023  1
  Fe  Fe21  1  0.12409514  0.87431843  0.12625732  1
  Fe  Fe22  1  0.75306295  0.49649130  0.49628122  1
  Fe  Fe23  1  0.37876558  0.87352302  0.62069334  1
  Fe  Fe24  1  -0.00106628  0.00200764  0.25317040  1
  Fe  Fe25  1  0.87801490  0.87147922  0.37482957  1
  Fe  Fe26  1  0.24824397  0.49799824  0.75006590  1
  Fe  Fe27  1  0.25014586  0.50030641  0.25311972  1
  Fe  Fe28  1  0.25070769  0.25226671  0.49941660  1
  Fe  Fe29  1  0.62555955  0.37553218  0.87680943  1
  Fe  Fe30  1  0.37354194  0.62726101  0.12499648  1
  Fe  Fe31  1  0.12243515  0.87570597  0.62175515  1
  Fe  Fe32  1  0.86995841  0.62771305  0.13204451  1
  Fe  Fe33  1  0.12483481  0.12261054  0.62160948  1
  Fe  Fe34  1  0.37502764  0.87116076  0.12468750  1
  Fe  Fe35  1  0.74943063  -0.00260437  0.25210499  1
  Fe  Fe36  1  0.50400248  0.49771869  0.24907138  1
  Fe  Fe37  1  0.62631062  0.12575617  0.62332883  1
  Fe  Fe38  1  0.75089641  -0.00090594  0.74950857  1
  Fe  Fe39  1  0.24910098  0.50022840  -0.00062064  1
  Fe  Fe40  1  0.24925419  0.25161657  0.25096563  1
  Fe  Fe41  1  0.37683364  0.87162527  0.87639114  1
  Fe  Fe42  1  0.37488543  0.37630585  0.12411288  1
  Fe  Fe43  1  0.12329670  0.87547751  0.87495022  1
  Fe  Fe44  1  0.87448314  0.12574062  0.62353738  1
  Fe  Fe45  1  0.37123536  0.37255585  0.87490242  1
  Fe  Fe46  1  0.50331802  0.74750663  0.74839601  1
  Fe  Fe47  1  0.25104945  -0.00117072  0.74882190  1
  Fe  Fe48  1  -0.00219358  0.50213608  0.00171490  1
  Fe  Fe49  1  0.37983033  0.37342439  0.37528654  1
  Fe  Fe50  1  -0.00081386  0.50356312  0.25099717  1
  Fe  Fe51  1  0.50102643  0.74906500  0.25075519  1
  Fe  Fe52  1  0.87551901  0.37299851  0.12928807  1
  Fe  Fe53  1  -0.00184387  0.74906007  0.74672000  1
  Fe  Fe54  1  0.63210658  0.62088352  0.62858544  1
  Fe  Fe55  1  0.62297694  0.87743571  0.12405209  1
  Fe  Fe56  1  0.50164018  0.50225563  -0.00062436  1
  Fe  Fe57  1  0.37470127  0.62820078  0.87692376  1
  Fe  Fe58  1  0.62567948  0.12455734  0.12703780  1
  Fe  Fe59  1  0.50196197  0.50070014  0.75245083  1
  Fe  Fe60  1  0.24913527  0.75090443  0.74957939  1
  Fe  Fe61  1  0.12833684  0.62634261  0.12715523  1
  Fe  Fe62  1  0.62434871  0.87562375  0.87643311  1
  Fe  Fe63  1  0.49909591  0.24946057  0.00227748  1
  Fe  Fe64  1  0.25364342  -0.00294592  0.25482569  1
  Fe  Fe65  1  0.75158622  0.25395293  0.49763887  1
  Fe  Fe66  1  0.12126995  0.37676834  0.62191874  1
  Fe  Fe67  1  0.00299049  0.24754327  0.00001944  1
  Fe  Fe68  1  0.37348579  0.12539589  0.12686282  1
  Fe  Fe69  1  -0.00575708  0.50619658  0.49791215  1
  Fe  Fe70  1  0.49988494  0.00090021  0.74895870  1
  Fe  Fe71  1  0.00341236  0.24789466  0.75204366  1
  Fe  Fe72  1  -0.00279823  0.50041041  0.74877048  1
  Fe  Fe73  1  0.37291325  0.62349794  0.62405622  1
  Fe  Fe74  1  0.25312340  -0.00075853  0.49648422  1
  Fe  Fe75  1  0.87631694  0.87481335  0.62192072  1
  Fe  Fe76  1  0.87452583  0.87620703  0.87703325  1
  Fe  Fe77  1  0.87087229  0.62639496  0.87183356  1
  Fe  Fe78  1  0.37048900  0.12797884  0.87434577  1
  Fe  Fe79  1  0.50094183  0.25074188  0.74776795  1
  Fe  Fe80  1  -0.00155492  0.00259085  0.75017590  1
  Fe  Fe81  1  0.25063716  -0.00189172  0.00001785  1
  Fe  Fe82  1  -0.00134286  0.74869421  0.00293874  1
  Fe  Fe83  1  0.61954568  0.87289709  0.37879295  1
  Fe  Fe84  1  0.87298676  0.12474871  0.12890513  1
  Fe  Fe85  1  0.75056531  0.00047221  0.49783992  1
  Fe  Fe86  1  0.75005520  0.74799484  0.49881802  1
  Fe  Fe87  1  0.37490304  0.12505863  0.62309597  1
  Fe  Fe88  1  0.49882204  0.00202687  -0.00071952  1
  Fe  Fe89  1  0.37606810  0.37680620  0.62534290  1
  Co  Co90  1  0.50411189  0.74793141  0.00118344  1
  Co  Co91  1  0.24645579  0.25154584  0.74463253  1
  Co  Co92  1  -0.00203805  0.74378208  0.50138034  1
  Co  Co93  1  0.88006025  0.37243265  0.62317240  1
  Co  Co94  1  0.74647472  0.75694464  0.25090125  1
  Co  Co95  1  0.87080914  0.12551655  0.37205713  1
  Co  Co96  1  0.74801371  0.25348109  0.25105239  1
  Co  Co97  1  0.74720606  0.49343293  0.25234774  1
  Co  Co98  1  0.62108181  0.37257481  0.37619251  1
  Co  Co99  1  0.12517422  0.62417744  0.37558879  1
  Co  Co100  1  0.50049346  0.25197320  0.24527035  1
  Co  Co101  1  0.75035245  0.00082358  0.00113563  1
  Co  Co102  1  0.25154298  0.49762080  0.49737730  1
  Co  Co103  1  0.12992630  0.12376417  0.87506818  1
  Co  Co104  1  0.62854095  0.62394971  0.37234875  1
  Co  Co105  1  0.87040552  0.62721455  0.36871484  1
  Co  Co106  1  0.62450169  0.37758468  0.62383488  1
  Co  Co107  1  0.86884953  0.62518826  0.62770422  1
  Co  Co108  1  0.87667094  0.87668677  0.12646555  1
  Co  Co109  1  0.87203537  0.12642261  0.87391681  1
  Co  Co110  1  0.75335136  0.49188775  0.75036282  1
  Co  Co111  1  0.49979777  0.25065517  0.50416175  1
  Co  Co112  1  0.74937653  0.75614744  0.74941201  1
  Co  Co113  1  0.37682622  0.13006142  0.37462688  1
  Co  Co114  1  0.38053621  0.87053002  0.37968744  1
  Co  Co115  1  0.24678528  0.75039672  -0.00009054  1
  Co  Co116  1  0.49996775  0.00459195  0.49884121  1
  Co  Co117  1  0.00205285  0.74764664  0.24910885  1
  Co  Co118  1  -0.00274215  0.00262575  0.49712572  1
  Co  Co119  1  0.12892536  0.12329476  0.37500871  1
  Co  Co120  1  0.63047416  0.62435254  0.87289664  1
  Co  Co121  1  0.24720643  0.25161122  0.00387307  1
  Co  Co122  1  0.25019784  0.75111825  0.25383654  1
  Co  Co123  1  0.00206328  0.24674605  0.25159845  1
  Co  Co124  1  0.87884184  0.37526716  0.37032972  1
  Co  Co125  1  0.62617979  0.37522764  0.12199464  1
  Co  Co126  1  0.12432166  0.37694178  0.87606080  1
  Co  Co127  1  0.50357843  0.74175935  0.50343424  1
