# generated using pymatgen
data_Fe45Co19
_symmetry_space_group_name_H-M   'P 1'
_cell_length_a   11.41448421
_cell_length_b   11.41533737
_cell_length_c   11.41403462
_cell_angle_alpha   90.00046821
_cell_angle_beta   90.00128777
_cell_angle_gamma   90.00034325
_symmetry_Int_Tables_number   1
_chemical_formula_structural   Fe45Co19
_chemical_formula_sum   'Fe90 Co38'
_cell_volume   1487.25085935
_cell_formula_units_Z   2
loop_
 _symmetry_equiv_pos_site_id
 _symmetry_equiv_pos_as_xyz
  1  'x, y, z'
loop_
 _atom_site_type_symbol
 _atom_site_label
 _atom_site_symmetry_multiplicity
 _atom_site_fract_x
 _atom_site_fract_y
 _atom_site_fract_z
 _atom_site_occupancy
  Fe  Fe0  1  0.12374736  0.12238313  0.12386334  1
  Fe  Fe1  1  0.12469032  0.12137747  0.87569488  1
  Fe  Fe2  1  0.12152699  0.37620020  0.37708034  1
  Fe  Fe3  1  0.12430329  0.37540561  0.12320665  1
  Fe  Fe4  1  0.50290735  0.25183744  0.75070796  1
  Fe  Fe5  1  0.37488289  0.62591690  0.37316075  1
  Fe  Fe6  1  0.37034741  0.87136340  0.87490974  1
  Fe  Fe7  1  0.37784281  0.62469249  0.12730593  1
  Fe  Fe8  1  0.87432201  0.12592158  0.37347033  1
  Fe  Fe9  1  0.49855475  0.00035643  -0.00120304  1
  Fe  Fe10  1  0.62376745  0.87158799  0.62255167  1
  Fe  Fe11  1  0.49913595  0.00023714  0.50027561  1
  Fe  Fe12  1  0.88008230  0.62691506  0.37053869  1
  Fe  Fe13  1  0.74909380  0.50351776  0.00445449  1
  Fe  Fe14  1  0.62708142  0.37764349  0.87565274  1
  Fe  Fe15  1  0.24862292  0.75164037  0.24818305  1
  Fe  Fe16  1  0.62617067  0.62367542  0.87382491  1
  Fe  Fe17  1  0.50044058  -0.00351951  0.25171996  1
  Fe  Fe18  1  0.50148192  0.24977671  0.50073664  1
  Fe  Fe19  1  0.62794787  0.87308105  0.37678710  1
  Fe  Fe20  1  0.62284726  0.62543520  0.37055976  1
  Fe  Fe21  1  0.37739849  0.12617468  0.12620209  1
  Fe  Fe22  1  -0.00196474  0.49953256  0.75164094  1
  Fe  Fe23  1  0.12606341  0.37614713  0.87634373  1
  Fe  Fe24  1  0.87592558  0.87156750  0.62217567  1
  Fe  Fe25  1  0.00079904  0.50197605  -0.00020065  1
  Fe  Fe26  1  0.62711823  0.12480357  0.62714174  1
  Fe  Fe27  1  0.49844357  0.50171347  0.49805888  1
  Fe  Fe28  1  0.75010014  0.00084872  0.00070674  1
  Fe  Fe29  1  0.37457522  0.87480100  0.12304601  1
  Fe  Fe30  1  0.87227551  0.12433644  0.87087090  1
  Fe  Fe31  1  0.25110264  -0.00081165  0.24987703  1
  Fe  Fe32  1  0.62604177  0.12410417  0.37440830  1
  Fe  Fe33  1  0.25041640  0.24755858  0.00006030  1
  Fe  Fe34  1  0.12260132  0.62416194  0.12780446  1
  Fe  Fe35  1  0.24964352  -0.00503585  0.74783815  1
  Fe  Fe36  1  0.75089303  0.50192122  0.24651611  1
  Fe  Fe37  1  0.87578500  0.37484325  0.12442770  1
  Fe  Fe38  1  0.75265465  0.50372767  0.50027678  1
  Fe  Fe39  1  0.50125696  0.50063813  0.00185543  1
  Fe  Fe40  1  0.25151353  0.50180748  0.74798001  1
  Fe  Fe41  1  0.24917326  0.50385099  0.50162823  1
  Fe  Fe42  1  0.12135282  0.37739760  0.62405419  1
  Fe  Fe43  1  0.87374168  0.87362777  0.12401628  1
  Fe  Fe44  1  0.37329649  0.87317555  0.37841545  1
  Fe  Fe45  1  0.87815468  0.62645853  0.62748155  1
  Fe  Fe46  1  0.49946250  -0.00164790  0.74905045  1
  Fe  Fe47  1  0.12373444  0.12376364  0.62650329  1
  Fe  Fe48  1  0.00122080  0.75085744  -0.00041559  1
  Fe  Fe49  1  0.87336621  0.37511740  0.87522054  1
  Fe  Fe50  1  0.37320071  0.62673879  0.87206851  1
  Fe  Fe51  1  -0.00043812  0.24800659  -0.00169789  1
  Fe  Fe52  1  0.87481021  0.12478468  0.12685682  1
  Fe  Fe53  1  0.87374242  0.12865080  0.62792844  1
  Fe  Fe54  1  0.75153121  0.00006203  0.50023805  1
  Fe  Fe55  1  0.25193301  -0.00005927  0.50378594  1
  Fe  Fe56  1  0.24782957  0.25070775  0.74919830  1
  Fe  Fe57  1  0.00024337  -0.00440097  0.75161219  1
  Fe  Fe58  1  0.87281863  0.87366628  0.87592401  1
  Fe  Fe59  1  0.12442700  0.12446888  0.37413547  1
  Fe  Fe60  1  0.50093423  0.74953777  -0.00131454  1
  Fe  Fe61  1  0.62104861  0.62495405  0.62759234  1
  Fe  Fe62  1  0.12697070  0.62891900  0.87140165  1
  Fe  Fe63  1  -0.00183372  -0.00353402  0.25117447  1
  Fe  Fe64  1  0.74933642  0.25026749  0.25064280  1
  Fe  Fe65  1  0.37480300  0.37562646  0.12313335  1
  Fe  Fe66  1  0.74919602  0.74994129  0.74903291  1
  Fe  Fe67  1  0.62335552  0.12580636  0.12470363  1
  Fe  Fe68  1  0.87358745  0.62635648  0.87595060  1
  Fe  Fe69  1  0.24861543  0.24898786  0.50096285  1
  Fe  Fe70  1  0.12560047  0.87369622  0.37811552  1
  Fe  Fe71  1  0.87547762  0.37249229  0.62524583  1
  Fe  Fe72  1  -0.00198381  0.00149806  0.49896072  1
  Fe  Fe73  1  0.87684268  0.37399727  0.37536926  1
  Fe  Fe74  1  0.62739787  0.87658174  0.87481466  1
  Fe  Fe75  1  0.12649699  0.87879145  0.11926335  1
  Fe  Fe76  1  0.62702928  0.37827842  0.62453186  1
  Fe  Fe77  1  0.62582487  0.87340592  0.12459778  1
  Fe  Fe78  1  0.75159058  0.75031590  0.24915929  1
  Fe  Fe79  1  0.37604111  0.12628557  0.87223524  1
  Fe  Fe80  1  0.37535378  0.12625027  0.37587705  1
  Fe  Fe81  1  0.74785281  0.24822708  -0.00213443  1
  Fe  Fe82  1  0.37563672  0.37528599  0.62369136  1
  Fe  Fe83  1  0.62671060  0.37730022  0.37490816  1
  Fe  Fe84  1  0.37339302  0.37605896  0.87662603  1
  Fe  Fe85  1  0.24939998  0.49859606  0.25160245  1
  Fe  Fe86  1  0.00212606  0.74641296  0.49922925  1
  Fe  Fe87  1  0.49974321  0.25442585  0.25151541  1
  Fe  Fe88  1  0.24895359  0.25130091  0.25092703  1
  Fe  Fe89  1  0.24978010  0.74650355  0.50719658  1
  Co  Co90  1  0.24937907  0.50353981  0.00024014  1
  Co  Co91  1  0.12088323  0.87523057  0.62202312  1
  Co  Co92  1  0.62615067  0.37347063  0.12478239  1
  Co  Co93  1  0.24867864  0.75197828  0.74323185  1
  Co  Co94  1  0.38022702  0.62499361  0.62784594  1
  Co  Co95  1  0.12482166  0.62632837  0.37318088  1
  Co  Co96  1  0.37399281  0.37494657  0.37847816  1
  Co  Co97  1  0.62292356  0.62819000  0.12782360  1
  Co  Co98  1  0.12906328  0.87378443  0.87860203  1
  Co  Co99  1  0.49841777  0.75415784  0.25127104  1
  Co  Co100  1  0.75117382  -0.00420098  0.74637375  1
  Co  Co101  1  -0.00013129  0.49821565  0.24901625  1
  Co  Co102  1  0.87452316  0.87150913  0.37775501  1
  Co  Co103  1  0.74674037  0.25231172  0.75154858  1
  Co  Co104  1  0.50048822  0.25120804  -0.00304783  1
  Co  Co105  1  0.00091513  0.24986162  0.24938654  1
  Co  Co106  1  0.00007159  0.75323576  0.75261008  1
  Co  Co107  1  0.74960520  0.74425222  0.50022490  1
  Co  Co108  1  0.00009234  0.24794022  0.50008643  1
  Co  Co109  1  0.37963669  0.87304375  0.62398612  1
  Co  Co110  1  0.75236885  0.50118745  0.74795842  1
  Co  Co111  1  -0.00255391  0.50230676  0.49948127  1
  Co  Co112  1  0.87745751  0.62732823  0.12476915  1
  Co  Co113  1  0.25487663  0.00363554  -0.00106418  1
  Co  Co114  1  0.74978011  0.24997032  0.49965494  1
  Co  Co115  1  0.12063725  0.62305323  0.62872025  1
  Co  Co116  1  0.49873456  0.49742327  0.75236753  1
  Co  Co117  1  0.37510542  0.12628942  0.62657786  1
  Co  Co118  1  0.50152728  0.75168843  0.75332674  1
  Co  Co119  1  0.62555746  0.12111104  0.87383527  1
  Co  Co120  1  0.74825453  0.74892338  -0.00061206  1
  Co  Co121  1  0.24962613  0.74598926  0.00350198  1
  Co  Co122  1  0.00189198  0.25069584  0.75181549  1
  Co  Co123  1  0.49972265  0.74769301  0.49715700  1
  Co  Co124  1  0.49931182  0.49678521  0.24954005  1
  Co  Co125  1  0.00286744  0.75571831  0.24761429  1
  Co  Co126  1  0.75019281  -0.00162150  0.25032692  1
  Co  Co127  1  -0.00433420  -0.00022978  -0.00191840  1
