# generated using pymatgen
data_Fe45Co19
_symmetry_space_group_name_H-M   'P 1'
_cell_length_a   11.41668056
_cell_length_b   11.41525458
_cell_length_c   11.41536476
_cell_angle_alpha   89.99799912
_cell_angle_beta   89.99856763
_cell_angle_gamma   90.00722111
_symmetry_Int_Tables_number   1
_chemical_formula_structural   Fe45Co19
_chemical_formula_sum   'Fe90 Co38'
_cell_volume   1487.69957976
_cell_formula_units_Z   2
loop_
 _symmetry_equiv_pos_site_id
 _symmetry_equiv_pos_as_xyz
  1  'x, y, z'
loop_
 _atom_site_type_symbol
 _atom_site_label
 _atom_site_symmetry_multiplicity
 _atom_site_fract_x
 _atom_site_fract_y
 _atom_site_fract_z
 _atom_site_occupancy
  Fe  Fe0  1  0.00036704  -0.00028936  0.24816170  1
  Fe  Fe1  1  0.24540100  0.75270745  0.74926158  1
  Fe  Fe2  1  0.50138115  0.75230557  0.25209222  1
  Fe  Fe3  1  0.62630115  0.87726540  0.12324939  1
  Fe  Fe4  1  -0.00076624  0.75288910  0.24943159  1
  Fe  Fe5  1  0.74990147  0.75100912  0.24941820  1
  Fe  Fe6  1  0.24990414  0.25050888  0.00124433  1
  Fe  Fe7  1  0.25037894  0.75121685  0.25075094  1
  Fe  Fe8  1  0.87215132  0.62607485  0.87122623  1
  Fe  Fe9  1  0.37218793  0.87498170  0.87475909  1
  Fe  Fe10  1  0.62632237  0.62554463  0.37671829  1
  Fe  Fe11  1  0.74811965  0.24991134  0.24493305  1
  Fe  Fe12  1  0.00136218  0.00223404  0.00242596  1
  Fe  Fe13  1  0.12555055  0.87696687  0.37896395  1
  Fe  Fe14  1  0.12399584  0.37527921  0.37696176  1
  Fe  Fe15  1  0.87297845  0.87608701  0.37484952  1
  Fe  Fe16  1  0.37499334  0.12424289  0.12527856  1
  Fe  Fe17  1  0.75028105  0.49950734  -0.00129378  1
  Fe  Fe18  1  0.87925459  0.87606001  0.87270732  1
  Fe  Fe19  1  0.50169596  0.75212245  0.50020209  1
  Fe  Fe20  1  0.87396780  0.12609612  0.37297719  1
  Fe  Fe21  1  0.37628459  0.12677894  0.37532958  1
  Fe  Fe22  1  0.50033454  0.75201056  0.74998711  1
  Fe  Fe23  1  0.62555259  0.62394436  0.12471889  1
  Fe  Fe24  1  0.75027187  0.49932999  0.50040488  1
  Fe  Fe25  1  0.24916317  0.74958322  0.50035344  1
  Fe  Fe26  1  0.87589127  0.62479793  0.12506619  1
  Fe  Fe27  1  0.75031267  0.75187406  -0.00208988  1
  Fe  Fe28  1  0.74986385  0.00170571  0.24820690  1
  Fe  Fe29  1  0.87421176  0.62440470  0.37435526  1
  Fe  Fe30  1  0.87507893  0.37260811  0.37634275  1
  Fe  Fe31  1  0.75040921  0.00304524  0.50141963  1
  Fe  Fe32  1  0.12394413  0.62286788  0.37448087  1
  Fe  Fe33  1  0.74895460  0.24596102  0.50326744  1
  Fe  Fe34  1  0.50196887  0.49890865  0.24944397  1
  Fe  Fe35  1  0.62384130  0.37407743  0.62545185  1
  Fe  Fe36  1  0.49850818  0.49776819  0.50246939  1
  Fe  Fe37  1  -0.00196550  0.24660196  0.50315127  1
  Fe  Fe38  1  0.24965147  -0.00073878  0.25129537  1
  Fe  Fe39  1  0.62569824  0.87798023  0.87210051  1
  Fe  Fe40  1  0.50172599  0.25023082  0.24810249  1
  Fe  Fe41  1  0.75149299  0.75123778  0.50443545  1
  Fe  Fe42  1  0.37568228  0.37613399  0.87690235  1
  Fe  Fe43  1  0.25137598  0.49734901  0.74980230  1
  Fe  Fe44  1  0.24854651  0.25031794  0.74910062  1
  Fe  Fe45  1  0.00175131  0.24982359  0.24755132  1
  Fe  Fe46  1  0.50142982  0.75016088  -0.00204940  1
  Fe  Fe47  1  0.12473846  0.37442650  0.62506526  1
  Fe  Fe48  1  0.50176824  0.00202710  0.49822473  1
  Fe  Fe49  1  -0.00444935  0.49275274  0.75428711  1
  Fe  Fe50  1  0.37618508  0.12541722  0.62513726  1
  Fe  Fe51  1  0.62681267  0.62308743  0.62877283  1
  Fe  Fe52  1  -0.00083916  0.49946269  0.49921207  1
  Fe  Fe53  1  0.24842380  0.49868279  0.24936968  1
  Fe  Fe54  1  0.12530809  0.12451624  0.37660897  1
  Fe  Fe55  1  0.87383531  0.62216345  0.62955206  1
  Fe  Fe56  1  0.62516129  0.37171875  0.87842007  1
  Fe  Fe57  1  0.37337182  0.12502540  0.87416011  1
  Fe  Fe58  1  0.87753836  0.12986046  0.87381829  1
  Fe  Fe59  1  0.62558772  0.88017959  0.62833109  1
  Fe  Fe60  1  0.24745977  0.00010645  0.00010686  1
  Fe  Fe61  1  0.37537051  0.62439606  0.87359827  1
  Fe  Fe62  1  0.12523356  0.62189671  0.87435650  1
  Fe  Fe63  1  0.50051211  0.00357082  -0.00409507  1
  Fe  Fe64  1  0.24790068  0.74945112  -0.00049943  1
  Fe  Fe65  1  0.12331671  0.62278026  0.62657311  1
  Fe  Fe66  1  0.37496960  0.62366186  0.62612464  1
  Fe  Fe67  1  0.87964188  0.87873954  0.62976142  1
  Fe  Fe68  1  0.25131497  0.24990434  0.50061969  1
  Fe  Fe69  1  0.37645677  0.62441174  0.12406282  1
  Fe  Fe70  1  0.12248411  0.37773281  0.12032886  1
  Fe  Fe71  1  0.49831600  0.24989754  0.75024658  1
  Fe  Fe72  1  0.00039305  0.74978255  -0.00069413  1
  Fe  Fe73  1  0.37378917  0.87615772  0.62399521  1
  Fe  Fe74  1  0.62535070  0.37248427  0.37586433  1
  Fe  Fe75  1  0.37515389  0.37505446  0.37682780  1
  Fe  Fe76  1  0.75046365  0.00507656  -0.00205502  1
  Fe  Fe77  1  0.24869482  0.25144703  0.24832588  1
  Fe  Fe78  1  0.37485926  0.87545243  0.12400496  1
  Fe  Fe79  1  0.37511601  0.62337659  0.37635326  1
  Fe  Fe80  1  -0.00189929  0.74996156  0.50182423  1
  Fe  Fe81  1  0.75199038  0.49708210  0.24922827  1
  Fe  Fe82  1  0.37823895  0.37627982  0.12150377  1
  Fe  Fe83  1  0.75366085  0.25074334  0.74752117  1
  Fe  Fe84  1  0.87673904  0.37245497  0.11961076  1
  Fe  Fe85  1  0.12419264  0.12794223  0.87410091  1
  Fe  Fe86  1  0.24552554  -0.00109301  0.74742131  1
  Fe  Fe87  1  0.62659087  0.62438749  0.87058476  1
  Fe  Fe88  1  0.50168627  -0.00150570  0.25334914  1
  Fe  Fe89  1  0.12236495  0.62253507  0.12476433  1
  Co  Co90  1  -0.00332181  0.00247939  0.49855574  1
  Co  Co91  1  0.25211202  0.00264669  0.50112315  1
  Co  Co92  1  0.50087937  0.24889256  0.50166840  1
  Co  Co93  1  0.00238824  0.74949110  0.75066514  1
  Co  Co94  1  0.62376933  0.12332940  0.63020610  1
  Co  Co95  1  -0.00203932  0.49744023  0.25078462  1
  Co  Co96  1  0.87708869  0.12674925  0.12530019  1
  Co  Co97  1  0.12234500  0.87661031  0.62167756  1
  Co  Co98  1  0.00476558  0.00436307  0.75045590  1
  Co  Co99  1  0.37421790  0.37353914  0.62547810  1
  Co  Co100  1  0.74523255  0.24330154  0.00379533  1
  Co  Co101  1  -0.00107957  0.25339625  0.74810443  1
  Co  Co102  1  0.50005934  0.49793142  0.75047667  1
  Co  Co103  1  0.75346430  0.00233819  0.75320114  1
  Co  Co104  1  0.62524398  0.12709712  0.86892694  1
  Co  Co105  1  0.62183265  0.12219498  0.12645235  1
  Co  Co106  1  0.87283437  0.36697452  0.88236375  1
  Co  Co107  1  0.37411944  0.87498715  0.37671481  1
  Co  Co108  1  0.49594634  -0.00004119  0.75187740  1
  Co  Co109  1  0.62358896  0.37553964  0.12115681  1
  Co  Co110  1  0.62896035  0.87454317  0.37630126  1
  Co  Co111  1  0.12263679  0.87620049  0.87605694  1
  Co  Co112  1  0.12441631  0.12593071  0.62329489  1
  Co  Co113  1  0.75139400  0.49328770  0.75209994  1
  Co  Co114  1  0.25136096  0.50062980  0.00021895  1
  Co  Co115  1  0.12602535  0.37396437  0.87615099  1
  Co  Co116  1  0.49979094  0.24509203  -0.00087318  1
  Co  Co117  1  0.62639564  0.12724239  0.37373955  1
  Co  Co118  1  -0.00365953  0.50154984  -0.00498310  1
  Co  Co119  1  0.24988098  0.49903971  0.50097414  1
  Co  Co120  1  0.87523035  0.37586144  0.62106074  1
  Co  Co121  1  0.12596378  0.87459633  0.12434325  1
  Co  Co122  1  0.75033733  0.75424086  0.74870140  1
  Co  Co123  1  0.87619351  0.12266722  0.62832336  1
  Co  Co124  1  0.50149377  0.50265057  -0.00239720  1
  Co  Co125  1  0.00432463  0.24759261  0.00071045  1
  Co  Co126  1  0.87365564  0.87582005  0.12298022  1
  Co  Co127  1  0.12711177  0.12485600  0.12571842  1
