# generated using pymatgen
data_Fe45Co19
_symmetry_space_group_name_H-M   'P 1'
_cell_length_a   11.41436046
_cell_length_b   11.41563844
_cell_length_c   11.41495026
_cell_angle_alpha   89.99097486
_cell_angle_beta   89.99265616
_cell_angle_gamma   90.01415163
_symmetry_Int_Tables_number   1
_chemical_formula_structural   Fe45Co19
_chemical_formula_sum   'Fe90 Co38'
_cell_volume   1487.39319322
_cell_formula_units_Z   2
loop_
 _symmetry_equiv_pos_site_id
 _symmetry_equiv_pos_as_xyz
  1  'x, y, z'
loop_
 _atom_site_type_symbol
 _atom_site_label
 _atom_site_symmetry_multiplicity
 _atom_site_fract_x
 _atom_site_fract_y
 _atom_site_fract_z
 _atom_site_occupancy
  Fe  Fe0  1  0.49947926  0.49793634  0.25184127  1
  Fe  Fe1  1  0.49703510  0.00206953  0.49988813  1
  Fe  Fe2  1  0.49984526  0.50079030  0.75023101  1
  Fe  Fe3  1  0.62473464  0.37552272  0.87495420  1
  Fe  Fe4  1  -0.00080084  0.75079131  0.50047203  1
  Fe  Fe5  1  0.62482037  0.37593530  0.12418679  1
  Fe  Fe6  1  0.12208991  0.87179530  0.87584068  1
  Fe  Fe7  1  0.37147213  0.12343271  0.62959360  1
  Fe  Fe8  1  0.62448669  0.87609126  0.62437538  1
  Fe  Fe9  1  0.62795908  0.12701265  0.87313241  1
  Fe  Fe10  1  0.25111126  0.75301471  0.49848822  1
  Fe  Fe11  1  0.87289269  0.62541285  0.62274518  1
  Fe  Fe12  1  0.75056518  0.49765445  0.74831091  1
  Fe  Fe13  1  0.62326966  0.87421789  0.37583262  1
  Fe  Fe14  1  0.37367266  0.62564452  0.37414285  1
  Fe  Fe15  1  0.87264998  0.62340746  0.12430069  1
  Fe  Fe16  1  0.12879101  0.63042420  0.37124758  1
  Fe  Fe17  1  0.75122304  0.25123990  0.00041876  1
  Fe  Fe18  1  0.87412640  0.62660573  0.87419383  1
  Fe  Fe19  1  0.75083336  0.25138543  0.74763029  1
  Fe  Fe20  1  0.37362508  0.62536861  0.62633734  1
  Fe  Fe21  1  0.75071063  0.75386394  0.74737341  1
  Fe  Fe22  1  0.74877840  0.75087697  0.25009908  1
  Fe  Fe23  1  0.37350459  0.87753539  0.62678323  1
  Fe  Fe24  1  0.12546964  0.37652452  0.87362414  1
  Fe  Fe25  1  0.37413581  0.37308004  0.62948913  1
  Fe  Fe26  1  -0.00222208  0.24949051  0.25341682  1
  Fe  Fe27  1  0.75273248  0.25308354  0.25515501  1
  Fe  Fe28  1  0.00196757  0.00053547  0.75111370  1
  Fe  Fe29  1  0.00145278  0.00036561  0.49884225  1
  Fe  Fe30  1  0.37362029  0.12445320  0.37291556  1
  Fe  Fe31  1  0.50054953  0.74962065  0.24678575  1
  Fe  Fe32  1  -0.00065474  -0.00063344  0.00122807  1
  Fe  Fe33  1  0.12762638  0.12364511  0.37536155  1
  Fe  Fe34  1  0.38302031  0.87805934  0.12085268  1
  Fe  Fe35  1  0.12283263  0.87128733  0.12663304  1
  Fe  Fe36  1  -0.00029573  0.24960907  -0.00031126  1
  Fe  Fe37  1  0.12677336  0.62770672  0.12673988  1
  Fe  Fe38  1  0.25056196  -0.00445741  0.24991966  1
  Fe  Fe39  1  0.25040870  -0.00229444  -0.00265805  1
  Fe  Fe40  1  0.74965188  -0.00046014  0.50074258  1
  Fe  Fe41  1  0.74513279  -0.00023027  0.24801874  1
  Fe  Fe42  1  -0.00011977  0.50263922  -0.00085675  1
  Fe  Fe43  1  0.87350173  0.12510910  0.12617630  1
  Fe  Fe44  1  0.74535832  0.74715983  0.00215674  1
  Fe  Fe45  1  0.37190644  0.12619446  0.87204610  1
  Fe  Fe46  1  0.00357480  0.24664628  0.74913900  1
  Fe  Fe47  1  0.25160288  0.50024852  -0.00309800  1
  Fe  Fe48  1  0.50170353  0.50406492  -0.00260978  1
  Fe  Fe49  1  0.62649165  0.62625792  0.62544062  1
  Fe  Fe50  1  0.61954965  0.87060484  0.87755193  1
  Fe  Fe51  1  0.62442343  0.62522342  0.37594376  1
  Fe  Fe52  1  0.87637769  0.37504904  0.87432463  1
  Fe  Fe53  1  0.50003240  0.74997493  0.50210589  1
  Fe  Fe54  1  0.50038359  -0.00037678  0.75262029  1
  Fe  Fe55  1  0.37292345  0.62150042  0.12767494  1
  Fe  Fe56  1  0.49860634  0.25089932  0.24938690  1
  Fe  Fe57  1  0.00114699  0.50351274  0.74926612  1
  Fe  Fe58  1  0.25094686  0.24842979  0.50249983  1
  Fe  Fe59  1  0.87500794  0.87566320  0.37565082  1
  Fe  Fe60  1  0.25260208  0.74998339  -0.00040085  1
  Fe  Fe61  1  0.87559452  0.37682362  0.12501373  1
  Fe  Fe62  1  0.62548659  0.12635542  0.62374734  1
  Fe  Fe63  1  0.24929082  0.50041252  0.49997912  1
  Fe  Fe64  1  0.37418897  0.37490836  0.37582861  1
  Fe  Fe65  1  0.87349459  0.87388148  0.12452670  1
  Fe  Fe66  1  0.87271260  0.62321443  0.37912240  1
  Fe  Fe67  1  0.49960126  0.49965945  0.50069645  1
  Fe  Fe68  1  0.12338809  0.37435278  0.37751817  1
  Fe  Fe69  1  0.12334306  0.37466738  0.62314314  1
  Fe  Fe70  1  0.87532705  0.87413437  0.87504727  1
  Fe  Fe71  1  0.12606755  0.87688199  0.62479047  1
  Fe  Fe72  1  0.25066851  0.25301215  0.24723450  1
  Fe  Fe73  1  0.25120540  0.25251120  -0.00069548  1
  Fe  Fe74  1  0.87894721  0.37580533  0.61859209  1
  Fe  Fe75  1  0.37722181  0.87477433  0.37443546  1
  Fe  Fe76  1  0.25180629  0.75168759  0.75355567  1
  Fe  Fe77  1  0.00180540  0.50245423  0.25166218  1
  Fe  Fe78  1  0.49876996  0.24911921  -0.00100561  1
  Fe  Fe79  1  0.74956698  0.49600145  0.25436484  1
  Fe  Fe80  1  0.12448640  0.37585588  0.12512943  1
  Fe  Fe81  1  0.74642534  0.00032616  0.00041146  1
  Fe  Fe82  1  0.87475869  0.12414810  0.87428465  1
  Fe  Fe83  1  0.12566632  0.12508893  0.12388563  1
  Fe  Fe84  1  0.62423813  0.12819310  0.37669650  1
  Fe  Fe85  1  0.12768580  0.62741478  0.62720837  1
  Fe  Fe86  1  0.62306804  0.37092912  0.62081293  1
  Fe  Fe87  1  0.37574295  0.12297928  0.12538344  1
  Fe  Fe88  1  0.00076667  -0.00106180  0.24894759  1
  Fe  Fe89  1  0.87415377  0.12264282  0.62565674  1
  Co  Co90  1  0.49426832  0.24759231  0.50115571  1
  Co  Co91  1  0.50200610  0.24847721  0.75102872  1
  Co  Co92  1  -0.00138223  0.74823234  0.00130195  1
  Co  Co93  1  0.74709201  -0.00225128  0.75161458  1
  Co  Co94  1  0.38153217  0.87167852  0.87828301  1
  Co  Co95  1  -0.00158534  0.24366039  0.49822672  1
  Co  Co96  1  0.25541271  0.75524644  0.24731406  1
  Co  Co97  1  0.12361014  0.87256368  0.37373411  1
  Co  Co98  1  0.37577497  0.37526773  0.87197553  1
  Co  Co99  1  -0.00500372  0.74807494  0.25000444  1
  Co  Co100  1  0.75467219  0.25036554  0.49812380  1
  Co  Co101  1  0.24461834  0.24982675  0.75006728  1
  Co  Co102  1  0.88008183  0.38042094  0.38086625  1
  Co  Co103  1  0.24837692  0.49680433  0.25153061  1
  Co  Co104  1  0.12809130  0.12128642  0.62279577  1
  Co  Co105  1  0.50170204  0.74007592  0.00481978  1
  Co  Co106  1  0.12485878  0.12507126  0.87879700  1
  Co  Co107  1  0.62580814  0.12894413  0.12672285  1
  Co  Co108  1  0.62054691  0.87608682  0.12219776  1
  Co  Co109  1  0.62625810  0.62690567  0.86887820  1
  Co  Co110  1  0.12563928  0.62616743  0.87502276  1
  Co  Co111  1  0.50312661  0.00723686  -0.00401423  1
  Co  Co112  1  -0.00099501  0.74942617  0.74795852  1
  Co  Co113  1  0.24946089  0.50032431  0.75002523  1
  Co  Co114  1  0.24841164  -0.00285588  0.75585378  1
  Co  Co115  1  0.37728612  0.37784556  0.12320363  1
  Co  Co116  1  0.37656066  0.62677677  0.87198713  1
  Co  Co117  1  0.49916870  0.75057605  0.74548911  1
  Co  Co118  1  0.74921590  0.75206425  0.50086174  1
  Co  Co119  1  0.00588796  0.50691361  0.50000605  1
  Co  Co120  1  0.62123407  0.37207932  0.37856291  1
  Co  Co121  1  0.50228829  0.00170526  0.25174318  1
  Co  Co122  1  0.87637240  0.87772258  0.62475694  1
  Co  Co123  1  0.74940272  0.50020895  -0.00308667  1
  Co  Co124  1  0.87370059  0.11946780  0.37349121  1
  Co  Co125  1  0.62780516  0.62019956  0.12976527  1
  Co  Co126  1  0.74507843  0.49780872  0.50100847  1
  Co  Co127  1  0.25247803  -0.00137049  0.49664579  1
