# generated using pymatgen
data_Fe45Co19
_symmetry_space_group_name_H-M   'P 1'
_cell_length_a   11.41466373
_cell_length_b   11.41471323
_cell_length_c   11.41511058
_cell_angle_alpha   89.99763214
_cell_angle_beta   90.00296799
_cell_angle_gamma   90.00902089
_symmetry_Int_Tables_number   1
_chemical_formula_structural   Fe45Co19
_chemical_formula_sum   'Fe90 Co38'
_cell_volume   1487.33310300
_cell_formula_units_Z   2
loop_
 _symmetry_equiv_pos_site_id
 _symmetry_equiv_pos_as_xyz
  1  'x, y, z'
loop_
 _atom_site_type_symbol
 _atom_site_label
 _atom_site_symmetry_multiplicity
 _atom_site_fract_x
 _atom_site_fract_y
 _atom_site_fract_z
 _atom_site_occupancy
  Fe  Fe0  1  0.62267252  0.12706225  0.12234102  1
  Fe  Fe1  1  0.87192084  0.87396735  0.87374127  1
  Fe  Fe2  1  0.24861209  0.74978711  0.75046283  1
  Fe  Fe3  1  0.62301569  0.12393091  0.62461002  1
  Fe  Fe4  1  0.00220874  0.25122907  0.75116103  1
  Fe  Fe5  1  0.86935735  0.37720613  0.37191238  1
  Fe  Fe6  1  0.49975606  0.25229355  0.75212549  1
  Fe  Fe7  1  0.62444454  0.87578424  0.37533518  1
  Fe  Fe8  1  0.87644504  0.62309024  0.62729688  1
  Fe  Fe9  1  0.25352734  0.74671988  0.50109001  1
  Fe  Fe10  1  0.74625800  0.25059998  0.74895062  1
  Fe  Fe11  1  0.12859683  0.12505140  0.87592366  1
  Fe  Fe12  1  -0.00254852  0.49829393  0.49871206  1
  Fe  Fe13  1  0.50228538  -0.00092632  0.75072808  1
  Fe  Fe14  1  0.37601555  0.62579361  0.12692292  1
  Fe  Fe15  1  0.87430991  0.87466422  0.62795777  1
  Fe  Fe16  1  0.62698834  0.62153879  0.37602677  1
  Fe  Fe17  1  0.25335533  0.25245505  0.74685437  1
  Fe  Fe18  1  0.00516082  0.49791193  0.75391907  1
  Fe  Fe19  1  0.62656228  0.37199275  0.12452614  1
  Fe  Fe20  1  0.50316916  0.24914928  0.25243905  1
  Fe  Fe21  1  0.12379002  0.12463813  0.12339803  1
  Fe  Fe22  1  0.87178962  0.12556307  0.87230233  1
  Fe  Fe23  1  0.49937802  0.00034911  0.00023450  1
  Fe  Fe24  1  0.37334407  0.87676888  0.87493238  1
  Fe  Fe25  1  0.37228387  0.37317844  0.37409556  1
  Fe  Fe26  1  0.62810526  0.87268796  0.87665058  1
  Fe  Fe27  1  0.74852081  -0.00166635  0.50291360  1
  Fe  Fe28  1  0.87837681  0.62512903  0.12305204  1
  Fe  Fe29  1  0.25087796  0.00107053  0.24682004  1
  Fe  Fe30  1  0.62520555  0.37300965  0.87962772  1
  Fe  Fe31  1  0.25637447  0.50232561  0.50210427  1
  Fe  Fe32  1  -0.00000017  0.75064241  0.49924233  1
  Fe  Fe33  1  0.12405031  0.37460036  0.12101369  1
  Fe  Fe34  1  0.00229315  0.25163846  0.25305756  1
  Fe  Fe35  1  0.12252451  0.87878979  0.12178883  1
  Fe  Fe36  1  0.62669384  0.62652022  0.87861038  1
  Fe  Fe37  1  0.74813900  0.74974514  0.24619989  1
  Fe  Fe38  1  0.37801046  0.87451536  0.12620962  1
  Fe  Fe39  1  0.87284547  0.62505622  0.37396028  1
  Fe  Fe40  1  0.87431385  0.12641231  0.62558473  1
  Fe  Fe41  1  0.37377329  0.87323109  0.37129173  1
  Fe  Fe42  1  0.37608362  0.87424375  0.62665894  1
  Fe  Fe43  1  0.49772725  0.49892210  -0.00102929  1
  Fe  Fe44  1  -0.00233054  0.24959444  -0.00195008  1
  Fe  Fe45  1  0.74887115  0.25313904  0.50011951  1
  Fe  Fe46  1  0.87302650  0.37314862  0.12659730  1
  Fe  Fe47  1  0.74938857  0.74951549  0.50339028  1
  Fe  Fe48  1  0.25529204  0.24947990  0.00154332  1
  Fe  Fe49  1  0.24892059  0.49830041  0.24793884  1
  Fe  Fe50  1  0.87349428  0.37426658  0.87364235  1
  Fe  Fe51  1  0.62279186  0.62738109  0.12157379  1
  Fe  Fe52  1  0.12295409  0.62337009  0.12021336  1
  Fe  Fe53  1  0.12687122  0.87754704  0.87745994  1
  Fe  Fe54  1  0.87550901  0.62588493  0.87628969  1
  Fe  Fe55  1  0.00018316  -0.00026852  0.49956464  1
  Fe  Fe56  1  0.49644118  0.74641511  0.49924623  1
  Fe  Fe57  1  -0.00102909  0.25234635  0.49734592  1
  Fe  Fe58  1  0.37353279  0.12637871  0.37191239  1
  Fe  Fe59  1  0.75140948  0.49931688  0.00197030  1
  Fe  Fe60  1  0.00088343  0.49835048  0.25062572  1
  Fe  Fe61  1  0.12600910  0.87602050  0.62468366  1
  Fe  Fe62  1  0.12547710  0.12536799  0.62493429  1
  Fe  Fe63  1  0.74559706  0.00149391  0.24923769  1
  Fe  Fe64  1  0.87439194  0.87505296  0.37326372  1
  Fe  Fe65  1  0.00064602  0.00079419  0.75118067  1
  Fe  Fe66  1  0.25283934  0.00209144  0.50253445  1
  Fe  Fe67  1  0.37126904  0.61944997  0.87172824  1
  Fe  Fe68  1  0.50164592  0.49883067  0.25168741  1
  Fe  Fe69  1  0.25146127  0.74950533  0.00095629  1
  Fe  Fe70  1  0.87325119  0.12407709  0.37518859  1
  Fe  Fe71  1  0.62077762  0.62268697  0.62339608  1
  Fe  Fe72  1  0.12806933  0.12674714  0.37561564  1
  Fe  Fe73  1  0.50210045  0.75027158  0.25069811  1
  Fe  Fe74  1  0.49797551  -0.00027588  0.49937866  1
  Fe  Fe75  1  0.00272038  0.75123119  0.24978198  1
  Fe  Fe76  1  0.12738752  0.87523581  0.37526072  1
  Fe  Fe77  1  0.87628795  0.12497439  0.12676913  1
  Fe  Fe78  1  0.37567596  0.12435002  0.87426742  1
  Fe  Fe79  1  0.12528200  0.37416759  0.62136173  1
  Fe  Fe80  1  0.74922337  0.00158537  -0.00046612  1
  Fe  Fe81  1  0.37647458  0.37277327  0.12548638  1
  Fe  Fe82  1  0.49864394  0.25067530  0.49857229  1
  Fe  Fe83  1  0.50119647  0.74899309  0.75234085  1
  Fe  Fe84  1  0.74760470  0.49990003  0.74916140  1
  Fe  Fe85  1  0.12509089  0.62477010  0.62505568  1
  Fe  Fe86  1  0.87698742  0.87777444  0.12509175  1
  Fe  Fe87  1  0.62091790  0.37897678  0.62148977  1
  Fe  Fe88  1  0.00218293  0.74959763  0.75271917  1
  Fe  Fe89  1  0.12727601  0.62393339  0.37441855  1
  Co  Co90  1  0.87676260  0.37469449  0.62896164  1
  Co  Co91  1  0.62334165  0.12599759  0.87603672  1
  Co  Co92  1  0.37925592  0.37948265  0.62659188  1
  Co  Co93  1  0.50142705  0.00121536  0.24989351  1
  Co  Co94  1  0.12910820  0.37201069  0.87972520  1
  Co  Co95  1  0.12697167  0.62411834  0.87920256  1
  Co  Co96  1  0.62476482  0.12350657  0.37836996  1
  Co  Co97  1  -0.00213296  0.49619832  -0.00299328  1
  Co  Co98  1  0.25322479  0.00116460  0.00248747  1
  Co  Co99  1  0.37784473  0.12651887  0.12723790  1
  Co  Co100  1  0.37877866  0.12410804  0.62774671  1
  Co  Co101  1  0.74799949  0.74692299  0.74755285  1
  Co  Co102  1  0.49669878  0.25092989  -0.00173133  1
  Co  Co103  1  0.74709544  0.00103226  0.74885847  1
  Co  Co104  1  0.24538522  0.75111878  0.24498972  1
  Co  Co105  1  0.12951141  0.37717407  0.37881352  1
  Co  Co106  1  0.50449431  0.49840782  0.75517456  1
  Co  Co107  1  0.37210072  0.62723574  0.36713770  1
  Co  Co108  1  0.62160934  0.87412744  0.12208532  1
  Co  Co109  1  0.25376982  0.24911191  0.50448185  1
  Co  Co110  1  0.74733511  0.24635211  0.25149487  1
  Co  Co111  1  0.24412475  0.49579796  0.74804203  1
  Co  Co112  1  0.62178604  0.87347061  0.62520817  1
  Co  Co113  1  0.00006927  0.75288832  -0.00130463  1
  Co  Co114  1  0.75241155  0.75020282  0.00324027  1
  Co  Co115  1  0.75214366  0.49889883  0.50367476  1
  Co  Co116  1  0.74783458  0.50348857  0.24475198  1
  Co  Co117  1  0.75198220  0.24852640  -0.00027152  1
  Co  Co118  1  0.37719923  0.62233656  0.63317546  1
  Co  Co119  1  -0.00227926  0.00216027  -0.00469034  1
  Co  Co120  1  0.25057596  0.00084597  0.74825510  1
  Co  Co121  1  0.00182884  0.00142343  0.25291852  1
  Co  Co122  1  0.24695180  0.25103148  0.24710155  1
  Co  Co123  1  0.49369148  0.50280208  0.49445342  1
  Co  Co124  1  0.37327692  0.37768409  0.87392530  1
  Co  Co125  1  0.49514648  0.74866993  -0.00395926  1
  Co  Co126  1  0.62724011  0.37868948  0.37578513  1
  Co  Co127  1  0.25338264  0.49946915  0.00254221  1
