# generated using pymatgen
data_Fe45Co19
_symmetry_space_group_name_H-M   'P 1'
_cell_length_a   11.41439977
_cell_length_b   11.41504505
_cell_length_c   11.41536611
_cell_angle_alpha   90.00474472
_cell_angle_beta   90.00030533
_cell_angle_gamma   89.98979800
_symmetry_Int_Tables_number   1
_chemical_formula_structural   Fe45Co19
_chemical_formula_sum   'Fe90 Co38'
_cell_volume   1487.37523175
_cell_formula_units_Z   2
loop_
 _symmetry_equiv_pos_site_id
 _symmetry_equiv_pos_as_xyz
  1  'x, y, z'
loop_
 _atom_site_type_symbol
 _atom_site_label
 _atom_site_symmetry_multiplicity
 _atom_site_fract_x
 _atom_site_fract_y
 _atom_site_fract_z
 _atom_site_occupancy
  Fe  Fe0  1  0.87654884  0.62763579  0.37554521  1
  Fe  Fe1  1  0.00016783  0.75060332  -0.00193005  1
  Fe  Fe2  1  -0.00268115  -0.00005135  0.49896354  1
  Fe  Fe3  1  0.87441634  0.62541731  0.12380263  1
  Fe  Fe4  1  0.25158300  0.49884217  -0.00276203  1
  Fe  Fe5  1  0.75008797  0.74679780  0.74828538  1
  Fe  Fe6  1  0.37749085  0.87344323  0.37253654  1
  Fe  Fe7  1  0.87369494  0.37451619  0.37336089  1
  Fe  Fe8  1  0.12489653  0.12300414  0.87555201  1
  Fe  Fe9  1  0.12381331  0.37601672  0.62426672  1
  Fe  Fe10  1  0.62559435  0.37414172  0.87489958  1
  Fe  Fe11  1  -0.00229957  0.00018733  0.25159055  1
  Fe  Fe12  1  -0.00040089  0.00077834  0.75008523  1
  Fe  Fe13  1  0.50192778  0.25414597  0.49962494  1
  Fe  Fe14  1  0.12562035  0.87746046  0.62767056  1
  Fe  Fe15  1  0.87007196  0.87754345  0.62456040  1
  Fe  Fe16  1  0.24818295  0.74974093  0.75207422  1
  Fe  Fe17  1  0.37712110  0.62453275  0.62404653  1
  Fe  Fe18  1  0.12364124  0.87504037  0.12365533  1
  Fe  Fe19  1  0.24981093  0.24646460  0.74896434  1
  Fe  Fe20  1  -0.00120388  0.24886465  0.74827999  1
  Fe  Fe21  1  -0.00080470  0.49908693  0.75045805  1
  Fe  Fe22  1  0.87578148  0.62217342  0.62373927  1
  Fe  Fe23  1  0.37749211  0.37587606  0.62757514  1
  Fe  Fe24  1  0.37352136  0.37548636  0.12618377  1
  Fe  Fe25  1  0.12413908  0.12472581  0.37492566  1
  Fe  Fe26  1  0.12492966  0.37479183  0.37606931  1
  Fe  Fe27  1  0.74936148  0.75041620  0.25125842  1
  Fe  Fe28  1  0.62488323  0.37489597  0.12719733  1
  Fe  Fe29  1  0.49750565  0.25342072  0.00159377  1
  Fe  Fe30  1  0.37806498  0.12237854  0.62539979  1
  Fe  Fe31  1  0.87531976  0.37685305  0.12605591  1
  Fe  Fe32  1  0.87261535  0.12454171  0.87693039  1
  Fe  Fe33  1  0.74835176  0.25390594  0.50207880  1
  Fe  Fe34  1  0.50307467  0.24732223  0.74955624  1
  Fe  Fe35  1  0.37617353  0.87384830  0.12600318  1
  Fe  Fe36  1  0.25036724  -0.00050814  0.50040506  1
  Fe  Fe37  1  0.00150561  0.24761049  0.00158509  1
  Fe  Fe38  1  0.24968574  0.00054250  0.25039605  1
  Fe  Fe39  1  0.87339737  0.87572533  0.12447736  1
  Fe  Fe40  1  0.25101856  0.24699580  0.24857690  1
  Fe  Fe41  1  0.87376320  0.62403637  0.87673708  1
  Fe  Fe42  1  0.62134815  0.62828464  0.37827647  1
  Fe  Fe43  1  0.37674204  0.62792953  0.87806451  1
  Fe  Fe44  1  0.37673505  0.12491593  0.37531595  1
  Fe  Fe45  1  -0.00053933  0.24829885  0.24859357  1
  Fe  Fe46  1  0.75064041  -0.00067368  0.25450367  1
  Fe  Fe47  1  0.50263611  -0.00066947  0.25077183  1
  Fe  Fe48  1  -0.00067930  0.75075428  0.75166715  1
  Fe  Fe49  1  0.49992844  0.50166239  0.75295332  1
  Fe  Fe50  1  0.74881616  0.49807208  0.49935021  1
  Fe  Fe51  1  0.62231878  0.62382493  0.62225529  1
  Fe  Fe52  1  0.87103966  0.12473841  0.62377030  1
  Fe  Fe53  1  0.37695376  0.62745233  0.37639505  1
  Fe  Fe54  1  0.24868620  -0.00141940  -0.00111384  1
  Fe  Fe55  1  0.24810849  0.74842358  0.24832338  1
  Fe  Fe56  1  -0.00111140  0.75105021  0.50214644  1
  Fe  Fe57  1  0.50632117  -0.00617351  -0.00206512  1
  Fe  Fe58  1  0.75041864  0.49934624  0.75048765  1
  Fe  Fe59  1  0.12668826  0.37485786  0.12419205  1
  Fe  Fe60  1  -0.00027692  0.50066608  -0.00060302  1
  Fe  Fe61  1  0.50037797  0.50130246  0.24989931  1
  Fe  Fe62  1  0.37633191  0.37471461  0.37278379  1
  Fe  Fe63  1  0.37600376  0.62732784  0.12127855  1
  Fe  Fe64  1  0.12641625  0.37378658  0.87481735  1
  Fe  Fe65  1  0.87370110  0.12202386  0.12406664  1
  Fe  Fe66  1  0.24808281  0.50352158  0.25130166  1
  Fe  Fe67  1  0.12326172  0.87292944  0.37414855  1
  Fe  Fe68  1  0.25092641  0.50010672  0.49938561  1
  Fe  Fe69  1  0.37643095  0.87535249  0.87146477  1
  Fe  Fe70  1  0.12407129  0.62361415  0.62465222  1
  Fe  Fe71  1  0.62397741  0.62735861  0.12041914  1
  Fe  Fe72  1  0.87133080  0.87761999  0.87549738  1
  Fe  Fe73  1  0.74360281  0.00538709  0.75226084  1
  Fe  Fe74  1  0.62528771  0.62689540  0.87951535  1
  Fe  Fe75  1  0.37701719  0.87776138  0.63025023  1
  Fe  Fe76  1  0.62613502  0.12866854  0.37452848  1
  Fe  Fe77  1  0.74845487  0.50129659  0.24975977  1
  Fe  Fe78  1  0.00303658  0.50349955  0.25129261  1
  Fe  Fe79  1  0.37752100  0.12361477  0.87574295  1
  Fe  Fe80  1  0.87357025  0.37355907  0.87438604  1
  Fe  Fe81  1  0.62598492  0.87450102  0.62504154  1
  Fe  Fe82  1  0.62525380  0.12516905  0.12465230  1
  Fe  Fe83  1  0.37565909  0.12280094  0.12325740  1
  Fe  Fe84  1  0.50217681  -0.00230104  0.49943688  1
  Fe  Fe85  1  0.25171020  0.75214874  0.50161020  1
  Fe  Fe86  1  0.25067797  0.50078186  0.75133614  1
  Fe  Fe87  1  0.25045392  0.24843576  0.50196538  1
  Fe  Fe88  1  0.75124716  0.25102870  0.00215716  1
  Fe  Fe89  1  -0.00142626  0.24992153  0.50203367  1
  Co  Co90  1  0.62388050  0.12969391  0.88051337  1
  Co  Co91  1  0.49745030  0.24891755  0.24808322  1
  Co  Co92  1  0.62524222  0.37325039  0.36995450  1
  Co  Co93  1  0.12661189  0.62469949  0.12030597  1
  Co  Co94  1  0.49743522  0.75351066  0.50303573  1
  Co  Co95  1  0.87352713  0.12836044  0.37677109  1
  Co  Co96  1  0.12606053  0.12321901  0.12609110  1
  Co  Co97  1  0.25051794  0.24838241  -0.00033961  1
  Co  Co98  1  0.74865602  -0.00121577  0.49512111  1
  Co  Co99  1  0.87581070  0.87083593  0.37552328  1
  Co  Co100  1  0.87440594  0.37577100  0.62615811  1
  Co  Co101  1  0.12390670  0.87711381  0.87380492  1
  Co  Co102  1  0.12508997  0.62816770  0.37822026  1
  Co  Co103  1  0.50698394  0.00187893  0.75239527  1
  Co  Co104  1  0.62577538  0.12499944  0.62048122  1
  Co  Co105  1  0.62826747  0.87422438  0.12895339  1
  Co  Co106  1  -0.00191727  0.50004138  0.49771262  1
  Co  Co107  1  0.00045496  0.00043151  0.00015120  1
  Co  Co108  1  0.62905307  0.86980292  0.87090354  1
  Co  Co109  1  0.62372541  0.87147605  0.37552937  1
  Co  Co110  1  0.75025809  0.49783735  0.00078002  1
  Co  Co111  1  0.50169202  0.75584582  -0.00006929  1
  Co  Co112  1  0.50133725  0.74827473  0.74977960  1
  Co  Co113  1  0.37523789  0.37267543  0.87175158  1
  Co  Co114  1  0.12373212  0.12251672  0.62399024  1
  Co  Co115  1  0.75220122  0.24933403  0.24658519  1
  Co  Co116  1  0.24934778  0.75286700  -0.00229922  1
  Co  Co117  1  0.00080346  0.74836952  0.24708558  1
  Co  Co118  1  0.49908415  0.49691261  -0.00029428  1
  Co  Co119  1  0.75045367  0.74912498  0.50140782  1
  Co  Co120  1  0.49994446  0.49619690  0.49800605  1
  Co  Co121  1  0.62382525  0.37779467  0.62938579  1
  Co  Co122  1  0.12437765  0.62397311  0.87500724  1
  Co  Co123  1  0.24975095  0.00279696  0.75034495  1
  Co  Co124  1  0.50080221  0.74903866  0.24781623  1
  Co  Co125  1  0.74876685  0.24844874  0.74968200  1
  Co  Co126  1  0.74566403  -0.00089498  -0.00097324  1
  Co  Co127  1  0.75150115  0.75190674  0.00014223  1
