# generated using pymatgen
data_Fe45Co19
_symmetry_space_group_name_H-M   'P 1'
_cell_length_a   11.41453924
_cell_length_b   11.41439477
_cell_length_c   11.41492991
_cell_angle_alpha   89.99387576
_cell_angle_beta   89.99111945
_cell_angle_gamma   89.98740158
_symmetry_Int_Tables_number   1
_chemical_formula_structural   Fe45Co19
_chemical_formula_sum   'Fe90 Co38'
_cell_volume   1487.25180674
_cell_formula_units_Z   2
loop_
 _symmetry_equiv_pos_site_id
 _symmetry_equiv_pos_as_xyz
  1  'x, y, z'
loop_
 _atom_site_type_symbol
 _atom_site_label
 _atom_site_symmetry_multiplicity
 _atom_site_fract_x
 _atom_site_fract_y
 _atom_site_fract_z
 _atom_site_occupancy
  Fe  Fe0  1  0.62780510  0.37521164  0.37380063  1
  Fe  Fe1  1  -0.00057737  -0.00066002  0.50178945  1
  Fe  Fe2  1  0.49929849  0.25200092  0.75250396  1
  Fe  Fe3  1  0.87958080  0.62361346  0.12320743  1
  Fe  Fe4  1  0.49879331  0.75249093  0.24855613  1
  Fe  Fe5  1  0.74943740  0.00022583  0.24654459  1
  Fe  Fe6  1  0.37779271  0.12137022  0.37122290  1
  Fe  Fe7  1  0.12402838  0.87406797  0.62560578  1
  Fe  Fe8  1  0.87502788  0.12700814  0.62663657  1
  Fe  Fe9  1  0.62788017  0.12440203  0.87165860  1
  Fe  Fe10  1  0.00043333  0.50066446  0.49911206  1
  Fe  Fe11  1  0.75267960  0.24852714  -0.00135952  1
  Fe  Fe12  1  0.62679438  0.37793729  0.87320033  1
  Fe  Fe13  1  0.62914703  0.87566771  0.87763032  1
  Fe  Fe14  1  0.74766783  0.50305633  0.00060603  1
  Fe  Fe15  1  0.87363821  0.87329169  0.62441017  1
  Fe  Fe16  1  0.24896090  0.00164276  0.75078510  1
  Fe  Fe17  1  0.62507800  0.12470910  0.37342021  1
  Fe  Fe18  1  0.87710472  0.62176696  0.62680413  1
  Fe  Fe19  1  0.87806927  0.61955884  0.87572596  1
  Fe  Fe20  1  0.62483743  0.62225820  0.62989636  1
  Fe  Fe21  1  0.87405525  0.12227920  0.37496284  1
  Fe  Fe22  1  -0.00373156  0.25491609  0.75554161  1
  Fe  Fe23  1  0.12144539  0.62914395  0.12365642  1
  Fe  Fe24  1  0.37627016  0.37169511  0.12280713  1
  Fe  Fe25  1  0.37059242  0.88020498  0.12447416  1
  Fe  Fe26  1  0.12298145  0.12666471  0.37396489  1
  Fe  Fe27  1  0.24859762  0.00246953  0.49936214  1
  Fe  Fe28  1  0.37479428  0.62594448  0.12373824  1
  Fe  Fe29  1  0.37471356  0.62418275  0.87555575  1
  Fe  Fe30  1  0.74913584  -0.00018282  0.50435072  1
  Fe  Fe31  1  0.50398716  -0.00226412  0.74761228  1
  Fe  Fe32  1  0.37192368  0.37723421  0.37586479  1
  Fe  Fe33  1  0.87394479  0.37815464  0.37497902  1
  Fe  Fe34  1  0.75489873  0.25402438  0.75066352  1
  Fe  Fe35  1  0.12240443  0.12695924  0.62563926  1
  Fe  Fe36  1  0.37581149  0.87559625  0.62324629  1
  Fe  Fe37  1  0.37683039  0.87807561  0.37547814  1
  Fe  Fe38  1  0.12256698  0.62674922  0.62784530  1
  Fe  Fe39  1  -0.00392400  0.25274007  0.24893116  1
  Fe  Fe40  1  0.25091532  0.75036710  0.75069617  1
  Fe  Fe41  1  0.37567394  0.62312943  0.37431104  1
  Fe  Fe42  1  0.37621304  0.12469858  0.62581890  1
  Fe  Fe43  1  0.75358589  0.75069042  0.24961870  1
  Fe  Fe44  1  0.25124749  0.75016876  0.25178236  1
  Fe  Fe45  1  0.87774183  0.12531290  0.12337439  1
  Fe  Fe46  1  0.12171946  0.62609577  0.37335149  1
  Fe  Fe47  1  0.25276778  0.24120555  0.00104912  1
  Fe  Fe48  1  0.24781614  0.50192534  0.50186976  1
  Fe  Fe49  1  0.49904019  0.49796065  0.24770102  1
  Fe  Fe50  1  -0.00075713  0.75185382  0.75446560  1
  Fe  Fe51  1  0.12596843  0.37361819  0.37490205  1
  Fe  Fe52  1  0.62094593  0.13123226  0.12809057  1
  Fe  Fe53  1  0.50150733  0.50019011  0.50179866  1
  Fe  Fe54  1  0.00437992  -0.00316088  0.00207697  1
  Fe  Fe55  1  0.24891890  0.50003984  0.74994839  1
  Fe  Fe56  1  0.62628703  0.12817672  0.62677654  1
  Fe  Fe57  1  0.62368529  0.62694738  0.12577309  1
  Fe  Fe58  1  -0.00269659  -0.00121586  0.75001567  1
  Fe  Fe59  1  0.62594403  0.62405594  0.37272346  1
  Fe  Fe60  1  0.50096051  0.49926250  -0.00042612  1
  Fe  Fe61  1  0.12303299  0.37010953  0.12155739  1
  Fe  Fe62  1  0.24644513  0.50170505  0.00076456  1
  Fe  Fe63  1  0.24727228  0.50044110  0.24670329  1
  Fe  Fe64  1  0.50035906  0.74985222  -0.00120617  1
  Fe  Fe65  1  0.75304710  0.74640724  0.49889559  1
  Fe  Fe66  1  0.12313711  0.87422669  0.37607584  1
  Fe  Fe67  1  0.24953967  0.24833740  0.74991496  1
  Fe  Fe68  1  0.37486469  0.37420666  0.62383645  1
  Fe  Fe69  1  0.37348479  0.87986122  0.87664483  1
  Fe  Fe70  1  0.25168578  0.24768793  0.24904116  1
  Fe  Fe71  1  0.75218982  0.50023910  0.24823382  1
  Fe  Fe72  1  0.49946170  0.75042530  0.75169745  1
  Fe  Fe73  1  0.50155410  0.00343407  0.00053738  1
  Fe  Fe74  1  0.62898717  0.87224191  0.12141568  1
  Fe  Fe75  1  -0.00468704  0.75347713  0.25077197  1
  Fe  Fe76  1  -0.00184031  0.25062358  0.49878949  1
  Fe  Fe77  1  0.75106864  0.25280785  0.50095137  1
  Fe  Fe78  1  0.50072035  0.74825750  0.50095632  1
  Fe  Fe79  1  0.87017961  0.87972248  0.88015984  1
  Fe  Fe80  1  0.12419058  0.37222644  0.62424373  1
  Fe  Fe81  1  0.62618142  0.37182456  0.12557682  1
  Fe  Fe82  1  0.75015876  0.74924441  0.75434789  1
  Fe  Fe83  1  0.37239612  0.37353348  0.87687531  1
  Fe  Fe84  1  0.00013000  -0.00317062  0.24809749  1
  Fe  Fe85  1  0.24661572  0.75227673  -0.00276859  1
  Fe  Fe86  1  0.12173808  0.12548376  0.87521867  1
  Fe  Fe87  1  0.62646171  0.87546068  0.37703983  1
  Fe  Fe88  1  0.24958606  0.74874091  0.50046442  1
  Fe  Fe89  1  0.49952301  0.24963936  0.49813113  1
  Co  Co90  1  0.87843185  0.37667716  0.62358121  1
  Co  Co91  1  0.12505143  0.62605530  0.87425339  1
  Co  Co92  1  0.50270581  0.00144283  0.50306047  1
  Co  Co93  1  0.49546362  0.49825798  0.75145584  1
  Co  Co94  1  0.25137091  0.24640202  0.49943289  1
  Co  Co95  1  0.49799795  0.25453059  0.25387137  1
  Co  Co96  1  0.62688920  0.87008358  0.62442590  1
  Co  Co97  1  0.87221501  0.38062035  0.87944404  1
  Co  Co98  1  0.00552253  0.49777325  -0.00182163  1
  Co  Co99  1  0.74989007  -0.00125780  0.74618411  1
  Co  Co100  1  0.62264349  0.62245922  0.87204281  1
  Co  Co101  1  0.37984747  0.12318840  0.12886378  1
  Co  Co102  1  0.75157066  0.74324740  -0.00210239  1
  Co  Co103  1  0.87483961  0.11999897  0.87574009  1
  Co  Co104  1  0.24561547  0.00195133  0.25020027  1
  Co  Co105  1  -0.00484928  0.25188347  -0.00390050  1
  Co  Co106  1  0.37552687  0.62534745  0.62567223  1
  Co  Co107  1  0.87394386  0.37721787  0.12172940  1
  Co  Co108  1  0.12626085  0.87725064  0.87282402  1
  Co  Co109  1  0.12042239  0.12832923  0.12587147  1
  Co  Co110  1  0.87273649  0.87842995  0.37684706  1
  Co  Co111  1  0.00388240  0.49500718  0.75330215  1
  Co  Co112  1  0.74630349  0.00672368  0.00464023  1
  Co  Co113  1  0.50538381  -0.00467592  0.24707690  1
  Co  Co114  1  0.00222399  0.49655752  0.24823744  1
  Co  Co115  1  -0.00251934  0.74974578  0.49979878  1
  Co  Co116  1  0.37665929  0.12247652  0.87303227  1
  Co  Co117  1  0.62320958  0.37506397  0.62705636  1
  Co  Co118  1  0.00003116  0.75352107  -0.00398163  1
  Co  Co119  1  0.24663555  0.00512493  0.00103384  1
  Co  Co120  1  0.87202399  0.87520787  0.12024428  1
  Co  Co121  1  0.87607420  0.62140932  0.37358251  1
  Co  Co122  1  0.13032713  0.37110733  0.87827139  1
  Co  Co123  1  0.12752301  0.87150679  0.12660811  1
  Co  Co124  1  0.75454366  0.24941978  0.24968254  1
  Co  Co125  1  0.75241250  0.49768559  0.74739249  1
  Co  Co126  1  0.50133172  0.24949313  -0.00473448  1
  Co  Co127  1  0.74973309  0.49945902  0.50196435  1
