# generated using pymatgen
data_Fe45Co19
_symmetry_space_group_name_H-M   'P 1'
_cell_length_a   11.41633681
_cell_length_b   11.41469552
_cell_length_c   11.41517391
_cell_angle_alpha   90.00505670
_cell_angle_beta   90.00448806
_cell_angle_gamma   90.00723515
_symmetry_Int_Tables_number   1
_chemical_formula_structural   Fe45Co19
_chemical_formula_sum   'Fe90 Co38'
_cell_volume   1487.55704916
_cell_formula_units_Z   2
loop_
 _symmetry_equiv_pos_site_id
 _symmetry_equiv_pos_as_xyz
  1  'x, y, z'
loop_
 _atom_site_type_symbol
 _atom_site_label
 _atom_site_symmetry_multiplicity
 _atom_site_fract_x
 _atom_site_fract_y
 _atom_site_fract_z
 _atom_site_occupancy
  Fe  Fe0  1  0.49601986  0.24626958  0.24813765  1
  Fe  Fe1  1  0.12500673  0.87139941  0.37070203  1
  Fe  Fe2  1  0.12470276  0.12346529  0.62319272  1
  Fe  Fe3  1  -0.00082414  0.50240034  0.75120426  1
  Fe  Fe4  1  0.49744813  0.75102765  0.24807407  1
  Fe  Fe5  1  0.62332778  0.12572773  0.87426163  1
  Fe  Fe6  1  0.25310427  0.24399102  0.24800948  1
  Fe  Fe7  1  0.62269173  0.62333389  0.62497437  1
  Fe  Fe8  1  0.74955530  0.24968279  0.74809246  1
  Fe  Fe9  1  0.49752076  0.25015338  0.00399367  1
  Fe  Fe10  1  0.37497722  0.62455115  0.37659583  1
  Fe  Fe11  1  0.62291395  0.62584568  0.87538561  1
  Fe  Fe12  1  0.62261104  0.87374390  0.87313743  1
  Fe  Fe13  1  0.87696590  0.37160578  0.87432375  1
  Fe  Fe14  1  0.87303838  0.37388616  0.12372059  1
  Fe  Fe15  1  0.87555409  0.87256258  0.87149032  1
  Fe  Fe16  1  0.87488718  0.87637563  0.12715220  1
  Fe  Fe17  1  0.75123712  0.00143874  0.25323242  1
  Fe  Fe18  1  0.50087470  0.24797116  0.74627079  1
  Fe  Fe19  1  0.12720810  0.62678867  0.62400688  1
  Fe  Fe20  1  0.75173923  0.24937186  0.24948635  1
  Fe  Fe21  1  0.37564610  0.87912841  0.87417787  1
  Fe  Fe22  1  0.62298271  0.37411316  0.87349240  1
  Fe  Fe23  1  0.37262346  0.87759169  0.62760879  1
  Fe  Fe24  1  -0.00020093  0.25213599  0.50229910  1
  Fe  Fe25  1  0.37606113  0.37401532  0.62481065  1
  Fe  Fe26  1  0.24846569  0.49832085  0.49953858  1
  Fe  Fe27  1  0.24994027  0.49687219  -0.00068540  1
  Fe  Fe28  1  0.62639150  0.87796146  0.62610998  1
  Fe  Fe29  1  0.24896176  0.24671885  0.74852247  1
  Fe  Fe30  1  0.37412995  0.87943334  0.36970632  1
  Fe  Fe31  1  0.24674744  0.50413995  0.25119734  1
  Fe  Fe32  1  0.62698197  0.12528215  0.12333859  1
  Fe  Fe33  1  0.37571067  0.62478107  0.87551978  1
  Fe  Fe34  1  0.25170333  0.50174898  0.74909383  1
  Fe  Fe35  1  -0.00185861  0.24713885  0.24578377  1
  Fe  Fe36  1  0.24818072  0.00003207  0.49766409  1
  Fe  Fe37  1  0.50055972  0.49675387  0.00129911  1
  Fe  Fe38  1  0.75191638  0.75292877  0.50142798  1
  Fe  Fe39  1  0.37472958  0.62318037  0.12387919  1
  Fe  Fe40  1  -0.00339182  -0.00324836  0.49722594  1
  Fe  Fe41  1  0.12855695  0.37230103  0.12466821  1
  Fe  Fe42  1  0.74972811  0.00055629  0.75085754  1
  Fe  Fe43  1  0.00105981  0.00187978  0.75114843  1
  Fe  Fe44  1  0.12747580  0.87336252  0.12958174  1
  Fe  Fe45  1  0.75065222  0.74902339  0.24904572  1
  Fe  Fe46  1  0.87553818  0.62430061  0.12178026  1
  Fe  Fe47  1  0.49972763  0.49728968  0.49952093  1
  Fe  Fe48  1  0.00118356  0.49802994  -0.00029669  1
  Fe  Fe49  1  0.12603830  0.87519972  0.62823810  1
  Fe  Fe50  1  0.74866734  -0.00076282  -0.00205654  1
  Fe  Fe51  1  0.00322499  0.50347906  0.24857870  1
  Fe  Fe52  1  0.87529329  0.62711086  0.62793454  1
  Fe  Fe53  1  0.87750705  0.37519854  0.37555510  1
  Fe  Fe54  1  0.87417417  0.12288105  0.62292245  1
  Fe  Fe55  1  0.49767818  0.74937737  0.74866620  1
  Fe  Fe56  1  0.37366607  0.37174245  0.37508487  1
  Fe  Fe57  1  0.37530153  0.37390721  0.87349269  1
  Fe  Fe58  1  0.12419065  0.37379907  0.37432651  1
  Fe  Fe59  1  0.25197818  0.75127774  0.49885938  1
  Fe  Fe60  1  0.62334381  0.87573264  0.12532998  1
  Fe  Fe61  1  0.12617694  0.62655375  0.87676562  1
  Fe  Fe62  1  0.62459740  0.37397505  0.37379509  1
  Fe  Fe63  1  0.74837985  0.49759195  -0.00089002  1
  Fe  Fe64  1  0.37486651  0.12468262  0.62115395  1
  Fe  Fe65  1  0.12425018  0.12717418  0.37653083  1
  Fe  Fe66  1  0.37443327  0.12225628  0.87821378  1
  Fe  Fe67  1  0.25372528  0.75408245  0.00176766  1
  Fe  Fe68  1  0.87641457  0.12695050  0.87847915  1
  Fe  Fe69  1  0.62351167  0.62512545  0.12381005  1
  Fe  Fe70  1  0.12558787  0.12756658  0.87976463  1
  Fe  Fe71  1  0.74858702  0.25216948  0.50324167  1
  Fe  Fe72  1  0.12694352  0.87397426  0.87139023  1
  Fe  Fe73  1  0.62473128  0.62617810  0.37621329  1
  Fe  Fe74  1  0.74940470  0.50029269  0.24965913  1
  Fe  Fe75  1  0.12280036  0.37521965  0.62728030  1
  Fe  Fe76  1  0.62557463  0.87451347  0.37482245  1
  Fe  Fe77  1  0.74972179  0.75064241  -0.00117569  1
  Fe  Fe78  1  0.87718761  0.62601556  0.37481624  1
  Fe  Fe79  1  0.75091859  0.50008528  0.75096057  1
  Fe  Fe80  1  0.49820673  0.75226304  0.50039267  1
  Fe  Fe81  1  0.12476784  0.37096575  0.87407528  1
  Fe  Fe82  1  -0.00203684  0.75252452  0.50111017  1
  Fe  Fe83  1  0.50092412  0.00053391  0.49928886  1
  Fe  Fe84  1  0.75208167  0.49857154  0.50058784  1
  Fe  Fe85  1  0.62564710  0.12599096  0.37847923  1
  Fe  Fe86  1  0.50074141  0.49920090  0.25017391  1
  Fe  Fe87  1  -0.00044954  0.75130433  -0.00021550  1
  Fe  Fe88  1  -0.00115041  0.00370883  0.25005222  1
  Fe  Fe89  1  0.00143342  -0.00046959  0.00153906  1
  Co  Co90  1  0.37545384  0.62432322  0.62272013  1
  Co  Co91  1  0.62658801  0.12106698  0.62379963  1
  Co  Co92  1  0.24901922  0.00437003  0.75050092  1
  Co  Co93  1  0.00003543  0.50038699  0.50091045  1
  Co  Co94  1  0.24567546  -0.00327438  -0.00060855  1
  Co  Co95  1  0.12709646  0.62738832  0.11935393  1
  Co  Co96  1  0.50368282  0.00398141  0.25204396  1
  Co  Co97  1  0.87573566  0.87264908  0.37065491  1
  Co  Co98  1  0.74681387  0.74954459  0.75019795  1
  Co  Co99  1  0.00063951  0.24610436  0.74840494  1
  Co  Co100  1  0.25437568  0.25092783  0.00164674  1
  Co  Co101  1  0.74810374  0.25122861  -0.00154391  1
  Co  Co102  1  0.50430526  -0.00069394  -0.00107325  1
  Co  Co103  1  0.25260220  0.74868781  0.75086498  1
  Co  Co104  1  0.62444145  0.37310128  0.12701665  1
  Co  Co105  1  0.25361443  0.74707003  0.24928936  1
  Co  Co106  1  0.37519588  0.88259416  0.12827495  1
  Co  Co107  1  0.62415363  0.37860752  0.62698643  1
  Co  Co108  1  0.37406840  0.11589153  0.12141243  1
  Co  Co109  1  0.87534021  0.87636233  0.63024541  1
  Co  Co110  1  0.49734123  0.75247631  0.00125716  1
  Co  Co111  1  0.87182826  0.12349525  0.12130118  1
  Co  Co112  1  0.49789711  0.50094899  0.75036514  1
  Co  Co113  1  0.49868722  0.00141232  0.74896681  1
  Co  Co114  1  0.75257071  -0.00289652  0.49714935  1
  Co  Co115  1  0.87500971  0.62650533  0.87639893  1
  Co  Co116  1  0.87535403  0.12796619  0.37797508  1
  Co  Co117  1  0.37493332  0.12483155  0.38004219  1
  Co  Co118  1  0.87659728  0.37428867  0.62688545  1
  Co  Co119  1  0.24713600  0.25138207  0.50184200  1
  Co  Co120  1  0.24670048  0.00543273  0.25219797  1
  Co  Co121  1  0.12437160  0.62818904  0.37887878  1
  Co  Co122  1  0.00000334  0.74538189  0.24791591  1
  Co  Co123  1  0.37314476  0.37787261  0.12789588  1
  Co  Co124  1  0.12654593  0.12600506  0.12138854  1
  Co  Co125  1  0.50322597  0.25115193  0.50169447  1
  Co  Co126  1  -0.00054794  0.25089225  0.00341065  1
  Co  Co127  1  0.00245433  0.74839516  0.75056084  1
