# generated using pymatgen
data_Fe45Co19
_symmetry_space_group_name_H-M   'P 1'
_cell_length_a   11.41456651
_cell_length_b   11.41519813
_cell_length_c   11.41522606
_cell_angle_alpha   89.99542965
_cell_angle_beta   90.01659413
_cell_angle_gamma   89.99243286
_symmetry_Int_Tables_number   1
_chemical_formula_structural   Fe45Co19
_chemical_formula_sum   'Fe90 Co38'
_cell_volume   1487.39860498
_cell_formula_units_Z   2
loop_
 _symmetry_equiv_pos_site_id
 _symmetry_equiv_pos_as_xyz
  1  'x, y, z'
loop_
 _atom_site_type_symbol
 _atom_site_label
 _atom_site_symmetry_multiplicity
 _atom_site_fract_x
 _atom_site_fract_y
 _atom_site_fract_z
 _atom_site_occupancy
  Fe  Fe0  1  0.12451169  0.62157856  0.87435640  1
  Fe  Fe1  1  0.37792686  0.62122491  0.87797537  1
  Fe  Fe2  1  0.00045192  0.74718844  0.00118558  1
  Fe  Fe3  1  0.12786271  0.62198377  0.12853554  1
  Fe  Fe4  1  0.25397394  0.00055903  0.49893851  1
  Fe  Fe5  1  0.87290691  0.62431091  0.12529324  1
  Fe  Fe6  1  -0.00267082  0.49799095  0.25274355  1
  Fe  Fe7  1  0.50169516  0.49985664  0.50052058  1
  Fe  Fe8  1  0.50124521  0.74963038  0.50089348  1
  Fe  Fe9  1  0.12644247  0.37904859  0.12632008  1
  Fe  Fe10  1  0.49659213  -0.00130958  0.75130022  1
  Fe  Fe11  1  0.62531019  0.87812394  0.88153717  1
  Fe  Fe12  1  0.49848329  -0.00122412  0.24830318  1
  Fe  Fe13  1  0.49996198  0.25261313  0.74896486  1
  Fe  Fe14  1  0.24860294  0.50361642  0.49566692  1
  Fe  Fe15  1  0.62260122  0.12516073  0.62570607  1
  Fe  Fe16  1  0.00017733  0.74945710  0.74988072  1
  Fe  Fe17  1  0.25152236  0.74879521  0.75078411  1
  Fe  Fe18  1  0.62453083  0.37551450  0.62539322  1
  Fe  Fe19  1  0.87844953  0.37322493  0.87857913  1
  Fe  Fe20  1  0.87452254  0.12652591  0.62532345  1
  Fe  Fe21  1  0.00112353  0.25246047  0.74830413  1
  Fe  Fe22  1  0.50294997  0.74851293  0.00477344  1
  Fe  Fe23  1  0.74741668  0.74972855  0.50010177  1
  Fe  Fe24  1  0.74395014  0.74769835  0.24790412  1
  Fe  Fe25  1  0.62251079  0.87376857  0.37288595  1
  Fe  Fe26  1  0.37630202  0.62456310  0.62597155  1
  Fe  Fe27  1  0.12600927  0.12265596  0.12619429  1
  Fe  Fe28  1  0.12583661  0.87615659  0.12409319  1
  Fe  Fe29  1  0.62312294  0.12532225  0.87738344  1
  Fe  Fe30  1  0.12776426  0.87440045  0.37585267  1
  Fe  Fe31  1  0.12509776  0.12494368  0.87527334  1
  Fe  Fe32  1  0.00251774  0.25246901  0.25116917  1
  Fe  Fe33  1  0.00002148  -0.00213563  0.25152996  1
  Fe  Fe34  1  0.37512223  0.12784582  0.87545531  1
  Fe  Fe35  1  0.62246521  0.61923739  0.87723610  1
  Fe  Fe36  1  0.37283918  0.12686510  0.12597230  1
  Fe  Fe37  1  0.62419099  0.87561058  0.62560843  1
  Fe  Fe38  1  0.49684713  0.00051216  0.50090657  1
  Fe  Fe39  1  0.75009833  0.49809278  0.75048963  1
  Fe  Fe40  1  0.87361813  0.87334982  0.62570673  1
  Fe  Fe41  1  0.12446313  0.87471476  0.87593933  1
  Fe  Fe42  1  0.00128729  0.74886581  0.49973570  1
  Fe  Fe43  1  0.50001189  0.25365006  0.00280279  1
  Fe  Fe44  1  0.75013380  0.24930818  0.00114965  1
  Fe  Fe45  1  0.74975646  0.00188227  0.24994357  1
  Fe  Fe46  1  0.75234379  -0.00003090  0.75362911  1
  Fe  Fe47  1  0.62575457  0.37495907  0.37074385  1
  Fe  Fe48  1  0.74996026  0.49957692  0.49873678  1
  Fe  Fe49  1  0.12405855  0.37976050  0.62244967  1
  Fe  Fe50  1  0.37436407  0.37550990  0.62362795  1
  Fe  Fe51  1  0.74738013  0.74981992  0.75282866  1
  Fe  Fe52  1  0.87619282  0.12713794  0.37492648  1
  Fe  Fe53  1  0.24832865  0.25237484  0.00046691  1
  Fe  Fe54  1  0.87576204  0.62499718  0.87594758  1
  Fe  Fe55  1  0.50075916  0.50392974  0.24670221  1
  Fe  Fe56  1  0.87431464  0.62344086  0.62488113  1
  Fe  Fe57  1  0.25122290  0.75035314  0.25117866  1
  Fe  Fe58  1  0.62202600  0.12709040  0.37346368  1
  Fe  Fe59  1  -0.00347617  0.00047238  -0.00256465  1
  Fe  Fe60  1  0.87406746  0.62610978  0.37470782  1
  Fe  Fe61  1  0.25304658  -0.00132915  -0.00092065  1
  Fe  Fe62  1  0.37120956  0.37756961  0.12699351  1
  Fe  Fe63  1  0.12817733  0.87427008  0.62405053  1
  Fe  Fe64  1  0.62373996  0.12274273  0.12305658  1
  Fe  Fe65  1  0.12626549  0.12439770  0.62452201  1
  Fe  Fe66  1  0.74984144  0.25187058  0.75052400  1
  Fe  Fe67  1  -0.00082626  -0.00141213  0.49903746  1
  Fe  Fe68  1  0.12386933  0.62195095  0.62471229  1
  Fe  Fe69  1  0.37758929  0.62794779  0.37275814  1
  Fe  Fe70  1  0.24905004  0.74816466  -0.00023181  1
  Fe  Fe71  1  0.74930265  0.00036192  0.49895579  1
  Fe  Fe72  1  -0.00217261  -0.00088920  0.75115570  1
  Fe  Fe73  1  0.37514796  0.12846294  0.37167035  1
  Fe  Fe74  1  0.24900855  0.25292763  0.74941875  1
  Fe  Fe75  1  0.37671921  0.37825061  0.87522137  1
  Fe  Fe76  1  0.87266563  0.87294097  0.37408416  1
  Fe  Fe77  1  0.74790734  0.25010340  0.49901041  1
  Fe  Fe78  1  0.75140044  0.49847596  0.00034636  1
  Fe  Fe79  1  0.12277457  0.37880692  0.87641474  1
  Fe  Fe80  1  0.37568446  0.87285165  0.12547819  1
  Fe  Fe81  1  0.00013462  0.25270166  0.49869523  1
  Fe  Fe82  1  0.87770528  0.12756644  0.12568517  1
  Fe  Fe83  1  0.25411191  -0.00191803  0.75047951  1
  Fe  Fe84  1  0.37579815  0.37387325  0.37243546  1
  Fe  Fe85  1  0.62929668  0.37707801  0.12754892  1
  Fe  Fe86  1  0.50155885  0.74919894  0.75061218  1
  Fe  Fe87  1  0.87075903  0.87360447  0.12220186  1
  Fe  Fe88  1  -0.00017238  0.75162818  0.24864101  1
  Fe  Fe89  1  0.25032245  0.24913198  0.49820110  1
  Co  Co90  1  0.87400645  0.37425887  0.12518478  1
  Co  Co91  1  0.25135024  -0.00099563  0.25091024  1
  Co  Co92  1  0.75106209  0.50285903  0.25105164  1
  Co  Co93  1  0.74771159  0.74700846  -0.00083355  1
  Co  Co94  1  0.49982082  0.49612433  0.00515925  1
  Co  Co95  1  -0.00218504  0.49951206  0.75019264  1
  Co  Co96  1  0.00388007  0.25066169  0.00272163  1
  Co  Co97  1  0.87731805  0.13148171  0.87380909  1
  Co  Co98  1  0.37639570  0.87092057  0.87699833  1
  Co  Co99  1  0.87550073  0.87107673  0.87710037  1
  Co  Co100  1  0.25166138  0.50144755  0.25432676  1
  Co  Co101  1  0.24678116  0.25026964  0.24948997  1
  Co  Co102  1  0.74950487  0.24631050  0.24909701  1
  Co  Co103  1  0.37480849  0.87166909  0.62453055  1
  Co  Co104  1  0.62393880  0.62406274  0.37603599  1
  Co  Co105  1  0.24923420  0.50008413  -0.00184056  1
  Co  Co106  1  -0.00131325  0.50033823  0.49526170  1
  Co  Co107  1  0.00035289  0.50260448  0.00282872  1
  Co  Co108  1  0.87530315  0.37592208  0.62330560  1
  Co  Co109  1  0.12671235  0.37557190  0.37543506  1
  Co  Co110  1  0.37568310  0.12778065  0.62688374  1
  Co  Co111  1  0.62783425  0.87910156  0.12233459  1
  Co  Co112  1  0.50355887  0.74748573  0.24492755  1
  Co  Co113  1  0.12496085  0.12403897  0.37493870  1
  Co  Co114  1  0.75594741  0.00461669  -0.00165789  1
  Co  Co115  1  0.62400027  0.37598227  0.87589261  1
  Co  Co116  1  0.25133979  0.50028172  0.75059759  1
  Co  Co117  1  0.50076199  0.25146621  0.49963009  1
  Co  Co118  1  0.37664702  0.87135859  0.37422331  1
  Co  Co119  1  0.50032136  0.49865361  0.74696467  1
  Co  Co120  1  0.12275004  0.62687484  0.37071823  1
  Co  Co121  1  0.37172249  0.62414017  0.12355165  1
  Co  Co122  1  0.87085359  0.37321238  0.37317076  1
  Co  Co123  1  0.24934248  0.74604147  0.49903902  1
  Co  Co124  1  0.49488255  0.00050248  0.00119968  1
  Co  Co125  1  0.50075568  0.25109573  0.24622046  1
  Co  Co126  1  0.62731107  0.62089876  0.12212809  1
  Co  Co127  1  0.62595073  0.62409843  0.62540325  1
