# generated using pymatgen
data_Fe45Co19
_symmetry_space_group_name_H-M   'P 1'
_cell_length_a   11.41635656
_cell_length_b   11.41604099
_cell_length_c   11.41411265
_cell_angle_alpha   89.99404333
_cell_angle_beta   90.00355442
_cell_angle_gamma   89.98857399
_symmetry_Int_Tables_number   1
_chemical_formula_structural   Fe45Co19
_chemical_formula_sum   'Fe90 Co38'
_cell_volume   1487.59663112
_cell_formula_units_Z   2
loop_
 _symmetry_equiv_pos_site_id
 _symmetry_equiv_pos_as_xyz
  1  'x, y, z'
loop_
 _atom_site_type_symbol
 _atom_site_label
 _atom_site_symmetry_multiplicity
 _atom_site_fract_x
 _atom_site_fract_y
 _atom_site_fract_z
 _atom_site_occupancy
  Fe  Fe0  1  0.75230553  0.00313832  0.74747186  1
  Fe  Fe1  1  0.37393772  0.87338874  0.87905943  1
  Fe  Fe2  1  -0.00191877  0.25187374  0.25233331  1
  Fe  Fe3  1  0.62433029  0.12495807  0.87531932  1
  Fe  Fe4  1  0.24668411  0.00110990  0.49973182  1
  Fe  Fe5  1  0.75383584  0.25073711  0.25095799  1
  Fe  Fe6  1  0.49854977  0.24915997  0.74818095  1
  Fe  Fe7  1  0.12504190  0.12579558  0.87544546  1
  Fe  Fe8  1  0.62715804  0.62607895  0.37118767  1
  Fe  Fe9  1  0.49865717  -0.00000806  0.74972409  1
  Fe  Fe10  1  0.24982738  0.00029782  0.00386508  1
  Fe  Fe11  1  0.24947288  0.25049176  0.25196865  1
  Fe  Fe12  1  0.62554363  0.62437722  0.87395954  1
  Fe  Fe13  1  0.87370491  0.62307770  0.37532433  1
  Fe  Fe14  1  0.87614095  0.12286745  0.88002469  1
  Fe  Fe15  1  -0.00025661  -0.00009578  0.75035901  1
  Fe  Fe16  1  0.62370024  0.87650451  0.62431331  1
  Fe  Fe17  1  0.12609533  0.37516422  0.87333610  1
  Fe  Fe18  1  0.12632265  0.62606007  0.87293114  1
  Fe  Fe19  1  0.12259658  0.12706379  0.12600825  1
  Fe  Fe20  1  0.37032702  0.62048459  0.37814591  1
  Fe  Fe21  1  0.25056728  0.00044904  0.24676492  1
  Fe  Fe22  1  0.24855354  0.49944116  0.74446512  1
  Fe  Fe23  1  0.50294966  0.49815274  0.00127790  1
  Fe  Fe24  1  -0.00202926  0.74973569  0.75178046  1
  Fe  Fe25  1  0.24971758  -0.00081946  0.74950169  1
  Fe  Fe26  1  0.62578998  0.37392640  0.87460270  1
  Fe  Fe27  1  0.75071635  0.75052582  0.74878788  1
  Fe  Fe28  1  0.75122638  0.24689621  0.74717375  1
  Fe  Fe29  1  0.24950170  0.25027453  0.00036962  1
  Fe  Fe30  1  0.12616771  0.87276992  0.87679147  1
  Fe  Fe31  1  -0.00053653  0.50132344  0.74687337  1
  Fe  Fe32  1  0.74701200  0.74806594  0.00448046  1
  Fe  Fe33  1  0.75061495  0.24996093  0.00303426  1
  Fe  Fe34  1  0.62759374  0.87458239  0.37261338  1
  Fe  Fe35  1  0.75146420  0.74958906  0.49886630  1
  Fe  Fe36  1  -0.00275206  0.24947133  0.75283257  1
  Fe  Fe37  1  0.49870861  0.75033265  0.75053971  1
  Fe  Fe38  1  0.87368479  0.87627111  0.87874905  1
  Fe  Fe39  1  0.37499463  0.12503598  0.87655394  1
  Fe  Fe40  1  0.49941742  0.74994891  0.49605910  1
  Fe  Fe41  1  0.62319652  0.12756151  0.12644383  1
  Fe  Fe42  1  0.00370288  0.50025831  0.50191403  1
  Fe  Fe43  1  0.37470484  0.37596688  0.87461855  1
  Fe  Fe44  1  0.87453308  0.37375462  0.62038254  1
  Fe  Fe45  1  0.49867437  0.24855032  0.50059590  1
  Fe  Fe46  1  0.50028345  -0.00044187  0.00433141  1
  Fe  Fe47  1  0.37247432  0.62557823  0.62166517  1
  Fe  Fe48  1  0.87316124  0.62492280  0.87601166  1
  Fe  Fe49  1  -0.00120225  -0.00070159  0.24891948  1
  Fe  Fe50  1  0.37676617  0.37206264  0.12409233  1
  Fe  Fe51  1  0.87747884  0.12160698  0.37671515  1
  Fe  Fe52  1  0.25150357  0.74866657  0.25029272  1
  Fe  Fe53  1  0.12438577  0.87666083  0.37319203  1
  Fe  Fe54  1  0.62603108  0.37428218  0.62199275  1
  Fe  Fe55  1  0.12372378  0.37466712  0.12642791  1
  Fe  Fe56  1  0.37491892  0.62493970  0.87609714  1
  Fe  Fe57  1  0.12188829  0.62655802  0.12624884  1
  Fe  Fe58  1  0.62671453  0.87672090  0.87534340  1
  Fe  Fe59  1  0.00016212  0.75000793  0.49738327  1
  Fe  Fe60  1  0.75075580  0.49833268  0.24790712  1
  Fe  Fe61  1  0.37308364  0.87716194  0.37442625  1
  Fe  Fe62  1  0.74755079  0.50069352  0.00505100  1
  Fe  Fe63  1  0.38007323  0.62964191  0.12410578  1
  Fe  Fe64  1  0.24958470  0.50140631  0.00302690  1
  Fe  Fe65  1  0.12563648  0.87126208  0.62509495  1
  Fe  Fe66  1  0.87639750  0.87533207  0.62286123  1
  Fe  Fe67  1  0.49825617  0.25137031  0.25237830  1
  Fe  Fe68  1  0.00357702  0.25103044  0.49439434  1
  Fe  Fe69  1  0.75158174  0.49980372  0.74640757  1
  Fe  Fe70  1  0.37263772  0.12374847  0.37629474  1
  Fe  Fe71  1  -0.00399824  0.75102446  0.25182404  1
  Fe  Fe72  1  0.12834142  0.62154813  0.37435784  1
  Fe  Fe73  1  0.75170229  0.00043145  0.24798327  1
  Fe  Fe74  1  0.37462841  0.87549431  0.62236194  1
  Fe  Fe75  1  0.62393414  0.12413258  0.37540810  1
  Fe  Fe76  1  0.49818295  -0.00117598  0.24822580  1
  Fe  Fe77  1  0.87362459  0.37603604  0.87727076  1
  Fe  Fe78  1  0.62582676  0.62611293  0.62456941  1
  Fe  Fe79  1  0.49887813  0.49836997  0.25159283  1
  Fe  Fe80  1  -0.00170375  0.49787922  0.25097150  1
  Fe  Fe81  1  0.74975289  0.00291346  0.50206149  1
  Fe  Fe82  1  0.12471192  0.87180598  0.12465519  1
  Fe  Fe83  1  0.62760889  0.37494668  0.37734032  1
  Fe  Fe84  1  0.25362365  0.25065813  0.74608651  1
  Fe  Fe85  1  0.36983345  0.37830911  0.37942913  1
  Fe  Fe86  1  0.50044212  0.50018340  0.74760684  1
  Fe  Fe87  1  0.87480512  0.87568052  0.12212115  1
  Fe  Fe88  1  0.00055283  0.49978828  -0.00083945  1
  Fe  Fe89  1  0.12424202  0.12711541  0.62455734  1
  Co  Co90  1  0.25298994  0.50102525  0.24368209  1
  Co  Co91  1  0.74667990  0.00113315  0.00323961  1
  Co  Co92  1  -0.00054445  0.74916131  -0.00138728  1
  Co  Co93  1  0.62121311  0.12377866  0.62500587  1
  Co  Co94  1  0.87399181  0.87863058  0.37732459  1
  Co  Co95  1  0.87325100  0.37737063  0.37850918  1
  Co  Co96  1  0.00350640  -0.00117131  0.50144146  1
  Co  Co97  1  0.87540530  0.62625766  0.62390055  1
  Co  Co98  1  0.24912167  0.75232892  0.49561842  1
  Co  Co99  1  0.12589679  0.63124728  0.62585777  1
  Co  Co100  1  0.12893197  0.37937417  0.37118500  1
  Co  Co101  1  0.49651708  0.75084525  0.25671605  1
  Co  Co102  1  0.87738145  0.62349274  0.12541557  1
  Co  Co103  1  0.24335687  0.49634051  0.50665708  1
  Co  Co104  1  0.62411724  0.37242799  0.12737834  1
  Co  Co105  1  0.24838786  0.25037548  0.50002390  1
  Co  Co106  1  0.74930506  0.24528402  0.49893978  1
  Co  Co107  1  0.12039991  0.36959914  0.62786459  1
  Co  Co108  1  0.50069901  0.25030582  -0.00168163  1
  Co  Co109  1  0.87750892  0.12497669  0.12387544  1
  Co  Co110  1  0.37466200  0.12143976  0.62260210  1
  Co  Co111  1  0.50326436  0.50230022  0.49839339  1
  Co  Co112  1  0.00089255  0.25170436  -0.00089887  1
  Co  Co113  1  0.50099481  -0.00134545  0.49660016  1
  Co  Co114  1  0.37809435  0.37721652  0.62220154  1
  Co  Co115  1  0.62074016  0.62701105  0.13065384  1
  Co  Co116  1  0.87656005  0.37568043  0.12432317  1
  Co  Co117  1  0.25325849  0.75072504  0.75189501  1
  Co  Co118  1  0.37555104  0.87046627  0.12447069  1
  Co  Co119  1  0.74874825  0.50265654  0.50028136  1
  Co  Co120  1  0.75579596  0.75045024  0.24827389  1
  Co  Co121  1  0.87985126  0.12617362  0.62161751  1
  Co  Co122  1  0.00345471  -0.00039097  0.00020090  1
  Co  Co123  1  0.50471204  0.75132635  -0.00334301  1
  Co  Co124  1  0.62393890  0.87224453  0.12966545  1
  Co  Co125  1  0.37583235  0.12823649  0.12586807  1
  Co  Co126  1  0.24817156  0.74719775  0.00090951  1
  Co  Co127  1  0.12471516  0.12300418  0.37275309  1
