# generated using pymatgen
data_Fe45Co19
_symmetry_space_group_name_H-M   'P 1'
_cell_length_a   11.41620433
_cell_length_b   11.41583348
_cell_length_c   11.41524858
_cell_angle_alpha   89.99167924
_cell_angle_beta   90.00345413
_cell_angle_gamma   90.00589595
_symmetry_Int_Tables_number   1
_chemical_formula_structural   Fe45Co19
_chemical_formula_sum   'Fe90 Co38'
_cell_volume   1487.69781189
_cell_formula_units_Z   2
loop_
 _symmetry_equiv_pos_site_id
 _symmetry_equiv_pos_as_xyz
  1  'x, y, z'
loop_
 _atom_site_type_symbol
 _atom_site_label
 _atom_site_symmetry_multiplicity
 _atom_site_fract_x
 _atom_site_fract_y
 _atom_site_fract_z
 _atom_site_occupancy
  Fe  Fe0  1  0.25473401  0.00358761  0.24859982  1
  Fe  Fe1  1  0.87631358  0.37557907  0.12512329  1
  Fe  Fe2  1  0.87034506  0.37179952  0.37486435  1
  Fe  Fe3  1  0.25211939  0.24786772  0.24730196  1
  Fe  Fe4  1  0.12685852  0.12547312  0.37512953  1
  Fe  Fe5  1  0.87557386  0.87460472  0.62337922  1
  Fe  Fe6  1  0.50324542  0.75023131  0.24403085  1
  Fe  Fe7  1  0.12398625  0.12366955  0.62651878  1
  Fe  Fe8  1  0.87522364  0.62754948  0.87636651  1
  Fe  Fe9  1  0.00066469  0.50047497  0.49463563  1
  Fe  Fe10  1  -0.00161375  0.49992363  0.75111141  1
  Fe  Fe11  1  0.25056878  0.50088834  0.75101935  1
  Fe  Fe12  1  0.37480419  0.62563752  0.12374501  1
  Fe  Fe13  1  0.74983931  -0.00083985  0.00061371  1
  Fe  Fe14  1  0.75214516  0.50033094  0.00054317  1
  Fe  Fe15  1  0.74922306  0.00108398  0.25191404  1
  Fe  Fe16  1  0.37641833  0.62794521  0.37475489  1
  Fe  Fe17  1  0.74764165  0.00085599  0.49806027  1
  Fe  Fe18  1  -0.00042147  -0.00083487  0.25324848  1
  Fe  Fe19  1  0.61801815  0.62175627  0.62027295  1
  Fe  Fe20  1  0.00049324  0.75033585  0.74806943  1
  Fe  Fe21  1  0.87295010  0.87072793  0.37620823  1
  Fe  Fe22  1  0.37592133  0.37387084  0.87546370  1
  Fe  Fe23  1  0.87388434  0.87442744  0.12652905  1
  Fe  Fe24  1  0.87776262  0.62492955  0.12524137  1
  Fe  Fe25  1  0.74561963  0.50100751  0.49504209  1
  Fe  Fe26  1  0.74771465  0.74645374  0.24697706  1
  Fe  Fe27  1  0.62445733  0.87149952  0.37326394  1
  Fe  Fe28  1  0.87225909  0.37711370  0.62371821  1
  Fe  Fe29  1  0.74949996  0.50307646  0.74915969  1
  Fe  Fe30  1  0.37341744  0.37150947  0.37464213  1
  Fe  Fe31  1  0.37661707  0.12718136  0.87887893  1
  Fe  Fe32  1  0.12473826  0.12540556  0.87530260  1
  Fe  Fe33  1  -0.00211082  0.25085690  0.75014780  1
  Fe  Fe34  1  0.12488243  0.87667228  0.62519075  1
  Fe  Fe35  1  0.25231530  -0.00120246  0.00190974  1
  Fe  Fe36  1  0.12261859  0.37506969  0.12473561  1
  Fe  Fe37  1  0.00445082  0.74953172  0.25222570  1
  Fe  Fe38  1  0.37672945  0.37190863  0.12264910  1
  Fe  Fe39  1  0.87493467  0.12250471  0.62420511  1
  Fe  Fe40  1  0.62498542  0.62764293  0.87931643  1
  Fe  Fe41  1  0.74951099  -0.00107963  0.74988823  1
  Fe  Fe42  1  0.37583617  0.87496167  0.37143338  1
  Fe  Fe43  1  -0.00191859  -0.00156949  -0.00093904  1
  Fe  Fe44  1  0.00158284  0.50169354  0.25481258  1
  Fe  Fe45  1  0.74781021  0.24947527  0.74548843  1
  Fe  Fe46  1  0.38027187  0.12230493  0.62459538  1
  Fe  Fe47  1  0.49976459  -0.00388098  0.00335169  1
  Fe  Fe48  1  0.25137715  0.25006136  0.74949101  1
  Fe  Fe49  1  0.25189962  0.00047069  0.49903952  1
  Fe  Fe50  1  0.12579916  0.62409836  0.62202022  1
  Fe  Fe51  1  0.87309789  0.87208037  0.87445595  1
  Fe  Fe52  1  0.74743306  0.74878095  0.74555630  1
  Fe  Fe53  1  0.62457292  0.12335168  0.87508714  1
  Fe  Fe54  1  0.62753516  0.37647941  0.87301875  1
  Fe  Fe55  1  0.50113529  0.49912827  0.25345517  1
  Fe  Fe56  1  0.12370762  0.62584210  0.87875865  1
  Fe  Fe57  1  0.25226540  0.00095078  0.75172897  1
  Fe  Fe58  1  0.37974772  0.37959405  0.62724875  1
  Fe  Fe59  1  0.12471184  0.87477812  0.87616534  1
  Fe  Fe60  1  0.00024889  -0.00120779  0.49710749  1
  Fe  Fe61  1  0.74970372  0.25027376  0.00247274  1
  Fe  Fe62  1  0.24898230  0.49908183  0.00081711  1
  Fe  Fe63  1  0.87387941  0.12605372  0.87402902  1
  Fe  Fe64  1  0.62205144  0.12512432  0.12715631  1
  Fe  Fe65  1  0.87534723  0.12334762  0.12571572  1
  Fe  Fe66  1  0.74832537  0.50299710  0.25286902  1
  Fe  Fe67  1  0.24977359  0.49958037  0.24987282  1
  Fe  Fe68  1  0.49890679  0.74852105  0.74815580  1
  Fe  Fe69  1  0.25225632  0.49951748  0.49877432  1
  Fe  Fe70  1  0.25064868  0.24998321  0.50310986  1
  Fe  Fe71  1  -0.00101997  0.25013741  0.49797336  1
  Fe  Fe72  1  0.62100586  0.87911706  0.62454630  1
  Fe  Fe73  1  0.24560618  0.74986561  0.24629613  1
  Fe  Fe74  1  0.37818727  0.87897653  0.62550735  1
  Fe  Fe75  1  -0.00151936  0.24871705  0.25147456  1
  Fe  Fe76  1  0.25172344  0.75115227  0.50109694  1
  Fe  Fe77  1  0.37577885  0.87083830  0.87777036  1
  Fe  Fe78  1  0.12405544  0.37626695  0.62417981  1
  Fe  Fe79  1  0.12310172  0.37383698  0.87648570  1
  Fe  Fe80  1  0.62450691  0.37477556  0.12829947  1
  Fe  Fe81  1  0.50063188  0.49957479  -0.00043185  1
  Fe  Fe82  1  0.62637184  0.13016182  0.37254559  1
  Fe  Fe83  1  0.87617571  0.62591971  0.61981929  1
  Fe  Fe84  1  0.12433948  0.12423887  0.12331261  1
  Fe  Fe85  1  0.50227374  0.25000739  0.75006909  1
  Fe  Fe86  1  0.25115875  0.74873134  0.74847104  1
  Fe  Fe87  1  0.50383529  0.25231972  0.50078647  1
  Fe  Fe88  1  0.37534164  0.62770669  0.87797067  1
  Fe  Fe89  1  0.62583004  0.87205064  0.87720525  1
  Co  Co90  1  0.87142125  0.37375421  0.87353154  1
  Co  Co91  1  0.62499224  0.62086868  0.12318160  1
  Co  Co92  1  0.74607407  0.75001599  0.50379172  1
  Co  Co93  1  0.87286226  0.12592728  0.37603521  1
  Co  Co94  1  0.50458801  0.25258984  -0.00121948  1
  Co  Co95  1  0.49889736  0.00153443  0.25086599  1
  Co  Co96  1  0.62149908  0.11952728  0.62643207  1
  Co  Co97  1  0.62866584  0.36923784  0.37069467  1
  Co  Co98  1  0.75362647  0.24877394  0.24533211  1
  Co  Co99  1  0.37394257  0.87354531  0.12759830  1
  Co  Co100  1  0.49581367  0.24965136  0.25071953  1
  Co  Co101  1  0.87306184  0.62945355  0.37623039  1
  Co  Co102  1  0.12865036  0.87733703  0.37403909  1
  Co  Co103  1  0.37509740  0.12738318  0.37795279  1
  Co  Co104  1  0.24750028  0.75044215  0.00331972  1
  Co  Co105  1  0.12942368  0.62475361  0.37659595  1
  Co  Co106  1  0.62379680  0.38087124  0.62626627  1
  Co  Co107  1  0.50005773  0.50304564  0.75495498  1
  Co  Co108  1  0.62196844  0.62966999  0.37591465  1
  Co  Co109  1  0.75127521  0.74903245  0.00405199  1
  Co  Co110  1  0.50188795  0.75114749  0.00551213  1
  Co  Co111  1  0.50203647  0.00021269  0.49200120  1
  Co  Co112  1  0.12341082  0.62181815  0.12345193  1
  Co  Co113  1  0.49713668  0.75288889  0.50169086  1
  Co  Co114  1  -0.00238314  0.49861685  -0.00176400  1
  Co  Co115  1  0.00368576  0.75126552  0.49765808  1
  Co  Co116  1  -0.00054922  -0.00089679  0.75148401  1
  Co  Co117  1  -0.00006267  0.75230810  0.00257414  1
  Co  Co118  1  0.12534729  0.87883161  0.12549090  1
  Co  Co119  1  0.49822861  -0.00120917  0.75576632  1
  Co  Co120  1  0.24784225  0.25124717  0.00085849  1
  Co  Co121  1  0.62819809  0.87769495  0.12591471  1
  Co  Co122  1  0.37847402  0.12749316  0.12029454  1
  Co  Co123  1  0.50021168  0.49665253  0.49135319  1
  Co  Co124  1  0.37668691  0.62065363  0.62354389  1
  Co  Co125  1  0.12791242  0.37279077  0.37424452  1
  Co  Co126  1  0.74726339  0.24835492  0.50536569  1
  Co  Co127  1  -0.00201995  0.24941811  0.00004563  1
