# generated using pymatgen
data_Fe45Co19
_symmetry_space_group_name_H-M   'P 1'
_cell_length_a   11.41535127
_cell_length_b   11.41714400
_cell_length_c   11.41440071
_cell_angle_alpha   89.99593563
_cell_angle_beta   89.99097071
_cell_angle_gamma   89.99429491
_symmetry_Int_Tables_number   1
_chemical_formula_structural   Fe45Co19
_chemical_formula_sum   'Fe90 Co38'
_cell_volume   1487.64691049
_cell_formula_units_Z   2
loop_
 _symmetry_equiv_pos_site_id
 _symmetry_equiv_pos_as_xyz
  1  'x, y, z'
loop_
 _atom_site_type_symbol
 _atom_site_label
 _atom_site_symmetry_multiplicity
 _atom_site_fract_x
 _atom_site_fract_y
 _atom_site_fract_z
 _atom_site_occupancy
  Fe  Fe0  1  0.50292159  0.74988396  -0.00062323  1
  Fe  Fe1  1  0.37412624  0.62501909  0.12419272  1
  Fe  Fe2  1  0.49919723  0.49936432  0.50013963  1
  Fe  Fe3  1  -0.00191582  0.49958792  0.00390937  1
  Fe  Fe4  1  0.62446837  0.12413131  0.37479262  1
  Fe  Fe5  1  0.62659174  0.87805677  0.87587059  1
  Fe  Fe6  1  0.50079078  0.24917881  0.50029747  1
  Fe  Fe7  1  0.37601156  0.12723393  0.12302556  1
  Fe  Fe8  1  -0.00167520  0.75042871  0.75200270  1
  Fe  Fe9  1  0.62818434  0.37906073  0.87414242  1
  Fe  Fe10  1  -0.00039065  0.25200170  0.49897477  1
  Fe  Fe11  1  0.00185458  0.75189067  0.24813872  1
  Fe  Fe12  1  0.37256461  0.37447827  0.62202643  1
  Fe  Fe13  1  0.12158859  0.62566804  0.62237574  1
  Fe  Fe14  1  0.25246486  0.49844604  0.24955864  1
  Fe  Fe15  1  0.24770003  0.75021579  0.00144302  1
  Fe  Fe16  1  0.74953505  0.74963430  0.25215759  1
  Fe  Fe17  1  -0.00351038  -0.00054813  0.74933612  1
  Fe  Fe18  1  0.12487859  0.37740401  0.37678709  1
  Fe  Fe19  1  0.62600159  0.62230593  0.37572658  1
  Fe  Fe20  1  0.12411675  0.12339725  0.37395953  1
  Fe  Fe21  1  -0.00457682  0.50168231  0.74554034  1
  Fe  Fe22  1  0.50029953  0.00308140  0.74611849  1
  Fe  Fe23  1  0.62240318  0.37579153  0.37063832  1
  Fe  Fe24  1  0.12984223  0.87718898  0.36919403  1
  Fe  Fe25  1  0.87353779  0.12658584  0.62366574  1
  Fe  Fe26  1  0.25294165  0.25138495  0.25130315  1
  Fe  Fe27  1  0.87378349  0.37628663  0.87432361  1
  Fe  Fe28  1  -0.00155632  0.25183110  0.25183090  1
  Fe  Fe29  1  0.37542865  0.12600166  0.87490342  1
  Fe  Fe30  1  0.62790763  0.12204413  0.87359202  1
  Fe  Fe31  1  0.00081839  0.24829752  0.75081739  1
  Fe  Fe32  1  0.74980707  0.24966001  0.00176967  1
  Fe  Fe33  1  0.12314512  0.12353066  0.12823191  1
  Fe  Fe34  1  0.74754704  0.74778657  0.75220534  1
  Fe  Fe35  1  0.25087646  0.74936840  0.49977937  1
  Fe  Fe36  1  0.87645149  0.62659923  0.37757599  1
  Fe  Fe37  1  0.12346705  0.12252693  0.87561933  1
  Fe  Fe38  1  0.50249893  0.25128291  -0.00081330  1
  Fe  Fe39  1  -0.00347892  0.00035824  0.00396135  1
  Fe  Fe40  1  0.25070018  0.00080983  0.75048946  1
  Fe  Fe41  1  0.24827245  0.24954727  0.74999725  1
  Fe  Fe42  1  0.87507849  0.12453688  0.37442821  1
  Fe  Fe43  1  0.49938307  0.75183409  0.49928271  1
  Fe  Fe44  1  0.62483213  0.62499056  0.62456966  1
  Fe  Fe45  1  0.12342285  0.37734423  0.87427179  1
  Fe  Fe46  1  0.87420793  0.87022250  0.62189930  1
  Fe  Fe47  1  0.12388207  0.87561557  0.87665299  1
  Fe  Fe48  1  0.25320216  -0.00123257  0.49943827  1
  Fe  Fe49  1  0.50118029  0.74738977  0.24995399  1
  Fe  Fe50  1  0.50015113  0.49965074  0.74916154  1
  Fe  Fe51  1  0.62237659  0.87704309  0.37444909  1
  Fe  Fe52  1  0.50038302  0.24962028  0.74886833  1
  Fe  Fe53  1  -0.00007290  0.74967919  0.00407642  1
  Fe  Fe54  1  0.37655861  0.12493732  0.37889174  1
  Fe  Fe55  1  0.62741187  0.37446454  0.62490946  1
  Fe  Fe56  1  0.37295758  0.87318948  0.12857104  1
  Fe  Fe57  1  0.75011056  0.24948144  0.75085835  1
  Fe  Fe58  1  0.50279664  0.49868542  0.00289098  1
  Fe  Fe59  1  0.12532737  0.12389896  0.62301071  1
  Fe  Fe60  1  0.75018084  0.25211308  0.49606999  1
  Fe  Fe61  1  0.12307722  0.62223127  0.37537209  1
  Fe  Fe62  1  0.49758041  0.00109856  0.24996682  1
  Fe  Fe63  1  0.62853207  0.62512964  0.12370946  1
  Fe  Fe64  1  0.75140951  0.49790851  0.24764119  1
  Fe  Fe65  1  -0.00002290  -0.00290495  0.49832193  1
  Fe  Fe66  1  0.25069620  0.74806943  0.74965686  1
  Fe  Fe67  1  0.62518357  0.12766358  0.12821912  1
  Fe  Fe68  1  0.87360652  0.87301050  0.37539001  1
  Fe  Fe69  1  0.75479813  0.49886442  0.50226663  1
  Fe  Fe70  1  0.12335835  0.62408232  0.87627181  1
  Fe  Fe71  1  0.74934737  -0.00093179  0.50052523  1
  Fe  Fe72  1  0.37790239  0.62541867  0.87476051  1
  Fe  Fe73  1  0.24912072  0.49851458  0.00134434  1
  Fe  Fe74  1  0.87126266  0.87762378  0.87832418  1
  Fe  Fe75  1  -0.00212256  0.49930361  0.24767153  1
  Fe  Fe76  1  0.37594317  0.62463501  0.37540528  1
  Fe  Fe77  1  0.62419574  0.87517910  0.62435811  1
  Fe  Fe78  1  0.37461980  0.37510641  0.87582343  1
  Fe  Fe79  1  0.37694119  0.87397253  0.87288543  1
  Fe  Fe80  1  0.12495354  0.37633294  0.62279736  1
  Fe  Fe81  1  0.50060987  -0.00031776  0.00153938  1
  Fe  Fe82  1  0.75233300  0.00098709  0.24857639  1
  Fe  Fe83  1  0.62805754  0.87453513  0.12516812  1
  Fe  Fe84  1  -0.00008815  0.24979868  -0.00080239  1
  Fe  Fe85  1  0.25046501  0.50205034  0.74832724  1
  Fe  Fe86  1  0.12548470  0.87467674  0.62598889  1
  Fe  Fe87  1  0.25046786  -0.00073907  0.00118543  1
  Fe  Fe88  1  0.24812239  0.25173512  0.00062412  1
  Fe  Fe89  1  0.87097290  0.62252736  0.87724580  1
  Co  Co90  1  0.75199320  -0.00147731  0.74592170  1
  Co  Co91  1  0.37325818  0.12693137  0.62378371  1
  Co  Co92  1  0.37590470  0.87399531  0.62691317  1
  Co  Co93  1  0.74959712  0.49711166  0.00480570  1
  Co  Co94  1  0.12470091  0.62306921  0.12502309  1
  Co  Co95  1  0.12437255  0.37440724  0.12652088  1
  Co  Co96  1  0.87146710  0.87212646  0.12469975  1
  Co  Co97  1  0.87505974  0.37154910  0.12508890  1
  Co  Co98  1  0.24872196  0.74540240  0.25001859  1
  Co  Co99  1  0.37795792  0.37651197  0.37597982  1
  Co  Co100  1  0.37576501  0.87311133  0.37201039  1
  Co  Co101  1  0.00563242  0.75395978  0.49506642  1
  Co  Co102  1  0.24861836  0.25076511  0.49703028  1
  Co  Co103  1  0.50387442  0.74897604  0.75097349  1
  Co  Co104  1  0.87417180  0.37008592  0.62649901  1
  Co  Co105  1  0.87540572  0.37669894  0.37378101  1
  Co  Co106  1  0.87295794  0.62695501  0.12676459  1
  Co  Co107  1  0.49645988  0.24786066  0.25198541  1
  Co  Co108  1  0.49971998  0.00004063  0.50176654  1
  Co  Co109  1  0.49962303  0.50359513  0.24800928  1
  Co  Co110  1  0.25487358  0.00520251  0.24963801  1
  Co  Co111  1  0.87593896  0.63266609  0.61955871  1
  Co  Co112  1  0.62310477  0.37226059  0.12989468  1
  Co  Co113  1  -0.00397433  -0.00334721  0.25057060  1
  Co  Co114  1  -0.00440337  0.49789453  0.50257094  1
  Co  Co115  1  0.37782431  0.62542814  0.62459285  1
  Co  Co116  1  0.87299508  0.12412222  0.87410081  1
  Co  Co117  1  0.87651565  0.12848845  0.12847360  1
  Co  Co118  1  0.62517397  0.62020824  0.87560495  1
  Co  Co119  1  0.74842958  0.74875484  -0.00274117  1
  Co  Co120  1  0.75042220  0.00415240  0.00516169  1
  Co  Co121  1  0.75086140  0.25072653  0.25226951  1
  Co  Co122  1  0.62855912  0.12681315  0.62372377  1
  Co  Co123  1  0.37784350  0.37424175  0.12497107  1
  Co  Co124  1  0.25045442  0.50214514  0.49913094  1
  Co  Co125  1  0.12674209  0.87777571  0.12739957  1
  Co  Co126  1  0.74499342  0.75041954  0.49781796  1
  Co  Co127  1  0.75258446  0.50285955  0.74482305  1
