# generated using pymatgen
data_Fe45Co19
_symmetry_space_group_name_H-M   'P 1'
_cell_length_a   11.41480817
_cell_length_b   11.41663825
_cell_length_c   11.41486762
_cell_angle_alpha   89.99617243
_cell_angle_beta   89.99017759
_cell_angle_gamma   90.00292755
_symmetry_Int_Tables_number   1
_chemical_formula_structural   Fe45Co19
_chemical_formula_sum   'Fe90 Co38'
_cell_volume   1487.57108787
_cell_formula_units_Z   2
loop_
 _symmetry_equiv_pos_site_id
 _symmetry_equiv_pos_as_xyz
  1  'x, y, z'
loop_
 _atom_site_type_symbol
 _atom_site_label
 _atom_site_symmetry_multiplicity
 _atom_site_fract_x
 _atom_site_fract_y
 _atom_site_fract_z
 _atom_site_occupancy
  Fe  Fe0  1  0.12278521  0.37408608  0.12973488  1
  Fe  Fe1  1  0.00182899  0.74873125  0.49951509  1
  Fe  Fe2  1  0.00061327  0.50053366  0.75026196  1
  Fe  Fe3  1  0.49582658  0.74969939  0.75492933  1
  Fe  Fe4  1  0.12703770  0.87515062  0.37393284  1
  Fe  Fe5  1  0.74976675  0.25142408  0.00023947  1
  Fe  Fe6  1  0.62314579  0.12318774  0.62695592  1
  Fe  Fe7  1  0.36761320  0.87593174  0.87688320  1
  Fe  Fe8  1  0.50076020  0.25046701  -0.00083805  1
  Fe  Fe9  1  0.24714268  0.00133101  0.75021964  1
  Fe  Fe10  1  0.37838655  0.37692635  0.12526737  1
  Fe  Fe11  1  0.61969087  0.37608720  0.62262162  1
  Fe  Fe12  1  0.49978867  0.00081724  -0.00182336  1
  Fe  Fe13  1  0.74907972  0.49975579  0.00166235  1
  Fe  Fe14  1  0.74905093  0.75271816  0.24931414  1
  Fe  Fe15  1  0.49900400  -0.00075419  0.49957702  1
  Fe  Fe16  1  0.61974399  0.62697873  0.12363499  1
  Fe  Fe17  1  0.00199726  0.00153466  0.75193786  1
  Fe  Fe18  1  0.24945676  0.25148260  0.00215960  1
  Fe  Fe19  1  0.49604690  0.49999536  0.75379492  1
  Fe  Fe20  1  0.12160831  0.12560252  0.12932956  1
  Fe  Fe21  1  0.49912887  0.24897385  0.25310625  1
  Fe  Fe22  1  0.24997073  0.74876069  0.50504739  1
  Fe  Fe23  1  0.12736521  0.37641663  0.87286766  1
  Fe  Fe24  1  0.37552614  0.87489945  0.62711734  1
  Fe  Fe25  1  0.24935998  0.24931917  0.49760373  1
  Fe  Fe26  1  0.62582153  0.12456270  0.12531044  1
  Fe  Fe27  1  0.62540024  0.62485554  0.87578034  1
  Fe  Fe28  1  0.87486240  0.62789837  0.12427662  1
  Fe  Fe29  1  0.25242603  0.74775515  0.24479475  1
  Fe  Fe30  1  0.74653110  0.49966671  0.49931166  1
  Fe  Fe31  1  0.24953602  0.25141233  0.25202087  1
  Fe  Fe32  1  0.87661520  0.37417349  0.62397340  1
  Fe  Fe33  1  0.12386070  0.87730409  0.12432532  1
  Fe  Fe34  1  0.37475765  0.12335291  0.62510043  1
  Fe  Fe35  1  0.74841032  0.50095476  0.25042433  1
  Fe  Fe36  1  0.74670822  0.75216671  0.50092670  1
  Fe  Fe37  1  0.24927471  0.25133007  0.74854942  1
  Fe  Fe38  1  0.75661985  -0.00280065  0.24739497  1
  Fe  Fe39  1  0.62182351  0.37586748  0.12741187  1
  Fe  Fe40  1  0.12459923  0.12539761  0.62340152  1
  Fe  Fe41  1  0.87719850  0.87375505  0.62573840  1
  Fe  Fe42  1  0.37283653  0.12522146  0.87580800  1
  Fe  Fe43  1  0.12854584  0.62441181  0.37510747  1
  Fe  Fe44  1  0.25446378  0.50234262  0.50196304  1
  Fe  Fe45  1  0.62499224  0.37442331  0.87461758  1
  Fe  Fe46  1  0.00477123  0.74723016  0.75187502  1
  Fe  Fe47  1  -0.00086693  0.50137673  0.49732255  1
  Fe  Fe48  1  0.62162099  0.87544617  0.62817978  1
  Fe  Fe49  1  0.75287787  0.25025669  0.25089031  1
  Fe  Fe50  1  0.00468884  0.74802947  -0.00199925  1
  Fe  Fe51  1  0.61911427  0.62467706  0.62459196  1
  Fe  Fe52  1  0.12640067  0.62247381  0.12453802  1
  Fe  Fe53  1  0.00054414  0.25181603  -0.00194411  1
  Fe  Fe54  1  0.49796396  0.50328634  0.25641350  1
  Fe  Fe55  1  0.37913425  0.37496666  0.62235547  1
  Fe  Fe56  1  0.25082600  -0.00081461  0.24835819  1
  Fe  Fe57  1  0.37624093  0.87355503  0.12225250  1
  Fe  Fe58  1  0.62599111  0.87554614  0.87513258  1
  Fe  Fe59  1  0.49873677  -0.00130292  0.24964007  1
  Fe  Fe60  1  0.75002702  0.25107494  0.74933184  1
  Fe  Fe61  1  0.36598765  0.62178247  0.87945683  1
  Fe  Fe62  1  0.25457686  0.50168925  0.24923989  1
  Fe  Fe63  1  0.49986880  0.24800594  0.75127681  1
  Fe  Fe64  1  0.00008391  0.75120422  0.25045906  1
  Fe  Fe65  1  0.62333425  0.87331048  0.12294133  1
  Fe  Fe66  1  0.62634012  0.12241534  0.37327779  1
  Fe  Fe67  1  0.74997898  0.74888342  0.74938788  1
  Fe  Fe68  1  0.87761187  0.12704184  0.62414459  1
  Fe  Fe69  1  0.87224573  0.62699565  0.37516266  1
  Fe  Fe70  1  0.87434403  0.62415879  0.87587348  1
  Fe  Fe71  1  0.00218046  0.25107749  0.49266527  1
  Fe  Fe72  1  0.87641263  0.37411013  0.12631100  1
  Fe  Fe73  1  0.37286649  0.12391715  0.37564532  1
  Fe  Fe74  1  0.87538320  0.62595311  0.62406862  1
  Fe  Fe75  1  0.75069925  0.49923597  0.74840578  1
  Fe  Fe76  1  0.75247359  0.00081855  0.00058009  1
  Fe  Fe77  1  0.75135672  0.00102055  0.75041593  1
  Fe  Fe78  1  0.12477938  0.87510076  0.62598838  1
  Fe  Fe79  1  0.75111662  -0.00162991  0.50062351  1
  Fe  Fe80  1  0.00135254  -0.00028226  0.49655965  1
  Fe  Fe81  1  0.00112649  0.00120223  -0.00033428  1
  Fe  Fe82  1  0.87547511  0.12826881  0.87404608  1
  Fe  Fe83  1  0.37442757  0.87227851  0.37532344  1
  Fe  Fe84  1  0.00105178  0.49959466  -0.00083945  1
  Fe  Fe85  1  -0.00145197  0.49996870  0.25267463  1
  Fe  Fe86  1  0.37521497  0.12532687  0.12448449  1
  Fe  Fe87  1  0.87610238  0.87250125  0.87589885  1
  Fe  Fe88  1  0.74822637  0.25020717  0.49857033  1
  Fe  Fe89  1  0.12400194  0.37671029  0.62270533  1
  Co  Co90  1  0.00185493  0.25092843  0.74978666  1
  Co  Co91  1  0.49879466  0.50173076  0.49347862  1
  Co  Co92  1  0.50089817  0.49873859  -0.00302266  1
  Co  Co93  1  0.62532092  0.87808708  0.37287106  1
  Co  Co94  1  0.12849177  0.87510979  0.87596032  1
  Co  Co95  1  0.12696975  0.12108406  0.37166353  1
  Co  Co96  1  0.24759262  0.49428672  0.00539442  1
  Co  Co97  1  0.37464845  0.37307145  0.37661482  1
  Co  Co98  1  0.49835101  -0.00012370  0.75302334  1
  Co  Co99  1  -0.00356292  -0.00300554  0.25048936  1
  Co  Co100  1  0.24716101  0.74960215  0.00482488  1
  Co  Co101  1  0.87704970  0.87087016  0.12076938  1
  Co  Co102  1  0.24833170  0.00334828  0.00324546  1
  Co  Co103  1  0.00004528  0.25219900  0.25743929  1
  Co  Co104  1  0.62600154  0.62791455  0.37534098  1
  Co  Co105  1  0.87463464  0.12343644  0.37505273  1
  Co  Co106  1  0.49911706  0.74979340  0.25038064  1
  Co  Co107  1  0.62409696  0.37291836  0.37443815  1
  Co  Co108  1  0.38047833  0.62567881  0.62450415  1
  Co  Co109  1  0.37889629  0.62321342  0.12017823  1
  Co  Co110  1  0.37255772  0.37408615  0.87567009  1
  Co  Co111  1  0.25041363  -0.00164238  0.50047933  1
  Co  Co112  1  0.12424656  0.62241255  0.62494185  1
  Co  Co113  1  0.87451437  0.37619396  0.87426318  1
  Co  Co114  1  0.62563913  0.12518417  0.87565472  1
  Co  Co115  1  0.74816360  0.74809190  -0.00028239  1
  Co  Co116  1  0.87853026  0.12872217  0.12484155  1
  Co  Co117  1  0.50177495  0.75262954  0.49915624  1
  Co  Co118  1  0.24838454  0.74835031  0.74666225  1
  Co  Co119  1  0.87532007  0.87301689  0.37719505  1
  Co  Co120  1  0.37348543  0.63095266  0.37693513  1
  Co  Co121  1  0.12891170  0.38072277  0.37461357  1
  Co  Co122  1  0.12663126  0.12720222  0.87563906  1
  Co  Co123  1  0.87208982  0.37743272  0.37510627  1
  Co  Co124  1  0.25189483  0.49822125  0.74431769  1
  Co  Co125  1  0.50039420  0.24542616  0.49800171  1
  Co  Co126  1  0.49758892  0.75041149  -0.00427921  1
  Co  Co127  1  0.13203941  0.62110985  0.87540902  1
