# generated using pymatgen
data_Fe45Co19
_symmetry_space_group_name_H-M   'P 1'
_cell_length_a   11.41520091
_cell_length_b   11.41547535
_cell_length_c   11.41428624
_cell_angle_alpha   90.00291126
_cell_angle_beta   90.00581368
_cell_angle_gamma   90.00965705
_symmetry_Int_Tables_number   1
_chemical_formula_structural   Fe45Co19
_chemical_formula_sum   'Fe90 Co38'
_cell_volume   1487.39497648
_cell_formula_units_Z   2
loop_
 _symmetry_equiv_pos_site_id
 _symmetry_equiv_pos_as_xyz
  1  'x, y, z'
loop_
 _atom_site_type_symbol
 _atom_site_label
 _atom_site_symmetry_multiplicity
 _atom_site_fract_x
 _atom_site_fract_y
 _atom_site_fract_z
 _atom_site_occupancy
  Fe  Fe0  1  0.24897881  -0.00098749  0.50270722  1
  Fe  Fe1  1  0.37370333  0.62149008  0.87543793  1
  Fe  Fe2  1  0.87338865  0.12502850  0.37384000  1
  Fe  Fe3  1  0.37424207  0.37554208  0.37658468  1
  Fe  Fe4  1  0.00280714  0.74623609  -0.00431285  1
  Fe  Fe5  1  0.74919527  0.49794101  0.00071536  1
  Fe  Fe6  1  0.37597407  0.87668031  0.87566511  1
  Fe  Fe7  1  0.50063610  0.74719077  -0.00243319  1
  Fe  Fe8  1  0.37478759  0.62453702  0.62613017  1
  Fe  Fe9  1  0.74996766  0.25037654  0.50026393  1
  Fe  Fe10  1  0.75093775  -0.00000873  0.50378232  1
  Fe  Fe11  1  0.12296822  0.37499643  0.12318665  1
  Fe  Fe12  1  -0.00011562  0.74911688  0.25154701  1
  Fe  Fe13  1  0.87627460  0.37113981  0.12110200  1
  Fe  Fe14  1  0.24860205  0.25167612  -0.00362832  1
  Fe  Fe15  1  0.12226777  0.62502879  0.62829177  1
  Fe  Fe16  1  0.87695400  0.87480574  0.87585541  1
  Fe  Fe17  1  0.12238269  0.87495108  0.12301199  1
  Fe  Fe18  1  0.12439588  0.87690018  0.37531311  1
  Fe  Fe19  1  0.87512594  0.12911842  0.62944279  1
  Fe  Fe20  1  0.11913084  0.38237575  0.87475573  1
  Fe  Fe21  1  0.74721235  0.74946925  0.49891281  1
  Fe  Fe22  1  0.62710456  0.12726462  0.12542382  1
  Fe  Fe23  1  0.62701970  0.37558645  0.37411162  1
  Fe  Fe24  1  0.00137296  0.24962300  0.50097145  1
  Fe  Fe25  1  -0.00234651  0.49951066  0.24746138  1
  Fe  Fe26  1  0.24936260  0.50052320  0.50050590  1
  Fe  Fe27  1  0.50049203  0.49850312  0.24910498  1
  Fe  Fe28  1  0.24896284  0.74870150  0.49897830  1
  Fe  Fe29  1  0.87806210  0.86814415  0.62592257  1
  Fe  Fe30  1  -0.00194631  0.00049827  0.24652084  1
  Fe  Fe31  1  0.50042306  0.00501446  -0.00124377  1
  Fe  Fe32  1  0.62696484  0.62577338  0.62894192  1
  Fe  Fe33  1  0.12426978  0.12395440  0.37497914  1
  Fe  Fe34  1  0.86980561  0.62411653  0.37301750  1
  Fe  Fe35  1  0.62639779  0.12828298  0.62988695  1
  Fe  Fe36  1  0.24723953  0.25128949  0.49955203  1
  Fe  Fe37  1  0.62227830  0.37052844  0.12311636  1
  Fe  Fe38  1  -0.00187071  0.50174815  0.50098781  1
  Fe  Fe39  1  0.37454425  0.12841201  0.12404808  1
  Fe  Fe40  1  0.12597791  0.12545579  0.63057425  1
  Fe  Fe41  1  0.87416671  0.87490774  0.37574781  1
  Fe  Fe42  1  0.12145633  0.87116537  0.62668878  1
  Fe  Fe43  1  0.50302553  0.74680686  0.49751401  1
  Fe  Fe44  1  0.74756556  0.75265956  -0.00011514  1
  Fe  Fe45  1  0.49818743  0.00287984  0.75073581  1
  Fe  Fe46  1  0.37580917  0.62414554  0.12502234  1
  Fe  Fe47  1  0.50127010  0.24932201  0.49942499  1
  Fe  Fe48  1  0.37560360  0.87499730  0.37584636  1
  Fe  Fe49  1  0.87534020  0.37460108  0.37546711  1
  Fe  Fe50  1  0.62405194  0.87696860  0.87464213  1
  Fe  Fe51  1  0.87655446  0.37328123  0.62785943  1
  Fe  Fe52  1  0.12515085  0.62438064  0.12359242  1
  Fe  Fe53  1  0.37273840  0.12817038  0.62765279  1
  Fe  Fe54  1  0.75261361  -0.00097954  0.74979229  1
  Fe  Fe55  1  0.75392174  0.00136913  0.00126861  1
  Fe  Fe56  1  0.24981560  0.25258165  0.24982556  1
  Fe  Fe57  1  -0.00007023  0.25009498  0.25017721  1
  Fe  Fe58  1  0.75029092  0.49948967  0.50264426  1
  Fe  Fe59  1  0.49753056  0.49845733  0.74980352  1
  Fe  Fe60  1  0.25065291  0.49809529  0.24909101  1
  Fe  Fe61  1  0.25201303  0.25621239  0.75441303  1
  Fe  Fe62  1  0.62723597  0.62463748  0.87249308  1
  Fe  Fe63  1  0.62356036  0.87314389  0.62749134  1
  Fe  Fe64  1  0.75495764  0.49901899  0.75055579  1
  Fe  Fe65  1  0.25003482  0.75058282  0.24924613  1
  Fe  Fe66  1  0.12516210  0.62248869  0.37409666  1
  Fe  Fe67  1  0.24961993  0.74976765  -0.00153199  1
  Fe  Fe68  1  0.75215127  0.24765802  -0.00503981  1
  Fe  Fe69  1  0.62190276  0.37311037  0.87467466  1
  Fe  Fe70  1  0.62818141  0.12404423  0.37344194  1
  Fe  Fe71  1  -0.00047869  0.00110516  0.50341892  1
  Fe  Fe72  1  0.24875855  0.00067586  0.00000393  1
  Fe  Fe73  1  0.50043350  0.00209439  0.50175830  1
  Fe  Fe74  1  0.50359089  0.75046670  0.25259972  1
  Fe  Fe75  1  0.50154253  0.00026273  0.24917779  1
  Fe  Fe76  1  0.87222069  0.62858141  0.12419835  1
  Fe  Fe77  1  0.75121199  -0.00463724  0.24494343  1
  Fe  Fe78  1  0.62405288  0.37233007  0.62811766  1
  Fe  Fe79  1  0.37763630  0.87452468  0.12325905  1
  Fe  Fe80  1  0.37389654  0.12484447  0.37475096  1
  Fe  Fe81  1  0.12293857  0.37852133  0.62740666  1
  Fe  Fe82  1  0.25096812  0.49884202  0.00143459  1
  Fe  Fe83  1  0.37662144  0.87297376  0.62566517  1
  Fe  Fe84  1  0.62760780  0.62642445  0.12761344  1
  Fe  Fe85  1  0.24970400  -0.00056585  0.24782107  1
  Fe  Fe86  1  0.24936439  0.74929452  0.75242264  1
  Fe  Fe87  1  0.12303026  0.12610439  0.12263285  1
  Fe  Fe88  1  0.12295651  0.87921440  0.87346277  1
  Fe  Fe89  1  0.50104904  0.50165956  0.49986501  1
  Co  Co90  1  0.00190871  0.25207499  0.75236203  1
  Co  Co91  1  0.87490293  0.12861873  0.12483578  1
  Co  Co92  1  0.87822995  0.12431546  0.87161751  1
  Co  Co93  1  -0.00215863  0.00355885  0.00085509  1
  Co  Co94  1  0.75139859  0.49498455  0.24509270  1
  Co  Co95  1  0.49842232  0.74862391  0.75281400  1
  Co  Co96  1  0.12362956  0.37647537  0.37539945  1
  Co  Co97  1  0.75044731  0.25209627  0.25034825  1
  Co  Co98  1  0.49951155  0.25048224  0.25112664  1
  Co  Co99  1  0.37053469  0.12358218  0.87415662  1
  Co  Co100  1  0.74771490  0.75625283  0.24947681  1
  Co  Co101  1  0.25353560  0.49734655  0.74966881  1
  Co  Co102  1  0.37457593  0.62436566  0.37415735  1
  Co  Co103  1  0.12473708  0.12158935  0.87147959  1
  Co  Co104  1  0.49925548  0.24495191  -0.00397167  1
  Co  Co105  1  0.87843846  0.37580022  0.87634885  1
  Co  Co106  1  -0.00053766  0.74435973  0.75669107  1
  Co  Co107  1  0.37575657  0.37395913  0.62163245  1
  Co  Co108  1  0.87405900  0.62942702  0.62332887  1
  Co  Co109  1  0.00015449  0.74785196  0.49558582  1
  Co  Co110  1  0.87951788  0.87031323  0.12181329  1
  Co  Co111  1  0.63008041  0.62112393  0.37196972  1
  Co  Co112  1  0.49621850  0.24953173  0.75334530  1
  Co  Co113  1  0.25129636  -0.00315851  0.74814471  1
  Co  Co114  1  0.00182381  0.24721067  -0.00411262  1
  Co  Co115  1  -0.00700415  0.50628172  0.75063470  1
  Co  Co116  1  0.75144007  0.25263686  0.75380830  1
  Co  Co117  1  0.62559892  0.87900447  0.37801194  1
  Co  Co118  1  -0.00239190  -0.00110617  0.74683944  1
  Co  Co119  1  0.50433278  0.50389622  0.00116799  1
  Co  Co120  1  0.86992276  0.62455240  0.87975161  1
  Co  Co121  1  0.12802587  0.61837134  0.87437288  1
  Co  Co122  1  0.37761085  0.37443997  0.12127068  1
  Co  Co123  1  0.37966226  0.37898818  0.88075503  1
  Co  Co124  1  -0.00338055  0.50312763  0.00233668  1
  Co  Co125  1  0.62844756  0.12407369  0.87257710  1
  Co  Co126  1  0.75135791  0.75117147  0.75181123  1
  Co  Co127  1  0.62139236  0.87551301  0.12038881  1
