# generated using pymatgen
data_Fe45Co19
_symmetry_space_group_name_H-M   'P 1'
_cell_length_a   11.41545769
_cell_length_b   11.41590959
_cell_length_c   11.41539045
_cell_angle_alpha   90.00122006
_cell_angle_beta   89.99107146
_cell_angle_gamma   89.99776620
_symmetry_Int_Tables_number   1
_chemical_formula_structural   Fe45Co19
_chemical_formula_sum   'Fe90 Co38'
_cell_volume   1487.62892474
_cell_formula_units_Z   2
loop_
 _symmetry_equiv_pos_site_id
 _symmetry_equiv_pos_as_xyz
  1  'x, y, z'
loop_
 _atom_site_type_symbol
 _atom_site_label
 _atom_site_symmetry_multiplicity
 _atom_site_fract_x
 _atom_site_fract_y
 _atom_site_fract_z
 _atom_site_occupancy
  Fe  Fe0  1  0.49787472  0.74875798  0.49780971  1
  Fe  Fe1  1  0.50058886  0.25194869  0.49973890  1
  Fe  Fe2  1  -0.00132769  0.50212156  0.00018845  1
  Fe  Fe3  1  0.75214641  0.75071806  0.00049940  1
  Fe  Fe4  1  0.24739141  0.00148738  0.75119217  1
  Fe  Fe5  1  0.75439086  -0.00060271  0.50142108  1
  Fe  Fe6  1  0.62681884  0.37608054  0.37339002  1
  Fe  Fe7  1  0.24743798  0.25027943  0.75054087  1
  Fe  Fe8  1  0.37228861  0.87539510  0.37476686  1
  Fe  Fe9  1  -0.00339727  -0.00223523  0.49651062  1
  Fe  Fe10  1  0.37525358  0.12667703  0.87716518  1
  Fe  Fe11  1  0.50013316  -0.00205159  0.00106653  1
  Fe  Fe12  1  0.24537396  0.00050895  0.00202201  1
  Fe  Fe13  1  0.87437542  0.37695693  0.87503982  1
  Fe  Fe14  1  0.75074438  0.74939075  0.24835973  1
  Fe  Fe15  1  0.24977612  0.00067200  0.50116055  1
  Fe  Fe16  1  0.37493122  0.37575612  0.87617002  1
  Fe  Fe17  1  0.62478027  0.12364928  0.12457238  1
  Fe  Fe18  1  0.50063878  0.25055711  0.24902216  1
  Fe  Fe19  1  0.12303353  0.87163427  0.87658873  1
  Fe  Fe20  1  0.37578902  0.62386448  0.87190186  1
  Fe  Fe21  1  0.50118083  0.50012860  0.00073438  1
  Fe  Fe22  1  0.74970194  0.50121872  0.74957083  1
  Fe  Fe23  1  0.87861975  0.87466201  0.12634592  1
  Fe  Fe24  1  0.50037515  0.75207657  0.00071378  1
  Fe  Fe25  1  0.24833618  0.74764074  -0.00089025  1
  Fe  Fe26  1  0.50257001  0.25192886  0.74987504  1
  Fe  Fe27  1  -0.00233865  0.24977433  0.75125507  1
  Fe  Fe28  1  0.75067910  0.75327133  0.75089393  1
  Fe  Fe29  1  0.50043376  -0.00101989  0.75081763  1
  Fe  Fe30  1  0.62743888  0.87652517  0.37211315  1
  Fe  Fe31  1  0.62350801  0.62371518  0.37185555  1
  Fe  Fe32  1  0.37442143  0.87385686  0.87433499  1
  Fe  Fe33  1  0.12097596  0.12725903  0.87927296  1
  Fe  Fe34  1  0.37465309  0.37343746  0.12330492  1
  Fe  Fe35  1  0.75178892  0.50004176  0.49807594  1
  Fe  Fe36  1  0.00082083  0.75042954  0.25490868  1
  Fe  Fe37  1  -0.00098480  0.24987975  0.25081226  1
  Fe  Fe38  1  0.37210419  0.87282823  0.12631809  1
  Fe  Fe39  1  0.12217344  0.12560780  0.62383929  1
  Fe  Fe40  1  0.12432847  0.37651097  0.87583697  1
  Fe  Fe41  1  0.37456015  0.37709133  0.62652352  1
  Fe  Fe42  1  0.87602454  0.62604314  0.87483681  1
  Fe  Fe43  1  0.62644497  0.12351359  0.37434638  1
  Fe  Fe44  1  -0.00449552  0.00027204  0.75089328  1
  Fe  Fe45  1  0.87404414  0.62707255  0.62340906  1
  Fe  Fe46  1  0.62672781  0.12460938  0.62479271  1
  Fe  Fe47  1  0.12429988  0.12415981  0.37476275  1
  Fe  Fe48  1  0.00063569  0.74990203  0.49597577  1
  Fe  Fe49  1  0.12622637  0.62272946  0.62054967  1
  Fe  Fe50  1  0.62694096  0.37501761  0.87629650  1
  Fe  Fe51  1  0.12428712  0.87540988  0.62294753  1
  Fe  Fe52  1  0.37336313  0.87538566  0.62563730  1
  Fe  Fe53  1  0.00125233  0.50151332  0.74797118  1
  Fe  Fe54  1  0.62469307  0.87566062  0.62681026  1
  Fe  Fe55  1  0.75092634  0.50352674  0.00168799  1
  Fe  Fe56  1  0.37437577  0.12478438  0.37410029  1
  Fe  Fe57  1  0.24875178  0.25200605  0.49970441  1
  Fe  Fe58  1  0.62682962  0.37573554  0.12521298  1
  Fe  Fe59  1  0.24871359  0.50176111  0.00122093  1
  Fe  Fe60  1  0.37497314  0.12596265  0.62502935  1
  Fe  Fe61  1  0.12237274  0.62678250  0.12528628  1
  Fe  Fe62  1  0.37689832  0.62549848  0.12910769  1
  Fe  Fe63  1  0.00111702  0.74822745  0.75001372  1
  Fe  Fe64  1  0.75111234  -0.00386902  -0.00069932  1
  Fe  Fe65  1  0.24841607  0.74806967  0.74846775  1
  Fe  Fe66  1  0.74960477  0.75105372  0.49973330  1
  Fe  Fe67  1  0.24793669  0.25204074  0.25050028  1
  Fe  Fe68  1  0.75283596  0.24940526  0.49813808  1
  Fe  Fe69  1  0.62356147  0.62752736  0.87390563  1
  Fe  Fe70  1  0.37589674  0.62171633  0.62586301  1
  Fe  Fe71  1  0.24503948  0.00065478  0.24723418  1
  Fe  Fe72  1  0.62396965  0.62629761  0.12691144  1
  Fe  Fe73  1  0.37528787  0.37999088  0.37343882  1
  Fe  Fe74  1  0.75219470  0.24808475  0.24973843  1
  Fe  Fe75  1  0.88020180  0.12201656  0.12490450  1
  Fe  Fe76  1  0.75251976  0.24803257  0.74974564  1
  Fe  Fe77  1  0.62792905  0.12330286  0.87466444  1
  Fe  Fe78  1  0.87509754  0.37487631  0.62445735  1
  Fe  Fe79  1  -0.00119673  0.25155396  0.49824616  1
  Fe  Fe80  1  0.37329344  0.12798400  0.12399863  1
  Fe  Fe81  1  0.50005299  -0.00204001  0.24846070  1
  Fe  Fe82  1  0.87405690  0.37862932  0.12718111  1
  Fe  Fe83  1  -0.00315958  0.50386431  0.25346689  1
  Fe  Fe84  1  0.24855753  0.74637523  0.25566165  1
  Fe  Fe85  1  0.62365305  0.62381217  0.62616659  1
  Fe  Fe86  1  0.49952618  -0.00077853  0.49906056  1
  Fe  Fe87  1  0.12372011  0.38063359  0.37640629  1
  Fe  Fe88  1  0.12351733  0.37500258  0.12459398  1
  Fe  Fe89  1  0.75333030  0.24987144  0.00160330  1
  Co  Co90  1  0.87436997  0.37542185  0.37349961  1
  Co  Co91  1  0.87246483  0.62731657  0.37628482  1
  Co  Co92  1  0.75408089  -0.00216482  0.74828320  1
  Co  Co93  1  0.87614334  0.12315002  0.37270176  1
  Co  Co94  1  0.12263258  0.12957333  0.12433115  1
  Co  Co95  1  -0.00378626  0.25400287  0.00069018  1
  Co  Co96  1  0.24830231  0.50064573  0.24654323  1
  Co  Co97  1  0.50231877  0.49956493  0.50050636  1
  Co  Co98  1  0.00471189  -0.00285034  0.25030044  1
  Co  Co99  1  -0.00475584  0.50082450  0.50045170  1
  Co  Co100  1  0.87711123  0.87115456  0.62429444  1
  Co  Co101  1  0.87187189  0.87463134  0.37303311  1
  Co  Co102  1  0.62594196  0.87404159  0.12587002  1
  Co  Co103  1  0.87481196  0.12312873  0.87919217  1
  Co  Co104  1  0.49935304  0.75078249  0.74783100  1
  Co  Co105  1  0.24694493  0.49996591  0.74989650  1
  Co  Co106  1  0.12488728  0.86844514  0.12516604  1
  Co  Co107  1  0.00408789  -0.00269888  0.00238351  1
  Co  Co108  1  0.12618473  0.62015643  0.37809979  1
  Co  Co109  1  0.49978466  0.75300163  0.25274846  1
  Co  Co110  1  0.75092500  0.50220534  0.25056913  1
  Co  Co111  1  0.87629475  0.12653856  0.62302143  1
  Co  Co112  1  0.87767712  0.87371332  0.87542054  1
  Co  Co113  1  -0.00208321  0.74838172  -0.00059988  1
  Co  Co114  1  0.12306831  0.37450393  0.62423373  1
  Co  Co115  1  0.75165349  0.00097571  0.24765720  1
  Co  Co116  1  0.37619497  0.61989186  0.37322459  1
  Co  Co117  1  0.12419849  0.62467739  0.87652790  1
  Co  Co118  1  0.87664301  0.62588812  0.12654315  1
  Co  Co119  1  0.25287558  0.74794445  0.49943045  1
  Co  Co120  1  0.24752312  0.25040659  -0.00083802  1
  Co  Co121  1  0.12864285  0.87562614  0.37755218  1
  Co  Co122  1  0.62893263  0.37495504  0.62415549  1
  Co  Co123  1  0.50311393  0.49766169  0.75037984  1
  Co  Co124  1  0.62463162  0.87405375  0.87406608  1
  Co  Co125  1  0.50279546  0.24948882  -0.00003815  1
  Co  Co126  1  0.50154647  0.49778301  0.24729521  1
  Co  Co127  1  0.25115731  0.49909809  0.50120975  1
