# generated using pymatgen
data_Fe45Co19
_symmetry_space_group_name_H-M   'P 1'
_cell_length_a   11.41501205
_cell_length_b   11.41545195
_cell_length_c   11.41492669
_cell_angle_alpha   90.00629223
_cell_angle_beta   89.99928239
_cell_angle_gamma   89.99863121
_symmetry_Int_Tables_number   1
_chemical_formula_structural   Fe45Co19
_chemical_formula_sum   'Fe90 Co38'
_cell_volume   1487.45079738
_cell_formula_units_Z   2
loop_
 _symmetry_equiv_pos_site_id
 _symmetry_equiv_pos_as_xyz
  1  'x, y, z'
loop_
 _atom_site_type_symbol
 _atom_site_label
 _atom_site_symmetry_multiplicity
 _atom_site_fract_x
 _atom_site_fract_y
 _atom_site_fract_z
 _atom_site_occupancy
  Fe  Fe0  1  0.37705429  0.37370087  0.12373851  1
  Fe  Fe1  1  0.25207399  0.00208303  0.24792843  1
  Fe  Fe2  1  0.87723095  0.37409872  0.12676789  1
  Fe  Fe3  1  0.50203033  0.49857838  0.25216100  1
  Fe  Fe4  1  -0.00034626  0.49845121  0.00017515  1
  Fe  Fe5  1  0.62499072  0.62410769  0.12401057  1
  Fe  Fe6  1  0.24713436  0.49824381  0.24909567  1
  Fe  Fe7  1  0.87640481  0.87851823  0.12418053  1
  Fe  Fe8  1  0.62467941  0.87816688  0.12918648  1
  Fe  Fe9  1  0.12512423  0.12541372  0.62378043  1
  Fe  Fe10  1  0.24861541  0.75194177  0.74843124  1
  Fe  Fe11  1  0.12420301  0.62470283  0.12311073  1
  Fe  Fe12  1  0.87636747  0.87690411  0.37340195  1
  Fe  Fe13  1  0.50017962  0.75021048  0.25192472  1
  Fe  Fe14  1  0.25120045  -0.00013790  0.50130526  1
  Fe  Fe15  1  0.37360373  0.62317639  0.87319106  1
  Fe  Fe16  1  0.74842395  0.24775722  0.24881413  1
  Fe  Fe17  1  0.00157698  0.00326163  0.75418204  1
  Fe  Fe18  1  -0.00440967  0.49381594  0.49810008  1
  Fe  Fe19  1  0.49977419  0.24899036  -0.00405855  1
  Fe  Fe20  1  0.37517535  0.62306050  0.12441435  1
  Fe  Fe21  1  0.75221295  0.24522009  0.74670364  1
  Fe  Fe22  1  0.24756026  0.49603694  -0.00213827  1
  Fe  Fe23  1  0.12288984  0.37244823  0.62640451  1
  Fe  Fe24  1  -0.00243488  0.75146015  0.50027231  1
  Fe  Fe25  1  0.25196057  0.25067873  0.24900080  1
  Fe  Fe26  1  0.62762046  0.62741393  0.37914859  1
  Fe  Fe27  1  0.00150901  0.00233537  0.49724542  1
  Fe  Fe28  1  0.62887420  0.12234296  0.87398468  1
  Fe  Fe29  1  0.74894504  0.00075291  0.49740668  1
  Fe  Fe30  1  0.12400891  0.62636749  0.87476221  1
  Fe  Fe31  1  0.50055013  0.00046670  0.75054262  1
  Fe  Fe32  1  0.00006907  0.74809084  0.24968172  1
  Fe  Fe33  1  0.12404944  0.87430423  0.12325846  1
  Fe  Fe34  1  0.62387334  0.37301538  0.62676023  1
  Fe  Fe35  1  0.50135506  0.49886469  -0.00310658  1
  Fe  Fe36  1  0.24968703  0.49747428  0.50412291  1
  Fe  Fe37  1  0.87459489  0.62406167  0.12448769  1
  Fe  Fe38  1  0.87398405  0.12858520  0.37800581  1
  Fe  Fe39  1  0.87484128  0.37247522  0.87257230  1
  Fe  Fe40  1  0.00177257  0.00383974  0.24997092  1
  Fe  Fe41  1  0.12572474  0.87541523  0.37427843  1
  Fe  Fe42  1  0.75317206  0.75387937  0.74822981  1
  Fe  Fe43  1  0.37470224  0.87443891  0.12432683  1
  Fe  Fe44  1  0.37358591  0.87367309  0.37637432  1
  Fe  Fe45  1  0.87367880  0.62310786  0.37752005  1
  Fe  Fe46  1  0.37793711  0.37402162  0.63002618  1
  Fe  Fe47  1  0.74984880  0.50044306  0.74781914  1
  Fe  Fe48  1  0.25009874  0.75077932  0.50213983  1
  Fe  Fe49  1  0.49969008  0.00044241  -0.00089865  1
  Fe  Fe50  1  0.00263302  0.24846586  -0.00436973  1
  Fe  Fe51  1  0.36866083  0.12413684  0.87447208  1
  Fe  Fe52  1  0.37282859  0.37449314  0.37675665  1
  Fe  Fe53  1  0.87604959  0.12504018  0.12261742  1
  Fe  Fe54  1  0.37520558  0.62502563  0.62591111  1
  Fe  Fe55  1  0.87765128  0.88000020  0.62509937  1
  Fe  Fe56  1  0.62562223  0.37344207  0.87136968  1
  Fe  Fe57  1  0.37428682  0.87572822  0.87368376  1
  Fe  Fe58  1  0.75066550  0.75147942  0.25139449  1
  Fe  Fe59  1  0.24864786  0.74871752  0.24978043  1
  Fe  Fe60  1  0.74981870  0.49910873  0.25060792  1
  Fe  Fe61  1  0.37310555  0.12398380  0.62663115  1
  Fe  Fe62  1  0.62573277  0.12374244  0.62419715  1
  Fe  Fe63  1  0.74847941  0.24861158  0.00130121  1
  Fe  Fe64  1  0.12443243  0.62293922  0.37739025  1
  Fe  Fe65  1  0.37396140  0.62401940  0.37532200  1
  Fe  Fe66  1  0.75042617  0.49809797  -0.00147727  1
  Fe  Fe67  1  0.12085222  0.62637766  0.62441508  1
  Fe  Fe68  1  0.12944953  0.12824445  0.37832302  1
  Fe  Fe69  1  0.62608093  0.62694418  0.87478240  1
  Fe  Fe70  1  0.37566500  0.37602239  0.86851708  1
  Fe  Fe71  1  0.62782228  0.62783640  0.62195351  1
  Fe  Fe72  1  0.61919591  0.12305721  0.13035610  1
  Fe  Fe73  1  0.49953727  0.00043941  0.49592923  1
  Fe  Fe74  1  0.74959636  0.75310781  -0.00019538  1
  Fe  Fe75  1  0.62816115  0.37193253  0.37718972  1
  Fe  Fe76  1  0.00267427  0.25076829  0.25331228  1
  Fe  Fe77  1  0.12324526  0.87589841  0.62438227  1
  Fe  Fe78  1  -0.00058564  0.50116170  0.74913786  1
  Fe  Fe79  1  0.62298653  0.87422667  0.62276109  1
  Fe  Fe80  1  0.62316832  0.37442925  0.12471000  1
  Fe  Fe81  1  0.87381620  0.88086924  0.87795363  1
  Fe  Fe82  1  0.50015130  0.75008717  -0.00020905  1
  Fe  Fe83  1  -0.00053924  0.24356648  0.75158929  1
  Fe  Fe84  1  0.12846851  0.12738834  0.12078376  1
  Fe  Fe85  1  0.50110222  0.50022284  0.50109726  1
  Fe  Fe86  1  0.49938228  0.74973140  0.74899689  1
  Fe  Fe87  1  0.49930816  0.24771584  0.49887377  1
  Fe  Fe88  1  0.87559241  0.62670952  0.87366526  1
  Fe  Fe89  1  0.12580865  0.87639995  0.87831240  1
  Co  Co90  1  -0.00186374  0.75078669  0.00016364  1
  Co  Co91  1  0.12201648  0.37378486  0.12644710  1
  Co  Co92  1  0.87681713  0.12149536  0.62289153  1
  Co  Co93  1  0.49464216  -0.00173793  0.25371222  1
  Co  Co94  1  0.49712806  0.74952919  0.49887051  1
  Co  Co95  1  0.24730673  0.50046504  0.74754281  1
  Co  Co96  1  0.87615254  0.37268588  0.62925016  1
  Co  Co97  1  0.50071066  0.24434504  0.75142040  1
  Co  Co98  1  0.25098605  0.74956823  -0.00101928  1
  Co  Co99  1  0.87179877  0.37145340  0.37184407  1
  Co  Co100  1  -0.00011711  0.50048610  0.25205844  1
  Co  Co101  1  0.75370612  0.00270209  0.25141848  1
  Co  Co102  1  0.37701531  0.87662824  0.62494150  1
  Co  Co103  1  0.37308521  0.12613285  0.37514250  1
  Co  Co104  1  0.24989517  0.25574614  -0.00259984  1
  Co  Co105  1  0.75536914  0.75411586  0.50151603  1
  Co  Co106  1  0.74619758  0.00122937  0.00406269  1
  Co  Co107  1  0.25139301  -0.00094278  0.00343141  1
  Co  Co108  1  0.62435470  0.12532243  0.37215610  1
  Co  Co109  1  0.00203131  0.00339049  -0.00050120  1
  Co  Co110  1  0.49807656  0.25272661  0.25328631  1
  Co  Co111  1  0.62403290  0.87553055  0.87363546  1
  Co  Co112  1  0.25244565  0.25133366  0.50486621  1
  Co  Co113  1  0.75040747  0.24935043  0.50392136  1
  Co  Co114  1  0.74913321  -0.00114012  0.74728179  1
  Co  Co115  1  0.12805388  0.37366589  0.37588810  1
  Co  Co116  1  0.62568797  0.87451576  0.37455722  1
  Co  Co117  1  0.24770426  0.25030063  0.74953471  1
  Co  Co118  1  -0.00119373  0.25270818  0.50009818  1
  Co  Co119  1  0.87686340  0.62475767  0.62501080  1
  Co  Co120  1  0.12208924  0.37513649  0.87047851  1
  Co  Co121  1  -0.00131502  0.75400416  0.75120673  1
  Co  Co122  1  0.37706808  0.12835450  0.12351601  1
  Co  Co123  1  0.24792584  -0.00212356  0.74796460  1
  Co  Co124  1  0.13181076  0.12346199  0.87680373  1
  Co  Co125  1  0.87006377  0.12252893  0.87694113  1
  Co  Co126  1  0.75195564  0.49626564  0.50331431  1
  Co  Co127  1  0.50396818  0.50378520  0.74887614  1
