# generated using pymatgen
data_Fe45Co19
_symmetry_space_group_name_H-M   'P 1'
_cell_length_a   11.41467066
_cell_length_b   11.41390642
_cell_length_c   11.41607919
_cell_angle_alpha   89.99324355
_cell_angle_beta   89.98868943
_cell_angle_gamma   89.99703020
_symmetry_Int_Tables_number   1
_chemical_formula_structural   Fe45Co19
_chemical_formula_sum   'Fe90 Co38'
_cell_volume   1487.35505411
_cell_formula_units_Z   2
loop_
 _symmetry_equiv_pos_site_id
 _symmetry_equiv_pos_as_xyz
  1  'x, y, z'
loop_
 _atom_site_type_symbol
 _atom_site_label
 _atom_site_symmetry_multiplicity
 _atom_site_fract_x
 _atom_site_fract_y
 _atom_site_fract_z
 _atom_site_occupancy
  Fe  Fe0  1  0.74918992  0.50004803  0.25052776  1
  Fe  Fe1  1  0.62306320  0.37689575  0.37641515  1
  Fe  Fe2  1  0.87667689  0.12460264  0.62018527  1
  Fe  Fe3  1  0.87063964  0.87066438  0.12773856  1
  Fe  Fe4  1  0.25071305  0.25214716  0.49817918  1
  Fe  Fe5  1  0.12856233  0.12442189  0.11995711  1
  Fe  Fe6  1  0.37383901  0.37635071  0.87170188  1
  Fe  Fe7  1  0.87686102  0.87739838  0.87441338  1
  Fe  Fe8  1  0.74667980  0.24777148  0.49797034  1
  Fe  Fe9  1  0.00242904  0.50083287  0.24830775  1
  Fe  Fe10  1  0.37466300  0.12704018  0.62351944  1
  Fe  Fe11  1  0.24979596  0.00221807  0.75039839  1
  Fe  Fe12  1  0.74816102  0.00143712  0.00392747  1
  Fe  Fe13  1  0.37484252  0.87270381  0.12724226  1
  Fe  Fe14  1  0.12588339  0.37220251  0.62814265  1
  Fe  Fe15  1  0.49830318  0.49998847  0.24846058  1
  Fe  Fe16  1  0.37297909  0.87240704  0.37450927  1
  Fe  Fe17  1  0.37345413  0.12825171  0.12418846  1
  Fe  Fe18  1  0.49921048  0.50043764  0.74898893  1
  Fe  Fe19  1  0.62754251  0.62870556  0.12221152  1
  Fe  Fe20  1  0.12491728  0.87558836  0.62529535  1
  Fe  Fe21  1  0.12581580  0.37426664  0.37247629  1
  Fe  Fe22  1  0.12719557  0.87267786  0.37369978  1
  Fe  Fe23  1  0.49951726  0.25161165  0.00002878  1
  Fe  Fe24  1  -0.00022406  0.49838311  0.00187943  1
  Fe  Fe25  1  0.12266814  0.87997043  0.87728644  1
  Fe  Fe26  1  0.25138451  0.50399301  0.25181968  1
  Fe  Fe27  1  0.00070517  0.75183448  0.49992055  1
  Fe  Fe28  1  0.87247540  0.13079240  0.12555390  1
  Fe  Fe29  1  0.25100424  0.00141277  0.24990914  1
  Fe  Fe30  1  0.62618066  0.62396614  0.62289963  1
  Fe  Fe31  1  0.87241054  0.37204225  0.12572908  1
  Fe  Fe32  1  0.62559160  0.37407296  0.87465437  1
  Fe  Fe33  1  0.62398847  0.62582321  0.87641355  1
  Fe  Fe34  1  0.87277825  0.62650608  0.12494117  1
  Fe  Fe35  1  0.49797691  0.25240286  0.25009794  1
  Fe  Fe36  1  0.50098193  0.74921379  0.24985306  1
  Fe  Fe37  1  0.62658301  0.88140756  0.62809106  1
  Fe  Fe38  1  0.25036314  0.75110365  -0.00084125  1
  Fe  Fe39  1  0.49408698  0.49642113  0.50176441  1
  Fe  Fe40  1  0.12473065  0.62354585  0.87555918  1
  Fe  Fe41  1  0.62348149  0.62212122  0.37802925  1
  Fe  Fe42  1  0.00310251  0.74686454  0.24921915  1
  Fe  Fe43  1  0.87396084  0.37178140  0.62699690  1
  Fe  Fe44  1  0.87624339  0.37327787  0.37306724  1
  Fe  Fe45  1  0.00060387  0.49960627  0.74868600  1
  Fe  Fe46  1  -0.00022977  0.75013619  -0.00014440  1
  Fe  Fe47  1  0.50170543  0.24683791  0.74959547  1
  Fe  Fe48  1  0.74895613  0.50013465  0.74964069  1
  Fe  Fe49  1  0.50131029  0.75264178  0.50044415  1
  Fe  Fe50  1  0.25274275  0.49916343  0.50028989  1
  Fe  Fe51  1  0.75033547  0.75133598  0.75162262  1
  Fe  Fe52  1  0.12982228  0.37353510  0.12591042  1
  Fe  Fe53  1  0.25175688  0.49854204  -0.00180933  1
  Fe  Fe54  1  0.87594093  0.62480022  0.87407408  1
  Fe  Fe55  1  0.24495202  0.24651484  0.75536277  1
  Fe  Fe56  1  0.37464050  0.87587727  0.62463296  1
  Fe  Fe57  1  0.12420481  0.62583263  0.62418567  1
  Fe  Fe58  1  0.37609214  0.12588271  0.37547010  1
  Fe  Fe59  1  0.00400739  0.25194047  -0.00083012  1
  Fe  Fe60  1  0.87460498  0.87671206  0.37283221  1
  Fe  Fe61  1  0.87450721  0.87732026  0.62509672  1
  Fe  Fe62  1  0.00027430  0.00207710  0.24751667  1
  Fe  Fe63  1  0.37747928  0.87538629  0.87483266  1
  Fe  Fe64  1  0.74868027  0.24502848  0.75155741  1
  Fe  Fe65  1  0.12240972  0.12605545  0.37715836  1
  Fe  Fe66  1  0.50017579  0.00081355  0.50045676  1
  Fe  Fe67  1  0.24882995  0.75011822  0.75163388  1
  Fe  Fe68  1  0.37575454  0.12329923  0.87744407  1
  Fe  Fe69  1  0.62719315  0.37234469  0.12422966  1
  Fe  Fe70  1  0.12572653  0.87620202  0.12449142  1
  Fe  Fe71  1  0.62608434  0.87958447  0.36970462  1
  Fe  Fe72  1  0.87826310  0.12565948  0.37567152  1
  Fe  Fe73  1  0.87616360  0.62348468  0.37603881  1
  Fe  Fe74  1  0.37488968  0.62638354  0.12361649  1
  Fe  Fe75  1  0.50182049  -0.00058705  0.00586937  1
  Fe  Fe76  1  0.87628679  0.37306851  0.87361353  1
  Fe  Fe77  1  0.87434033  0.62623432  0.62471727  1
  Fe  Fe78  1  0.62388065  0.87947017  0.87436772  1
  Fe  Fe79  1  0.62316845  0.12230512  0.37051410  1
  Fe  Fe80  1  0.37397504  0.62625403  0.62620822  1
  Fe  Fe81  1  0.50017028  0.75011141  0.75037139  1
  Fe  Fe82  1  0.24859239  -0.00041381  0.49985813  1
  Fe  Fe83  1  0.00153249  0.00402153  0.74777481  1
  Fe  Fe84  1  0.62456376  0.37344785  0.62400178  1
  Fe  Fe85  1  0.74881180  0.75199307  0.49838110  1
  Fe  Fe86  1  -0.00006493  0.49697457  0.50073979  1
  Fe  Fe87  1  0.49832969  0.49907892  0.00015743  1
  Fe  Fe88  1  0.75092711  0.49920795  -0.00121071  1
  Fe  Fe89  1  0.87758665  0.12525562  0.87788456  1
  Co  Co90  1  0.24963316  0.25224249  -0.00505771  1
  Co  Co91  1  0.37561427  0.62804992  0.37619178  1
  Co  Co92  1  0.75336784  0.00382551  0.24681737  1
  Co  Co93  1  0.74891520  0.00094610  0.49683974  1
  Co  Co94  1  0.00259474  -0.00324443  0.49903962  1
  Co  Co95  1  0.74763714  0.24863192  -0.00388251  1
  Co  Co96  1  0.37382218  0.36997702  0.62902700  1
  Co  Co97  1  0.74796442  0.74575127  0.25543992  1
  Co  Co98  1  0.74853014  0.25137799  0.25455619  1
  Co  Co99  1  0.24992488  0.50112388  0.74818188  1
  Co  Co100  1  0.62243714  0.12130971  0.87583887  1
  Co  Co101  1  0.12359729  0.37791820  0.87383724  1
  Co  Co102  1  0.24991413  0.74947790  0.50276174  1
  Co  Co103  1  0.49550547  0.00206826  0.74898664  1
  Co  Co104  1  0.37438543  0.62461613  0.87478151  1
  Co  Co105  1  0.50175671  0.24895518  0.49930657  1
  Co  Co106  1  0.75399906  0.00370286  0.75224237  1
  Co  Co107  1  0.49977220  0.75190696  -0.00015353  1
  Co  Co108  1  0.12632528  0.62411618  0.12173563  1
  Co  Co109  1  0.25552849  -0.00274901  0.00089502  1
  Co  Co110  1  0.24878229  0.74787334  0.24741411  1
  Co  Co111  1  0.00058869  0.25387284  0.50020751  1
  Co  Co112  1  0.75046058  0.75197176  -0.00503304  1
  Co  Co113  1  0.12559237  0.12631262  0.62110545  1
  Co  Co114  1  0.00353288  0.24906328  0.24700990  1
  Co  Co115  1  0.12341949  0.11815357  0.88199766  1
  Co  Co116  1  0.37431231  0.37403273  0.37228494  1
  Co  Co117  1  0.24946739  0.24590166  0.25129276  1
  Co  Co118  1  0.37119841  0.37411790  0.12676223  1
  Co  Co119  1  0.00088236  0.75094375  0.75085859  1
  Co  Co120  1  0.12531313  0.62534559  0.37794322  1
  Co  Co121  1  0.62841100  0.87260421  0.12775594  1
  Co  Co122  1  0.75238524  0.49792860  0.50027924  1
  Co  Co123  1  -0.00569946  -0.00041938  0.00645997  1
  Co  Co124  1  0.49576423  -0.00007437  0.24644142  1
  Co  Co125  1  0.62418267  0.12881599  0.12766885  1
  Co  Co126  1  0.62456421  0.12115087  0.62646857  1
  Co  Co127  1  0.00240959  0.24512108  0.75170719  1
