# generated using pymatgen
data_Fe45Co19
_symmetry_space_group_name_H-M   'P 1'
_cell_length_a   11.41415548
_cell_length_b   11.41544753
_cell_length_c   11.41641690
_cell_angle_alpha   89.99702097
_cell_angle_beta   90.00779791
_cell_angle_gamma   89.99834124
_symmetry_Int_Tables_number   1
_chemical_formula_structural   Fe45Co19
_chemical_formula_sum   'Fe90 Co38'
_cell_volume   1487.53276808
_cell_formula_units_Z   2
loop_
 _symmetry_equiv_pos_site_id
 _symmetry_equiv_pos_as_xyz
  1  'x, y, z'
loop_
 _atom_site_type_symbol
 _atom_site_label
 _atom_site_symmetry_multiplicity
 _atom_site_fract_x
 _atom_site_fract_y
 _atom_site_fract_z
 _atom_site_occupancy
  Fe  Fe0  1  0.75130667  -0.00327116  0.74775038  1
  Fe  Fe1  1  -0.00502685  0.24662330  0.49805632  1
  Fe  Fe2  1  0.87655721  0.37380815  0.87579259  1
  Fe  Fe3  1  0.62504985  0.37426698  0.87492759  1
  Fe  Fe4  1  0.24884484  0.75029736  0.74973751  1
  Fe  Fe5  1  0.12628439  0.62625460  0.87692050  1
  Fe  Fe6  1  0.50180307  -0.00251161  0.49811036  1
  Fe  Fe7  1  0.25049599  0.49990876  0.50040091  1
  Fe  Fe8  1  0.24769874  -0.00294584  0.24944208  1
  Fe  Fe9  1  0.37649091  0.12092712  0.12564713  1
  Fe  Fe10  1  0.87674368  0.37529484  0.12565856  1
  Fe  Fe11  1  0.37330082  0.37579065  0.37369293  1
  Fe  Fe12  1  0.50103542  0.50165594  0.49954861  1
  Fe  Fe13  1  0.11702796  0.87527467  0.37609774  1
  Fe  Fe14  1  0.62816360  0.62632759  0.37466570  1
  Fe  Fe15  1  0.49978177  0.49907283  -0.00005657  1
  Fe  Fe16  1  0.50012002  0.50078917  0.25107157  1
  Fe  Fe17  1  0.37489142  0.37562488  0.62603808  1
  Fe  Fe18  1  0.37537746  0.87620596  0.62492518  1
  Fe  Fe19  1  0.24713142  -0.00030062  0.50054228  1
  Fe  Fe20  1  0.12371665  0.87299623  0.87739928  1
  Fe  Fe21  1  0.12540240  0.37436587  0.87385716  1
  Fe  Fe22  1  0.50122995  0.50153245  0.74988129  1
  Fe  Fe23  1  0.62915707  0.62872797  0.62432563  1
  Fe  Fe24  1  0.87415587  0.62563734  0.12650338  1
  Fe  Fe25  1  0.75019374  0.24890521  -0.00021779  1
  Fe  Fe26  1  0.12268405  0.12547354  0.87435452  1
  Fe  Fe27  1  0.37397692  0.37458048  0.12740081  1
  Fe  Fe28  1  0.49920119  0.24753452  0.74983645  1
  Fe  Fe29  1  0.62836813  0.12336282  0.62319876  1
  Fe  Fe30  1  0.37320458  0.12216557  0.37619704  1
  Fe  Fe31  1  0.87672976  0.12739281  0.12574682  1
  Fe  Fe32  1  0.37182717  0.62598884  0.37531411  1
  Fe  Fe33  1  0.87695065  0.87355704  0.87585118  1
  Fe  Fe34  1  0.12158098  0.12429382  0.37289653  1
  Fe  Fe35  1  0.25099434  0.25017397  0.74855967  1
  Fe  Fe36  1  0.49681260  0.75279855  -0.00165679  1
  Fe  Fe37  1  -0.00305626  0.50718769  0.49817576  1
  Fe  Fe38  1  0.37274428  0.62571348  0.12549559  1
  Fe  Fe39  1  0.24816654  -0.00059975  0.74818364  1
  Fe  Fe40  1  0.49961607  0.24764727  0.25200932  1
  Fe  Fe41  1  0.62464086  0.12235003  0.12657396  1
  Fe  Fe42  1  0.25051581  0.24880972  0.49961133  1
  Fe  Fe43  1  0.12429770  0.12610105  0.12586690  1
  Fe  Fe44  1  0.12161215  0.87232714  0.62233637  1
  Fe  Fe45  1  0.49961335  0.24868504  0.49989705  1
  Fe  Fe46  1  -0.00021406  0.00048615  0.00140128  1
  Fe  Fe47  1  0.87693385  0.12617055  0.87311888  1
  Fe  Fe48  1  0.50065928  0.00160217  0.75037457  1
  Fe  Fe49  1  0.00047845  0.50092507  0.74848796  1
  Fe  Fe50  1  0.37405948  0.12357091  0.87540290  1
  Fe  Fe51  1  0.37378028  0.62586709  0.62380139  1
  Fe  Fe52  1  0.24997041  0.25148270  0.00051404  1
  Fe  Fe53  1  0.87794415  0.86957211  0.62138412  1
  Fe  Fe54  1  0.62115519  0.87672219  0.12592203  1
  Fe  Fe55  1  0.62472435  0.62711215  0.12495990  1
  Fe  Fe56  1  0.74940456  0.50127672  -0.00063829  1
  Fe  Fe57  1  0.00020404  -0.00158809  0.74795535  1
  Fe  Fe58  1  0.62579265  0.37407878  0.12568257  1
  Fe  Fe59  1  0.37165818  0.62208002  0.87537822  1
  Fe  Fe60  1  0.12472797  0.37502780  0.37413036  1
  Fe  Fe61  1  0.74983185  0.75059590  -0.00062220  1
  Fe  Fe62  1  0.74902936  0.50166601  0.75041859  1
  Fe  Fe63  1  0.24848972  0.75210889  0.49975999  1
  Fe  Fe64  1  0.87512556  0.62741980  0.87237880  1
  Fe  Fe65  1  0.12467653  0.62575474  0.62470112  1
  Fe  Fe66  1  0.75274466  0.75431836  0.25265639  1
  Fe  Fe67  1  0.75009635  0.00021321  0.00023334  1
  Fe  Fe68  1  0.12331205  0.12715529  0.62652069  1
  Fe  Fe69  1  0.74922207  0.49872392  0.25057315  1
  Fe  Fe70  1  0.50080538  0.74896947  0.75116213  1
  Fe  Fe71  1  0.50190889  0.75235101  0.49820956  1
  Fe  Fe72  1  0.62447981  0.87569536  0.87462393  1
  Fe  Fe73  1  0.62965057  0.12253226  0.37604028  1
  Fe  Fe74  1  0.62652543  0.37453200  0.62259781  1
  Fe  Fe75  1  0.25140279  -0.00507047  0.00119869  1
  Fe  Fe76  1  0.88006699  0.87269291  0.12509798  1
  Fe  Fe77  1  0.00117836  0.50386687  0.25269640  1
  Fe  Fe78  1  0.75343489  -0.00362751  0.25127996  1
  Fe  Fe79  1  0.12319050  0.37443439  0.62240971  1
  Fe  Fe80  1  0.12731136  0.62853043  0.12252849  1
  Fe  Fe81  1  0.62723260  0.37518816  0.37757818  1
  Fe  Fe82  1  0.75142889  0.25007151  0.74829928  1
  Fe  Fe83  1  0.75429387  0.25101176  0.25390617  1
  Fe  Fe84  1  0.00089412  0.50067216  0.00027505  1
  Fe  Fe85  1  0.12464127  0.37325780  0.12893687  1
  Fe  Fe86  1  0.49884859  0.75229940  0.25300899  1
  Fe  Fe87  1  0.24795440  0.75350039  0.25013845  1
  Fe  Fe88  1  0.50095150  0.24845928  -0.00157560  1
  Fe  Fe89  1  0.87437947  0.37658227  0.62185878  1
  Co  Co90  1  0.12987004  0.62511997  0.37549384  1
  Co  Co91  1  0.00080970  0.74609052  0.25201762  1
  Co  Co92  1  0.87202797  0.62903092  0.62828630  1
  Co  Co93  1  0.37501314  0.87670921  0.86958717  1
  Co  Co94  1  0.00008215  0.00023742  0.24508602  1
  Co  Co95  1  0.24921999  0.50087776  0.24933146  1
  Co  Co96  1  0.88346456  0.87715984  0.37737391  1
  Co  Co97  1  -0.00013682  0.00407525  0.50502236  1
  Co  Co98  1  0.74948691  0.75439270  0.49712240  1
  Co  Co99  1  -0.00213162  0.74800140  -0.00035596  1
  Co  Co100  1  0.74863695  0.75268698  0.75165140  1
  Co  Co101  1  0.37482254  0.12191972  0.62320244  1
  Co  Co102  1  0.24912748  0.49722973  0.00174737  1
  Co  Co103  1  0.75097603  -0.00594737  0.50100063  1
  Co  Co104  1  0.87526752  0.11766834  0.37490274  1
  Co  Co105  1  0.37218737  0.87576117  0.37654557  1
  Co  Co106  1  0.12144716  0.87159092  0.12296826  1
  Co  Co107  1  0.62823501  0.12409449  0.87345054  1
  Co  Co108  1  0.62570068  0.87637906  0.37307828  1
  Co  Co109  1  0.00244892  0.75043523  0.75044709  1
  Co  Co110  1  0.49971763  0.00061783  0.25505423  1
  Co  Co111  1  0.24758181  0.50015350  0.74758217  1
  Co  Co112  1  0.87565150  0.37937919  0.37705098  1
  Co  Co113  1  0.87332854  0.12409985  0.62661378  1
  Co  Co114  1  0.86921292  0.62632634  0.37298087  1
  Co  Co115  1  0.25430769  0.75474787  -0.00032405  1
  Co  Co116  1  0.62521560  0.62589000  0.87732202  1
  Co  Co117  1  0.75020394  0.50359422  0.50102133  1
  Co  Co118  1  0.62223055  0.87462984  0.62691840  1
  Co  Co119  1  -0.00118246  0.25165556  0.74804733  1
  Co  Co120  1  0.75396756  0.24817506  0.49829595  1
  Co  Co121  1  0.00120843  0.25030618  0.00092653  1
  Co  Co122  1  0.50074213  -0.00066160  -0.00278036  1
  Co  Co123  1  0.25146860  0.24720276  0.25081367  1
  Co  Co124  1  -0.00170119  0.74244289  0.49682268  1
  Co  Co125  1  0.37848535  0.87725682  0.12841757  1
  Co  Co126  1  0.37465995  0.37608698  0.87274490  1
  Co  Co127  1  -0.00345570  0.24948934  0.25319882  1
