# generated using pymatgen
data_Fe45Co19
_symmetry_space_group_name_H-M   'P 1'
_cell_length_a   11.41456432
_cell_length_b   11.41543118
_cell_length_c   11.41523990
_cell_angle_alpha   90.00403041
_cell_angle_beta   90.00937388
_cell_angle_gamma   89.98778165
_symmetry_Int_Tables_number   1
_chemical_formula_structural   Fe45Co19
_chemical_formula_sum   'Fe90 Co38'
_cell_volume   1487.43051204
_cell_formula_units_Z   2
loop_
 _symmetry_equiv_pos_site_id
 _symmetry_equiv_pos_as_xyz
  1  'x, y, z'
loop_
 _atom_site_type_symbol
 _atom_site_label
 _atom_site_symmetry_multiplicity
 _atom_site_fract_x
 _atom_site_fract_y
 _atom_site_fract_z
 _atom_site_occupancy
  Fe  Fe0  1  -0.00325169  0.74918720  0.75134552  1
  Fe  Fe1  1  0.74511754  0.00375549  -0.00112850  1
  Fe  Fe2  1  0.50225111  0.00005023  0.75281102  1
  Fe  Fe3  1  0.49956251  0.50231683  0.50235026  1
  Fe  Fe4  1  0.25225085  0.00021671  -0.00047616  1
  Fe  Fe5  1  0.62474869  0.12470619  0.37341889  1
  Fe  Fe6  1  0.00339260  0.24730462  0.49953145  1
  Fe  Fe7  1  0.25173814  0.75187200  0.50048875  1
  Fe  Fe8  1  0.62527484  0.87212528  0.62409507  1
  Fe  Fe9  1  0.12422569  0.37643750  0.12344254  1
  Fe  Fe10  1  0.12468135  0.87574560  0.62674581  1
  Fe  Fe11  1  0.74943700  0.75008683  0.49863265  1
  Fe  Fe12  1  0.62675995  0.37625616  0.62272465  1
  Fe  Fe13  1  0.49668363  0.24836053  0.50209968  1
  Fe  Fe14  1  0.37575741  0.37435817  0.87489016  1
  Fe  Fe15  1  0.37523753  0.12572324  0.12538302  1
  Fe  Fe16  1  0.62832997  0.37126819  0.87651277  1
  Fe  Fe17  1  0.00191388  0.00045577  0.25110646  1
  Fe  Fe18  1  0.37761616  0.87386939  0.12281663  1
  Fe  Fe19  1  0.12182876  0.37781654  0.37419107  1
  Fe  Fe20  1  0.49909079  0.00104555  0.50132205  1
  Fe  Fe21  1  0.75199293  0.74921280  -0.00210763  1
  Fe  Fe22  1  0.12175470  0.37622960  0.87760687  1
  Fe  Fe23  1  0.12681117  0.87552636  0.37433843  1
  Fe  Fe24  1  0.87496807  0.87503470  0.12487784  1
  Fe  Fe25  1  0.62384902  0.37324142  0.37617368  1
  Fe  Fe26  1  0.87544263  0.87663231  0.62417011  1
  Fe  Fe27  1  -0.00460722  0.50513037  0.00334355  1
  Fe  Fe28  1  0.50160544  0.50167047  0.00046985  1
  Fe  Fe29  1  0.62172781  0.87546754  0.12042962  1
  Fe  Fe30  1  0.49832087  0.25035210  0.25125095  1
  Fe  Fe31  1  0.13082515  0.12267125  0.62385919  1
  Fe  Fe32  1  0.87348904  0.37561284  0.87737791  1
  Fe  Fe33  1  0.87055092  0.62315044  0.62569043  1
  Fe  Fe34  1  0.37515452  0.62346232  0.87409177  1
  Fe  Fe35  1  0.12586833  0.12438647  0.87427853  1
  Fe  Fe36  1  0.37509877  0.87438156  0.37300703  1
  Fe  Fe37  1  0.50219915  0.50017079  0.74798419  1
  Fe  Fe38  1  0.24844655  0.49883576  0.75284936  1
  Fe  Fe39  1  0.50214683  0.24700148  -0.00040729  1
  Fe  Fe40  1  0.75057198  0.24924675  0.49959231  1
  Fe  Fe41  1  0.37461507  0.12757456  0.87042793  1
  Fe  Fe42  1  0.87469622  0.37585807  0.62192050  1
  Fe  Fe43  1  0.12418347  0.87386729  0.87556748  1
  Fe  Fe44  1  0.00311421  0.74686048  0.24867972  1
  Fe  Fe45  1  0.37452243  0.37669326  0.12435032  1
  Fe  Fe46  1  0.12562371  0.87310539  0.12350710  1
  Fe  Fe47  1  0.62647848  0.12692132  0.62923803  1
  Fe  Fe48  1  0.74964136  0.49977883  0.25238605  1
  Fe  Fe49  1  0.24688554  0.50463631  0.24765409  1
  Fe  Fe50  1  -0.00376533  0.24765656  0.00193626  1
  Fe  Fe51  1  0.87587937  0.87608803  0.37531844  1
  Fe  Fe52  1  0.50190223  0.49950720  0.24949835  1
  Fe  Fe53  1  0.12699657  0.62576502  0.62497727  1
  Fe  Fe54  1  0.74809397  -0.00094938  0.24956305  1
  Fe  Fe55  1  0.37886656  0.87360201  0.87762695  1
  Fe  Fe56  1  0.12267296  0.62559395  0.87762267  1
  Fe  Fe57  1  -0.00027333  -0.00083565  -0.00067311  1
  Fe  Fe58  1  0.62962783  0.62520221  0.87186671  1
  Fe  Fe59  1  0.24973619  0.49994766  0.50042757  1
  Fe  Fe60  1  0.87126682  0.12492783  0.87229317  1
  Fe  Fe61  1  0.24934487  0.25122713  -0.00165615  1
  Fe  Fe62  1  0.12399412  0.12475939  0.12521898  1
  Fe  Fe63  1  -0.00173667  0.50098615  0.74890789  1
  Fe  Fe64  1  0.87899151  0.37628589  0.37498844  1
  Fe  Fe65  1  0.25249557  0.74753548  0.00122343  1
  Fe  Fe66  1  0.62634418  0.37259496  0.12483692  1
  Fe  Fe67  1  0.74749187  0.75229333  0.25235536  1
  Fe  Fe68  1  0.87758106  0.12392279  0.37533928  1
  Fe  Fe69  1  0.24747826  0.24987450  0.25162939  1
  Fe  Fe70  1  0.75010455  0.00069746  0.50072377  1
  Fe  Fe71  1  0.00013120  0.74943934  0.50077220  1
  Fe  Fe72  1  0.37288504  0.37428259  0.62671081  1
  Fe  Fe73  1  0.87361691  0.87719535  0.87389421  1
  Fe  Fe74  1  0.37090207  0.12365582  0.37636834  1
  Fe  Fe75  1  0.37481541  0.37692162  0.37453804  1
  Fe  Fe76  1  0.12535411  0.37530744  0.62574466  1
  Fe  Fe77  1  -0.00074408  0.24885173  0.74884759  1
  Fe  Fe78  1  0.62656520  0.62541045  0.12535803  1
  Fe  Fe79  1  0.50086697  0.75082021  0.25005628  1
  Fe  Fe80  1  0.50014349  -0.00061152  0.24944093  1
  Fe  Fe81  1  -0.00063740  0.00143258  0.74854731  1
  Fe  Fe82  1  0.87393654  0.37585743  0.12593062  1
  Fe  Fe83  1  0.62280810  0.62584803  0.37801955  1
  Fe  Fe84  1  0.25034924  0.75057914  0.75140118  1
  Fe  Fe85  1  0.37603719  0.87513882  0.62732251  1
  Fe  Fe86  1  0.50182456  0.74730978  0.74859167  1
  Fe  Fe87  1  0.87740277  0.62358580  0.37468854  1
  Fe  Fe88  1  0.37525603  0.62602723  0.37499164  1
  Fe  Fe89  1  0.75256191  0.24802103  0.24866391  1
  Co  Co90  1  0.87345076  0.62308928  0.87293611  1
  Co  Co91  1  0.37218807  0.62449988  0.62618958  1
  Co  Co92  1  0.12486500  0.62674127  0.11881381  1
  Co  Co93  1  0.74942660  0.50151646  0.00111790  1
  Co  Co94  1  0.62830262  0.12982522  0.86915212  1
  Co  Co95  1  0.49828082  0.75017349  0.50127331  1
  Co  Co96  1  0.25197450  0.50030296  -0.00105642  1
  Co  Co97  1  0.74976878  0.49984813  0.49608791  1
  Co  Co98  1  0.75325663  0.25491736  0.74774615  1
  Co  Co99  1  0.12462383  0.62444193  0.37914806  1
  Co  Co100  1  0.74835747  -0.00322341  0.74832571  1
  Co  Co101  1  0.62381257  0.87653210  0.37791723  1
  Co  Co102  1  0.87440350  0.12467243  0.62449252  1
  Co  Co103  1  -0.00002575  0.50128228  0.50299413  1
  Co  Co104  1  0.24889720  0.74716559  0.24880456  1
  Co  Co105  1  0.37691520  0.62357494  0.12675941  1
  Co  Co106  1  0.25095888  -0.00343193  0.75289817  1
  Co  Co107  1  0.87665098  0.12033712  0.12601490  1
  Co  Co108  1  0.25195217  -0.00467895  0.50070434  1
  Co  Co109  1  -0.00473405  0.75058322  -0.00130671  1
  Co  Co110  1  0.12738649  0.12216656  0.37600552  1
  Co  Co111  1  0.50064037  0.74396015  -0.00113325  1
  Co  Co112  1  0.62356482  0.87274046  0.87714493  1
  Co  Co113  1  0.00097160  0.50374334  0.24657597  1
  Co  Co114  1  0.75064112  0.24583083  0.00358257  1
  Co  Co115  1  0.62848310  0.62561692  0.62420653  1
  Co  Co116  1  0.25009726  0.25245689  0.49865567  1
  Co  Co117  1  0.75130471  0.75282882  0.75039059  1
  Co  Co118  1  0.00146607  -0.00025392  0.50025211  1
  Co  Co119  1  0.74961427  0.49600084  0.75016399  1
  Co  Co120  1  0.37172643  0.12465854  0.62807502  1
  Co  Co121  1  0.25053786  -0.00036830  0.24699657  1
  Co  Co122  1  0.62293380  0.12571401  0.12876383  1
  Co  Co123  1  0.00059860  0.24887886  0.24903464  1
  Co  Co124  1  0.87164860  0.62847366  0.12826924  1
  Co  Co125  1  0.24740321  0.25280636  0.75167717  1
  Co  Co126  1  0.50042221  0.25297990  0.74737556  1
  Co  Co127  1  0.50144138  0.00617047  -0.00387380  1
