# generated using pymatgen
data_Fe45Co19
_symmetry_space_group_name_H-M   'P 1'
_cell_length_a   11.41452898
_cell_length_b   11.41511162
_cell_length_c   11.41559184
_cell_angle_alpha   89.98952924
_cell_angle_beta   90.00178116
_cell_angle_gamma   90.00465254
_symmetry_Int_Tables_number   1
_chemical_formula_structural   Fe45Co19
_chemical_formula_sum   'Fe90 Co38'
_cell_volume   1487.43015297
_cell_formula_units_Z   2
loop_
 _symmetry_equiv_pos_site_id
 _symmetry_equiv_pos_as_xyz
  1  'x, y, z'
loop_
 _atom_site_type_symbol
 _atom_site_label
 _atom_site_symmetry_multiplicity
 _atom_site_fract_x
 _atom_site_fract_y
 _atom_site_fract_z
 _atom_site_occupancy
  Fe  Fe0  1  0.12396275  0.12704100  0.62308530  1
  Fe  Fe1  1  0.37701726  0.37505472  0.87250732  1
  Fe  Fe2  1  0.50021174  0.00055340  0.25099645  1
  Fe  Fe3  1  0.74922602  -0.00316677  0.00186204  1
  Fe  Fe4  1  0.50085123  -0.00126297  -0.00064524  1
  Fe  Fe5  1  0.62436918  0.37285000  0.62693694  1
  Fe  Fe6  1  0.74919977  0.75161824  0.24830001  1
  Fe  Fe7  1  0.25037688  0.25109512  0.49669604  1
  Fe  Fe8  1  0.12230599  0.37300284  0.87791345  1
  Fe  Fe9  1  0.87565759  0.12548642  0.37417221  1
  Fe  Fe10  1  0.24908506  0.75123975  0.75053986  1
  Fe  Fe11  1  0.62585482  0.37741365  0.37378143  1
  Fe  Fe12  1  0.12377081  0.37535706  0.37530383  1
  Fe  Fe13  1  0.87560390  0.12399677  0.87398035  1
  Fe  Fe14  1  0.37581795  0.37379891  0.62575683  1
  Fe  Fe15  1  0.74756086  0.24903353  0.25028024  1
  Fe  Fe16  1  0.62755998  0.62714093  0.62505779  1
  Fe  Fe17  1  0.74983870  -0.00280209  0.74634517  1
  Fe  Fe18  1  0.75327572  0.75153065  0.50152845  1
  Fe  Fe19  1  0.62556933  0.12314780  0.12608733  1
  Fe  Fe20  1  0.49934864  0.24824595  0.49858784  1
  Fe  Fe21  1  0.12075546  0.62750218  0.62511979  1
  Fe  Fe22  1  0.37407772  0.87363169  0.12650121  1
  Fe  Fe23  1  0.75670208  0.75235201  0.74986141  1
  Fe  Fe24  1  0.49940031  0.75052410  0.50024979  1
  Fe  Fe25  1  0.37741701  0.37224004  0.12912317  1
  Fe  Fe26  1  0.24935756  0.49957954  0.74990850  1
  Fe  Fe27  1  0.87495597  0.37324576  0.12599519  1
  Fe  Fe28  1  0.37391389  0.87665945  0.37578144  1
  Fe  Fe29  1  -0.00197759  0.50062343  0.49955600  1
  Fe  Fe30  1  0.50085019  0.75273572  -0.00110097  1
  Fe  Fe31  1  0.87672912  0.37337403  0.87527795  1
  Fe  Fe32  1  0.37336577  0.62745331  0.12343182  1
  Fe  Fe33  1  0.24966525  0.74991384  0.49974539  1
  Fe  Fe34  1  0.50234718  0.50070056  0.50243721  1
  Fe  Fe35  1  0.87657429  0.37365339  0.62632822  1
  Fe  Fe36  1  0.25118672  0.49841862  0.00025863  1
  Fe  Fe37  1  0.87110647  0.62265381  0.37582060  1
  Fe  Fe38  1  0.50130060  0.74864213  0.25061062  1
  Fe  Fe39  1  0.24946661  -0.00237452  0.00045429  1
  Fe  Fe40  1  0.12766855  0.62845739  0.12475616  1
  Fe  Fe41  1  0.75087188  0.50077577  0.74906124  1
  Fe  Fe42  1  0.62379981  0.37484777  0.87392020  1
  Fe  Fe43  1  0.62716388  0.62647492  0.87544600  1
  Fe  Fe44  1  0.37527814  0.87864133  0.87020021  1
  Fe  Fe45  1  0.87368239  0.37630896  0.37346972  1
  Fe  Fe46  1  0.12464620  0.62600138  0.37466064  1
  Fe  Fe47  1  -0.00191922  0.75128693  -0.00197782  1
  Fe  Fe48  1  0.11858526  0.87187396  0.62644122  1
  Fe  Fe49  1  0.50112269  0.50002991  0.00044000  1
  Fe  Fe50  1  0.50106130  0.75208790  0.74919743  1
  Fe  Fe51  1  0.12491531  0.62542685  0.87587562  1
  Fe  Fe52  1  0.75073184  0.25161878  0.50007206  1
  Fe  Fe53  1  0.12572272  0.87079854  0.12749363  1
  Fe  Fe54  1  0.00251962  0.24868526  0.25049014  1
  Fe  Fe55  1  0.25062175  -0.00138730  0.50335490  1
  Fe  Fe56  1  0.62621728  0.12137927  0.87273740  1
  Fe  Fe57  1  0.75168951  -0.00135181  0.50106574  1
  Fe  Fe58  1  0.74968843  0.24944124  -0.00077399  1
  Fe  Fe59  1  -0.00097723  0.00081471  0.49976981  1
  Fe  Fe60  1  0.00121814  0.00000351  0.24951713  1
  Fe  Fe61  1  0.75023873  0.75621936  0.00002040  1
  Fe  Fe62  1  0.25082770  0.25139703  0.00027310  1
  Fe  Fe63  1  0.37598860  0.62278255  0.37593324  1
  Fe  Fe64  1  0.50162450  0.24553732  0.74967136  1
  Fe  Fe65  1  0.12162741  0.87710616  0.87214713  1
  Fe  Fe66  1  0.87307341  0.62707567  0.12353822  1
  Fe  Fe67  1  0.37443949  0.62555831  0.62601293  1
  Fe  Fe68  1  0.62436528  0.87627601  0.37653313  1
  Fe  Fe69  1  0.74756493  0.49760354  0.00253645  1
  Fe  Fe70  1  0.50100285  0.24774657  -0.00029369  1
  Fe  Fe71  1  0.87461576  0.12722101  0.62560867  1
  Fe  Fe72  1  0.50488928  0.50259981  0.24823850  1
  Fe  Fe73  1  0.87620024  0.87554763  0.37308997  1
  Fe  Fe74  1  0.25073415  0.49980813  0.50072218  1
  Fe  Fe75  1  0.37248470  0.12134929  0.87164770  1
  Fe  Fe76  1  0.24984867  0.49877282  0.24956773  1
  Fe  Fe77  1  0.37517491  0.62460803  0.87394435  1
  Fe  Fe78  1  0.62607279  0.12225352  0.37727639  1
  Fe  Fe79  1  0.12288483  0.37432359  0.62395621  1
  Fe  Fe80  1  -0.00081695  0.50225379  0.24800845  1
  Fe  Fe81  1  0.12528040  0.87456073  0.37360443  1
  Fe  Fe82  1  0.87311140  0.12327083  0.12674339  1
  Fe  Fe83  1  -0.00005806  0.50046055  0.00215318  1
  Fe  Fe84  1  0.00048550  0.00129106  0.00154303  1
  Fe  Fe85  1  0.24730588  0.24911602  0.75093010  1
  Fe  Fe86  1  -0.00166172  0.50216366  0.75146870  1
  Fe  Fe87  1  0.12750929  0.12728513  0.12496244  1
  Fe  Fe88  1  0.37398452  0.12646467  0.12780040  1
  Fe  Fe89  1  0.37188958  0.12427138  0.37410111  1
  Co  Co90  1  -0.00183349  0.74946581  0.49560377  1
  Co  Co91  1  0.37342921  0.12620776  0.62576501  1
  Co  Co92  1  0.74952113  0.25016038  0.75109304  1
  Co  Co93  1  0.74918821  0.49766639  0.50362424  1
  Co  Co94  1  0.62369003  0.87683594  0.12702746  1
  Co  Co95  1  0.87701334  0.88015971  0.87531646  1
  Co  Co96  1  0.87629753  0.87622289  0.12594415  1
  Co  Co97  1  0.87701776  0.62474435  0.62198366  1
  Co  Co98  1  -0.00147772  0.24987469  0.49896508  1
  Co  Co99  1  0.88023130  0.87529002  0.62495532  1
  Co  Co100  1  0.25213099  0.74905501  0.25321521  1
  Co  Co101  1  0.37774796  0.37692885  0.37328048  1
  Co  Co102  1  0.00120383  0.24785580  0.75151915  1
  Co  Co103  1  0.12393194  0.37399415  0.12408694  1
  Co  Co104  1  0.74967265  -0.00115399  0.25168125  1
  Co  Co105  1  0.62583560  0.87415261  0.62284619  1
  Co  Co106  1  -0.00210350  0.24693477  0.00099123  1
  Co  Co107  1  0.62590241  0.87567296  0.87204721  1
  Co  Co108  1  -0.00227439  0.74842795  0.25129511  1
  Co  Co109  1  0.50324487  0.24691710  0.25248297  1
  Co  Co110  1  0.24908293  -0.00097376  0.24804673  1
  Co  Co111  1  0.62760400  0.12479414  0.62272601  1
  Co  Co112  1  -0.00626857  0.74710323  0.75450762  1
  Co  Co113  1  0.62401103  0.37151779  0.12492254  1
  Co  Co114  1  0.50215202  0.00106425  0.74475367  1
  Co  Co115  1  0.12654328  0.12486376  0.87771766  1
  Co  Co116  1  0.25069032  0.75258392  -0.00449147  1
  Co  Co117  1  0.62829268  0.62532863  0.37713999  1
  Co  Co118  1  0.00052617  0.00469839  0.74877323  1
  Co  Co119  1  0.24719405  0.25145884  0.25275065  1
  Co  Co120  1  0.24621615  -0.00006116  0.74633088  1
  Co  Co121  1  0.50123921  0.50196147  0.74894860  1
  Co  Co122  1  0.37537358  0.87425474  0.62629919  1
  Co  Co123  1  0.87202180  0.62328484  0.87981146  1
  Co  Co124  1  0.49809953  0.00124271  0.50257034  1
  Co  Co125  1  0.12591882  0.12295064  0.37648324  1
  Co  Co126  1  0.74797253  0.50099799  0.24627299  1
  Co  Co127  1  0.62630570  0.62847298  0.12132218  1
