# generated using pymatgen
data_Fe45Co19
_symmetry_space_group_name_H-M   'P 1'
_cell_length_a   11.41485406
_cell_length_b   11.41423462
_cell_length_c   11.41567247
_cell_angle_alpha   89.99479941
_cell_angle_beta   90.00648248
_cell_angle_gamma   89.99195023
_symmetry_Int_Tables_number   1
_chemical_formula_structural   Fe45Co19
_chemical_formula_sum   'Fe90 Co38'
_cell_volume   1487.36873990
_cell_formula_units_Z   2
loop_
 _symmetry_equiv_pos_site_id
 _symmetry_equiv_pos_as_xyz
  1  'x, y, z'
loop_
 _atom_site_type_symbol
 _atom_site_label
 _atom_site_symmetry_multiplicity
 _atom_site_fract_x
 _atom_site_fract_y
 _atom_site_fract_z
 _atom_site_occupancy
  Fe  Fe0  1  0.75046740  0.49908124  0.50042432  1
  Fe  Fe1  1  0.87524932  0.62584327  0.12391531  1
  Fe  Fe2  1  0.37430036  0.87432828  0.12382168  1
  Fe  Fe3  1  -0.00018757  0.50026101  0.75015860  1
  Fe  Fe4  1  -0.00034972  0.00194441  0.25237723  1
  Fe  Fe5  1  0.12528311  0.87526679  0.87408719  1
  Fe  Fe6  1  0.75045847  0.75209512  0.74840971  1
  Fe  Fe7  1  0.00152163  0.00592094  -0.00154406  1
  Fe  Fe8  1  -0.00143487  0.00201181  0.75242737  1
  Fe  Fe9  1  0.37387331  0.87155110  0.37667562  1
  Fe  Fe10  1  0.62264415  0.37798123  0.37351960  1
  Fe  Fe11  1  0.50016425  0.74923379  0.24814053  1
  Fe  Fe12  1  0.88027686  0.87457714  0.62263715  1
  Fe  Fe13  1  0.87627784  0.62495416  0.62469887  1
  Fe  Fe14  1  0.25284993  -0.00149032  0.74718551  1
  Fe  Fe15  1  0.88122823  0.36980710  0.12575057  1
  Fe  Fe16  1  0.25106342  0.25056731  0.74620267  1
  Fe  Fe17  1  0.75005213  -0.00058912  0.50154313  1
  Fe  Fe18  1  0.49893067  0.00197654  -0.00082756  1
  Fe  Fe19  1  0.87556446  0.12566331  0.62479785  1
  Fe  Fe20  1  0.49928919  0.74924950  0.75097224  1
  Fe  Fe21  1  0.37648634  0.37590666  0.62233876  1
  Fe  Fe22  1  0.12676283  0.62558748  0.87317087  1
  Fe  Fe23  1  0.50105218  0.74940811  0.00004218  1
  Fe  Fe24  1  0.00231133  0.74944077  -0.00101553  1
  Fe  Fe25  1  0.75244396  -0.00052633  0.24939437  1
  Fe  Fe26  1  0.87664214  0.37466206  0.62424544  1
  Fe  Fe27  1  0.74838120  0.75025770  0.00042059  1
  Fe  Fe28  1  0.24730315  0.00035469  0.00342022  1
  Fe  Fe29  1  0.87348947  0.12505026  0.37595789  1
  Fe  Fe30  1  0.00455956  0.74461322  0.49993490  1
  Fe  Fe31  1  0.87471219  0.62522191  0.87508329  1
  Fe  Fe32  1  0.87813763  0.87547424  0.12483435  1
  Fe  Fe33  1  0.74968425  0.49694484  0.00147804  1
  Fe  Fe34  1  0.62347161  0.62095045  0.12567621  1
  Fe  Fe35  1  0.74694133  0.25019138  0.74575223  1
  Fe  Fe36  1  0.37289214  0.12814378  0.37593816  1
  Fe  Fe37  1  0.25319852  0.49814411  0.75235176  1
  Fe  Fe38  1  0.62484998  0.87589453  0.37368820  1
  Fe  Fe39  1  0.24388111  0.25074730  0.00357669  1
  Fe  Fe40  1  0.12679117  0.37338626  0.87409939  1
  Fe  Fe41  1  0.50418598  0.25155878  0.00127485  1
  Fe  Fe42  1  0.62581383  0.87690014  0.87363489  1
  Fe  Fe43  1  0.75197117  0.00251649  0.00224163  1
  Fe  Fe44  1  0.61914946  0.88050259  0.62678467  1
  Fe  Fe45  1  0.00203679  0.24969672  0.49846090  1
  Fe  Fe46  1  0.24844604  0.75053320  0.24963662  1
  Fe  Fe47  1  0.00292729  0.49781668  0.00081915  1
  Fe  Fe48  1  0.87817249  0.37779102  0.37552577  1
  Fe  Fe49  1  -0.00086388  0.74763345  0.25229498  1
  Fe  Fe50  1  0.25260572  0.50087954  0.49644626  1
  Fe  Fe51  1  0.37456203  0.62369233  0.12189608  1
  Fe  Fe52  1  0.37327701  0.62459351  0.87747589  1
  Fe  Fe53  1  0.25334533  0.49915232  0.25105545  1
  Fe  Fe54  1  0.62438299  0.87716224  0.12530066  1
  Fe  Fe55  1  0.50233304  0.25064061  0.50027853  1
  Fe  Fe56  1  0.37339103  0.87337705  0.87591298  1
  Fe  Fe57  1  0.37175464  0.12885692  0.87742829  1
  Fe  Fe58  1  0.12434552  0.87527763  0.37710484  1
  Fe  Fe59  1  0.50057313  0.74964028  0.50001545  1
  Fe  Fe60  1  0.00147871  0.24871789  0.75158152  1
  Fe  Fe61  1  0.62535231  0.62168925  0.87393907  1
  Fe  Fe62  1  0.49699719  0.00158345  0.25045868  1
  Fe  Fe63  1  0.37409115  0.62546250  0.62324559  1
  Fe  Fe64  1  0.87521212  0.87440361  0.87518918  1
  Fe  Fe65  1  0.12420068  0.37791236  0.37437491  1
  Fe  Fe66  1  0.12661112  0.62457856  0.12572880  1
  Fe  Fe67  1  0.24923816  0.25125367  0.24853599  1
  Fe  Fe68  1  0.62803272  0.12391930  0.87240466  1
  Fe  Fe69  1  0.74904497  0.24917957  0.00301938  1
  Fe  Fe70  1  0.75067383  0.49861857  0.74900427  1
  Fe  Fe71  1  0.75344419  0.49991020  0.24915174  1
  Fe  Fe72  1  0.24996014  0.00018490  0.24749010  1
  Fe  Fe73  1  0.12482543  0.12348409  0.62481500  1
  Fe  Fe74  1  0.12512747  0.37766553  0.62366642  1
  Fe  Fe75  1  0.49946099  0.25044141  0.24783904  1
  Fe  Fe76  1  0.75186342  0.75029253  0.25086956  1
  Fe  Fe77  1  0.62369395  0.62282707  0.37376282  1
  Fe  Fe78  1  0.75020179  0.24980670  0.24950406  1
  Fe  Fe79  1  0.37841303  0.12385958  0.62296830  1
  Fe  Fe80  1  0.74743186  0.25071700  0.50153831  1
  Fe  Fe81  1  0.62497297  0.12423223  0.37410753  1
  Fe  Fe82  1  0.74871984  0.75116631  0.50044930  1
  Fe  Fe83  1  0.62182669  0.62037046  0.62591847  1
  Fe  Fe84  1  0.87464037  0.37234899  0.87520120  1
  Fe  Fe85  1  0.37513162  0.37596208  0.12185128  1
  Fe  Fe86  1  0.12889696  0.12525466  0.37661193  1
  Fe  Fe87  1  0.24823270  0.75308676  0.74559564  1
  Fe  Fe88  1  0.25172324  -0.00276996  0.50255384  1
  Fe  Fe89  1  0.50104991  0.25240573  0.74965269  1
  Co  Co90  1  0.87885341  0.12795436  0.12673035  1
  Co  Co91  1  0.00323832  0.24707151  -0.00500825  1
  Co  Co92  1  0.12655085  0.62196083  0.37338379  1
  Co  Co93  1  0.62192628  0.12074846  0.62526189  1
  Co  Co94  1  0.62798500  0.37505606  0.87297626  1
  Co  Co95  1  0.24683592  0.49844716  -0.00034698  1
  Co  Co96  1  0.37441277  0.63109845  0.37564557  1
  Co  Co97  1  0.37248856  0.37057014  0.87864542  1
  Co  Co98  1  0.24790562  0.25076773  0.50231844  1
  Co  Co99  1  0.50077723  0.49741062  -0.00267074  1
  Co  Co100  1  -0.00163930  0.50307252  0.24827646  1
  Co  Co101  1  0.12199062  0.12673641  0.12808273  1
  Co  Co102  1  0.11997563  0.87761547  0.62454050  1
  Co  Co103  1  0.87365331  0.62427417  0.37741238  1
  Co  Co104  1  0.00035666  0.00448930  0.49756720  1
  Co  Co105  1  0.62244855  0.37958179  0.62420851  1
  Co  Co106  1  0.24630313  0.75178284  0.50293025  1
  Co  Co107  1  0.49402704  0.49956657  0.25142784  1
  Co  Co108  1  0.62478227  0.12316562  0.12714787  1
  Co  Co109  1  0.49556095  0.00270610  0.75579139  1
  Co  Co110  1  0.24788726  0.75125076  0.00096752  1
  Co  Co111  1  0.37409544  0.12663442  0.12336016  1
  Co  Co112  1  0.37997461  0.87463697  0.62402873  1
  Co  Co113  1  0.12179407  0.87512591  0.12587865  1
  Co  Co114  1  0.49595914  0.50031233  0.49621408  1
  Co  Co115  1  0.87678480  0.87318794  0.37772368  1
  Co  Co116  1  0.62499538  0.37736238  0.12861685  1
  Co  Co117  1  0.12151261  0.37405317  0.12863724  1
  Co  Co118  1  0.49765460  0.00061731  0.49394881  1
  Co  Co119  1  0.12811005  0.62088948  0.62697418  1
  Co  Co120  1  0.00158072  0.24797503  0.25704343  1
  Co  Co121  1  0.00049357  0.50157495  0.50131395  1
  Co  Co122  1  0.37504345  0.37009831  0.37596818  1
  Co  Co123  1  0.13131956  0.12515756  0.87184953  1
  Co  Co124  1  0.49560753  0.49719180  0.75312229  1
  Co  Co125  1  0.75327061  -0.00257074  0.74613162  1
  Co  Co126  1  0.00049084  0.74819197  0.75016644  1
  Co  Co127  1  0.87051919  0.12735972  0.87335506  1
