# generated using pymatgen
data_Fe45Co19
_symmetry_space_group_name_H-M   'P 1'
_cell_length_a   11.41405546
_cell_length_b   11.41535408
_cell_length_c   11.41410341
_cell_angle_alpha   90.00121720
_cell_angle_beta   89.99638988
_cell_angle_gamma   90.00196381
_symmetry_Int_Tables_number   1
_chemical_formula_structural   Fe45Co19
_chemical_formula_sum   'Fe90 Co38'
_cell_volume   1487.20613097
_cell_formula_units_Z   2
loop_
 _symmetry_equiv_pos_site_id
 _symmetry_equiv_pos_as_xyz
  1  'x, y, z'
loop_
 _atom_site_type_symbol
 _atom_site_label
 _atom_site_symmetry_multiplicity
 _atom_site_fract_x
 _atom_site_fract_y
 _atom_site_fract_z
 _atom_site_occupancy
  Fe  Fe0  1  0.87381927  0.12316442  0.12246219  1
  Fe  Fe1  1  0.49826082  -0.00046532  -0.00255305  1
  Fe  Fe2  1  0.62095677  0.87355070  0.12332579  1
  Fe  Fe3  1  0.49572400  0.74880035  -0.00941003  1
  Fe  Fe4  1  0.87573958  0.87522040  0.12513243  1
  Fe  Fe5  1  0.74778861  0.75475466  0.74936832  1
  Fe  Fe6  1  0.11950478  0.37326786  0.62722012  1
  Fe  Fe7  1  0.37608628  0.87390580  0.63041920  1
  Fe  Fe8  1  0.74828363  0.25006021  0.50270697  1
  Fe  Fe9  1  0.37881399  0.37433509  0.62642799  1
  Fe  Fe10  1  0.37545080  0.62471711  0.62903979  1
  Fe  Fe11  1  0.87266554  0.62501540  0.87268015  1
  Fe  Fe12  1  0.25156104  -0.00079155  0.24752627  1
  Fe  Fe13  1  0.62480412  0.62413455  0.37619717  1
  Fe  Fe14  1  0.12779293  0.12739488  0.12404717  1
  Fe  Fe15  1  0.62246681  0.62726809  0.12232928  1
  Fe  Fe16  1  -0.00201409  0.74563229  0.50030901  1
  Fe  Fe17  1  0.50367304  0.50141417  0.75334518  1
  Fe  Fe18  1  0.87409827  0.37318167  0.12206326  1
  Fe  Fe19  1  0.37498233  0.12693324  0.12322755  1
  Fe  Fe20  1  0.49735676  0.49684865  0.24947304  1
  Fe  Fe21  1  0.25293236  0.25337741  0.25122279  1
  Fe  Fe22  1  0.00189754  0.00087246  0.25020431  1
  Fe  Fe23  1  0.87508915  0.87810830  0.87413544  1
  Fe  Fe24  1  0.25109945  0.49888376  0.00263183  1
  Fe  Fe25  1  0.87237845  0.12440567  0.37449427  1
  Fe  Fe26  1  0.12662791  0.37296309  0.12389877  1
  Fe  Fe27  1  0.87612535  0.62770446  0.12530588  1
  Fe  Fe28  1  0.12657788  0.87324978  0.12327172  1
  Fe  Fe29  1  0.24780119  0.49847280  0.74730499  1
  Fe  Fe30  1  0.62168245  0.37341733  0.12015580  1
  Fe  Fe31  1  0.12542620  0.62603169  0.12584987  1
  Fe  Fe32  1  0.12570994  0.37703313  0.37474000  1
  Fe  Fe33  1  0.50051510  0.75034114  0.50226499  1
  Fe  Fe34  1  0.50093925  0.00055738  0.50433800  1
  Fe  Fe35  1  -0.00094454  0.24844100  -0.00365303  1
  Fe  Fe36  1  0.50097203  0.24999353  0.50068247  1
  Fe  Fe37  1  0.87430224  0.87536479  0.37560394  1
  Fe  Fe38  1  0.75175397  0.25166944  0.75348830  1
  Fe  Fe39  1  0.62498171  0.37582898  0.37706411  1
  Fe  Fe40  1  0.50002499  0.24758469  -0.00634351  1
  Fe  Fe41  1  0.62671635  0.62777943  0.62690936  1
  Fe  Fe42  1  0.74938008  0.24610119  -0.00445404  1
  Fe  Fe43  1  0.25165310  0.25000902  0.74963582  1
  Fe  Fe44  1  0.74872269  0.00104994  0.50540647  1
  Fe  Fe45  1  0.00192757  -0.00002099  -0.00026628  1
  Fe  Fe46  1  0.13237224  0.87549594  0.87445252  1
  Fe  Fe47  1  0.87847197  0.12839432  0.62817614  1
  Fe  Fe48  1  0.00135449  0.24821355  0.49676980  1
  Fe  Fe49  1  0.62483578  0.88006082  0.87089247  1
  Fe  Fe50  1  0.74610839  0.00114655  0.24769057  1
  Fe  Fe51  1  0.50048099  0.00181257  0.25038776  1
  Fe  Fe52  1  0.00072060  0.75041454  -0.00218026  1
  Fe  Fe53  1  0.49879828  0.75078696  0.25273959  1
  Fe  Fe54  1  0.87335069  0.37469433  0.37585166  1
  Fe  Fe55  1  0.50055786  0.50010069  0.50158810  1
  Fe  Fe56  1  0.25053189  0.74999688  0.50433073  1
  Fe  Fe57  1  0.87706662  0.87268910  0.62433642  1
  Fe  Fe58  1  0.12929044  0.62517330  0.87450275  1
  Fe  Fe59  1  0.37587006  0.37898744  0.87603440  1
  Fe  Fe60  1  0.37617407  0.62481044  0.12384567  1
  Fe  Fe61  1  0.00206660  0.00381659  0.50028869  1
  Fe  Fe62  1  -0.00087504  0.49924558  0.24886576  1
  Fe  Fe63  1  0.75008878  0.75304776  -0.00162966  1
  Fe  Fe64  1  0.00201603  0.00039641  0.74886682  1
  Fe  Fe65  1  0.37370186  0.12476952  0.37863683  1
  Fe  Fe66  1  -0.00407799  0.50292226  0.50356117  1
  Fe  Fe67  1  0.75066763  0.49493642  0.74912644  1
  Fe  Fe68  1  0.74920687  0.50009242  0.24810577  1
  Fe  Fe69  1  0.50045463  0.24973624  0.25222645  1
  Fe  Fe70  1  0.12649116  0.62391474  0.37468210  1
  Fe  Fe71  1  0.25125624  0.49814217  0.50139039  1
  Fe  Fe72  1  0.24903695  0.25014129  0.50237061  1
  Fe  Fe73  1  0.37434024  0.87675211  0.37635702  1
  Fe  Fe74  1  -0.00088177  0.24898051  0.25092078  1
  Fe  Fe75  1  0.74948834  0.74991784  0.25175576  1
  Fe  Fe76  1  0.74690055  0.24820842  0.24955804  1
  Fe  Fe77  1  0.74894308  0.50066939  -0.00006510  1
  Fe  Fe78  1  0.24773591  0.00224321  0.50637973  1
  Fe  Fe79  1  0.25118163  0.75079068  0.24867026  1
  Fe  Fe80  1  0.75250850  0.50065868  0.50350365  1
  Fe  Fe81  1  0.62190775  0.12673291  0.63157503  1
  Fe  Fe82  1  0.00422879  0.74756128  0.74974245  1
  Fe  Fe83  1  0.62571783  0.87642902  0.37830481  1
  Fe  Fe84  1  -0.00020160  0.50126831  -0.00161013  1
  Fe  Fe85  1  0.37248985  0.12030522  0.87129333  1
  Fe  Fe86  1  0.12714964  0.12366128  0.87332677  1
  Fe  Fe87  1  0.12532040  0.87493051  0.37712510  1
  Fe  Fe88  1  0.12333582  0.37559092  0.87420951  1
  Fe  Fe89  1  0.37378795  0.62434261  0.37576026  1
  Co  Co90  1  0.62272816  0.37354890  0.62658926  1
  Co  Co91  1  0.87574456  0.37794302  0.87694264  1
  Co  Co92  1  0.37783283  0.37250036  0.11986690  1
  Co  Co93  1  0.87143389  0.62788771  0.63137091  1
  Co  Co94  1  0.24764687  0.00207581  0.74308756  1
  Co  Co95  1  0.87369371  0.11888695  0.87528312  1
  Co  Co96  1  0.12209678  0.87367124  0.62331938  1
  Co  Co97  1  0.49961707  0.74856729  0.75459840  1
  Co  Co98  1  0.87946683  0.37145090  0.62571118  1
  Co  Co99  1  0.62431378  0.37523522  0.87730301  1
  Co  Co100  1  0.25379136  0.74975756  0.00117845  1
  Co  Co101  1  0.24877716  0.74951231  0.74661906  1
  Co  Co102  1  0.37631467  0.37395326  0.37883534  1
  Co  Co103  1  0.37893042  0.87415064  0.12381645  1
  Co  Co104  1  0.25342515  0.49793284  0.24863642  1
  Co  Co105  1  0.12901920  0.12427810  0.37333689  1
  Co  Co106  1  -0.00061822  0.50253244  0.74994700  1
  Co  Co107  1  0.49750266  -0.00098424  0.74873160  1
  Co  Co108  1  0.36910901  0.62242176  0.87114047  1
  Co  Co109  1  0.75252981  -0.00048781  0.74459555  1
  Co  Co110  1  0.12627362  0.62308681  0.62411521  1
  Co  Co111  1  0.25116714  0.00011496  0.00282551  1
  Co  Co112  1  0.12143203  0.13024167  0.62839121  1
  Co  Co113  1  0.62351583  0.87306123  0.62596414  1
  Co  Co114  1  0.62691540  0.12007912  0.87049128  1
  Co  Co115  1  0.62275478  0.12571941  0.12137315  1
  Co  Co116  1  -0.00279322  0.24965631  0.75750488  1
  Co  Co117  1  0.37702228  0.12759884  0.62508828  1
  Co  Co118  1  0.75064776  0.74858818  0.49897538  1
  Co  Co119  1  0.62453995  0.12377673  0.37816158  1
  Co  Co120  1  0.49825243  0.25080803  0.75474006  1
  Co  Co121  1  0.74797032  -0.00148642  0.00162865  1
  Co  Co122  1  0.00137197  0.75146765  0.25079635  1
  Co  Co123  1  0.63074891  0.62504388  0.87353478  1
  Co  Co124  1  0.25124970  0.25055388  -0.00494552  1
  Co  Co125  1  0.50005504  0.50423161  -0.00350812  1
  Co  Co126  1  0.87516085  0.62434400  0.37152860  1
  Co  Co127  1  0.36828085  0.87773608  0.87047801  1
