# generated using pymatgen
data_Fe45Co19
_symmetry_space_group_name_H-M   'P 1'
_cell_length_a   11.41428205
_cell_length_b   11.41564836
_cell_length_c   11.41456400
_cell_angle_alpha   90.00264627
_cell_angle_beta   90.00671270
_cell_angle_gamma   90.00041134
_symmetry_Int_Tables_number   1
_chemical_formula_structural   Fe45Co19
_chemical_formula_sum   'Fe90 Co38'
_cell_volume   1487.33400235
_cell_formula_units_Z   2
loop_
 _symmetry_equiv_pos_site_id
 _symmetry_equiv_pos_as_xyz
  1  'x, y, z'
loop_
 _atom_site_type_symbol
 _atom_site_label
 _atom_site_symmetry_multiplicity
 _atom_site_fract_x
 _atom_site_fract_y
 _atom_site_fract_z
 _atom_site_occupancy
  Fe  Fe0  1  0.87596870  0.87537582  0.37216412  1
  Fe  Fe1  1  0.50234382  0.75158630  0.25071590  1
  Fe  Fe2  1  0.87703556  0.62639211  0.12584544  1
  Fe  Fe3  1  0.62426140  0.62570636  0.12376758  1
  Fe  Fe4  1  0.87657640  0.37404358  0.37302692  1
  Fe  Fe5  1  0.49804105  0.00281884  0.00050668  1
  Fe  Fe6  1  0.74890159  0.74734822  0.75209683  1
  Fe  Fe7  1  0.87072470  0.62302659  0.62418128  1
  Fe  Fe8  1  0.37439906  0.12291682  0.37542864  1
  Fe  Fe9  1  0.00158622  0.25056692  0.49752312  1
  Fe  Fe10  1  0.12485704  0.62341814  0.37508706  1
  Fe  Fe11  1  0.62311921  0.37460130  0.87326581  1
  Fe  Fe12  1  -0.00023102  0.00160154  0.00293398  1
  Fe  Fe13  1  0.12674944  0.37370396  0.62391017  1
  Fe  Fe14  1  0.74944671  0.49976348  -0.00084466  1
  Fe  Fe15  1  0.87618861  0.12647379  0.37014991  1
  Fe  Fe16  1  0.74950160  0.75018872  -0.00062937  1
  Fe  Fe17  1  0.75118719  0.00093208  0.50057267  1
  Fe  Fe18  1  0.62630522  0.87420317  0.62397552  1
  Fe  Fe19  1  0.00142429  0.24794263  0.74966139  1
  Fe  Fe20  1  0.00307904  0.49899604  0.24831894  1
  Fe  Fe21  1  0.25316360  0.24863122  0.74924073  1
  Fe  Fe22  1  0.37529490  0.87796272  0.87624410  1
  Fe  Fe23  1  0.74976396  0.24974512  0.49790382  1
  Fe  Fe24  1  0.87277715  0.37452443  0.62676899  1
  Fe  Fe25  1  0.87545818  0.12581416  0.87530169  1
  Fe  Fe26  1  0.24831801  0.74981402  -0.00205677  1
  Fe  Fe27  1  0.75065251  0.75218528  0.49827023  1
  Fe  Fe28  1  0.00002126  0.50003004  0.50196900  1
  Fe  Fe29  1  0.12946647  0.37521356  0.12593330  1
  Fe  Fe30  1  0.49828454  0.74999812  0.00039229  1
  Fe  Fe31  1  0.37599563  0.37459861  0.87537242  1
  Fe  Fe32  1  0.37400729  0.87448665  0.62426645  1
  Fe  Fe33  1  0.37445594  0.87621084  0.12464704  1
  Fe  Fe34  1  0.62468118  0.12543094  0.12545070  1
  Fe  Fe35  1  0.74860846  0.00222097  0.75052948  1
  Fe  Fe36  1  0.75178635  0.00024854  0.00217995  1
  Fe  Fe37  1  0.37545623  0.62453574  0.87345368  1
  Fe  Fe38  1  0.00269277  0.74732634  -0.00219810  1
  Fe  Fe39  1  0.50099554  -0.00234962  0.24976642  1
  Fe  Fe40  1  0.00091872  0.49979043  0.74963152  1
  Fe  Fe41  1  0.00038992  0.75054202  0.50182785  1
  Fe  Fe42  1  0.87647349  0.62138369  0.87608049  1
  Fe  Fe43  1  0.24860383  0.00038481  0.24981790  1
  Fe  Fe44  1  0.12644175  0.12627104  0.12773273  1
  Fe  Fe45  1  0.74799063  0.24957555  -0.00136615  1
  Fe  Fe46  1  0.37432063  0.37546929  0.12785674  1
  Fe  Fe47  1  0.37498260  0.37808728  0.37517138  1
  Fe  Fe48  1  0.62699555  0.37417404  0.62452414  1
  Fe  Fe49  1  0.00018317  0.25099796  0.00177704  1
  Fe  Fe50  1  0.87673914  0.87636628  0.62826641  1
  Fe  Fe51  1  0.74735616  0.50046334  0.25186764  1
  Fe  Fe52  1  0.50061228  0.74807300  0.74734508  1
  Fe  Fe53  1  0.87688955  0.87704163  0.87382650  1
  Fe  Fe54  1  0.62273998  0.62492390  0.37958901  1
  Fe  Fe55  1  0.24912793  0.50293086  0.00027376  1
  Fe  Fe56  1  0.12351883  0.87709892  0.37486830  1
  Fe  Fe57  1  0.62165340  0.37640443  0.37655779  1
  Fe  Fe58  1  0.62442101  0.37409754  0.12531211  1
  Fe  Fe59  1  0.49950310  -0.00199190  0.50022775  1
  Fe  Fe60  1  0.24895636  0.74758032  0.25035617  1
  Fe  Fe61  1  0.12237302  0.87522945  0.87037578  1
  Fe  Fe62  1  0.25082865  -0.00003482  0.74861626  1
  Fe  Fe63  1  0.25169688  0.49918347  0.74918339  1
  Fe  Fe64  1  0.87528807  0.12632076  0.62558011  1
  Fe  Fe65  1  0.62057026  0.12712408  0.62577904  1
  Fe  Fe66  1  0.25134679  0.50125643  0.50102675  1
  Fe  Fe67  1  0.12607664  0.37491661  0.87621449  1
  Fe  Fe68  1  0.62351775  0.87477271  0.87658848  1
  Fe  Fe69  1  0.61989564  0.12718368  0.87241348  1
  Fe  Fe70  1  0.37510322  0.87483010  0.37434858  1
  Fe  Fe71  1  0.37799310  0.62477338  0.37700663  1
  Fe  Fe72  1  0.12812043  0.62848601  0.62900149  1
  Fe  Fe73  1  0.74719067  0.75262969  0.24930057  1
  Fe  Fe74  1  0.75229710  -0.00298986  0.24513796  1
  Fe  Fe75  1  0.87314130  0.37199340  0.12716244  1
  Fe  Fe76  1  0.12290353  0.87276959  0.12669152  1
  Fe  Fe77  1  0.12719141  0.12504672  0.87587280  1
  Fe  Fe78  1  0.49968178  0.49932503  0.00155674  1
  Fe  Fe79  1  0.00028722  -0.00068904  0.49997673  1
  Fe  Fe80  1  0.12690781  0.12350423  0.62176044  1
  Fe  Fe81  1  0.49873065  0.24975892  0.24998469  1
  Fe  Fe82  1  0.50031849  0.50166448  0.74417513  1
  Fe  Fe83  1  0.62542802  0.12244126  0.37473468  1
  Fe  Fe84  1  0.24922701  0.75284822  0.50035017  1
  Fe  Fe85  1  0.87492307  0.37455459  0.87320858  1
  Fe  Fe86  1  0.37470534  0.62506875  0.12622324  1
  Fe  Fe87  1  0.25572909  0.24620889  0.00110635  1
  Fe  Fe88  1  0.25153855  0.24857897  0.49676252  1
  Fe  Fe89  1  0.87520908  0.62465640  0.37449527  1
  Co  Co90  1  0.12700180  0.37778838  0.37702383  1
  Co  Co91  1  0.87462467  0.13047528  0.12715554  1
  Co  Co92  1  0.12299506  0.87441201  0.62802386  1
  Co  Co93  1  0.62148177  0.62476559  0.87680901  1
  Co  Co94  1  0.37643088  0.12426115  0.62433877  1
  Co  Co95  1  0.74757865  0.50236242  0.75190706  1
  Co  Co96  1  0.25027441  0.50291925  0.25079921  1
  Co  Co97  1  0.25058924  0.24944198  0.25373815  1
  Co  Co98  1  0.00065649  0.00479195  0.74949125  1
  Co  Co99  1  0.75009138  0.24782360  0.75041297  1
  Co  Co100  1  0.62849529  0.62540672  0.61950655  1
  Co  Co101  1  0.12588109  0.62298629  0.87215147  1
  Co  Co102  1  0.49960792  0.75279588  0.50085632  1
  Co  Co103  1  0.37214160  0.62807371  0.62400880  1
  Co  Co104  1  0.12477647  0.12202306  0.37542925  1
  Co  Co105  1  0.37628535  0.12326925  0.87290492  1
  Co  Co106  1  0.49708378  0.24951263  0.00153124  1
  Co  Co107  1  -0.00373531  0.74621758  0.74929149  1
  Co  Co108  1  -0.00124736  0.00060012  0.24743832  1
  Co  Co109  1  0.25078290  -0.00276240  0.50097590  1
  Co  Co110  1  0.49946708  -0.00323495  0.74852532  1
  Co  Co111  1  0.49533429  0.25379488  0.74859513  1
  Co  Co112  1  0.00208213  0.74838963  0.25315454  1
  Co  Co113  1  0.49918072  0.25040230  0.49826759  1
  Co  Co114  1  0.12462297  0.62488496  0.12469857  1
  Co  Co115  1  0.49831565  0.49985109  0.50564852  1
  Co  Co116  1  0.62302093  0.87546945  0.12157949  1
  Co  Co117  1  0.87854586  0.87005549  0.12371943  1
  Co  Co118  1  0.25298768  0.75342575  0.75303917  1
  Co  Co119  1  0.50074522  0.50093582  0.24924911  1
  Co  Co120  1  0.74563117  0.25105169  0.25218155  1
  Co  Co121  1  0.75093373  0.49633147  0.49664488  1
  Co  Co122  1  0.00558061  0.25244522  0.25093712  1
  Co  Co123  1  0.00059227  0.49745984  0.00195241  1
  Co  Co124  1  0.24757761  -0.00095563  0.00072321  1
  Co  Co125  1  0.37455679  0.12280401  0.12735580  1
  Co  Co126  1  0.62662414  0.87713258  0.37657658  1
  Co  Co127  1  0.37202059  0.37328129  0.62208594  1
