# generated using pymatgen
data_Fe45Co19
_symmetry_space_group_name_H-M   'P 1'
_cell_length_a   11.41585020
_cell_length_b   11.41521295
_cell_length_c   11.41402308
_cell_angle_alpha   90.00192306
_cell_angle_beta   90.00226768
_cell_angle_gamma   89.99583845
_symmetry_Int_Tables_number   1
_chemical_formula_structural   Fe45Co19
_chemical_formula_sum   'Fe90 Co38'
_cell_volume   1487.41111840
_cell_formula_units_Z   2
loop_
 _symmetry_equiv_pos_site_id
 _symmetry_equiv_pos_as_xyz
  1  'x, y, z'
loop_
 _atom_site_type_symbol
 _atom_site_label
 _atom_site_symmetry_multiplicity
 _atom_site_fract_x
 _atom_site_fract_y
 _atom_site_fract_z
 _atom_site_occupancy
  Fe  Fe0  1  0.62622033  0.37124144  0.12045459  1
  Fe  Fe1  1  0.62364281  0.12586974  0.62196430  1
  Fe  Fe2  1  0.12516685  0.87381033  0.87738090  1
  Fe  Fe3  1  0.62427853  0.62030231  0.62112624  1
  Fe  Fe4  1  0.12442981  0.87263521  0.37661705  1
  Fe  Fe5  1  0.87599809  0.12462387  0.37390168  1
  Fe  Fe6  1  0.75370800  0.74922327  0.50286603  1
  Fe  Fe7  1  0.37654169  0.62564332  0.37324175  1
  Fe  Fe8  1  0.37610297  0.87421123  0.87241637  1
  Fe  Fe9  1  0.75012135  0.00029575  0.49932824  1
  Fe  Fe10  1  0.00260025  0.25201739  0.25234589  1
  Fe  Fe11  1  0.49730122  0.49727027  -0.00025424  1
  Fe  Fe12  1  0.12692312  0.12626214  0.37500029  1
  Fe  Fe13  1  -0.00008775  0.75266875  0.74916541  1
  Fe  Fe14  1  0.75292457  0.74957833  -0.00048912  1
  Fe  Fe15  1  0.74841742  0.74874179  0.74646167  1
  Fe  Fe16  1  0.25331432  -0.00075120  0.50037508  1
  Fe  Fe17  1  0.74878787  0.00351676  -0.00053103  1
  Fe  Fe18  1  0.87519777  0.12250710  0.62785853  1
  Fe  Fe19  1  0.24826846  0.74985747  0.24851437  1
  Fe  Fe20  1  0.50017877  0.25172824  0.24889168  1
  Fe  Fe21  1  0.62160915  0.13105733  0.87788068  1
  Fe  Fe22  1  0.87387843  0.37418637  0.62207982  1
  Fe  Fe23  1  0.62438119  0.87545416  0.12387208  1
  Fe  Fe24  1  0.12374409  0.62561365  0.87839599  1
  Fe  Fe25  1  0.25025151  0.50110414  0.49885476  1
  Fe  Fe26  1  0.12434224  0.87432135  0.12319236  1
  Fe  Fe27  1  0.00078598  0.49823214  0.75059915  1
  Fe  Fe28  1  0.62803520  0.37564276  0.38114475  1
  Fe  Fe29  1  0.74947536  0.49804992  0.74841348  1
  Fe  Fe30  1  0.37206674  0.37509038  0.37286941  1
  Fe  Fe31  1  0.75006413  0.75038936  0.24960146  1
  Fe  Fe32  1  0.75383870  0.49863752  0.00138961  1
  Fe  Fe33  1  0.62553176  0.62244017  0.87622858  1
  Fe  Fe34  1  0.12690040  0.12427897  0.12556262  1
  Fe  Fe35  1  0.37602880  0.62121214  0.62643797  1
  Fe  Fe36  1  0.74571457  0.25155984  0.74869557  1
  Fe  Fe37  1  0.87576243  0.62445244  0.87294629  1
  Fe  Fe38  1  -0.00050454  0.49981994  0.49684903  1
  Fe  Fe39  1  0.50195770  0.74955211  0.74656467  1
  Fe  Fe40  1  0.12434085  0.37668528  0.12319794  1
  Fe  Fe41  1  0.24994448  0.74974977  0.74895696  1
  Fe  Fe42  1  0.49659360  0.25237656  0.50382771  1
  Fe  Fe43  1  0.00289754  0.24867432  0.74855590  1
  Fe  Fe44  1  0.49902491  0.00296361  0.00050243  1
  Fe  Fe45  1  0.37416871  0.12583170  0.37315156  1
  Fe  Fe46  1  0.12559531  0.12495049  0.62291359  1
  Fe  Fe47  1  0.74755921  0.00026392  0.25152062  1
  Fe  Fe48  1  0.37532348  0.62415669  0.87409347  1
  Fe  Fe49  1  0.87412475  0.37516336  0.37467005  1
  Fe  Fe50  1  0.62498863  0.87446514  0.87509525  1
  Fe  Fe51  1  -0.00042765  0.00094236  -0.00172362  1
  Fe  Fe52  1  0.37385938  0.12462421  0.12937309  1
  Fe  Fe53  1  0.25181791  0.00035513  -0.00110724  1
  Fe  Fe54  1  0.12205577  0.62457542  0.12021036  1
  Fe  Fe55  1  0.50265001  0.00067489  0.74696166  1
  Fe  Fe56  1  -0.00460895  0.75266177  0.50161397  1
  Fe  Fe57  1  0.62410065  0.62574338  0.37712542  1
  Fe  Fe58  1  0.37495203  0.12940174  0.86903459  1
  Fe  Fe59  1  0.87553193  0.87602325  0.12626093  1
  Fe  Fe60  1  0.37570401  0.37214912  0.87039664  1
  Fe  Fe61  1  0.50364926  0.49891518  0.25121664  1
  Fe  Fe62  1  0.62295885  0.87228112  0.37834786  1
  Fe  Fe63  1  0.37834595  0.87290871  0.37587019  1
  Fe  Fe64  1  0.24681051  0.49987626  0.75128787  1
  Fe  Fe65  1  0.50116344  -0.00083489  0.25113551  1
  Fe  Fe66  1  0.74918112  0.25047717  0.25075513  1
  Fe  Fe67  1  0.87573219  0.12400469  0.87169671  1
  Fe  Fe68  1  0.12472361  0.37542178  0.62169591  1
  Fe  Fe69  1  0.12545565  0.37305339  0.87699791  1
  Fe  Fe70  1  0.00186774  -0.00144717  0.25156904  1
  Fe  Fe71  1  0.25212150  0.24965761  0.50245683  1
  Fe  Fe72  1  -0.00135714  -0.00125066  0.50107332  1
  Fe  Fe73  1  0.87312205  0.87867078  0.87034278  1
  Fe  Fe74  1  0.62498355  0.62499335  0.12353507  1
  Fe  Fe75  1  0.24390845  0.50086443  0.25257649  1
  Fe  Fe76  1  0.37383545  0.62252398  0.12551802  1
  Fe  Fe77  1  0.37525431  0.87515517  0.12581030  1
  Fe  Fe78  1  -0.00256029  0.25007520  0.00047057  1
  Fe  Fe79  1  0.87706099  0.62408413  0.36996798  1
  Fe  Fe80  1  0.25354270  0.74982004  0.50259402  1
  Fe  Fe81  1  0.87420559  0.12589324  0.12782350  1
  Fe  Fe82  1  0.62294791  0.12607836  0.37610236  1
  Fe  Fe83  1  0.25385733  0.25176081  0.00195637  1
  Fe  Fe84  1  0.50392050  0.49411458  0.74772253  1
  Fe  Fe85  1  0.24643379  0.00041843  0.74943651  1
  Fe  Fe86  1  0.87904562  0.62148996  0.12860023  1
  Fe  Fe87  1  0.12259148  0.62575553  0.62300986  1
  Fe  Fe88  1  0.87360444  0.37337033  0.87471942  1
  Fe  Fe89  1  0.49821598  0.74911647  0.00019088  1
  Co  Co90  1  -0.00435551  0.75109859  -0.00185107  1
  Co  Co91  1  0.74618632  0.49854135  0.24962945  1
  Co  Co92  1  0.62506586  0.12727860  0.12534579  1
  Co  Co93  1  0.49304447  0.25001210  0.00306173  1
  Co  Co94  1  0.75231706  0.24523229  0.49998526  1
  Co  Co95  1  0.24761587  0.25153074  0.24866424  1
  Co  Co96  1  0.24446027  0.25039739  0.74740520  1
  Co  Co97  1  0.24956410  -0.00322378  0.25242363  1
  Co  Co98  1  0.12536376  0.87361753  0.62301055  1
  Co  Co99  1  0.37117451  0.37622531  0.62777048  1
  Co  Co100  1  0.00146889  0.75112970  0.24951456  1
  Co  Co101  1  0.00651566  0.49762628  0.25444011  1
  Co  Co102  1  0.49819744  0.74782763  0.50441410  1
  Co  Co103  1  0.37423069  0.12524513  0.62934995  1
  Co  Co104  1  0.25177836  0.49830534  -0.00299742  1
  Co  Co105  1  0.37581100  0.87724508  0.62710008  1
  Co  Co106  1  0.74280315  0.00406518  0.75069226  1
  Co  Co107  1  0.75428409  0.24773016  -0.00039600  1
  Co  Co108  1  0.75573756  0.50548963  0.49895606  1
  Co  Co109  1  0.50583495  0.25506392  0.74376558  1
  Co  Co110  1  0.00695539  0.00148459  0.75065644  1
  Co  Co111  1  0.25262013  0.74971531  -0.00008617  1
  Co  Co112  1  0.37371426  0.37893582  0.13012614  1
  Co  Co113  1  0.50040912  0.74922032  0.24797048  1
  Co  Co114  1  0.87436209  0.87576783  0.37411587  1
  Co  Co115  1  0.12729273  0.37092078  0.37971112  1
  Co  Co116  1  -0.00144888  0.24803484  0.50011818  1
  Co  Co117  1  0.87617443  0.37560348  0.12901583  1
  Co  Co118  1  0.12337667  0.63035949  0.37913446  1
  Co  Co119  1  0.49580577  0.49780043  0.49828653  1
  Co  Co120  1  0.12679439  0.12787701  0.87888743  1
  Co  Co121  1  0.87911823  0.62345125  0.62729504  1
  Co  Co122  1  0.87281647  0.88022080  0.62956776  1
  Co  Co123  1  -0.00325058  0.49860314  -0.00253618  1
  Co  Co124  1  0.62535604  0.37388933  0.88093303  1
  Co  Co125  1  0.49811502  0.00218863  0.50076157  1
  Co  Co126  1  0.63018637  0.37803209  0.61658137  1
  Co  Co127  1  0.62578446  0.87542841  0.62185151  1
