# generated using pymatgen
data_Fe45Co19
_symmetry_space_group_name_H-M   'P 1'
_cell_length_a   11.41438100
_cell_length_b   11.41483340
_cell_length_c   11.41474702
_cell_angle_alpha   90.00300759
_cell_angle_beta   89.99761797
_cell_angle_gamma   90.00111504
_symmetry_Int_Tables_number   1
_chemical_formula_structural   Fe45Co19
_chemical_formula_sum   'Fe90 Co38'
_cell_volume   1487.26456898
_cell_formula_units_Z   2
loop_
 _symmetry_equiv_pos_site_id
 _symmetry_equiv_pos_as_xyz
  1  'x, y, z'
loop_
 _atom_site_type_symbol
 _atom_site_label
 _atom_site_symmetry_multiplicity
 _atom_site_fract_x
 _atom_site_fract_y
 _atom_site_fract_z
 _atom_site_occupancy
  Fe  Fe0  1  0.37522441  0.87426419  0.37622863  1
  Fe  Fe1  1  0.24969810  0.00031715  0.00018863  1
  Fe  Fe2  1  0.37461592  0.87307849  0.12368804  1
  Fe  Fe3  1  0.62547491  0.87511194  0.37328176  1
  Fe  Fe4  1  0.50356252  0.74970015  -0.00480611  1
  Fe  Fe5  1  0.24677003  0.24938694  0.25045086  1
  Fe  Fe6  1  0.87671629  0.12614830  0.12563427  1
  Fe  Fe7  1  0.25111833  0.75096802  0.74584972  1
  Fe  Fe8  1  0.50024365  0.74750670  0.24971725  1
  Fe  Fe9  1  0.24690254  0.25044749  0.49965669  1
  Fe  Fe10  1  -0.00096410  0.25239346  -0.00065251  1
  Fe  Fe11  1  0.37167432  0.12862226  0.87724265  1
  Fe  Fe12  1  0.62352018  0.37738514  0.12780704  1
  Fe  Fe13  1  0.37220075  0.37187672  0.87696903  1
  Fe  Fe14  1  -0.00004998  0.74982864  0.75016506  1
  Fe  Fe15  1  0.75207014  0.25338358  0.74796809  1
  Fe  Fe16  1  0.24649903  0.74812640  -0.00085082  1
  Fe  Fe17  1  0.74913203  0.75007790  0.50030423  1
  Fe  Fe18  1  0.87457349  0.62621692  0.37712176  1
  Fe  Fe19  1  0.62454525  0.62351078  0.62884427  1
  Fe  Fe20  1  0.62885647  0.12150218  0.87421458  1
  Fe  Fe21  1  0.87689086  0.12833345  0.62337748  1
  Fe  Fe22  1  0.37366732  0.62708809  0.87300234  1
  Fe  Fe23  1  0.49990963  0.25114055  0.25099659  1
  Fe  Fe24  1  0.75129633  0.25167817  0.24920834  1
  Fe  Fe25  1  0.37476147  0.12482964  0.62369782  1
  Fe  Fe26  1  0.62376148  0.12434166  0.12625954  1
  Fe  Fe27  1  -0.00130081  -0.00171652  -0.00210901  1
  Fe  Fe28  1  0.74937056  0.25158923  0.00168450  1
  Fe  Fe29  1  0.24963018  0.75033845  0.50365884  1
  Fe  Fe30  1  0.12320887  0.62611085  0.12559590  1
  Fe  Fe31  1  0.87526181  0.62430564  0.62339902  1
  Fe  Fe32  1  0.24675463  0.50104374  -0.00157046  1
  Fe  Fe33  1  0.12459420  0.87564615  0.37910718  1
  Fe  Fe34  1  0.00021268  0.50099229  0.25299131  1
  Fe  Fe35  1  0.75094022  -0.00102034  0.24922948  1
  Fe  Fe36  1  0.74885964  0.74959165  0.75307901  1
  Fe  Fe37  1  -0.00156808  0.00037686  0.74989108  1
  Fe  Fe38  1  0.37605518  0.37510026  0.62339112  1
  Fe  Fe39  1  0.74932275  0.49665081  0.50299965  1
  Fe  Fe40  1  0.87647945  0.87230244  0.12456654  1
  Fe  Fe41  1  0.00079173  0.74926584  0.25307388  1
  Fe  Fe42  1  0.37215502  0.62492192  0.37623773  1
  Fe  Fe43  1  0.12267375  0.12462750  0.12600753  1
  Fe  Fe44  1  0.37353789  0.12405577  0.37533480  1
  Fe  Fe45  1  0.12468454  0.12306397  0.62383289  1
  Fe  Fe46  1  0.87231011  0.12411091  0.87522300  1
  Fe  Fe47  1  0.37389361  0.37653423  0.37505814  1
  Fe  Fe48  1  0.25164843  -0.00170254  0.74846828  1
  Fe  Fe49  1  0.49803731  0.50064786  0.75069272  1
  Fe  Fe50  1  0.87697915  0.37348567  0.37643465  1
  Fe  Fe51  1  0.12497045  0.37313242  0.87346254  1
  Fe  Fe52  1  0.87705439  0.62359691  0.87716511  1
  Fe  Fe53  1  0.50053653  0.00038648  0.49889074  1
  Fe  Fe54  1  0.12399854  0.62314281  0.62343498  1
  Fe  Fe55  1  -0.00049173  -0.00062025  0.25216918  1
  Fe  Fe56  1  0.75070476  -0.00010164  0.50231142  1
  Fe  Fe57  1  0.62579704  0.12471523  0.37351806  1
  Fe  Fe58  1  0.49713339  -0.00202510  0.75239498  1
  Fe  Fe59  1  0.12528193  0.87337932  0.87339819  1
  Fe  Fe60  1  0.49979325  0.00007767  -0.00116807  1
  Fe  Fe61  1  -0.00274893  0.49864259  0.75125399  1
  Fe  Fe62  1  0.74726809  0.25335766  0.50167662  1
  Fe  Fe63  1  0.37622263  0.12719528  0.12353901  1
  Fe  Fe64  1  0.37428109  0.62601557  0.12470479  1
  Fe  Fe65  1  0.25060155  0.49879710  0.74875039  1
  Fe  Fe66  1  0.87444723  0.87412964  0.37679940  1
  Fe  Fe67  1  0.50016826  0.50059848  0.00002028  1
  Fe  Fe68  1  0.12444688  0.87398912  0.12463978  1
  Fe  Fe69  1  0.62399370  0.12517388  0.62647930  1
  Fe  Fe70  1  0.50271381  0.25168679  0.49877628  1
  Fe  Fe71  1  0.62717116  0.37750925  0.87253929  1
  Fe  Fe72  1  0.49909128  0.25010365  0.75208868  1
  Fe  Fe73  1  0.62549141  0.87418010  0.12630589  1
  Fe  Fe74  1  0.12659673  0.12723741  0.87421820  1
  Fe  Fe75  1  0.24918284  0.50169037  0.25144977  1
  Fe  Fe76  1  0.50128611  0.49963884  0.49940874  1
  Fe  Fe77  1  0.12099145  0.37530810  0.62363300  1
  Fe  Fe78  1  0.37538817  0.37413953  0.12342160  1
  Fe  Fe79  1  0.87664938  0.87346387  0.62497576  1
  Fe  Fe80  1  0.74940582  0.75064790  -0.00199372  1
  Fe  Fe81  1  0.87719148  0.62574096  0.12329344  1
  Fe  Fe82  1  0.12262984  0.37575459  0.12638599  1
  Fe  Fe83  1  0.62622573  0.62358231  0.37296525  1
  Fe  Fe84  1  0.62323308  0.87497016  0.62746418  1
  Fe  Fe85  1  0.25118598  -0.00123759  0.25005086  1
  Fe  Fe86  1  0.75088408  0.50131519  0.24946694  1
  Fe  Fe87  1  0.50063354  0.74784393  0.50207507  1
  Fe  Fe88  1  0.75068389  0.49987763  0.00085898  1
  Fe  Fe89  1  0.87630422  0.12632948  0.37581630  1
  Co  Co90  1  0.24642108  0.25063647  0.00280415  1
  Co  Co91  1  0.49749116  0.50250150  0.24990689  1
  Co  Co92  1  0.87690261  0.37693600  0.12554863  1
  Co  Co93  1  0.12394697  0.37650805  0.37473065  1
  Co  Co94  1  0.87424866  0.37540387  0.87593048  1
  Co  Co95  1  0.00430490  0.24835892  0.49768688  1
  Co  Co96  1  0.50122458  0.75103402  0.75294510  1
  Co  Co97  1  0.75482687  0.49967026  0.74798785  1
  Co  Co98  1  0.00113212  0.75070939  -0.00197347  1
  Co  Co99  1  0.37846235  0.87514602  0.62394330  1
  Co  Co100  1  0.62579752  0.62512519  0.12512146  1
  Co  Co101  1  0.37182223  0.87262417  0.87635295  1
  Co  Co102  1  0.75089086  0.74892316  0.25027631  1
  Co  Co103  1  0.50411705  0.25063935  -0.00215160  1
  Co  Co104  1  0.12738461  0.62669893  0.37762934  1
  Co  Co105  1  0.75181992  -0.00109898  0.00481277  1
  Co  Co106  1  0.37612833  0.62382784  0.62523024  1
  Co  Co107  1  0.12245826  0.87646194  0.62412810  1
  Co  Co108  1  0.00312895  0.49885018  -0.00200068  1
  Co  Co109  1  0.87419290  0.87626117  0.87400852  1
  Co  Co110  1  0.62291631  0.37622544  0.62862216  1
  Co  Co111  1  0.12506653  0.62551522  0.87126963  1
  Co  Co112  1  0.25001177  0.25088799  0.74570370  1
  Co  Co113  1  0.87922464  0.37359424  0.62226054  1
  Co  Co114  1  -0.00054943  0.74873642  0.50034701  1
  Co  Co115  1  0.62538272  0.37681016  0.37191018  1
  Co  Co116  1  0.25154740  -0.00118269  0.50086094  1
  Co  Co117  1  0.62567966  0.62117359  0.87304123  1
  Co  Co118  1  0.24894776  0.49896358  0.50090953  1
  Co  Co119  1  0.00123072  0.25024383  0.25070885  1
  Co  Co120  1  0.49829573  -0.00091081  0.24958839  1
  Co  Co121  1  0.62893870  0.88023889  0.87361640  1
  Co  Co122  1  0.12495416  0.12148011  0.37479734  1
  Co  Co123  1  -0.00307573  0.00052084  0.50086908  1
  Co  Co124  1  -0.00096355  0.24886875  0.75152311  1
  Co  Co125  1  -0.00022672  0.50195822  0.49784241  1
  Co  Co126  1  0.75344107  -0.00030326  0.74412552  1
  Co  Co127  1  0.24887310  0.75100886  0.25060191  1
