# generated using pymatgen
data_Fe45Co19
_symmetry_space_group_name_H-M   'P 1'
_cell_length_a   11.41517552
_cell_length_b   11.41517289
_cell_length_c   11.41463891
_cell_angle_alpha   90.00476415
_cell_angle_beta   89.99889094
_cell_angle_gamma   90.00733144
_symmetry_Int_Tables_number   1
_chemical_formula_structural   Fe45Co19
_chemical_formula_sum   'Fe90 Co38'
_cell_volume   1487.39822669
_cell_formula_units_Z   2
loop_
 _symmetry_equiv_pos_site_id
 _symmetry_equiv_pos_as_xyz
  1  'x, y, z'
loop_
 _atom_site_type_symbol
 _atom_site_label
 _atom_site_symmetry_multiplicity
 _atom_site_fract_x
 _atom_site_fract_y
 _atom_site_fract_z
 _atom_site_occupancy
  Fe  Fe0  1  0.37608930  0.12974537  0.62300186  1
  Fe  Fe1  1  0.12572779  0.87533775  0.87316845  1
  Fe  Fe2  1  0.37473427  0.87650371  0.37830818  1
  Fe  Fe3  1  0.00518256  0.49897812  0.50163986  1
  Fe  Fe4  1  0.62350681  0.62474256  0.62574732  1
  Fe  Fe5  1  0.00152099  0.24883877  0.25354835  1
  Fe  Fe6  1  0.62596013  0.87632743  0.37713727  1
  Fe  Fe7  1  0.87589185  0.62529660  0.62213296  1
  Fe  Fe8  1  0.37758877  0.87252498  0.12577448  1
  Fe  Fe9  1  0.37194791  0.62470575  0.37558003  1
  Fe  Fe10  1  0.00124942  0.49994647  -0.00089615  1
  Fe  Fe11  1  0.50098098  0.74859423  0.49990174  1
  Fe  Fe12  1  0.87593367  0.87355000  0.12452722  1
  Fe  Fe13  1  0.37777089  0.12686921  0.12344369  1
  Fe  Fe14  1  0.50210073  0.00204162  0.50222791  1
  Fe  Fe15  1  0.87165545  0.37642101  0.87567712  1
  Fe  Fe16  1  0.75356167  -0.00211867  0.75114225  1
  Fe  Fe17  1  0.12759554  0.37540298  0.87122611  1
  Fe  Fe18  1  0.62655610  0.62337656  0.37688618  1
  Fe  Fe19  1  0.12451613  0.12569415  0.12505634  1
  Fe  Fe20  1  0.00009337  0.00102874  0.25210673  1
  Fe  Fe21  1  0.62143299  0.37292480  0.12331675  1
  Fe  Fe22  1  0.87289993  0.62610035  0.87494824  1
  Fe  Fe23  1  0.00081841  0.49982767  0.74967498  1
  Fe  Fe24  1  0.00109742  0.74851192  0.25297609  1
  Fe  Fe25  1  0.37244277  0.37783940  0.87158910  1
  Fe  Fe26  1  0.50065362  0.24864295  0.25144464  1
  Fe  Fe27  1  0.12119799  0.13072643  0.62363699  1
  Fe  Fe28  1  0.49784398  0.49877540  -0.00125215  1
  Fe  Fe29  1  0.25175712  0.74913950  0.74922762  1
  Fe  Fe30  1  0.74804365  0.50044718  0.74836134  1
  Fe  Fe31  1  0.24849892  0.74823667  0.50178848  1
  Fe  Fe32  1  0.37433280  0.62311438  0.87297365  1
  Fe  Fe33  1  -0.00086883  0.25089838  -0.00277505  1
  Fe  Fe34  1  0.74848366  0.50327768  0.00234286  1
  Fe  Fe35  1  0.62670254  0.12359129  0.37589462  1
  Fe  Fe36  1  0.74957422  -0.00255519  -0.00212586  1
  Fe  Fe37  1  0.12329562  0.87544105  0.12405021  1
  Fe  Fe38  1  -0.00067472  0.74793853  -0.00005410  1
  Fe  Fe39  1  0.37292310  0.12409179  0.37919438  1
  Fe  Fe40  1  0.62010168  0.37739070  0.62265257  1
  Fe  Fe41  1  0.37748813  0.62172339  0.62693848  1
  Fe  Fe42  1  0.25249419  0.74994528  -0.00055868  1
  Fe  Fe43  1  0.25162292  0.25106176  -0.00135634  1
  Fe  Fe44  1  0.25022340  -0.00058774  0.00090541  1
  Fe  Fe45  1  0.12692389  0.62400996  0.12515348  1
  Fe  Fe46  1  0.74992960  0.74849606  0.24972994  1
  Fe  Fe47  1  0.87761060  0.12632957  0.62527153  1
  Fe  Fe48  1  0.74897935  0.00053247  0.24796897  1
  Fe  Fe49  1  0.25324326  0.49910805  0.24625379  1
  Fe  Fe50  1  -0.00157540  0.00096377  -0.00386123  1
  Fe  Fe51  1  0.62618188  0.87453690  0.62667594  1
  Fe  Fe52  1  0.87321143  0.87568982  0.37851173  1
  Fe  Fe53  1  0.12596982  0.37452666  0.12521605  1
  Fe  Fe54  1  0.87360368  0.12440459  0.37763308  1
  Fe  Fe55  1  0.12757124  0.62370249  0.87310423  1
  Fe  Fe56  1  -0.00187848  0.75040652  0.74983357  1
  Fe  Fe57  1  0.37597654  0.37414257  0.37861523  1
  Fe  Fe58  1  0.24756468  0.00262625  0.74574363  1
  Fe  Fe59  1  0.62276633  0.87195525  0.12510114  1
  Fe  Fe60  1  0.62518168  0.37633783  0.37724760  1
  Fe  Fe61  1  0.24724634  0.49634315  0.50640160  1
  Fe  Fe62  1  0.00009908  0.50140642  0.25002081  1
  Fe  Fe63  1  0.74839011  0.24977728  0.24806049  1
  Fe  Fe64  1  0.24928288  0.24923414  0.25265779  1
  Fe  Fe65  1  0.87380414  0.37645290  0.37574277  1
  Fe  Fe66  1  0.74928962  0.25273805  0.74875295  1
  Fe  Fe67  1  0.62477025  0.63050338  0.87335957  1
  Fe  Fe68  1  0.50104370  -0.00393063  -0.00305703  1
  Fe  Fe69  1  0.74920680  0.24880339  0.00084178  1
  Fe  Fe70  1  0.87509773  0.12502051  0.12429534  1
  Fe  Fe71  1  0.87610490  0.87471422  0.62203393  1
  Fe  Fe72  1  0.74912096  0.50050767  0.24726910  1
  Fe  Fe73  1  0.37461473  0.87542768  0.62457146  1
  Fe  Fe74  1  0.49763673  0.50070989  0.25029147  1
  Fe  Fe75  1  0.50053667  0.25264444  0.75237677  1
  Fe  Fe76  1  0.49912625  -0.00288128  0.75085953  1
  Fe  Fe77  1  0.50011868  0.00069300  0.25033260  1
  Fe  Fe78  1  0.12311469  0.87335641  0.62431468  1
  Fe  Fe79  1  0.25014379  0.75112436  0.24972703  1
  Fe  Fe80  1  0.12657504  0.87730336  0.37809593  1
  Fe  Fe81  1  0.87423059  0.62382798  0.37735100  1
  Fe  Fe82  1  0.37487352  0.12241051  0.87424344  1
  Fe  Fe83  1  0.61946641  0.62899899  0.12422344  1
  Fe  Fe84  1  0.87786461  0.37409597  0.62383181  1
  Fe  Fe85  1  0.87557716  0.37574305  0.12469956  1
  Fe  Fe86  1  0.74745357  0.24932341  0.50219812  1
  Fe  Fe87  1  0.25080792  -0.00009852  0.24879834  1
  Fe  Fe88  1  0.12443443  0.12610028  0.87275789  1
  Fe  Fe89  1  0.62602488  0.12513306  0.87421267  1
  Co  Co90  1  0.62440654  0.12397769  0.63084516  1
  Co  Co91  1  0.49848194  0.50242314  0.49787704  1
  Co  Co92  1  -0.00353248  0.25072973  0.75456744  1
  Co  Co93  1  0.74824285  0.74917401  0.50059497  1
  Co  Co94  1  0.50339985  0.24735343  0.49962340  1
  Co  Co95  1  0.75146136  0.74961233  0.00262054  1
  Co  Co96  1  0.12899900  0.62275578  0.37477755  1
  Co  Co97  1  0.36992456  0.87775384  0.87141321  1
  Co  Co98  1  0.25352352  0.24904508  0.74953992  1
  Co  Co99  1  0.12384486  0.62719511  0.62713746  1
  Co  Co100  1  0.00045126  0.00067057  0.50057071  1
  Co  Co101  1  -0.00001618  -0.00027564  0.75039814  1
  Co  Co102  1  0.87702603  0.62477848  0.12565346  1
  Co  Co103  1  0.49815059  0.25129478  -0.00493546  1
  Co  Co104  1  0.00151830  0.74864081  0.49713517  1
  Co  Co105  1  0.24817405  0.49932162  0.74439363  1
  Co  Co106  1  0.24721716  0.25423200  0.49948140  1
  Co  Co107  1  0.62798188  0.87049773  0.87164570  1
  Co  Co108  1  0.75285400  0.74906826  0.74623817  1
  Co  Co109  1  0.75006685  0.49902543  0.50249035  1
  Co  Co110  1  0.12637093  0.37933903  0.37240483  1
  Co  Co111  1  0.49693719  0.75141638  0.74927851  1
  Co  Co112  1  0.74919994  0.00244080  0.50295602  1
  Co  Co113  1  0.12787145  0.12106742  0.37657318  1
  Co  Co114  1  0.62852552  0.37485146  0.87692148  1
  Co  Co115  1  0.00200254  0.25192156  0.49442832  1
  Co  Co116  1  0.62286885  0.12474539  0.12201569  1
  Co  Co117  1  0.87211489  0.12627937  0.87408065  1
  Co  Co118  1  0.87559715  0.87154251  0.87574255  1
  Co  Co119  1  0.24873317  0.00165144  0.50469738  1
  Co  Co120  1  0.37968089  0.37434239  0.62474795  1
  Co  Co121  1  0.37639673  0.37132642  0.12553989  1
  Co  Co122  1  0.37771126  0.62845647  0.12480737  1
  Co  Co123  1  0.49972379  0.74941990  0.25592663  1
  Co  Co124  1  0.25207814  0.49921694  0.00150326  1
  Co  Co125  1  0.12275906  0.36909512  0.63022275  1
  Co  Co126  1  0.50341198  0.49841978  0.75345908  1
  Co  Co127  1  0.49597449  0.75363071  -0.00596915  1
