# generated using pymatgen
data_Fe45Co19
_symmetry_space_group_name_H-M   'P 1'
_cell_length_a   11.41433055
_cell_length_b   11.41495857
_cell_length_c   11.41397480
_cell_angle_alpha   90.00330289
_cell_angle_beta   90.01596721
_cell_angle_gamma   90.00527840
_symmetry_Int_Tables_number   1
_chemical_formula_structural   Fe45Co19
_chemical_formula_sum   'Fe90 Co38'
_cell_volume   1487.17362545
_cell_formula_units_Z   2
loop_
 _symmetry_equiv_pos_site_id
 _symmetry_equiv_pos_as_xyz
  1  'x, y, z'
loop_
 _atom_site_type_symbol
 _atom_site_label
 _atom_site_symmetry_multiplicity
 _atom_site_fract_x
 _atom_site_fract_y
 _atom_site_fract_z
 _atom_site_occupancy
  Fe  Fe0  1  0.63076084  0.37732775  0.87877362  1
  Fe  Fe1  1  -0.00079156  0.50052523  0.00218824  1
  Fe  Fe2  1  0.62920739  0.62330927  0.87839470  1
  Fe  Fe3  1  0.87411198  0.12243043  0.37600926  1
  Fe  Fe4  1  -0.00107394  0.24907004  -0.00079842  1
  Fe  Fe5  1  0.12285150  0.12403678  0.62461274  1
  Fe  Fe6  1  0.37634186  0.87429439  0.62443753  1
  Fe  Fe7  1  0.62750844  0.37378845  0.37289753  1
  Fe  Fe8  1  0.37764627  0.87790933  0.12569497  1
  Fe  Fe9  1  0.50209753  0.50065604  0.75149633  1
  Fe  Fe10  1  0.75199104  0.50114710  0.24802616  1
  Fe  Fe11  1  0.50123827  0.24979381  0.49845619  1
  Fe  Fe12  1  0.62267714  0.87460629  0.37439746  1
  Fe  Fe13  1  0.37356917  0.62499433  0.87704380  1
  Fe  Fe14  1  0.50015916  0.50178989  0.24812507  1
  Fe  Fe15  1  0.87726204  0.87496505  0.37249601  1
  Fe  Fe16  1  0.12048728  0.37237884  0.37091890  1
  Fe  Fe17  1  0.62339911  0.87611399  0.87717343  1
  Fe  Fe18  1  0.12546917  0.12762848  0.12809163  1
  Fe  Fe19  1  0.75107834  -0.00104755  0.50089152  1
  Fe  Fe20  1  0.37399515  0.37364316  0.12521802  1
  Fe  Fe21  1  0.37378838  0.87625778  0.87476862  1
  Fe  Fe22  1  0.24764757  0.49959772  0.00328267  1
  Fe  Fe23  1  0.87592641  0.87614690  0.62495140  1
  Fe  Fe24  1  0.74940035  0.75250384  0.49912101  1
  Fe  Fe25  1  0.24819828  0.74921803  0.74932596  1
  Fe  Fe26  1  0.87364743  0.12679411  0.87496300  1
  Fe  Fe27  1  0.50151956  0.74883029  0.74950103  1
  Fe  Fe28  1  0.25113959  0.00054939  0.50149839  1
  Fe  Fe29  1  0.49906661  0.24525209  0.24652371  1
  Fe  Fe30  1  0.75124856  0.49824859  0.49995626  1
  Fe  Fe31  1  0.12388742  0.62257358  0.37475672  1
  Fe  Fe32  1  0.87256234  0.62382409  0.87620889  1
  Fe  Fe33  1  0.87538299  0.62702462  0.62423158  1
  Fe  Fe34  1  0.62672742  0.12409693  0.62412287  1
  Fe  Fe35  1  0.12682947  0.12453610  0.87245945  1
  Fe  Fe36  1  0.74984716  0.75215881  0.75057764  1
  Fe  Fe37  1  0.87836912  0.37443174  0.12614666  1
  Fe  Fe38  1  0.49892027  0.00100779  0.75075809  1
  Fe  Fe39  1  0.12484026  0.87860985  0.37410997  1
  Fe  Fe40  1  0.37278457  0.62600193  0.37408156  1
  Fe  Fe41  1  0.12335773  0.12609507  0.37407037  1
  Fe  Fe42  1  0.24694773  0.49776876  0.24787024  1
  Fe  Fe43  1  0.50044399  0.50187838  0.00256211  1
  Fe  Fe44  1  0.87915351  0.87595134  0.87974285  1
  Fe  Fe45  1  0.87199170  0.36979932  0.62875749  1
  Fe  Fe46  1  0.37425488  0.62351037  0.62249690  1
  Fe  Fe47  1  0.49949319  0.74858761  0.00129001  1
  Fe  Fe48  1  0.00012465  0.74933361  0.75202705  1
  Fe  Fe49  1  0.37528223  0.37511582  0.37356621  1
  Fe  Fe50  1  0.62749881  0.12425688  0.37268718  1
  Fe  Fe51  1  0.37485162  0.37498971  0.87568904  1
  Fe  Fe52  1  0.25040910  0.25043692  0.49867703  1
  Fe  Fe53  1  -0.00435667  0.24851417  0.49926884  1
  Fe  Fe54  1  0.62718557  0.37310187  0.62451131  1
  Fe  Fe55  1  -0.00023436  0.00128296  0.75132739  1
  Fe  Fe56  1  0.87487797  0.62634512  0.37318234  1
  Fe  Fe57  1  0.62740800  0.62634048  0.37353727  1
  Fe  Fe58  1  0.87340902  0.12069035  0.12261089  1
  Fe  Fe59  1  0.50203048  0.24932982  0.75220519  1
  Fe  Fe60  1  0.50015458  0.74961637  0.24968654  1
  Fe  Fe61  1  0.50012550  0.24686359  0.00228787  1
  Fe  Fe62  1  0.24920205  0.50081928  0.74964581  1
  Fe  Fe63  1  0.24974998  0.25064697  0.00128530  1
  Fe  Fe64  1  0.87774300  0.63143747  0.12835521  1
  Fe  Fe65  1  0.24671266  0.75209493  0.24676943  1
  Fe  Fe66  1  0.49876935  -0.00122504  0.49847014  1
  Fe  Fe67  1  0.62673841  0.62648365  0.62386955  1
  Fe  Fe68  1  0.24991565  0.00010631  0.24952481  1
  Fe  Fe69  1  -0.00139722  0.49852495  0.50045429  1
  Fe  Fe70  1  -0.00126604  0.49933335  0.75004891  1
  Fe  Fe71  1  0.24583360  0.75246654  0.00247187  1
  Fe  Fe72  1  0.12569957  0.37539363  0.62409932  1
  Fe  Fe73  1  0.37251698  0.12409306  0.87528388  1
  Fe  Fe74  1  0.00149608  0.75182645  0.49816555  1
  Fe  Fe75  1  0.12320198  0.37482620  0.87619329  1
  Fe  Fe76  1  0.12315421  0.87599466  0.62691415  1
  Fe  Fe77  1  0.50031605  0.50067998  0.49789771  1
  Fe  Fe78  1  0.24800125  0.74934316  0.50056386  1
  Fe  Fe79  1  0.12526613  0.62482893  0.87581470  1
  Fe  Fe80  1  0.62860552  0.12368655  0.88102727  1
  Fe  Fe81  1  0.37508405  0.37542351  0.62449154  1
  Fe  Fe82  1  0.75008739  0.75418792  0.00520014  1
  Fe  Fe83  1  0.24642598  -0.00229389  0.00062285  1
  Fe  Fe84  1  0.62673803  0.37371564  0.12489085  1
  Fe  Fe85  1  0.37428554  0.12475949  0.37449095  1
  Fe  Fe86  1  0.75053556  -0.00066919  0.75121776  1
  Fe  Fe87  1  0.25020504  0.24933138  0.74800442  1
  Fe  Fe88  1  0.75307207  0.24943715  0.24916735  1
  Fe  Fe89  1  0.75032158  -0.00582563  0.24463059  1
  Co  Co90  1  0.75430180  0.50047312  0.00591725  1
  Co  Co91  1  0.49882055  0.00367239  -0.00050841  1
  Co  Co92  1  -0.00006464  0.50089465  0.24839123  1
  Co  Co93  1  0.88481910  0.87356359  0.12365558  1
  Co  Co94  1  0.87522983  0.37620854  0.37361458  1
  Co  Co95  1  0.49916319  0.00274532  0.25098194  1
  Co  Co96  1  -0.00549523  0.24609055  0.24979528  1
  Co  Co97  1  0.74675091  0.24783938  0.75290128  1
  Co  Co98  1  -0.00013639  0.00293213  0.25052107  1
  Co  Co99  1  0.24865783  0.49876329  0.49691117  1
  Co  Co100  1  0.12232710  0.37052492  0.12693161  1
  Co  Co101  1  0.74930199  0.75562364  0.24741020  1
  Co  Co102  1  0.87388407  0.37507856  0.87368362  1
  Co  Co103  1  0.12297774  0.62578518  0.12566234  1
  Co  Co104  1  0.37305296  0.62537013  0.12529269  1
  Co  Co105  1  0.75156494  0.24879508  0.49767284  1
  Co  Co106  1  0.00352596  0.00485439  -0.00168052  1
  Co  Co107  1  0.11704533  0.87693011  0.12509507  1
  Co  Co108  1  0.62906538  0.12302013  0.12375381  1
  Co  Co109  1  0.75037042  0.50067192  0.74820692  1
  Co  Co110  1  0.12436358  0.87577049  0.87263629  1
  Co  Co111  1  0.37745737  0.12697917  0.62408783  1
  Co  Co112  1  0.62497599  0.87684755  0.62489134  1
  Co  Co113  1  0.00337143  0.74788612  -0.00286082  1
  Co  Co114  1  0.87426275  0.12525621  0.62649397  1
  Co  Co115  1  0.37390493  0.87353463  0.37415092  1
  Co  Co116  1  0.25246771  0.25030058  0.25118324  1
  Co  Co117  1  0.25105059  0.00062785  0.74754611  1
  Co  Co118  1  0.50044999  0.74953756  0.49908946  1
  Co  Co119  1  -0.00080026  -0.00042322  0.49915583  1
  Co  Co120  1  0.12239776  0.62447281  0.62443852  1
  Co  Co121  1  0.61894293  0.87726453  0.12360995  1
  Co  Co122  1  0.75308569  0.25171248  0.00162354  1
  Co  Co123  1  0.00217563  0.24983072  0.75089359  1
  Co  Co124  1  0.62606901  0.62640617  0.12538030  1
  Co  Co125  1  0.00429348  0.75074488  0.25441060  1
  Co  Co126  1  0.75156351  -0.00568575  0.00168527  1
  Co  Co127  1  0.37166140  0.12283901  0.12385870  1
