# generated using pymatgen
data_Fe45Co19
_symmetry_space_group_name_H-M   'P 1'
_cell_length_a   11.41533849
_cell_length_b   11.41482778
_cell_length_c   11.41488864
_cell_angle_alpha   89.98400640
_cell_angle_beta   89.99590043
_cell_angle_gamma   90.00174378
_symmetry_Int_Tables_number   1
_chemical_formula_structural   Fe45Co19
_chemical_formula_sum   'Fe90 Co38'
_cell_volume   1487.40698982
_cell_formula_units_Z   2
loop_
 _symmetry_equiv_pos_site_id
 _symmetry_equiv_pos_as_xyz
  1  'x, y, z'
loop_
 _atom_site_type_symbol
 _atom_site_label
 _atom_site_symmetry_multiplicity
 _atom_site_fract_x
 _atom_site_fract_y
 _atom_site_fract_z
 _atom_site_occupancy
  Fe  Fe0  1  0.37496118  0.37695561  0.37486455  1
  Fe  Fe1  1  0.62202156  0.12505825  0.87419438  1
  Fe  Fe2  1  0.87438143  0.37348743  0.12534176  1
  Fe  Fe3  1  0.24592649  0.74796489  0.24705324  1
  Fe  Fe4  1  0.62326187  0.87428783  0.87700996  1
  Fe  Fe5  1  0.75213078  0.74837342  0.50016490  1
  Fe  Fe6  1  0.87454001  0.62581651  0.12626390  1
  Fe  Fe7  1  0.37605342  0.12513408  0.37211080  1
  Fe  Fe8  1  0.12142570  0.62643263  0.87273969  1
  Fe  Fe9  1  0.37326774  0.87365850  0.37153942  1
  Fe  Fe10  1  0.00058932  0.49926824  0.50555653  1
  Fe  Fe11  1  -0.00122991  0.75313382  0.74722233  1
  Fe  Fe12  1  -0.00071955  0.74982971  0.00145148  1
  Fe  Fe13  1  0.75121766  0.50167645  0.00038524  1
  Fe  Fe14  1  0.24733303  0.49994706  0.75216127  1
  Fe  Fe15  1  0.37996692  0.12531100  0.87529556  1
  Fe  Fe16  1  0.12543864  0.12639217  0.37393421  1
  Fe  Fe17  1  0.74764565  0.25071591  0.74855648  1
  Fe  Fe18  1  -0.00000712  0.25058250  0.50128099  1
  Fe  Fe19  1  0.37721784  0.62107751  0.87607465  1
  Fe  Fe20  1  0.00223663  0.74977284  0.50176722  1
  Fe  Fe21  1  0.25102394  0.75116677  0.75333857  1
  Fe  Fe22  1  0.87664595  0.12662569  0.37187002  1
  Fe  Fe23  1  0.49849480  0.25432980  0.24806965  1
  Fe  Fe24  1  0.74855033  0.50203329  0.25370590  1
  Fe  Fe25  1  0.49912898  0.25511750  -0.00177924  1
  Fe  Fe26  1  0.87448206  0.12509692  0.62680337  1
  Fe  Fe27  1  0.87603279  0.87823195  0.87323461  1
  Fe  Fe28  1  0.49716900  0.74852021  0.49900723  1
  Fe  Fe29  1  0.00093716  0.24863265  0.75133475  1
  Fe  Fe30  1  0.00287554  0.75102909  0.24969153  1
  Fe  Fe31  1  0.00114415  0.00027919  0.50213147  1
  Fe  Fe32  1  0.25272201  0.00332390  0.00272441  1
  Fe  Fe33  1  0.87329480  0.37312797  0.37713187  1
  Fe  Fe34  1  0.87427464  0.62635356  0.87217439  1
  Fe  Fe35  1  0.24817686  0.74792313  0.49876867  1
  Fe  Fe36  1  0.62118819  0.12469655  0.62574010  1
  Fe  Fe37  1  0.00134029  0.49740098  0.25000709  1
  Fe  Fe38  1  0.75058607  0.50039202  0.74814087  1
  Fe  Fe39  1  -0.00121691  0.50064329  -0.00149038  1
  Fe  Fe40  1  0.24878497  0.50114919  0.50121645  1
  Fe  Fe41  1  0.62719235  0.37677114  0.12395630  1
  Fe  Fe42  1  0.87691136  0.87581612  0.37643150  1
  Fe  Fe43  1  0.37447176  0.87407813  0.62470987  1
  Fe  Fe44  1  0.25195677  -0.00053535  0.75114742  1
  Fe  Fe45  1  0.62328478  0.12665268  0.12521312  1
  Fe  Fe46  1  0.87492264  0.87529448  0.12514469  1
  Fe  Fe47  1  -0.00346835  0.24541968  -0.00148687  1
  Fe  Fe48  1  0.25027594  0.25254147  0.24806609  1
  Fe  Fe49  1  0.62674101  0.86965878  0.12628236  1
  Fe  Fe50  1  0.74906599  0.25121772  0.25185575  1
  Fe  Fe51  1  0.12553875  0.37579965  0.12091555  1
  Fe  Fe52  1  0.87798515  0.62456524  0.37626818  1
  Fe  Fe53  1  0.12613724  0.37495222  0.37797960  1
  Fe  Fe54  1  0.49859959  -0.00167198  0.49887821  1
  Fe  Fe55  1  0.00179716  -0.00106631  0.24867529  1
  Fe  Fe56  1  0.00032555  0.49777736  0.74720288  1
  Fe  Fe57  1  0.74792919  -0.00232526  0.74860411  1
  Fe  Fe58  1  0.49881192  0.74599976  0.00485614  1
  Fe  Fe59  1  0.50425011  0.50360063  0.25021398  1
  Fe  Fe60  1  0.24866858  0.74516715  0.00189055  1
  Fe  Fe61  1  0.12624639  0.37243374  0.87723606  1
  Fe  Fe62  1  0.37464929  0.62367941  0.62792652  1
  Fe  Fe63  1  0.37340243  0.37501512  0.62537572  1
  Fe  Fe64  1  0.49902402  -0.00315258  0.24615752  1
  Fe  Fe65  1  0.37198786  0.38210317  0.12007416  1
  Fe  Fe66  1  0.37762601  0.12573805  0.62672951  1
  Fe  Fe67  1  0.75263656  0.24701037  0.00026325  1
  Fe  Fe68  1  0.37764380  0.87585342  0.87944352  1
  Fe  Fe69  1  0.62478045  0.62371091  0.62267501  1
  Fe  Fe70  1  0.62699000  0.62528847  0.87649893  1
  Fe  Fe71  1  0.62377514  0.87075648  0.37314180  1
  Fe  Fe72  1  0.74954997  0.00199163  0.49840252  1
  Fe  Fe73  1  0.62166553  0.12644683  0.37280503  1
  Fe  Fe74  1  0.50046159  0.75066806  0.75054497  1
  Fe  Fe75  1  0.25117004  0.00141367  0.49911571  1
  Fe  Fe76  1  0.12716364  0.87473711  0.62466199  1
  Fe  Fe77  1  0.50197395  0.49502461  0.75290399  1
  Fe  Fe78  1  0.12330433  0.12626297  0.12456141  1
  Fe  Fe79  1  0.37323355  0.62414941  0.37237495  1
  Fe  Fe80  1  0.62432181  0.87387116  0.62337271  1
  Fe  Fe81  1  0.49873614  0.25119932  0.49972790  1
  Fe  Fe82  1  0.87291469  0.37368501  0.87369797  1
  Fe  Fe83  1  0.75110742  0.00158309  0.00150492  1
  Fe  Fe84  1  0.24982413  0.00036388  0.24714605  1
  Fe  Fe85  1  0.25124404  0.24913865  0.75294480  1
  Fe  Fe86  1  0.74938884  -0.00057701  0.25030857  1
  Fe  Fe87  1  0.12745677  0.12686614  0.62553124  1
  Fe  Fe88  1  0.12317663  0.87942083  0.87863309  1
  Fe  Fe89  1  0.62737213  0.37637782  0.61893675  1
  Co  Co90  1  0.87225370  0.12314185  0.86989906  1
  Co  Co91  1  0.37832097  0.12685160  0.12524852  1
  Co  Co92  1  0.12635274  0.62686002  0.62737416  1
  Co  Co93  1  0.49708666  0.50100349  0.49806134  1
  Co  Co94  1  0.37205414  0.61843157  0.12484500  1
  Co  Co95  1  0.00259384  0.25373480  0.24997212  1
  Co  Co96  1  0.12807304  0.37235562  0.62577037  1
  Co  Co97  1  0.12594161  0.12209209  0.87615228  1
  Co  Co98  1  0.87475727  0.62575656  0.62644362  1
  Co  Co99  1  0.12598409  0.87617023  0.37541785  1
  Co  Co100  1  0.62990028  0.62741694  0.12473534  1
  Co  Co101  1  0.25164405  0.24680329  0.00084756  1
  Co  Co102  1  0.62499331  0.37471195  0.37798115  1
  Co  Co103  1  0.12310321  0.62266755  0.37549269  1
  Co  Co104  1  0.37079793  0.37744312  0.87843137  1
  Co  Co105  1  0.87367661  0.87564586  0.62419413  1
  Co  Co106  1  0.24599162  0.49842022  0.25134942  1
  Co  Co107  1  0.37307419  0.87258534  0.12481652  1
  Co  Co108  1  -0.00459907  0.00489356  0.00103465  1
  Co  Co109  1  0.49766883  0.74599000  0.24704507  1
  Co  Co110  1  0.75334489  0.75109680  -0.00228675  1
  Co  Co111  1  0.50135037  -0.00112923  0.00410305  1
  Co  Co112  1  0.63077243  0.37443008  0.87707168  1
  Co  Co113  1  0.74971203  0.24609384  0.49833393  1
  Co  Co114  1  0.87271946  0.37284096  0.62533288  1
  Co  Co115  1  0.62453648  0.62781573  0.37713027  1
  Co  Co116  1  0.75263372  0.50223379  0.49769338  1
  Co  Co117  1  0.12461443  0.87661041  0.12097275  1
  Co  Co118  1  0.25246166  0.24927114  0.49772978  1
  Co  Co119  1  0.50451638  0.49978531  -0.00084877  1
  Co  Co120  1  0.50064821  0.25675002  0.75091153  1
  Co  Co121  1  0.24451500  0.50521963  -0.00424729  1
  Co  Co122  1  0.49919602  -0.00383703  0.74957667  1
  Co  Co123  1  0.87477849  0.12641028  0.13089057  1
  Co  Co124  1  0.75390269  0.74858819  0.25332759  1
  Co  Co125  1  0.00222582  0.00014761  0.74706241  1
  Co  Co126  1  0.12233703  0.62187325  0.12601746  1
  Co  Co127  1  0.74854624  0.75110047  0.74982545  1
