# generated using pymatgen
data_Fe45Co19
_symmetry_space_group_name_H-M   'P 1'
_cell_length_a   11.41508674
_cell_length_b   11.41609088
_cell_length_c   11.41603520
_cell_angle_alpha   89.99831449
_cell_angle_beta   89.99526132
_cell_angle_gamma   90.00510221
_symmetry_Int_Tables_number   1
_chemical_formula_structural   Fe45Co19
_chemical_formula_sum   'Fe90 Co38'
_cell_volume   1487.68823851
_cell_formula_units_Z   2
loop_
 _symmetry_equiv_pos_site_id
 _symmetry_equiv_pos_as_xyz
  1  'x, y, z'
loop_
 _atom_site_type_symbol
 _atom_site_label
 _atom_site_symmetry_multiplicity
 _atom_site_fract_x
 _atom_site_fract_y
 _atom_site_fract_z
 _atom_site_occupancy
  Fe  Fe0  1  0.25008079  0.50146744  0.49888823  1
  Fe  Fe1  1  0.75055313  0.24983620  0.24840979  1
  Fe  Fe2  1  0.62455404  0.62546746  0.62444747  1
  Fe  Fe3  1  0.25110335  -0.00063586  0.00097489  1
  Fe  Fe4  1  0.87786338  0.62527125  0.12487234  1
  Fe  Fe5  1  0.37700403  0.37723453  0.87133957  1
  Fe  Fe6  1  0.75081108  -0.00032143  0.50039606  1
  Fe  Fe7  1  0.12167477  0.62487752  0.87638478  1
  Fe  Fe8  1  0.49981035  0.74941762  0.75192892  1
  Fe  Fe9  1  0.12509057  0.12331096  0.12452832  1
  Fe  Fe10  1  0.12504172  0.12419688  0.62478843  1
  Fe  Fe11  1  0.62450691  0.12517790  0.37587266  1
  Fe  Fe12  1  0.75110837  0.74979079  0.24935586  1
  Fe  Fe13  1  0.37280593  0.87371132  0.62408938  1
  Fe  Fe14  1  0.24946859  0.50098967  0.24863651  1
  Fe  Fe15  1  0.75214371  0.74913199  0.50100065  1
  Fe  Fe16  1  0.62670294  0.87448483  0.37369259  1
  Fe  Fe17  1  0.25084314  0.75224344  -0.00087200  1
  Fe  Fe18  1  -0.00055537  0.24951418  0.49800728  1
  Fe  Fe19  1  0.25149004  0.24912139  0.00005356  1
  Fe  Fe20  1  0.87531983  0.37676607  0.37183178  1
  Fe  Fe21  1  0.50069585  -0.00365192  0.00012124  1
  Fe  Fe22  1  0.75006269  0.50016477  0.49859455  1
  Fe  Fe23  1  0.00388996  0.50046575  0.24681260  1
  Fe  Fe24  1  0.62321357  0.62478001  0.12587964  1
  Fe  Fe25  1  0.12382753  0.37436146  0.87615800  1
  Fe  Fe26  1  0.49939885  0.75140951  0.49875101  1
  Fe  Fe27  1  0.62451267  0.62393940  0.37375710  1
  Fe  Fe28  1  0.49633287  0.25197453  0.50052002  1
  Fe  Fe29  1  0.25204558  0.24918464  0.74860600  1
  Fe  Fe30  1  0.75038641  0.75002207  0.00020490  1
  Fe  Fe31  1  0.24781511  0.50169847  0.75011104  1
  Fe  Fe32  1  0.87708109  0.37795470  0.62295347  1
  Fe  Fe33  1  0.62552085  0.12587590  0.87506883  1
  Fe  Fe34  1  0.62192295  0.37700086  0.62869088  1
  Fe  Fe35  1  -0.00084561  0.75111971  0.00038537  1
  Fe  Fe36  1  -0.00042611  0.24911769  0.24867585  1
  Fe  Fe37  1  0.12376878  0.62826964  0.37421717  1
  Fe  Fe38  1  0.49772607  0.49968985  0.49748864  1
  Fe  Fe39  1  0.24578108  0.75495605  0.24952905  1
  Fe  Fe40  1  0.37577622  0.12359029  0.87497981  1
  Fe  Fe41  1  0.50122004  0.75162687  0.24951769  1
  Fe  Fe42  1  0.75135330  -0.00108673  0.00121786  1
  Fe  Fe43  1  0.37405520  0.62736276  0.12390559  1
  Fe  Fe44  1  0.62331322  0.12514628  0.62462437  1
  Fe  Fe45  1  0.24814618  0.74915928  0.75035955  1
  Fe  Fe46  1  -0.00068622  0.25140020  0.74972616  1
  Fe  Fe47  1  0.74884298  -0.00102330  0.24749002  1
  Fe  Fe48  1  0.24707805  0.49929071  0.00190068  1
  Fe  Fe49  1  0.37544668  0.37544301  0.12643117  1
  Fe  Fe50  1  0.50122987  0.49904313  0.00100252  1
  Fe  Fe51  1  0.50009196  -0.00074265  0.75101572  1
  Fe  Fe52  1  0.62292551  0.12443291  0.12449173  1
  Fe  Fe53  1  0.37692020  0.87600972  0.12581381  1
  Fe  Fe54  1  -0.00253613  -0.00146189  0.50011960  1
  Fe  Fe55  1  0.12580631  0.87415351  0.62227157  1
  Fe  Fe56  1  0.37547123  0.62590895  0.87676782  1
  Fe  Fe57  1  0.62318775  0.37755494  0.37033217  1
  Fe  Fe58  1  0.25364472  0.24849025  0.50212641  1
  Fe  Fe59  1  0.62840404  0.87403026  0.62726239  1
  Fe  Fe60  1  0.49772184  -0.00237226  0.49725079  1
  Fe  Fe61  1  -0.00279632  0.75252862  0.49897954  1
  Fe  Fe62  1  -0.00244627  -0.00079066  0.00001180  1
  Fe  Fe63  1  0.75297702  0.50431864  0.75023850  1
  Fe  Fe64  1  0.12413241  0.37640875  0.62370924  1
  Fe  Fe65  1  0.62777155  0.87275545  0.87396411  1
  Fe  Fe66  1  0.37390246  0.62805684  0.37392690  1
  Fe  Fe67  1  0.87637442  0.62437578  0.37417156  1
  Fe  Fe68  1  0.37578864  0.62442212  0.62546893  1
  Fe  Fe69  1  0.87425315  0.12461758  0.62507698  1
  Fe  Fe70  1  0.62468751  0.62567069  0.87632057  1
  Fe  Fe71  1  0.25007278  -0.00039064  0.75004877  1
  Fe  Fe72  1  0.25305646  0.24549623  0.24847331  1
  Fe  Fe73  1  -0.00073702  0.25055860  0.00346470  1
  Fe  Fe74  1  0.74966751  0.25215380  0.49909297  1
  Fe  Fe75  1  0.12736120  0.12189480  0.37503600  1
  Fe  Fe76  1  0.00163255  -0.00598986  0.24979227  1
  Fe  Fe77  1  0.87463514  0.12528873  0.87524714  1
  Fe  Fe78  1  0.12793714  0.37311684  0.37380552  1
  Fe  Fe79  1  0.87535377  0.37768503  0.87826117  1
  Fe  Fe80  1  0.11943500  0.62429106  0.62490669  1
  Fe  Fe81  1  0.12479765  0.87498832  0.87574307  1
  Fe  Fe82  1  0.49767037  0.24785301  0.25019096  1
  Fe  Fe83  1  0.12452765  0.12552480  0.87520474  1
  Fe  Fe84  1  0.50193460  0.25336171  -0.00152231  1
  Fe  Fe85  1  0.74923782  0.25237015  0.00367990  1
  Fe  Fe86  1  0.74886506  0.49845926  0.00310826  1
  Fe  Fe87  1  0.74992182  0.24960706  0.74969393  1
  Fe  Fe88  1  -0.00187056  -0.00233488  0.75043967  1
  Fe  Fe89  1  0.87403180  0.12306114  0.37330259  1
  Co  Co90  1  0.12405124  0.87516183  0.12113018  1
  Co  Co91  1  0.37441454  0.12254374  0.37528858  1
  Co  Co92  1  0.00108041  0.75338683  0.25090844  1
  Co  Co93  1  0.25199933  0.00189819  0.49981666  1
  Co  Co94  1  0.62683973  0.37665430  0.87129879  1
  Co  Co95  1  -0.00100629  0.75189405  0.75029514  1
  Co  Co96  1  0.00180506  0.49873119  0.49513236  1
  Co  Co97  1  0.37681005  0.12291129  0.62568574  1
  Co  Co98  1  0.24938117  0.74594433  0.50171119  1
  Co  Co99  1  0.74968733  0.00274534  0.75109666  1
  Co  Co100  1  0.37592050  0.37863904  0.62762608  1
  Co  Co101  1  0.87847162  0.62345142  0.87899742  1
  Co  Co102  1  0.50007136  0.75152555  0.00005099  1
  Co  Co103  1  0.37321551  0.37513292  0.37334987  1
  Co  Co104  1  0.37202924  0.87306924  0.37530526  1
  Co  Co105  1  0.37773415  0.12314193  0.12248385  1
  Co  Co106  1  0.12778671  0.87555705  0.38021968  1
  Co  Co107  1  0.87244160  0.87385878  0.87401309  1
  Co  Co108  1  0.12603607  0.62943676  0.12392124  1
  Co  Co109  1  0.12744481  0.37098716  0.12627838  1
  Co  Co110  1  0.87105444  0.87478298  0.62766722  1
  Co  Co111  1  0.87445742  0.87340326  0.12478126  1
  Co  Co112  1  0.37434038  0.87427705  0.87429287  1
  Co  Co113  1  0.62559231  0.87394336  0.12524116  1
  Co  Co114  1  0.87541991  0.12300933  0.12642366  1
  Co  Co115  1  -0.00096696  0.49852281  0.75236780  1
  Co  Co116  1  0.49655846  0.50367143  0.24965276  1
  Co  Co117  1  0.50100691  0.50476408  0.75246148  1
  Co  Co118  1  0.75202025  0.74429171  0.75033803  1
  Co  Co119  1  0.87880017  0.62384927  0.62266985  1
  Co  Co120  1  0.62326199  0.37604117  0.13013202  1
  Co  Co121  1  0.00462767  0.49848279  0.00446612  1
  Co  Co122  1  0.50054825  -0.00116983  0.25203439  1
  Co  Co123  1  0.75050335  0.50251859  0.24922687  1
  Co  Co124  1  0.87550188  0.37679958  0.12675705  1
  Co  Co125  1  0.24940499  -0.00182461  0.24828468  1
  Co  Co126  1  0.49986470  0.24791068  0.75113723  1
  Co  Co127  1  0.87206994  0.87535287  0.37385857  1
