# generated using pymatgen
data_Fe45Co19
_symmetry_space_group_name_H-M   'P 1'
_cell_length_a   11.41503899
_cell_length_b   11.41550590
_cell_length_c   11.41482433
_cell_angle_alpha   90.00093237
_cell_angle_beta   90.00488424
_cell_angle_gamma   89.99027838
_symmetry_Int_Tables_number   1
_chemical_formula_structural   Fe45Co19
_chemical_formula_sum   'Fe90 Co38'
_cell_volume   1487.44798102
_cell_formula_units_Z   2
loop_
 _symmetry_equiv_pos_site_id
 _symmetry_equiv_pos_as_xyz
  1  'x, y, z'
loop_
 _atom_site_type_symbol
 _atom_site_label
 _atom_site_symmetry_multiplicity
 _atom_site_fract_x
 _atom_site_fract_y
 _atom_site_fract_z
 _atom_site_occupancy
  Fe  Fe0  1  0.62432006  0.87400475  0.37285009  1
  Fe  Fe1  1  0.50236222  0.24994217  0.50028196  1
  Fe  Fe2  1  0.00086866  0.75179551  0.74988866  1
  Fe  Fe3  1  0.49940078  0.25167621  0.74805585  1
  Fe  Fe4  1  0.49878063  0.24925454  0.00188035  1
  Fe  Fe5  1  0.87385200  0.87418016  0.62457852  1
  Fe  Fe6  1  0.87141566  0.62222136  0.12399722  1
  Fe  Fe7  1  0.24938668  0.50219639  0.49906050  1
  Fe  Fe8  1  0.00323194  0.24635623  0.00055696  1
  Fe  Fe9  1  0.62761867  0.37732608  0.62173365  1
  Fe  Fe10  1  0.37057309  0.37944016  0.12174189  1
  Fe  Fe11  1  0.12416727  0.62771743  0.87375423  1
  Fe  Fe12  1  0.50190094  -0.00497622  0.75436002  1
  Fe  Fe13  1  0.25201157  0.50031605  0.75326077  1
  Fe  Fe14  1  0.62527741  0.12376453  0.12671525  1
  Fe  Fe15  1  0.75001008  0.24982539  -0.00165117  1
  Fe  Fe16  1  0.12684380  0.37363121  0.87613050  1
  Fe  Fe17  1  0.74801428  0.00215684  -0.00306350  1
  Fe  Fe18  1  0.62487617  0.12477344  0.37134676  1
  Fe  Fe19  1  0.37378956  0.12249614  0.12678112  1
  Fe  Fe20  1  0.37650539  0.12243605  0.62487178  1
  Fe  Fe21  1  0.37444633  0.62772770  0.36829593  1
  Fe  Fe22  1  -0.00067129  0.25240254  0.25034388  1
  Fe  Fe23  1  0.75089141  0.49906226  0.75071268  1
  Fe  Fe24  1  0.25056988  0.74998060  0.49812367  1
  Fe  Fe25  1  0.12404406  0.62597347  0.37217454  1
  Fe  Fe26  1  0.49820968  0.50135173  0.75272739  1
  Fe  Fe27  1  0.87410507  0.37614764  0.12227071  1
  Fe  Fe28  1  0.75056888  -0.00034470  0.49841679  1
  Fe  Fe29  1  0.74675353  -0.00280597  0.75419255  1
  Fe  Fe30  1  0.38004825  0.87229108  0.62359725  1
  Fe  Fe31  1  -0.00057878  -0.00155552  0.25075791  1
  Fe  Fe32  1  0.37688257  0.37453906  0.37616746  1
  Fe  Fe33  1  0.49986126  -0.00142411  0.49697863  1
  Fe  Fe34  1  0.00097480  0.74902589  0.24506399  1
  Fe  Fe35  1  0.87566593  0.87125340  0.37429687  1
  Fe  Fe36  1  0.87363415  0.62804520  0.87476110  1
  Fe  Fe37  1  0.87387043  0.12473065  0.62593875  1
  Fe  Fe38  1  0.62361452  0.62753646  0.62676598  1
  Fe  Fe39  1  0.87580250  0.87723000  0.12195502  1
  Fe  Fe40  1  0.37507345  0.37781083  0.62380028  1
  Fe  Fe41  1  0.87582971  0.87354311  0.87873033  1
  Fe  Fe42  1  0.62634257  0.62359755  0.36999064  1
  Fe  Fe43  1  0.74850839  0.75062175  0.24454967  1
  Fe  Fe44  1  0.49617856  0.50284571  -0.00135471  1
  Fe  Fe45  1  0.12481278  0.87366422  0.62342286  1
  Fe  Fe46  1  0.24932579  -0.00458269  0.25148828  1
  Fe  Fe47  1  -0.00010855  0.00061225  0.49929778  1
  Fe  Fe48  1  0.12124109  0.37671178  0.38039738  1
  Fe  Fe49  1  -0.00062208  0.25141000  0.74648417  1
  Fe  Fe50  1  0.50035500  0.50305262  0.49898197  1
  Fe  Fe51  1  0.37839846  0.86997130  0.36994854  1
  Fe  Fe52  1  0.49925427  0.74556676  0.00881117  1
  Fe  Fe53  1  0.25060004  -0.00372033  0.75191279  1
  Fe  Fe54  1  0.74916943  0.74775183  0.50027393  1
  Fe  Fe55  1  0.87393542  0.37665960  0.38525753  1
  Fe  Fe56  1  0.62204748  0.88037440  0.12430045  1
  Fe  Fe57  1  0.24885966  0.25335567  0.24885012  1
  Fe  Fe58  1  0.75115320  0.25068465  0.75005655  1
  Fe  Fe59  1  0.62286799  0.37410124  0.87603755  1
  Fe  Fe60  1  0.75043584  0.25392853  0.25159690  1
  Fe  Fe61  1  -0.00085917  0.74540228  0.50266441  1
  Fe  Fe62  1  0.87471122  0.12458206  0.12508595  1
  Fe  Fe63  1  0.74616334  0.75422809  0.75158992  1
  Fe  Fe64  1  0.50046033  0.49883668  0.24921941  1
  Fe  Fe65  1  0.24927617  0.74463265  0.00591120  1
  Fe  Fe66  1  0.12415400  0.87622275  0.12258381  1
  Fe  Fe67  1  0.87501808  0.12613105  0.37423599  1
  Fe  Fe68  1  0.50008994  0.25272389  0.24853269  1
  Fe  Fe69  1  0.24923554  0.24977046  0.50102251  1
  Fe  Fe70  1  0.12536627  0.12450915  0.37288279  1
  Fe  Fe71  1  0.25207900  0.25212965  0.74904598  1
  Fe  Fe72  1  0.00181890  -0.00220466  0.75320488  1
  Fe  Fe73  1  0.62532967  0.62790199  0.87802144  1
  Fe  Fe74  1  0.37600120  0.12707509  0.87466343  1
  Fe  Fe75  1  0.12703427  0.37882002  0.12231618  1
  Fe  Fe76  1  0.00351219  0.00351127  -0.00348962  1
  Fe  Fe77  1  0.12650764  0.12379662  0.62666089  1
  Fe  Fe78  1  0.62739423  0.37930559  0.12354364  1
  Fe  Fe79  1  0.37658611  0.87070174  0.88081034  1
  Fe  Fe80  1  0.62461978  0.12173228  0.62671189  1
  Fe  Fe81  1  -0.00022098  0.50298983  -0.00157756  1
  Fe  Fe82  1  0.37425246  0.12640211  0.37369675  1
  Fe  Fe83  1  0.25149129  0.75164472  0.75018402  1
  Fe  Fe84  1  0.37587996  0.62702837  0.62614758  1
  Fe  Fe85  1  -0.00339690  0.49914042  0.25165060  1
  Fe  Fe86  1  -0.00028952  0.49940632  0.74424952  1
  Fe  Fe87  1  0.24833820  0.00289793  -0.00166606  1
  Fe  Fe88  1  0.25059459  -0.00324954  0.49819729  1
  Fe  Fe89  1  0.87690232  0.37374354  0.87496294  1
  Co  Co90  1  0.12665075  0.37639594  0.62362692  1
  Co  Co91  1  0.50401416  0.74736617  0.24229504  1
  Co  Co92  1  0.24621246  0.75361345  0.24617023  1
  Co  Co93  1  0.00027407  0.74610048  0.00317414  1
  Co  Co94  1  0.12491995  0.12376664  0.13037421  1
  Co  Co95  1  0.49805285  0.00050413  0.25186366  1
  Co  Co96  1  0.75212873  -0.00139123  0.25041402  1
  Co  Co97  1  0.87166772  0.62790668  0.63015583  1
  Co  Co98  1  -0.00087751  0.50730624  0.50523303  1
  Co  Co99  1  0.62329455  0.12873721  0.87393195  1
  Co  Co100  1  0.87563542  0.12536360  0.87477637  1
  Co  Co101  1  0.00210467  0.24661052  0.50216826  1
  Co  Co102  1  0.12084443  0.87220880  0.37626152  1
  Co  Co103  1  0.62182172  0.87057485  0.88183595  1
  Co  Co104  1  0.63010224  0.61676422  0.12403135  1
  Co  Co105  1  0.37551256  0.87731274  0.12458099  1
  Co  Co106  1  0.50107923  0.74742844  0.49699363  1
  Co  Co107  1  0.24909519  0.24688230  0.00216681  1
  Co  Co108  1  0.75436165  0.49650110  0.25216962  1
  Co  Co109  1  0.25098989  0.50489536  -0.00578837  1
  Co  Co110  1  0.37677745  0.63074637  0.87394460  1
  Co  Co111  1  0.75270656  0.49832882  -0.00582810  1
  Co  Co112  1  0.74967119  0.75097672  0.00442102  1
  Co  Co113  1  0.74605025  0.24611950  0.49942371  1
  Co  Co114  1  0.12622098  0.61823665  0.12825795  1
  Co  Co115  1  0.12652267  0.87036227  0.87821945  1
  Co  Co116  1  0.37484660  0.37205579  0.87746830  1
  Co  Co117  1  0.49957999  0.00318754  -0.00248036  1
  Co  Co118  1  0.75075951  0.50728656  0.50159344  1
  Co  Co119  1  0.50211376  0.75243855  0.75053900  1
  Co  Co120  1  0.12660998  0.12801583  0.87032661  1
  Co  Co121  1  0.87474942  0.62719423  0.37155358  1
  Co  Co122  1  0.87238899  0.37475467  0.61882876  1
  Co  Co123  1  0.24820089  0.49538428  0.25469683  1
  Co  Co124  1  0.62385822  0.87528288  0.62146527  1
  Co  Co125  1  0.12973825  0.62688902  0.62726602  1
  Co  Co126  1  0.62592063  0.37812448  0.37693249  1
  Co  Co127  1  0.36979129  0.62029325  0.13236667  1
