# generated using pymatgen
data_Fe45Co19
_symmetry_space_group_name_H-M   'P 1'
_cell_length_a   11.41573222
_cell_length_b   11.41601245
_cell_length_c   11.41504732
_cell_angle_alpha   89.98193292
_cell_angle_beta   90.00370833
_cell_angle_gamma   90.01165899
_symmetry_Int_Tables_number   1
_chemical_formula_structural   Fe45Co19
_chemical_formula_sum   'Fe90 Co38'
_cell_volume   1487.63330003
_cell_formula_units_Z   2
loop_
 _symmetry_equiv_pos_site_id
 _symmetry_equiv_pos_as_xyz
  1  'x, y, z'
loop_
 _atom_site_type_symbol
 _atom_site_label
 _atom_site_symmetry_multiplicity
 _atom_site_fract_x
 _atom_site_fract_y
 _atom_site_fract_z
 _atom_site_occupancy
  Fe  Fe0  1  0.87738042  0.12374447  0.37229333  1
  Fe  Fe1  1  0.49901179  0.74920913  0.50240287  1
  Fe  Fe2  1  0.62331882  0.62579143  0.12535257  1
  Fe  Fe3  1  0.50151972  -0.00276916  0.74977566  1
  Fe  Fe4  1  0.74836870  0.00390081  0.49945242  1
  Fe  Fe5  1  0.50008225  0.49876643  0.49999656  1
  Fe  Fe6  1  0.25169170  0.24935357  0.24801741  1
  Fe  Fe7  1  0.74807114  0.50275407  0.49592911  1
  Fe  Fe8  1  0.24687197  0.50066297  0.24842139  1
  Fe  Fe9  1  0.75289817  0.74686017  0.49667999  1
  Fe  Fe10  1  0.12584000  0.37456958  0.37410705  1
  Fe  Fe11  1  0.61995520  0.12785086  0.37047595  1
  Fe  Fe12  1  0.62541319  0.12634726  0.87264384  1
  Fe  Fe13  1  0.74855211  0.50095458  -0.00180933  1
  Fe  Fe14  1  0.00232249  0.49759253  0.00422500  1
  Fe  Fe15  1  0.37238583  0.87675784  0.62568180  1
  Fe  Fe16  1  0.62713028  0.87539512  0.62337119  1
  Fe  Fe17  1  0.12292990  0.12593660  0.37338126  1
  Fe  Fe18  1  0.12492115  0.87378908  0.37565083  1
  Fe  Fe19  1  0.87723431  0.62362691  0.62399060  1
  Fe  Fe20  1  -0.00161316  0.25416473  0.24597171  1
  Fe  Fe21  1  0.74936927  0.49903993  0.75197426  1
  Fe  Fe22  1  0.87436878  0.12421184  0.62769692  1
  Fe  Fe23  1  0.37050529  0.37748792  0.11976102  1
  Fe  Fe24  1  -0.00326767  -0.00232589  0.00277049  1
  Fe  Fe25  1  0.50194563  0.49874165  -0.00321207  1
  Fe  Fe26  1  0.62530886  0.62450705  0.62608215  1
  Fe  Fe27  1  0.62910445  0.37297644  0.12572973  1
  Fe  Fe28  1  0.87467703  0.37993769  0.37183211  1
  Fe  Fe29  1  0.75069989  0.74945030  0.75034352  1
  Fe  Fe30  1  0.75096778  0.00166159  -0.00105291  1
  Fe  Fe31  1  0.62532124  0.87417687  0.37556786  1
  Fe  Fe32  1  0.24848624  0.50120513  0.75365344  1
  Fe  Fe33  1  0.37658165  0.62475334  0.12426420  1
  Fe  Fe34  1  0.49965786  0.00258182  0.49857820  1
  Fe  Fe35  1  0.37097582  0.37549326  0.62740085  1
  Fe  Fe36  1  0.75332115  0.25119126  0.75059401  1
  Fe  Fe37  1  0.00168314  0.00058256  0.75011035  1
  Fe  Fe38  1  -0.00301674  0.75396556  0.25019404  1
  Fe  Fe39  1  0.00037662  -0.00069671  0.50069779  1
  Fe  Fe40  1  0.62312988  0.12673755  0.12772867  1
  Fe  Fe41  1  0.12889733  0.37185308  0.88109603  1
  Fe  Fe42  1  0.50175472  0.49800501  0.75307084  1
  Fe  Fe43  1  0.12508287  0.87593780  0.87762110  1
  Fe  Fe44  1  0.37307609  0.37528111  0.37532583  1
  Fe  Fe45  1  0.75402555  0.24805086  -0.00070649  1
  Fe  Fe46  1  0.75114773  0.74714733  -0.00135775  1
  Fe  Fe47  1  0.75252133  0.74633532  0.25416961  1
  Fe  Fe48  1  -0.00151800  -0.00424899  0.24707165  1
  Fe  Fe49  1  0.37436820  0.62347420  0.62697509  1
  Fe  Fe50  1  -0.00387348  0.25149188  0.00353672  1
  Fe  Fe51  1  0.49698284  0.25108310  -0.00112464  1
  Fe  Fe52  1  0.00068462  0.25183370  0.74923636  1
  Fe  Fe53  1  0.87461736  0.87560347  0.87641454  1
  Fe  Fe54  1  0.37838105  0.12140700  0.12842139  1
  Fe  Fe55  1  0.24952173  0.00308820  0.49827652  1
  Fe  Fe56  1  0.25081961  0.74971069  -0.00043397  1
  Fe  Fe57  1  0.49748807  0.75434802  0.24874271  1
  Fe  Fe58  1  0.49914131  0.25297522  0.75128809  1
  Fe  Fe59  1  0.37428609  0.12350348  0.62712485  1
  Fe  Fe60  1  -0.00109413  0.75166882  0.74962537  1
  Fe  Fe61  1  0.24758990  0.24438980  0.75395472  1
  Fe  Fe62  1  0.87641328  0.62357496  0.12654609  1
  Fe  Fe63  1  0.12424542  0.12399656  0.12445424  1
  Fe  Fe64  1  0.75049157  0.00170280  0.24959450  1
  Fe  Fe65  1  0.25215581  0.75286709  0.24912103  1
  Fe  Fe66  1  0.25256662  -0.00173537  0.25231330  1
  Fe  Fe67  1  0.50084898  0.49714782  0.24962142  1
  Fe  Fe68  1  0.62365942  0.87032920  0.87517530  1
  Fe  Fe69  1  0.12350731  0.62904602  0.12622424  1
  Fe  Fe70  1  0.25197320  0.00231072  -0.00345274  1
  Fe  Fe71  1  0.25013581  0.75128516  0.75143325  1
  Fe  Fe72  1  0.24702853  0.74696353  0.50056665  1
  Fe  Fe73  1  0.37571788  0.62543537  0.37416805  1
  Fe  Fe74  1  0.00520749  0.50051301  0.50214598  1
  Fe  Fe75  1  0.24670296  0.50296382  0.49982762  1
  Fe  Fe76  1  0.24974704  0.24754934  0.49966675  1
  Fe  Fe77  1  0.62566277  0.37292897  0.37229808  1
  Fe  Fe78  1  0.87377324  0.87587210  0.62334163  1
  Fe  Fe79  1  0.62737326  0.87413158  0.12568333  1
  Fe  Fe80  1  0.75111907  0.24821635  0.49868401  1
  Fe  Fe81  1  -0.00070407  0.25207229  0.50153428  1
  Fe  Fe82  1  0.12154762  0.62659375  0.87530438  1
  Fe  Fe83  1  0.49886542  0.25005627  0.50123937  1
  Fe  Fe84  1  0.87758472  0.62260966  0.87541655  1
  Fe  Fe85  1  0.37976405  0.62821619  0.87531248  1
  Fe  Fe86  1  0.62719103  0.37382296  0.62469846  1
  Fe  Fe87  1  0.00216840  0.49558107  0.74882917  1
  Fe  Fe88  1  0.50107297  -0.00205101  -0.00054015  1
  Fe  Fe89  1  0.12584155  0.87526061  0.62479761  1
  Co  Co90  1  0.12268048  0.62687312  0.37070847  1
  Co  Co91  1  0.50006414  0.75130989  0.00330727  1
  Co  Co92  1  0.36990242  0.37537550  0.87674507  1
  Co  Co93  1  0.12739447  0.87585405  0.12334175  1
  Co  Co94  1  0.62330191  0.62777501  0.87406679  1
  Co  Co95  1  0.12366412  0.12520193  0.62320979  1
  Co  Co96  1  0.49597185  0.25543798  0.24701226  1
  Co  Co97  1  0.24804665  0.50767834  -0.00131909  1
  Co  Co98  1  0.24741067  0.00184751  0.75299011  1
  Co  Co99  1  -0.00088828  0.75134624  0.00061221  1
  Co  Co100  1  0.37429317  0.87304821  0.37935276  1
  Co  Co101  1  0.74618170  0.50477757  0.25236301  1
  Co  Co102  1  0.62544906  0.12648907  0.62839929  1
  Co  Co103  1  0.74857284  -0.00228792  0.75194072  1
  Co  Co104  1  0.88220556  0.62025708  0.37397395  1
  Co  Co105  1  0.49914669  -0.00515042  0.25177926  1
  Co  Co106  1  0.37703803  0.12694707  0.37308142  1
  Co  Co107  1  0.87611987  0.37633154  0.87654997  1
  Co  Co108  1  0.87047000  0.87305551  0.12443253  1
  Co  Co109  1  0.87658053  0.12396188  0.87300628  1
  Co  Co110  1  0.00031844  0.75018529  0.49995641  1
  Co  Co111  1  0.87533481  0.12356765  0.12586662  1
  Co  Co112  1  0.50084563  0.75109752  0.74590412  1
  Co  Co113  1  0.61835184  0.62758915  0.37426283  1
  Co  Co114  1  0.12970111  0.37364236  0.62567025  1
  Co  Co115  1  0.87271197  0.37715067  0.62247456  1
  Co  Co116  1  0.37974013  0.12263445  0.87202415  1
  Co  Co117  1  0.13186901  0.37159122  0.11942304  1
  Co  Co118  1  0.11914356  0.12552462  0.87983777  1
  Co  Co119  1  0.62777208  0.37201365  0.87609500  1
  Co  Co120  1  0.12399069  0.62617427  0.62844447  1
  Co  Co121  1  0.00562379  0.49555748  0.24414180  1
  Co  Co122  1  0.86861819  0.37882576  0.12733334  1
  Co  Co123  1  0.25544964  0.24121722  -0.00009656  1
  Co  Co124  1  0.37643108  0.87345052  0.87504327  1
  Co  Co125  1  0.75333875  0.24749730  0.25150157  1
  Co  Co126  1  0.87339010  0.87751661  0.37642346  1
  Co  Co127  1  0.37371893  0.87749699  0.12108086  1
