# generated using pymatgen
data_Fe45Co19
_symmetry_space_group_name_H-M   'P 1'
_cell_length_a   11.41514586
_cell_length_b   11.41470821
_cell_length_c   11.41578297
_cell_angle_alpha   89.99610848
_cell_angle_beta   89.99603567
_cell_angle_gamma   89.99604813
_symmetry_Int_Tables_number   1
_chemical_formula_structural   Fe45Co19
_chemical_formula_sum   'Fe90 Co38'
_cell_volume   1487.48289396
_cell_formula_units_Z   2
loop_
 _symmetry_equiv_pos_site_id
 _symmetry_equiv_pos_as_xyz
  1  'x, y, z'
loop_
 _atom_site_type_symbol
 _atom_site_label
 _atom_site_symmetry_multiplicity
 _atom_site_fract_x
 _atom_site_fract_y
 _atom_site_fract_z
 _atom_site_occupancy
  Fe  Fe0  1  0.50141234  0.25142110  0.75255752  1
  Fe  Fe1  1  0.75091484  -0.00300945  0.49972680  1
  Fe  Fe2  1  0.87547193  0.12475910  0.87617979  1
  Fe  Fe3  1  -0.00296202  0.74667665  -0.00179608  1
  Fe  Fe4  1  0.37671642  0.12426115  0.62339198  1
  Fe  Fe5  1  0.74946164  0.00097939  0.75123759  1
  Fe  Fe6  1  0.12411224  0.12540859  0.87687328  1
  Fe  Fe7  1  0.50041557  0.74981699  0.49876990  1
  Fe  Fe8  1  0.87623025  0.87180218  0.62878077  1
  Fe  Fe9  1  0.87480798  0.38005707  0.87169710  1
  Fe  Fe10  1  0.75059764  -0.00154195  -0.00078461  1
  Fe  Fe11  1  -0.00202107  0.49806395  0.50111448  1
  Fe  Fe12  1  0.12248854  0.62468639  0.62429637  1
  Fe  Fe13  1  0.62487781  0.12368112  0.37477082  1
  Fe  Fe14  1  0.50371582  0.74635373  0.24911913  1
  Fe  Fe15  1  0.75205908  0.50307702  0.50586935  1
  Fe  Fe16  1  0.87206707  0.87071401  0.12824749  1
  Fe  Fe17  1  -0.00060122  0.25151523  0.75096012  1
  Fe  Fe18  1  0.12526899  0.87523293  0.87688786  1
  Fe  Fe19  1  0.12551710  0.12597824  0.37400293  1
  Fe  Fe20  1  0.12157432  0.37965994  0.12515261  1
  Fe  Fe21  1  0.37249398  0.37903593  0.87498068  1
  Fe  Fe22  1  0.37276771  0.37414376  0.37439518  1
  Fe  Fe23  1  0.24768899  0.50215179  0.24770094  1
  Fe  Fe24  1  0.12431381  0.87751278  0.62531925  1
  Fe  Fe25  1  0.74965722  0.74956340  0.49954231  1
  Fe  Fe26  1  0.62443683  0.87354812  0.62693766  1
  Fe  Fe27  1  0.50216637  0.00067852  0.24780707  1
  Fe  Fe28  1  0.50168379  0.25190296  -0.00067168  1
  Fe  Fe29  1  0.87519121  0.87310774  0.87180309  1
  Fe  Fe30  1  -0.00046631  0.75217935  0.49996286  1
  Fe  Fe31  1  0.37578234  0.87395235  0.62570010  1
  Fe  Fe32  1  0.75720649  0.50590877  0.00124761  1
  Fe  Fe33  1  0.49914423  0.25123688  0.49866078  1
  Fe  Fe34  1  -0.00317575  -0.00135650  0.50031373  1
  Fe  Fe35  1  0.12255641  0.61931684  0.87603963  1
  Fe  Fe36  1  0.37232771  0.87286483  0.12603025  1
  Fe  Fe37  1  0.62814961  0.86813606  0.12098785  1
  Fe  Fe38  1  0.62472094  0.12451712  0.62478952  1
  Fe  Fe39  1  0.62577801  0.87441524  0.37426843  1
  Fe  Fe40  1  0.74808087  0.25116055  0.75286076  1
  Fe  Fe41  1  0.12502450  0.37947234  0.87645376  1
  Fe  Fe42  1  0.37476879  0.37636338  0.12582908  1
  Fe  Fe43  1  0.25139144  0.25204776  0.74872107  1
  Fe  Fe44  1  0.63047571  0.12801939  0.12199312  1
  Fe  Fe45  1  0.74908321  0.50511639  0.24823795  1
  Fe  Fe46  1  0.37566667  0.87534623  0.37186264  1
  Fe  Fe47  1  0.74722468  0.74360540  0.75312568  1
  Fe  Fe48  1  0.12516970  0.87614908  0.37475864  1
  Fe  Fe49  1  0.37408925  0.12416294  0.12439637  1
  Fe  Fe50  1  -0.00437228  0.25332893  0.00207145  1
  Fe  Fe51  1  0.12368361  0.12429298  0.62541848  1
  Fe  Fe52  1  -0.00078461  -0.00124810  0.24750703  1
  Fe  Fe53  1  0.12470218  0.37314355  0.62321404  1
  Fe  Fe54  1  0.49578528  0.50462779  0.00205873  1
  Fe  Fe55  1  0.37418314  0.87358788  0.87660557  1
  Fe  Fe56  1  0.25028869  0.75009964  0.49911404  1
  Fe  Fe57  1  0.50304878  0.25151080  0.24888237  1
  Fe  Fe58  1  -0.00181987  -0.00151795  0.00086433  1
  Fe  Fe59  1  0.25108395  0.49863174  0.50182331  1
  Fe  Fe60  1  0.00223806  0.74883708  0.25176342  1
  Fe  Fe61  1  0.24688192  0.74790333  0.75017273  1
  Fe  Fe62  1  0.62717930  0.37782731  0.37580091  1
  Fe  Fe63  1  0.87346627  0.37716615  0.37314915  1
  Fe  Fe64  1  0.37582580  0.62572867  0.62704231  1
  Fe  Fe65  1  0.87511733  0.12649980  0.62622188  1
  Fe  Fe66  1  0.87483498  0.62651513  0.37555297  1
  Fe  Fe67  1  0.62957083  0.37588803  0.12216318  1
  Fe  Fe68  1  0.24923174  0.25290132  0.00127496  1
  Fe  Fe69  1  0.50172379  -0.00200607  0.00033431  1
  Fe  Fe70  1  0.62539810  0.37524127  0.62443148  1
  Fe  Fe71  1  0.12443748  0.12409888  0.12309523  1
  Fe  Fe72  1  0.37535373  0.12532879  0.87778758  1
  Fe  Fe73  1  0.50198649  0.50178723  0.74986981  1
  Fe  Fe74  1  -0.00318730  0.25194929  0.24875083  1
  Fe  Fe75  1  0.50205276  0.74751402  0.75487636  1
  Fe  Fe76  1  0.37532969  0.62455164  0.37262816  1
  Fe  Fe77  1  0.24953356  0.24985979  0.24880245  1
  Fe  Fe78  1  0.24944683  0.00013860  0.75276227  1
  Fe  Fe79  1  0.62765246  0.38015216  0.87736435  1
  Fe  Fe80  1  0.49919587  0.50022000  0.50014611  1
  Fe  Fe81  1  0.50354802  0.50108634  0.24823927  1
  Fe  Fe82  1  0.75022017  0.24998695  0.49823226  1
  Fe  Fe83  1  0.87321248  0.12235621  0.37137103  1
  Fe  Fe84  1  0.12746510  0.87286436  0.12436104  1
  Fe  Fe85  1  0.12460414  0.62317168  0.37546636  1
  Fe  Fe86  1  -0.00109520  0.25143484  0.49738039  1
  Fe  Fe87  1  0.50152148  -0.00058304  0.75245091  1
  Fe  Fe88  1  0.25176127  0.74382435  0.00122562  1
  Fe  Fe89  1  0.25239813  0.00114035  0.49680737  1
  Co  Co90  1  0.37261919  0.62247999  0.87182927  1
  Co  Co91  1  0.87257921  0.37569552  0.12828718  1
  Co  Co92  1  0.62590518  0.87304263  0.87673538  1
  Co  Co93  1  0.24924998  0.00043163  0.25063918  1
  Co  Co94  1  0.74748525  -0.00177434  0.24884655  1
  Co  Co95  1  -0.00025191  -0.00040626  0.75158536  1
  Co  Co96  1  -0.00120937  0.50102360  0.25134618  1
  Co  Co97  1  0.87454583  0.87377855  0.37155930  1
  Co  Co98  1  0.62620003  0.62788192  0.11948440  1
  Co  Co99  1  0.50102377  -0.00237721  0.49952911  1
  Co  Co100  1  0.87366813  0.37146340  0.62520785  1
  Co  Co101  1  0.87880187  0.62945390  0.62702103  1
  Co  Co102  1  0.37720724  0.12664313  0.37350445  1
  Co  Co103  1  0.24688060  0.74798592  0.25148979  1
  Co  Co104  1  0.24947651  -0.00008937  -0.00032993  1
  Co  Co105  1  0.62501805  0.12452143  0.87760786  1
  Co  Co106  1  -0.00005024  0.49732888  0.74475286  1
  Co  Co107  1  0.49555329  0.74781284  -0.00161001  1
  Co  Co108  1  0.75344391  0.25258641  -0.00302538  1
  Co  Co109  1  0.25055456  0.24966600  0.50132585  1
  Co  Co110  1  0.74678904  0.74595320  0.25232654  1
  Co  Co111  1  0.12123678  0.62409728  0.12406896  1
  Co  Co112  1  0.74875134  0.50332548  0.74516023  1
  Co  Co113  1  0.75614425  0.74550125  -0.00470493  1
  Co  Co114  1  0.37743064  0.37582043  0.62537351  1
  Co  Co115  1  0.87712078  0.62923477  0.12945585  1
  Co  Co116  1  0.62195301  0.62639008  0.62325119  1
  Co  Co117  1  0.87994256  0.62250075  0.86804414  1
  Co  Co118  1  0.37581719  0.62636209  0.12954876  1
  Co  Co119  1  0.00552302  0.75048805  0.75143661  1
  Co  Co120  1  0.62509271  0.62252435  0.88041297  1
  Co  Co121  1  0.74965279  0.25146910  0.25152379  1
  Co  Co122  1  0.62507623  0.62320771  0.37824584  1
  Co  Co123  1  0.25150410  0.50199871  0.00410972  1
  Co  Co124  1  -0.00509501  0.50068292  0.00260328  1
  Co  Co125  1  0.24790158  0.49951256  0.74620224  1
  Co  Co126  1  0.12628619  0.37524639  0.37392639  1
  Co  Co127  1  0.87194394  0.12484176  0.12503507  1
