# generated using pymatgen
data_Fe45Co19
_symmetry_space_group_name_H-M   'P 1'
_cell_length_a   11.41561201
_cell_length_b   11.41461110
_cell_length_c   11.41588414
_cell_angle_alpha   89.99264975
_cell_angle_beta   90.00602683
_cell_angle_gamma   90.01353402
_symmetry_Int_Tables_number   1
_chemical_formula_structural   Fe45Co19
_chemical_formula_sum   'Fe90 Co38'
_cell_volume   1487.54411273
_cell_formula_units_Z   2
loop_
 _symmetry_equiv_pos_site_id
 _symmetry_equiv_pos_as_xyz
  1  'x, y, z'
loop_
 _atom_site_type_symbol
 _atom_site_label
 _atom_site_symmetry_multiplicity
 _atom_site_fract_x
 _atom_site_fract_y
 _atom_site_fract_z
 _atom_site_occupancy
  Fe  Fe0  1  0.50046770  0.50077180  -0.00463047  1
  Fe  Fe1  1  0.00050463  -0.00124728  -0.00321965  1
  Fe  Fe2  1  0.87382936  0.12319198  0.37860594  1
  Fe  Fe3  1  0.87629039  0.37266032  0.87648792  1
  Fe  Fe4  1  0.49908106  0.25061408  0.74974624  1
  Fe  Fe5  1  0.74837599  0.75197332  0.50434477  1
  Fe  Fe6  1  0.74967983  0.49943842  0.50251377  1
  Fe  Fe7  1  0.62548885  0.62463379  0.37510425  1
  Fe  Fe8  1  0.12624606  0.12562878  0.87274990  1
  Fe  Fe9  1  0.37515889  0.12544631  0.37627445  1
  Fe  Fe10  1  0.37413549  0.37577743  0.62587149  1
  Fe  Fe11  1  0.25185645  -0.00223008  0.75234135  1
  Fe  Fe12  1  0.62386948  0.87728929  0.12486743  1
  Fe  Fe13  1  0.62531577  0.12367900  0.62565963  1
  Fe  Fe14  1  -0.00305276  0.75131502  0.24848003  1
  Fe  Fe15  1  0.37759946  0.12532217  0.12100569  1
  Fe  Fe16  1  0.50189802  0.25123633  0.24886902  1
  Fe  Fe17  1  0.00001654  0.74970624  0.50003981  1
  Fe  Fe18  1  0.37565653  0.37429343  0.12232303  1
  Fe  Fe19  1  0.62581968  0.37502760  0.87242323  1
  Fe  Fe20  1  0.25188710  0.74881386  0.24887033  1
  Fe  Fe21  1  0.62416634  0.62366657  0.12348768  1
  Fe  Fe22  1  0.75005855  0.00078786  -0.00038897  1
  Fe  Fe23  1  0.00062146  0.50233127  0.75479873  1
  Fe  Fe24  1  0.24870457  -0.00045323  0.50031243  1
  Fe  Fe25  1  0.75084467  0.75168708  0.24833277  1
  Fe  Fe26  1  0.50276126  0.49854959  0.50147382  1
  Fe  Fe27  1  0.24417112  0.24998661  0.50238829  1
  Fe  Fe28  1  0.75031796  0.49877113  0.24982057  1
  Fe  Fe29  1  0.25111610  -0.00272985  -0.00266629  1
  Fe  Fe30  1  0.49954380  0.74917937  0.25048207  1
  Fe  Fe31  1  0.12298787  0.87462271  0.12407477  1
  Fe  Fe32  1  0.75293093  0.00152518  0.74799105  1
  Fe  Fe33  1  0.62379274  0.12449306  0.12217795  1
  Fe  Fe34  1  0.37582406  0.62563289  0.12238728  1
  Fe  Fe35  1  0.62486694  0.87908296  0.37427704  1
  Fe  Fe36  1  0.12230161  0.87793198  0.62844164  1
  Fe  Fe37  1  0.25302656  -0.00066402  0.24883246  1
  Fe  Fe38  1  0.12263426  0.62311881  0.62584392  1
  Fe  Fe39  1  0.87287633  0.87734667  0.37634593  1
  Fe  Fe40  1  0.12504774  0.12254834  0.12559736  1
  Fe  Fe41  1  -0.00094362  0.74724483  0.75356288  1
  Fe  Fe42  1  0.62561293  0.62402634  0.63009959  1
  Fe  Fe43  1  0.24693132  0.49966089  0.49883158  1
  Fe  Fe44  1  0.75023540  0.49815896  -0.00078225  1
  Fe  Fe45  1  0.50156577  0.75059025  0.50104719  1
  Fe  Fe46  1  0.37379213  0.12789711  0.87663663  1
  Fe  Fe47  1  0.87689541  0.87603803  0.62594874  1
  Fe  Fe48  1  0.50037475  0.74813899  0.75161699  1
  Fe  Fe49  1  0.00187835  0.24998521  -0.00022737  1
  Fe  Fe50  1  0.12234452  0.62693085  0.12076107  1
  Fe  Fe51  1  0.00006440  0.24610072  0.74848531  1
  Fe  Fe52  1  0.75341611  0.24846174  0.74851540  1
  Fe  Fe53  1  0.12439269  0.62585086  0.37375819  1
  Fe  Fe54  1  0.75409006  0.50176230  0.75021219  1
  Fe  Fe55  1  0.87861348  0.37569916  0.62391065  1
  Fe  Fe56  1  0.37460046  0.37514570  0.37607882  1
  Fe  Fe57  1  0.74941341  0.74965384  -0.00111638  1
  Fe  Fe58  1  0.24903809  0.74957737  0.50191090  1
  Fe  Fe59  1  0.49869690  0.00117255  0.75229204  1
  Fe  Fe60  1  0.62706109  0.12734950  0.87553942  1
  Fe  Fe61  1  0.37921599  0.87492358  0.12153523  1
  Fe  Fe62  1  0.24621669  0.49833134  -0.00184571  1
  Fe  Fe63  1  0.37618500  0.87478039  0.37577837  1
  Fe  Fe64  1  0.87376477  0.62545739  0.37700435  1
  Fe  Fe65  1  0.37722648  0.87500857  0.62646105  1
  Fe  Fe66  1  0.24836618  0.49981447  0.75196207  1
  Fe  Fe67  1  0.87582005  0.37446863  0.37656700  1
  Fe  Fe68  1  0.00634828  0.24809915  0.50073847  1
  Fe  Fe69  1  0.50008045  0.49938536  0.25136393  1
  Fe  Fe70  1  0.50233465  0.25184049  0.50242612  1
  Fe  Fe71  1  0.37539973  0.62425865  0.62524180  1
  Fe  Fe72  1  0.74779727  0.24972146  0.24899523  1
  Fe  Fe73  1  0.62494675  0.87396500  0.87305911  1
  Fe  Fe74  1  0.25029659  0.50194598  0.25069067  1
  Fe  Fe75  1  0.74770132  0.25181482  0.50222253  1
  Fe  Fe76  1  0.37369986  0.12466209  0.62495629  1
  Fe  Fe77  1  0.87392336  0.12468700  0.12198366  1
  Fe  Fe78  1  0.12519084  0.87586889  0.37331681  1
  Fe  Fe79  1  0.24940973  0.24922623  0.24916681  1
  Fe  Fe80  1  0.87517192  0.37400131  0.12409569  1
  Fe  Fe81  1  0.37184487  0.37106977  0.87550509  1
  Fe  Fe82  1  0.00084912  0.24824609  0.25143796  1
  Fe  Fe83  1  0.87687997  0.62545860  0.12079860  1
  Fe  Fe84  1  0.62457019  0.12215923  0.37652844  1
  Fe  Fe85  1  0.12493213  0.37471730  0.12574222  1
  Fe  Fe86  1  0.37071298  0.63016256  0.87551655  1
  Fe  Fe87  1  -0.00369715  -0.00055137  0.25049817  1
  Fe  Fe88  1  -0.00108336  0.50046019  0.25033544  1
  Fe  Fe89  1  0.87491839  0.87521853  0.87524201  1
  Co  Co90  1  0.49998171  -0.00000158  -0.00435615  1
  Co  Co91  1  0.87587448  0.62493556  0.62441521  1
  Co  Co92  1  0.74895552  0.25237965  0.00064413  1
  Co  Co93  1  0.62548719  0.37583014  0.37412075  1
  Co  Co94  1  0.87587123  0.12470832  0.62053965  1
  Co  Co95  1  0.12296233  0.37765886  0.62838434  1
  Co  Co96  1  -0.00125415  0.75261279  -0.00280412  1
  Co  Co97  1  0.50269426  0.74862347  -0.00163961  1
  Co  Co98  1  0.12468767  0.37080135  0.87286097  1
  Co  Co99  1  0.62398386  0.37728837  0.12393350  1
  Co  Co100  1  0.50221929  0.25192721  -0.00172620  1
  Co  Co101  1  0.49585678  0.49986677  0.75373684  1
  Co  Co102  1  0.49899718  0.00127402  0.24992650  1
  Co  Co103  1  0.37559371  0.87019123  0.87435630  1
  Co  Co104  1  0.12602186  0.11977258  0.62899859  1
  Co  Co105  1  0.74866052  -0.00242008  0.50422018  1
  Co  Co106  1  0.12742840  0.62882155  0.87805940  1
  Co  Co107  1  0.62762329  0.62451644  0.87191842  1
  Co  Co108  1  0.87412543  0.12614342  0.87852913  1
  Co  Co109  1  0.87434434  0.87582639  0.12208436  1
  Co  Co110  1  0.24707809  0.24886156  0.00152586  1
  Co  Co111  1  0.00199088  0.00083398  0.49916121  1
  Co  Co112  1  0.37561731  0.62473128  0.37719819  1
  Co  Co113  1  0.87420440  0.62510607  0.87917243  1
  Co  Co114  1  0.75120426  0.00208771  0.24836120  1
  Co  Co115  1  0.62244897  0.87581578  0.62970928  1
  Co  Co116  1  0.24942322  0.75396561  0.00238955  1
  Co  Co117  1  0.00218912  0.49711424  -0.00260450  1
  Co  Co118  1  0.49965419  0.00018207  0.50114010  1
  Co  Co119  1  0.62553811  0.37639215  0.63085887  1
  Co  Co120  1  0.12519203  0.37554446  0.37213643  1
  Co  Co121  1  0.00089676  0.50045309  0.49795520  1
  Co  Co122  1  0.12529176  0.87330900  0.87249917  1
  Co  Co123  1  0.24814342  0.74976261  0.74585252  1
  Co  Co124  1  0.12665576  0.12196753  0.37201400  1
  Co  Co125  1  0.24954322  0.25045493  0.74686856  1
  Co  Co126  1  0.75276828  0.75024841  0.74969606  1
  Co  Co127  1  -0.00377091  0.00300937  0.75271947  1
