# generated using pymatgen
data_Fe45Co19
_symmetry_space_group_name_H-M   'P 1'
_cell_length_a   11.41484970
_cell_length_b   11.41540655
_cell_length_c   11.41510111
_cell_angle_alpha   89.99218732
_cell_angle_beta   90.00184626
_cell_angle_gamma   89.99124798
_symmetry_Int_Tables_number   1
_chemical_formula_structural   Fe45Co19
_chemical_formula_sum   'Fe90 Co38'
_cell_volume   1487.44643106
_cell_formula_units_Z   2
loop_
 _symmetry_equiv_pos_site_id
 _symmetry_equiv_pos_as_xyz
  1  'x, y, z'
loop_
 _atom_site_type_symbol
 _atom_site_label
 _atom_site_symmetry_multiplicity
 _atom_site_fract_x
 _atom_site_fract_y
 _atom_site_fract_z
 _atom_site_occupancy
  Fe  Fe0  1  0.87807598  0.12374537  0.12853524  1
  Fe  Fe1  1  0.49989954  0.24880657  -0.00039777  1
  Fe  Fe2  1  0.49970804  0.25326657  0.25067108  1
  Fe  Fe3  1  -0.00041381  0.24565817  -0.00187262  1
  Fe  Fe4  1  0.37569794  0.62640584  0.12128698  1
  Fe  Fe5  1  0.37131307  0.37272523  0.87426829  1
  Fe  Fe6  1  0.87583106  0.62288399  0.62779955  1
  Fe  Fe7  1  0.24855006  0.74886842  0.24859062  1
  Fe  Fe8  1  0.88134792  0.12968743  0.62605345  1
  Fe  Fe9  1  0.12312608  0.12193021  0.12648988  1
  Fe  Fe10  1  0.74811147  0.24854765  0.74747906  1
  Fe  Fe11  1  0.49905896  -0.00186950  0.25392239  1
  Fe  Fe12  1  0.49852623  0.49694040  0.24930966  1
  Fe  Fe13  1  0.74947146  0.50047745  0.75149531  1
  Fe  Fe14  1  0.24630216  0.00195452  0.74470076  1
  Fe  Fe15  1  0.75251703  0.75157714  0.25063295  1
  Fe  Fe16  1  0.62321592  0.12896172  0.37708929  1
  Fe  Fe17  1  0.87243849  0.37136266  0.87584390  1
  Fe  Fe18  1  0.87582155  0.62530323  0.12515288  1
  Fe  Fe19  1  0.12351589  0.87869267  0.12566883  1
  Fe  Fe20  1  0.49982085  0.75178458  0.50174365  1
  Fe  Fe21  1  -0.00097635  0.49695002  0.50269952  1
  Fe  Fe22  1  0.37376696  0.87489583  0.12645599  1
  Fe  Fe23  1  -0.00208158  0.75342742  0.25052303  1
  Fe  Fe24  1  0.24933351  0.24854473  0.24968088  1
  Fe  Fe25  1  0.12633977  0.37551618  0.12192647  1
  Fe  Fe26  1  0.62737067  0.37328984  0.87798389  1
  Fe  Fe27  1  0.25087072  0.24504503  0.50549758  1
  Fe  Fe28  1  0.37384335  0.87003214  0.87337570  1
  Fe  Fe29  1  0.50262910  -0.00548173  0.74963143  1
  Fe  Fe30  1  0.37462973  0.62543779  0.37323122  1
  Fe  Fe31  1  -0.00199591  0.49956587  -0.00232796  1
  Fe  Fe32  1  0.00339713  0.49498723  0.75105730  1
  Fe  Fe33  1  0.74691601  0.75059484  0.75005891  1
  Fe  Fe34  1  0.87779237  0.62613216  0.87273923  1
  Fe  Fe35  1  0.37452137  0.12445175  0.87041193  1
  Fe  Fe36  1  0.62500775  0.62217966  0.12283861  1
  Fe  Fe37  1  0.00186690  0.75355420  0.74761748  1
  Fe  Fe38  1  0.62724474  0.87394954  0.37776944  1
  Fe  Fe39  1  0.87622965  0.62407336  0.37517172  1
  Fe  Fe40  1  0.62419174  0.12458517  0.87418221  1
  Fe  Fe41  1  0.37400187  0.62469446  0.63065426  1
  Fe  Fe42  1  0.87091070  0.37375331  0.37896375  1
  Fe  Fe43  1  0.25055008  -0.00023162  -0.00074672  1
  Fe  Fe44  1  0.24905984  0.74809829  0.50191269  1
  Fe  Fe45  1  0.00055910  0.75318646  0.00052417  1
  Fe  Fe46  1  0.62769260  0.37589807  0.12114821  1
  Fe  Fe47  1  0.74957629  0.74888628  -0.00096693  1
  Fe  Fe48  1  0.12571217  0.87440015  0.37669739  1
  Fe  Fe49  1  0.49865669  -0.00147923  -0.00164570  1
  Fe  Fe50  1  0.12281197  0.62373227  0.12484490  1
  Fe  Fe51  1  0.12524196  0.62254876  0.37396470  1
  Fe  Fe52  1  -0.00004964  0.00011743  0.49964784  1
  Fe  Fe53  1  0.62434694  0.62221273  0.37557757  1
  Fe  Fe54  1  0.75437089  -0.00114758  0.25373029  1
  Fe  Fe55  1  0.49858071  0.49869630  0.75269016  1
  Fe  Fe56  1  0.12434602  0.87671985  0.87364303  1
  Fe  Fe57  1  0.00105372  0.74748482  0.50146272  1
  Fe  Fe58  1  0.62681726  0.37613750  0.62186937  1
  Fe  Fe59  1  0.87436323  0.87631266  0.87390576  1
  Fe  Fe60  1  0.37098627  0.37569163  0.37564711  1
  Fe  Fe61  1  0.75375161  0.00430341  -0.00193281  1
  Fe  Fe62  1  0.75080948  0.25048673  0.24929548  1
  Fe  Fe63  1  0.62763302  0.87792875  0.12397125  1
  Fe  Fe64  1  0.25046038  0.00098896  0.25385650  1
  Fe  Fe65  1  0.37306538  0.87708492  0.62220737  1
  Fe  Fe66  1  0.75084067  0.74588912  0.50073252  1
  Fe  Fe67  1  0.87422422  0.87417795  0.62270547  1
  Fe  Fe68  1  0.49883189  0.25134909  0.74807824  1
  Fe  Fe69  1  0.37143533  0.37441357  0.12219123  1
  Fe  Fe70  1  0.12205053  0.12530790  0.37603891  1
  Fe  Fe71  1  0.61879349  0.12458057  0.62241107  1
  Fe  Fe72  1  0.50119942  0.75155738  0.24878143  1
  Fe  Fe73  1  0.62331896  0.12355445  0.12606285  1
  Fe  Fe74  1  0.37609140  0.12436798  0.12588002  1
  Fe  Fe75  1  0.12628067  0.62178745  0.62813051  1
  Fe  Fe76  1  0.24881106  0.24439782  -0.00217811  1
  Fe  Fe77  1  0.61929697  0.62664777  0.87626011  1
  Fe  Fe78  1  0.36902929  0.37670463  0.62812424  1
  Fe  Fe79  1  0.00683494  0.25324833  0.75130900  1
  Fe  Fe80  1  0.75143920  0.49866021  0.24941430  1
  Fe  Fe81  1  0.13003662  0.37699219  0.37801735  1
  Fe  Fe82  1  0.25007777  0.50589706  -0.00573082  1
  Fe  Fe83  1  0.62374445  0.62401370  0.62549052  1
  Fe  Fe84  1  0.49819367  0.49787379  0.49935368  1
  Fe  Fe85  1  -0.00063164  0.49612590  0.25030953  1
  Fe  Fe86  1  0.00034666  0.25329495  0.25156206  1
  Fe  Fe87  1  0.75093937  0.00152060  0.74773147  1
  Fe  Fe88  1  0.37773223  0.12468690  0.37836609  1
  Fe  Fe89  1  0.75221175  0.00476234  0.50028205  1
  Co  Co90  1  0.87429490  0.87621295  0.12223789  1
  Co  Co91  1  0.50060887  -0.00408997  0.49758022  1
  Co  Co92  1  0.49772150  0.49709539  -0.00175852  1
  Co  Co93  1  0.75024294  0.24705451  0.50356760  1
  Co  Co94  1  0.87404536  0.37345833  0.62791864  1
  Co  Co95  1  0.37220541  0.87262135  0.37596479  1
  Co  Co96  1  0.24631647  0.75029425  0.00014545  1
  Co  Co97  1  0.75265650  0.50307401  -0.00332875  1
  Co  Co98  1  0.50319905  0.75539179  0.74585892  1
  Co  Co99  1  0.25032848  0.50127696  0.24684591  1
  Co  Co100  1  0.24706687  0.24612464  0.74771253  1
  Co  Co101  1  -0.00239956  -0.00338075  0.25350834  1
  Co  Co102  1  0.87492101  0.37384164  0.12132391  1
  Co  Co103  1  0.12789897  0.37340842  0.87963286  1
  Co  Co104  1  0.13083317  0.37649398  0.62327595  1
  Co  Co105  1  0.38003774  0.63240470  0.87401244  1
  Co  Co106  1  0.12078493  0.62909572  0.87284469  1
  Co  Co107  1  -0.00078121  -0.00233533  0.74856503  1
  Co  Co108  1  0.12424393  0.87560555  0.62193265  1
  Co  Co109  1  0.24765171  0.00335288  0.50041787  1
  Co  Co110  1  0.75082005  0.24407790  0.00145094  1
  Co  Co111  1  0.38046820  0.12142799  0.62583941  1
  Co  Co112  1  0.62824784  0.87648451  0.87645151  1
  Co  Co113  1  0.87625833  0.12728099  0.86938204  1
  Co  Co114  1  0.11914078  0.12571875  0.62469775  1
  Co  Co115  1  0.24728292  0.74993882  0.74893480  1
  Co  Co116  1  0.24829723  0.50306808  0.75761727  1
  Co  Co117  1  0.49719918  0.25542805  0.50137106  1
  Co  Co118  1  0.62840519  0.37492445  0.37747780  1
  Co  Co119  1  0.25159313  0.50448102  0.50071102  1
  Co  Co120  1  0.75205738  0.50208265  0.50264430  1
  Co  Co121  1  0.50207762  0.75501990  0.00283386  1
  Co  Co122  1  0.12556423  0.12067148  0.87344815  1
  Co  Co123  1  0.87517742  0.87320099  0.38074530  1
  Co  Co124  1  -0.00203908  0.00195134  -0.00242020  1
  Co  Co125  1  0.62971777  0.87611517  0.62134003  1
  Co  Co126  1  0.87736891  0.12780789  0.37514746  1
  Co  Co127  1  0.00121490  0.25556070  0.49883506  1
