# generated using pymatgen
data_Fe45Co19
_symmetry_space_group_name_H-M   'P 1'
_cell_length_a   11.41511442
_cell_length_b   11.41605940
_cell_length_c   11.41475525
_cell_angle_alpha   89.99196313
_cell_angle_beta   90.00283238
_cell_angle_gamma   90.00249283
_symmetry_Int_Tables_number   1
_chemical_formula_structural   Fe45Co19
_chemical_formula_sum   'Fe90 Co38'
_cell_volume   1487.52093860
_cell_formula_units_Z   2
loop_
 _symmetry_equiv_pos_site_id
 _symmetry_equiv_pos_as_xyz
  1  'x, y, z'
loop_
 _atom_site_type_symbol
 _atom_site_label
 _atom_site_symmetry_multiplicity
 _atom_site_fract_x
 _atom_site_fract_y
 _atom_site_fract_z
 _atom_site_occupancy
  Fe  Fe0  1  0.74885179  0.50108137  0.74928176  1
  Fe  Fe1  1  0.87228205  0.37637012  0.12765257  1
  Fe  Fe2  1  0.62392996  0.62580202  0.87719331  1
  Fe  Fe3  1  0.00068860  0.25126094  0.24894768  1
  Fe  Fe4  1  0.24994932  0.24844727  0.49903706  1
  Fe  Fe5  1  0.75241333  0.00051760  0.49934016  1
  Fe  Fe6  1  0.00124202  -0.00096000  0.75627526  1
  Fe  Fe7  1  0.12713578  0.37579833  0.87800214  1
  Fe  Fe8  1  0.12785789  0.37677375  0.12609272  1
  Fe  Fe9  1  0.12529688  0.87432174  0.12283840  1
  Fe  Fe10  1  0.38102777  0.62534502  0.37211145  1
  Fe  Fe11  1  0.38389158  0.12410224  0.12930039  1
  Fe  Fe12  1  0.12328849  0.12528410  0.62514612  1
  Fe  Fe13  1  0.87890294  0.62724656  0.62443796  1
  Fe  Fe14  1  0.62358135  0.12551699  0.87783175  1
  Fe  Fe15  1  0.00281944  0.50351200  0.75175514  1
  Fe  Fe16  1  -0.00205576  0.74918928  -0.00462743  1
  Fe  Fe17  1  0.87545923  0.12509862  0.62638825  1
  Fe  Fe18  1  0.61869763  0.62293892  0.12466391  1
  Fe  Fe19  1  0.50163571  0.25104725  0.75011421  1
  Fe  Fe20  1  0.74908361  0.24928490  0.00204988  1
  Fe  Fe21  1  0.25051992  0.00018295  0.50011334  1
  Fe  Fe22  1  0.50147469  0.49975531  0.74884449  1
  Fe  Fe23  1  0.37380432  0.87257562  0.87340306  1
  Fe  Fe24  1  0.62401665  0.37628375  0.87823057  1
  Fe  Fe25  1  0.12261508  0.87102403  0.62412899  1
  Fe  Fe26  1  0.74971164  0.00137578  0.75188272  1
  Fe  Fe27  1  0.00079158  0.50006810  0.25047232  1
  Fe  Fe28  1  0.50207495  0.75066850  0.74917856  1
  Fe  Fe29  1  0.25289900  0.24951552  0.00378347  1
  Fe  Fe30  1  0.62503916  0.86994926  0.37754558  1
  Fe  Fe31  1  0.37383525  0.37581347  0.62593958  1
  Fe  Fe32  1  0.37550476  0.12553923  0.87429415  1
  Fe  Fe33  1  0.12513246  0.12442037  0.37230600  1
  Fe  Fe34  1  -0.00255774  0.24956260  0.49751799  1
  Fe  Fe35  1  0.75047890  0.00043623  0.00028420  1
  Fe  Fe36  1  0.49933303  0.25274472  0.49747383  1
  Fe  Fe37  1  0.87511605  0.87363633  0.12450935  1
  Fe  Fe38  1  0.49871473  -0.00279047  0.49953177  1
  Fe  Fe39  1  0.37321413  0.37429799  0.37059888  1
  Fe  Fe40  1  -0.00122584  0.49944549  0.49750542  1
  Fe  Fe41  1  0.00053100  0.25051000  0.75347984  1
  Fe  Fe42  1  0.87551054  0.12507630  0.12693895  1
  Fe  Fe43  1  0.62351641  0.62642863  0.62008977  1
  Fe  Fe44  1  0.50088321  -0.00149355  0.75114800  1
  Fe  Fe45  1  0.37232874  0.87385533  0.62692900  1
  Fe  Fe46  1  0.87331237  0.37597170  0.87553875  1
  Fe  Fe47  1  0.87703570  0.87284418  0.62751554  1
  Fe  Fe48  1  0.37654168  0.12481951  0.62410569  1
  Fe  Fe49  1  0.25608953  0.50305420  0.00099969  1
  Fe  Fe50  1  0.87376861  0.87323778  0.37222881  1
  Fe  Fe51  1  0.74983715  0.50202180  0.00201447  1
  Fe  Fe52  1  -0.00166742  0.49878979  0.00074115  1
  Fe  Fe53  1  0.25232832  0.00114176  0.00086231  1
  Fe  Fe54  1  0.86987084  0.37529461  0.37259356  1
  Fe  Fe55  1  0.62665289  0.87240809  0.87769404  1
  Fe  Fe56  1  0.74786692  -0.00016929  0.24930204  1
  Fe  Fe57  1  0.37788076  0.37814101  0.12951924  1
  Fe  Fe58  1  0.25586006  0.74610618  0.00134191  1
  Fe  Fe59  1  0.00139834  0.75055413  0.25003821  1
  Fe  Fe60  1  0.74867797  0.25056667  0.74959437  1
  Fe  Fe61  1  0.12514881  0.37653745  0.62370149  1
  Fe  Fe62  1  0.24882707  0.25053852  0.74946625  1
  Fe  Fe63  1  0.24380964  0.74567156  0.75092910  1
  Fe  Fe64  1  0.62740401  0.87408719  0.62297717  1
  Fe  Fe65  1  0.25067332  0.00165040  0.24880754  1
  Fe  Fe66  1  0.24729549  0.00098746  0.75063765  1
  Fe  Fe67  1  0.74314771  0.25162481  0.24785727  1
  Fe  Fe68  1  0.62228699  0.87573707  0.12273691  1
  Fe  Fe69  1  0.37801992  0.87584693  0.12636868  1
  Fe  Fe70  1  0.25089733  0.74750642  0.24913580  1
  Fe  Fe71  1  0.62409803  0.12548291  0.37550151  1
  Fe  Fe72  1  0.25140957  0.50133002  0.49869458  1
  Fe  Fe73  1  -0.00209535  -0.00025163  0.49649408  1
  Fe  Fe74  1  0.12704831  0.87482879  0.37376808  1
  Fe  Fe75  1  0.37485747  0.87446810  0.37369247  1
  Fe  Fe76  1  0.87551629  0.62456610  0.12632836  1
  Fe  Fe77  1  0.37572140  0.37633280  0.87299347  1
  Fe  Fe78  1  0.12268271  0.12461275  0.12435773  1
  Fe  Fe79  1  0.74726161  0.74543420  0.24998424  1
  Fe  Fe80  1  0.62366671  0.12512176  0.62324718  1
  Fe  Fe81  1  0.87374549  0.37564275  0.62458694  1
  Fe  Fe82  1  0.62668732  0.37550015  0.62053179  1
  Fe  Fe83  1  0.12530357  0.62456749  0.12347951  1
  Fe  Fe84  1  -0.00129830  0.00018915  -0.00296959  1
  Fe  Fe85  1  0.75169580  0.74834670  0.75027308  1
  Fe  Fe86  1  0.37388927  0.62470245  0.62656343  1
  Fe  Fe87  1  0.12411903  0.62624923  0.37687895  1
  Fe  Fe88  1  0.75082681  0.50537553  0.49688554  1
  Fe  Fe89  1  0.12794650  0.37434958  0.37237816  1
  Co  Co90  1  0.25262349  0.74892777  0.49816290  1
  Co  Co91  1  0.49576770  0.50216442  -0.00228452  1
  Co  Co92  1  0.24686519  0.50074003  0.74884770  1
  Co  Co93  1  0.12869543  0.87416353  0.87845523  1
  Co  Co94  1  0.49833584  0.25144564  0.00129323  1
  Co  Co95  1  0.87115281  0.87305498  0.87539251  1
  Co  Co96  1  -0.00190592  0.75253592  0.49679253  1
  Co  Co97  1  0.24854577  0.50474573  0.25079641  1
  Co  Co98  1  0.61849873  0.62786606  0.37810237  1
  Co  Co99  1  0.49705521  0.49801765  0.50086689  1
  Co  Co100  1  0.12715144  0.62215558  0.88070895  1
  Co  Co101  1  0.49710267  0.74941834  0.00020804  1
  Co  Co102  1  0.12339541  0.62572018  0.61951059  1
  Co  Co103  1  0.62060603  0.12180761  0.12401915  1
  Co  Co104  1  0.74506248  0.50359106  0.25027730  1
  Co  Co105  1  0.87323831  0.12622790  0.36996128  1
  Co  Co106  1  0.62931590  0.37728062  0.38055736  1
  Co  Co107  1  0.75327053  0.74867042  0.49902926  1
  Co  Co108  1  0.62289409  0.37830038  0.11937410  1
  Co  Co109  1  0.38034461  0.62213544  0.13142529  1
  Co  Co110  1  0.37677052  0.12588023  0.37351345  1
  Co  Co111  1  0.49665134  0.75261963  0.50337803  1
  Co  Co112  1  0.75179902  0.24756563  0.50058175  1
  Co  Co113  1  0.50141552  0.75290702  0.24773895  1
  Co  Co114  1  0.12760949  0.12684530  0.87782728  1
  Co  Co115  1  0.25022677  0.24648132  0.24704827  1
  Co  Co116  1  0.87636443  0.62512974  0.37169179  1
  Co  Co117  1  0.00021820  -0.00204942  0.24941007  1
  Co  Co118  1  0.37645443  0.62576102  0.86959924  1
  Co  Co119  1  0.50644104  0.49454651  0.25345835  1
  Co  Co120  1  -0.00045650  0.25214733  0.00152775  1
  Co  Co121  1  0.50566264  0.25490743  0.25072048  1
  Co  Co122  1  0.49882475  -0.00289910  -0.00374149  1
  Co  Co123  1  0.87161761  0.62355409  0.87615456  1
  Co  Co124  1  0.74883888  0.74769129  0.00371532  1
  Co  Co125  1  0.50274870  -0.00257886  0.25413557  1
  Co  Co126  1  0.87369184  0.12692781  0.87565313  1
  Co  Co127  1  0.00181718  0.74691455  0.75575127  1
