# generated using pymatgen
data_Fe45Co19
_symmetry_space_group_name_H-M   'P 1'
_cell_length_a   11.41570975
_cell_length_b   11.41567628
_cell_length_c   11.41511088
_cell_angle_alpha   90.00364594
_cell_angle_beta   90.00554735
_cell_angle_gamma   90.00481625
_symmetry_Int_Tables_number   1
_chemical_formula_structural   Fe45Co19
_chemical_formula_sum   'Fe90 Co38'
_cell_volume   1487.59494002
_cell_formula_units_Z   2
loop_
 _symmetry_equiv_pos_site_id
 _symmetry_equiv_pos_as_xyz
  1  'x, y, z'
loop_
 _atom_site_type_symbol
 _atom_site_label
 _atom_site_symmetry_multiplicity
 _atom_site_fract_x
 _atom_site_fract_y
 _atom_site_fract_z
 _atom_site_occupancy
  Fe  Fe0  1  0.74469173  0.74751504  0.50185911  1
  Fe  Fe1  1  -0.00295980  0.49816682  0.49936208  1
  Fe  Fe2  1  0.87395501  0.87422632  0.37707345  1
  Fe  Fe3  1  0.75000227  0.50052747  0.25114650  1
  Fe  Fe4  1  0.50471302  0.50383229  0.49808604  1
  Fe  Fe5  1  0.37866971  0.37614131  0.62425113  1
  Fe  Fe6  1  0.74981608  -0.00019471  0.24657609  1
  Fe  Fe7  1  0.74899600  0.00273885  0.50074285  1
  Fe  Fe8  1  0.87469705  0.12767322  0.87662865  1
  Fe  Fe9  1  0.00081453  0.00236549  0.00183621  1
  Fe  Fe10  1  0.87465895  0.37181653  0.12268525  1
  Fe  Fe11  1  0.50364329  0.75177185  0.75177255  1
  Fe  Fe12  1  0.25155435  -0.00004359  0.50050818  1
  Fe  Fe13  1  0.25030955  0.49932353  0.25185908  1
  Fe  Fe14  1  0.37354821  0.87395868  0.87684982  1
  Fe  Fe15  1  0.12470583  0.62446735  0.12548139  1
  Fe  Fe16  1  0.62837328  0.37461826  0.37784443  1
  Fe  Fe17  1  0.12503131  0.12459350  0.87442354  1
  Fe  Fe18  1  0.37773374  0.62790469  0.37464357  1
  Fe  Fe19  1  0.37544309  0.37470406  0.12325097  1
  Fe  Fe20  1  0.37906257  0.12182937  0.62610330  1
  Fe  Fe21  1  0.87397383  0.87421550  0.62586646  1
  Fe  Fe22  1  0.87232587  0.62674196  0.86922640  1
  Fe  Fe23  1  0.37594880  0.37416355  0.37723346  1
  Fe  Fe24  1  0.25102577  0.24882408  0.50147888  1
  Fe  Fe25  1  0.87408231  0.12494102  0.62604438  1
  Fe  Fe26  1  0.37536953  0.12505448  0.87885258  1
  Fe  Fe27  1  0.49818135  -0.00224240  0.00558254  1
  Fe  Fe28  1  0.24889561  0.74965096  0.00029939  1
  Fe  Fe29  1  -0.00134719  0.49965692  -0.00244631  1
  Fe  Fe30  1  0.49825512  0.24849879  0.25039806  1
  Fe  Fe31  1  0.00256610  0.75231304  0.25140552  1
  Fe  Fe32  1  0.25186884  0.49991353  -0.00180489  1
  Fe  Fe33  1  0.62486370  0.37615890  0.87568939  1
  Fe  Fe34  1  0.75019111  0.24873546  0.24976242  1
  Fe  Fe35  1  -0.00075179  0.74819956  -0.00162758  1
  Fe  Fe36  1  0.25310766  0.25094590  0.74957357  1
  Fe  Fe37  1  0.24649835  0.74972441  0.74700483  1
  Fe  Fe38  1  0.25201692  0.00049529  0.75173726  1
  Fe  Fe39  1  0.25168490  0.50131092  0.50030822  1
  Fe  Fe40  1  -0.00013537  0.25112881  0.49898920  1
  Fe  Fe41  1  0.62747902  0.87375786  0.88002486  1
  Fe  Fe42  1  0.12434601  0.62461949  0.37680763  1
  Fe  Fe43  1  0.12451774  0.12322995  0.62689537  1
  Fe  Fe44  1  0.12635042  0.37800826  0.62592059  1
  Fe  Fe45  1  0.49970978  0.75262965  0.24714607  1
  Fe  Fe46  1  0.37442995  0.62690114  0.12604776  1
  Fe  Fe47  1  0.49923408  0.50192113  -0.00069947  1
  Fe  Fe48  1  0.00381599  0.75196716  0.50286006  1
  Fe  Fe49  1  0.00262425  0.25270290  0.24881049  1
  Fe  Fe50  1  -0.00226521  -0.00097485  0.75010809  1
  Fe  Fe51  1  0.37790384  0.62648092  0.62534919  1
  Fe  Fe52  1  0.62309194  0.12222357  0.37282880  1
  Fe  Fe53  1  0.62361869  0.87544784  0.37366101  1
  Fe  Fe54  1  0.74616001  0.24864670  0.74852131  1
  Fe  Fe55  1  0.24949075  0.25232863  0.24911174  1
  Fe  Fe56  1  0.75066321  0.75064714  0.24825862  1
  Fe  Fe57  1  0.87676902  0.62468203  0.12662900  1
  Fe  Fe58  1  0.86744681  0.37533809  0.62115636  1
  Fe  Fe59  1  0.87323732  0.62593853  0.62841363  1
  Fe  Fe60  1  0.37719872  0.87588420  0.62554990  1
  Fe  Fe61  1  0.62529499  0.62815296  0.12255750  1
  Fe  Fe62  1  0.87620733  0.87430789  0.12400229  1
  Fe  Fe63  1  0.25142805  -0.00115312  0.24572626  1
  Fe  Fe64  1  0.50098221  0.49927442  0.24993531  1
  Fe  Fe65  1  0.50121893  0.25017898  0.74967954  1
  Fe  Fe66  1  0.62458542  0.12174877  0.87467800  1
  Fe  Fe67  1  0.00063232  -0.00067673  0.49992071  1
  Fe  Fe68  1  0.75126519  0.00262465  0.00340939  1
  Fe  Fe69  1  0.00043451  0.49607706  0.25229650  1
  Fe  Fe70  1  0.24794499  0.75085697  0.50132946  1
  Fe  Fe71  1  0.75051793  0.50126919  -0.00028158  1
  Fe  Fe72  1  0.12426289  0.87592397  0.87483257  1
  Fe  Fe73  1  0.50200771  0.24950845  0.00098231  1
  Fe  Fe74  1  0.12394667  0.62228690  0.86924430  1
  Fe  Fe75  1  0.87475513  0.62655585  0.37491986  1
  Fe  Fe76  1  0.62568969  0.37387376  0.12414354  1
  Fe  Fe77  1  0.50098349  0.49963992  0.75217801  1
  Fe  Fe78  1  0.50209802  0.24550207  0.50015227  1
  Fe  Fe79  1  0.24754877  0.25088759  0.00046632  1
  Fe  Fe80  1  0.37565974  0.62637292  0.87339666  1
  Fe  Fe81  1  0.12652633  0.12481072  0.37434918  1
  Fe  Fe82  1  0.37579713  0.87496912  0.37346880  1
  Fe  Fe83  1  0.62274637  0.88064656  0.62592599  1
  Fe  Fe84  1  0.87609183  0.12541594  0.37368352  1
  Fe  Fe85  1  0.87389060  0.87338710  0.87442772  1
  Fe  Fe86  1  0.87293417  0.37204640  0.87673321  1
  Fe  Fe87  1  0.00048972  -0.00072535  0.24854451  1
  Fe  Fe88  1  0.12618736  0.37717038  0.87270505  1
  Fe  Fe89  1  -0.00074380  0.25255310  0.74933049  1
  Co  Co90  1  0.12561017  0.87975249  0.62661906  1
  Co  Co91  1  0.74643884  0.24805634  -0.00101087  1
  Co  Co92  1  0.49852389  0.00066329  0.49612432  1
  Co  Co93  1  0.25002183  -0.00142057  0.00121902  1
  Co  Co94  1  0.12615927  0.87716572  0.37522103  1
  Co  Co95  1  0.62137822  0.11950940  0.62811274  1
  Co  Co96  1  0.50277802  0.75089040  0.50098996  1
  Co  Co97  1  0.62473304  0.62256273  0.62974723  1
  Co  Co98  1  0.37286499  0.12453469  0.37296687  1
  Co  Co99  1  0.62685118  0.87185918  0.12248962  1
  Co  Co100  1  0.74785883  0.50667944  0.49684902  1
  Co  Co101  1  0.00440938  0.25029887  -0.00007870  1
  Co  Co102  1  0.62413525  0.12603142  0.12615870  1
  Co  Co103  1  -0.00455537  0.49611745  0.74925546  1
  Co  Co104  1  0.12358626  0.62014635  0.62631296  1
  Co  Co105  1  0.49742674  0.74969142  -0.00029962  1
  Co  Co106  1  0.87056389  0.37337006  0.37619116  1
  Co  Co107  1  0.24802889  0.74901356  0.25183783  1
  Co  Co108  1  0.62389320  0.62832301  0.36992374  1
  Co  Co109  1  0.37225053  0.87163701  0.12474383  1
  Co  Co110  1  0.74756378  0.24270439  0.50070384  1
  Co  Co111  1  0.62588074  0.37599258  0.62142555  1
  Co  Co112  1  0.62639642  0.62670705  0.87730997  1
  Co  Co113  1  0.37435624  0.12740906  0.12284470  1
  Co  Co114  1  0.49822312  -0.00224226  0.75586110  1
  Co  Co115  1  0.12704363  0.37513031  0.37785263  1
  Co  Co116  1  0.74796750  0.49779481  0.75121451  1
  Co  Co117  1  0.75200094  -0.00032981  0.75126717  1
  Co  Co118  1  0.87567606  0.12863449  0.12450469  1
  Co  Co119  1  0.25490304  0.49936994  0.74926316  1
  Co  Co120  1  0.00239203  0.75196737  0.74831668  1
  Co  Co121  1  0.74559473  0.75331382  0.74891138  1
  Co  Co122  1  0.37609792  0.37342162  0.87626042  1
  Co  Co123  1  0.12575190  0.37899172  0.12281712  1
  Co  Co124  1  0.12588856  0.12433505  0.12518354  1
  Co  Co125  1  0.75504941  0.74789545  0.00106206  1
  Co  Co126  1  0.49897258  -0.00087529  0.24579281  1
  Co  Co127  1  0.12399716  0.87266370  0.12333864  1
