# generated using pymatgen
data_Fe45Co19
_symmetry_space_group_name_H-M   'P 1'
_cell_length_a   11.41520445
_cell_length_b   11.41533252
_cell_length_c   11.41543018
_cell_angle_alpha   90.00327858
_cell_angle_beta   90.01050103
_cell_angle_gamma   89.99928467
_symmetry_Int_Tables_number   1
_chemical_formula_structural   Fe45Co19
_chemical_formula_sum   'Fe90 Co38'
_cell_volume   1487.52589522
_cell_formula_units_Z   2
loop_
 _symmetry_equiv_pos_site_id
 _symmetry_equiv_pos_as_xyz
  1  'x, y, z'
loop_
 _atom_site_type_symbol
 _atom_site_label
 _atom_site_symmetry_multiplicity
 _atom_site_fract_x
 _atom_site_fract_y
 _atom_site_fract_z
 _atom_site_occupancy
  Fe  Fe0  1  0.00069615  0.00066663  -0.00049124  1
  Fe  Fe1  1  0.50050677  0.49752858  -0.00200776  1
  Fe  Fe2  1  0.49604820  0.00202201  0.49566436  1
  Fe  Fe3  1  0.37423174  0.87583944  0.87478312  1
  Fe  Fe4  1  0.62397709  0.12984912  0.62220788  1
  Fe  Fe5  1  0.87249526  0.87372323  0.37746469  1
  Fe  Fe6  1  0.37356723  0.87782622  0.62296560  1
  Fe  Fe7  1  0.24766973  0.25275212  0.24777335  1
  Fe  Fe8  1  0.49934582  0.25177626  0.24908157  1
  Fe  Fe9  1  0.24852820  0.49850148  0.74921445  1
  Fe  Fe10  1  0.12279506  0.12405061  0.37196967  1
  Fe  Fe11  1  0.12651947  0.37714722  0.37686548  1
  Fe  Fe12  1  0.24990973  0.74881862  0.00045873  1
  Fe  Fe13  1  0.37748270  0.87716352  0.12415659  1
  Fe  Fe14  1  0.00074387  0.75009057  0.25297267  1
  Fe  Fe15  1  0.87750767  0.12620866  0.87192446  1
  Fe  Fe16  1  0.12472350  0.37358162  0.87587616  1
  Fe  Fe17  1  0.62593894  0.87740535  0.62269225  1
  Fe  Fe18  1  0.75106410  0.24946577  0.24855752  1
  Fe  Fe19  1  0.87248919  0.87178309  0.87590265  1
  Fe  Fe20  1  0.62365746  0.62464332  0.12541293  1
  Fe  Fe21  1  0.37653425  0.62449354  0.37574029  1
  Fe  Fe22  1  -0.00239587  0.24932833  0.49912451  1
  Fe  Fe23  1  0.62654003  0.37237657  0.37897652  1
  Fe  Fe24  1  0.87407429  0.37583656  0.37459143  1
  Fe  Fe25  1  0.62655010  0.12988163  0.88080000  1
  Fe  Fe26  1  0.74933094  0.74682989  0.50072280  1
  Fe  Fe27  1  0.12491992  0.37579375  0.62288197  1
  Fe  Fe28  1  0.24711987  0.24811207  0.00400031  1
  Fe  Fe29  1  0.12677479  0.87457696  0.37838397  1
  Fe  Fe30  1  0.75011192  0.50250344  0.50017789  1
  Fe  Fe31  1  0.37577300  0.12502693  0.62622996  1
  Fe  Fe32  1  0.24658000  -0.00111924  0.75044650  1
  Fe  Fe33  1  0.87442436  0.62559536  0.12759419  1
  Fe  Fe34  1  0.74737865  0.49975769  0.25107728  1
  Fe  Fe35  1  0.37767389  0.12236614  0.12747502  1
  Fe  Fe36  1  0.50163244  0.75366200  0.74846437  1
  Fe  Fe37  1  0.87771445  0.37669909  0.12674312  1
  Fe  Fe38  1  0.74759520  0.74975711  0.24997931  1
  Fe  Fe39  1  0.12330935  0.12356403  0.62588984  1
  Fe  Fe40  1  -0.00140963  0.50265654  0.49964938  1
  Fe  Fe41  1  0.50036522  0.75220941  0.25147818  1
  Fe  Fe42  1  0.24962868  0.50031232  -0.00119213  1
  Fe  Fe43  1  0.87213720  0.37364900  0.87302130  1
  Fe  Fe44  1  0.12404495  0.62321497  0.12527118  1
  Fe  Fe45  1  0.25081482  0.49908144  0.25006705  1
  Fe  Fe46  1  0.12265799  0.62701041  0.87244692  1
  Fe  Fe47  1  0.62411732  0.12704652  0.37405013  1
  Fe  Fe48  1  0.50059679  0.75108405  -0.00109072  1
  Fe  Fe49  1  0.25025749  0.74992098  0.24936851  1
  Fe  Fe50  1  0.50178390  0.00230566  0.75211872  1
  Fe  Fe51  1  0.87781176  0.12438712  0.37179015  1
  Fe  Fe52  1  0.37419058  0.12660368  0.87387390  1
  Fe  Fe53  1  0.87492768  0.62897948  0.87064553  1
  Fe  Fe54  1  0.62795156  0.87601735  0.87715700  1
  Fe  Fe55  1  0.50029942  0.49740357  0.25148364  1
  Fe  Fe56  1  0.62450419  0.87403681  0.37785847  1
  Fe  Fe57  1  0.75219427  0.00470290  0.50052024  1
  Fe  Fe58  1  0.62527815  0.62530094  0.87413877  1
  Fe  Fe59  1  0.87079872  0.37432001  0.62590030  1
  Fe  Fe60  1  0.62556317  0.37179843  0.12080286  1
  Fe  Fe61  1  0.62347793  0.62424260  0.62565378  1
  Fe  Fe62  1  0.12397422  0.87634301  0.12370898  1
  Fe  Fe63  1  0.37706720  0.62395657  0.62729816  1
  Fe  Fe64  1  0.75010667  0.00242332  0.74947069  1
  Fe  Fe65  1  0.24907583  0.25036020  0.74865237  1
  Fe  Fe66  1  0.25115799  0.74677717  0.50099929  1
  Fe  Fe67  1  -0.00138551  0.50169829  -0.00254784  1
  Fe  Fe68  1  0.75083975  0.50082996  -0.00120056  1
  Fe  Fe69  1  0.87872677  0.12369737  0.12902718  1
  Fe  Fe70  1  0.24861735  0.00276374  -0.00048282  1
  Fe  Fe71  1  0.87453861  0.87336755  0.12332413  1
  Fe  Fe72  1  0.87677779  0.62818970  0.62864944  1
  Fe  Fe73  1  0.12190154  0.62573971  0.62617729  1
  Fe  Fe74  1  -0.00110583  -0.00171757  0.50139891  1
  Fe  Fe75  1  0.00188643  -0.00650092  0.74835279  1
  Fe  Fe76  1  0.00123423  0.50114496  0.25310784  1
  Fe  Fe77  1  0.74862441  0.00019084  0.24892431  1
  Fe  Fe78  1  0.00202910  0.24871732  0.00326703  1
  Fe  Fe79  1  0.37445193  0.37277066  0.87574507  1
  Fe  Fe80  1  0.37571882  0.37343635  0.62383008  1
  Fe  Fe81  1  0.24819939  0.75210559  0.74962017  1
  Fe  Fe82  1  0.00039332  0.25239193  0.74790319  1
  Fe  Fe83  1  0.49959712  0.49797047  0.49972403  1
  Fe  Fe84  1  0.62462771  0.87899438  0.12190811  1
  Fe  Fe85  1  0.25184790  -0.00175865  0.25294201  1
  Fe  Fe86  1  0.25109359  0.24745480  0.49885142  1
  Fe  Fe87  1  0.50484874  0.49275716  0.75046494  1
  Fe  Fe88  1  0.37663820  0.62497826  0.87281646  1
  Fe  Fe89  1  0.37714832  0.62336036  0.12448983  1
  Co  Co90  1  0.87788458  0.12404528  0.62828400  1
  Co  Co91  1  0.87079993  0.87376044  0.62359581  1
  Co  Co92  1  0.12335518  0.12595061  0.87172832  1
  Co  Co93  1  0.62330004  0.62527469  0.37536730  1
  Co  Co94  1  0.12291783  0.12085941  0.12980094  1
  Co  Co95  1  0.12730030  0.62391855  0.37560571  1
  Co  Co96  1  0.00002949  0.74823691  0.00111776  1
  Co  Co97  1  0.50229488  0.25148574  0.75075054  1
  Co  Co98  1  0.37468117  0.37706849  0.12371317  1
  Co  Co99  1  0.62294723  0.12453255  0.12370899  1
  Co  Co100  1  0.74776184  0.24805031  0.74856461  1
  Co  Co101  1  0.49917313  0.75007826  0.50221724  1
  Co  Co102  1  0.75674424  0.24808888  0.00441089  1
  Co  Co103  1  -0.00136829  -0.00604220  0.25187605  1
  Co  Co104  1  0.87255652  0.62532412  0.37255069  1
  Co  Co105  1  0.37409295  0.87205379  0.37791389  1
  Co  Co106  1  0.12607336  0.87454017  0.87947434  1
  Co  Co107  1  0.37252654  0.37571159  0.37589261  1
  Co  Co108  1  0.25103117  0.50169069  0.50314847  1
  Co  Co109  1  0.12324396  0.37934959  0.12380035  1
  Co  Co110  1  0.12869027  0.87573943  0.61925294  1
  Co  Co111  1  0.74895509  0.74716954  0.00131127  1
  Co  Co112  1  0.49919118  0.00080232  -0.00297952  1
  Co  Co113  1  0.62900966  0.36995286  0.87965733  1
  Co  Co114  1  -0.00068659  0.74934890  0.49774637  1
  Co  Co115  1  0.49614237  0.24939934  0.49861397  1
  Co  Co116  1  0.00194324  0.25369354  0.25043553  1
  Co  Co117  1  0.49592855  0.24935906  0.00148199  1
  Co  Co118  1  0.62842666  0.37029740  0.62004855  1
  Co  Co119  1  -0.00027027  0.49772692  0.74978331  1
  Co  Co120  1  0.75327806  0.00330808  0.00086232  1
  Co  Co121  1  0.50128726  -0.00234398  0.25398224  1
  Co  Co122  1  0.75575895  0.24607544  0.49841565  1
  Co  Co123  1  0.74746464  0.49973902  0.75014578  1
  Co  Co124  1  0.25137888  0.00531018  0.49697450  1
  Co  Co125  1  0.37503070  0.12778143  0.36991610  1
  Co  Co126  1  0.00247031  0.75736203  0.74822924  1
  Co  Co127  1  0.74649180  0.75068861  0.74842063  1
