# generated using pymatgen
data_Fe45Co19
_symmetry_space_group_name_H-M   'P 1'
_cell_length_a   11.41670088
_cell_length_b   11.41590892
_cell_length_c   11.41545748
_cell_angle_alpha   89.99990876
_cell_angle_beta   90.00416723
_cell_angle_gamma   89.99494081
_symmetry_Int_Tables_number   1
_chemical_formula_structural   Fe45Co19
_chemical_formula_sum   'Fe90 Co38'
_cell_volume   1487.79959288
_cell_formula_units_Z   2
loop_
 _symmetry_equiv_pos_site_id
 _symmetry_equiv_pos_as_xyz
  1  'x, y, z'
loop_
 _atom_site_type_symbol
 _atom_site_label
 _atom_site_symmetry_multiplicity
 _atom_site_fract_x
 _atom_site_fract_y
 _atom_site_fract_z
 _atom_site_occupancy
  Fe  Fe0  1  0.87679792  0.62629576  0.87497846  1
  Fe  Fe1  1  0.62579583  0.87512870  0.12643607  1
  Fe  Fe2  1  0.62146132  0.87463387  0.87282198  1
  Fe  Fe3  1  0.87293611  0.62579248  0.12449928  1
  Fe  Fe4  1  0.49851139  0.49840846  0.24627499  1
  Fe  Fe5  1  0.12657098  0.12253749  0.62761493  1
  Fe  Fe6  1  0.24773584  0.75269618  0.75253750  1
  Fe  Fe7  1  0.38022632  0.12384411  0.37602363  1
  Fe  Fe8  1  0.62670371  0.62495167  0.12528716  1
  Fe  Fe9  1  0.25098056  0.00015618  0.49957285  1
  Fe  Fe10  1  0.12462291  0.12475757  0.37178914  1
  Fe  Fe11  1  0.12604493  0.37445421  0.62651939  1
  Fe  Fe12  1  0.87932164  0.87664762  0.87755822  1
  Fe  Fe13  1  0.24844049  0.24838500  -0.00309697  1
  Fe  Fe14  1  0.87290269  0.87695935  0.12402175  1
  Fe  Fe15  1  0.63056465  0.12393606  0.12621585  1
  Fe  Fe16  1  0.00105107  0.24376416  0.00484950  1
  Fe  Fe17  1  0.12295914  0.37468081  0.87432938  1
  Fe  Fe18  1  -0.00339088  0.00375655  0.24641637  1
  Fe  Fe19  1  0.75318033  0.25096372  0.75180330  1
  Fe  Fe20  1  0.12171318  0.37623423  0.37078844  1
  Fe  Fe21  1  0.74797667  0.75236823  -0.00286696  1
  Fe  Fe22  1  0.24920516  0.75030451  0.49560308  1
  Fe  Fe23  1  0.62706644  0.37796982  0.62750929  1
  Fe  Fe24  1  0.50278837  0.24853808  0.50298402  1
  Fe  Fe25  1  0.50018957  0.74500916  0.74580234  1
  Fe  Fe26  1  0.87399680  0.37456887  0.12483779  1
  Fe  Fe27  1  0.00184403  0.25011557  0.49985930  1
  Fe  Fe28  1  0.62320533  0.37678992  0.37372305  1
  Fe  Fe29  1  0.24780032  0.75056398  -0.00286791  1
  Fe  Fe30  1  0.87757714  0.62091636  0.37513358  1
  Fe  Fe31  1  0.37769608  0.87316214  0.87629630  1
  Fe  Fe32  1  0.24890886  0.24961587  0.49813545  1
  Fe  Fe33  1  0.49794520  0.25192316  0.74915856  1
  Fe  Fe34  1  0.74762334  0.74753419  0.49721152  1
  Fe  Fe35  1  -0.00010158  0.00061659  0.50395477  1
  Fe  Fe36  1  0.37155343  0.37701186  0.62642549  1
  Fe  Fe37  1  0.00239717  0.75061720  0.00083423  1
  Fe  Fe38  1  0.49831477  0.25117910  0.24600616  1
  Fe  Fe39  1  0.37533989  0.12513026  0.87394304  1
  Fe  Fe40  1  0.50099133  0.50450885  0.50551110  1
  Fe  Fe41  1  0.38235205  0.87622056  0.37802723  1
  Fe  Fe42  1  0.24915815  -0.00116806  -0.00133920  1
  Fe  Fe43  1  0.12239479  0.87610641  0.37496532  1
  Fe  Fe44  1  0.00090296  0.74869587  0.50064552  1
  Fe  Fe45  1  0.74382807  0.00310584  0.49849631  1
  Fe  Fe46  1  0.37431683  0.37616231  0.87467314  1
  Fe  Fe47  1  0.37238001  0.12607937  0.12466264  1
  Fe  Fe48  1  0.12733067  0.62587939  0.62556112  1
  Fe  Fe49  1  0.87896583  0.37435768  0.87856093  1
  Fe  Fe50  1  0.49758537  0.00036368  0.74662063  1
  Fe  Fe51  1  0.75062925  0.75119830  0.25307896  1
  Fe  Fe52  1  0.24747261  0.50111280  -0.00048585  1
  Fe  Fe53  1  0.12385512  0.11875809  0.87089308  1
  Fe  Fe54  1  0.74646614  0.25004897  0.49902269  1
  Fe  Fe55  1  -0.00118162  0.74991215  0.25109286  1
  Fe  Fe56  1  0.50202271  0.25017880  0.00184627  1
  Fe  Fe57  1  0.00281677  0.50144386  0.00400389  1
  Fe  Fe58  1  0.12817720  0.37076148  0.12985983  1
  Fe  Fe59  1  0.12810155  0.62757602  0.13030661  1
  Fe  Fe60  1  0.62646055  0.62371076  0.87188549  1
  Fe  Fe61  1  0.75176474  0.25161211  0.25129655  1
  Fe  Fe62  1  0.87058938  0.62456614  0.62647767  1
  Fe  Fe63  1  0.37458698  0.62531114  0.37382961  1
  Fe  Fe64  1  0.37636772  0.87317676  0.12306075  1
  Fe  Fe65  1  0.37461815  0.62413617  0.87416217  1
  Fe  Fe66  1  0.87421064  0.12519724  0.37720100  1
  Fe  Fe67  1  0.37759237  0.37561168  0.37639375  1
  Fe  Fe68  1  0.87518030  0.12178737  0.87821238  1
  Fe  Fe69  1  0.25313271  -0.00200713  0.25148546  1
  Fe  Fe70  1  0.75308232  -0.00194790  0.74801107  1
  Fe  Fe71  1  0.37390672  0.12616947  0.62495259  1
  Fe  Fe72  1  0.49995179  0.49960404  0.00141986  1
  Fe  Fe73  1  0.62491821  0.87241141  0.62304410  1
  Fe  Fe74  1  0.50180090  0.00072266  0.00125227  1
  Fe  Fe75  1  0.37322931  0.62659496  0.12535094  1
  Fe  Fe76  1  0.62405381  0.62337271  0.37352012  1
  Fe  Fe77  1  0.00002028  0.75451430  0.74685204  1
  Fe  Fe78  1  0.87476762  0.37488419  0.62287832  1
  Fe  Fe79  1  0.24756991  0.50054533  0.49708058  1
  Fe  Fe80  1  0.49971164  0.75123372  0.24972027  1
  Fe  Fe81  1  0.87790187  0.37829004  0.37488454  1
  Fe  Fe82  1  -0.00018689  0.50053740  0.74844507  1
  Fe  Fe83  1  0.12567574  0.87533189  0.12603281  1
  Fe  Fe84  1  0.74993401  0.49908524  -0.00115638  1
  Fe  Fe85  1  0.62373353  0.37563262  0.87453567  1
  Fe  Fe86  1  0.87544934  0.87654003  0.37790676  1
  Fe  Fe87  1  -0.00127776  0.24679129  0.74887484  1
  Fe  Fe88  1  0.37591971  0.87301216  0.62156525  1
  Fe  Fe89  1  0.62577935  0.12471449  0.87268941  1
  Co  Co90  1  0.63234569  0.62330068  0.62872676  1
  Co  Co91  1  0.12081087  0.87921369  0.87461864  1
  Co  Co92  1  0.74969186  0.49952752  0.49831283  1
  Co  Co93  1  0.62152162  0.12745249  0.37035746  1
  Co  Co94  1  0.49997707  -0.00049476  0.24634841  1
  Co  Co95  1  0.62704781  0.37556121  0.12537129  1
  Co  Co96  1  0.49853204  0.50175321  0.74748040  1
  Co  Co97  1  0.62057571  0.87420875  0.37692994  1
  Co  Co98  1  0.13096399  0.12660894  0.12968160  1
  Co  Co99  1  0.00125513  0.50116496  0.50284099  1
  Co  Co100  1  0.24728780  0.49981682  0.75328715  1
  Co  Co101  1  0.12416657  0.62482360  0.37221208  1
  Co  Co102  1  0.25180840  0.49832674  0.25146831  1
  Co  Co103  1  0.75043958  -0.00231501  0.25514943  1
  Co  Co104  1  0.75396284  0.49608451  0.75386323  1
  Co  Co105  1  0.62639742  0.12752957  0.63027832  1
  Co  Co106  1  0.86668778  0.12274701  0.12190384  1
  Co  Co107  1  0.25469940  0.25023438  0.25592816  1
  Co  Co108  1  0.50147146  0.74320253  0.50291691  1
  Co  Co109  1  0.87092604  0.87401488  0.61872727  1
  Co  Co110  1  0.74676600  -0.00466837  -0.00351955  1
  Co  Co111  1  0.24967671  0.24958769  0.75137214  1
  Co  Co112  1  0.87326236  0.12687820  0.62138671  1
  Co  Co113  1  0.12735633  0.87581968  0.62334702  1
  Co  Co114  1  0.75129727  0.75459712  0.75291829  1
  Co  Co115  1  -0.00470124  0.24635771  0.24799279  1
  Co  Co116  1  0.75079537  0.50022395  0.25033212  1
  Co  Co117  1  0.74889282  0.25218107  -0.00220875  1
  Co  Co118  1  -0.00488033  -0.00247502  0.74408053  1
  Co  Co119  1  0.36788331  0.62484845  0.62563973  1
  Co  Co120  1  0.00264240  0.00355561  0.00602808  1
  Co  Co121  1  0.00007982  0.50137223  0.24652008  1
  Co  Co122  1  0.12086323  0.62625965  0.87373467  1
  Co  Co123  1  0.50443155  0.00403973  0.50381906  1
  Co  Co124  1  0.25432259  -0.00326916  0.74993989  1
  Co  Co125  1  0.25174312  0.75457950  0.25372458  1
  Co  Co126  1  0.50239354  0.74826412  -0.00016807  1
  Co  Co127  1  0.37113825  0.37372240  0.12186534  1
