# generated using pymatgen
data_Fe45Co19
_symmetry_space_group_name_H-M   'P 1'
_cell_length_a   11.41580604
_cell_length_b   11.41491269
_cell_length_c   11.41449368
_cell_angle_alpha   90.01146909
_cell_angle_beta   90.00198771
_cell_angle_gamma   89.99642635
_symmetry_Int_Tables_number   1
_chemical_formula_structural   Fe45Co19
_chemical_formula_sum   'Fe90 Co38'
_cell_volume   1487.42753723
_cell_formula_units_Z   2
loop_
 _symmetry_equiv_pos_site_id
 _symmetry_equiv_pos_as_xyz
  1  'x, y, z'
loop_
 _atom_site_type_symbol
 _atom_site_label
 _atom_site_symmetry_multiplicity
 _atom_site_fract_x
 _atom_site_fract_y
 _atom_site_fract_z
 _atom_site_occupancy
  Fe  Fe0  1  0.37455068  0.12919652  0.12388966  1
  Fe  Fe1  1  0.00233308  0.00125306  0.50276927  1
  Fe  Fe2  1  0.12583513  0.62248822  0.37397978  1
  Fe  Fe3  1  0.62706559  0.37457062  0.62541684  1
  Fe  Fe4  1  0.37385402  0.12442812  0.37591692  1
  Fe  Fe5  1  0.50066142  0.24775289  0.74925280  1
  Fe  Fe6  1  0.62466237  0.87539719  0.87490824  1
  Fe  Fe7  1  0.62392318  0.87509922  0.62674869  1
  Fe  Fe8  1  0.62500567  0.87605605  0.37420182  1
  Fe  Fe9  1  0.87696126  0.87690094  0.87540608  1
  Fe  Fe10  1  0.49888543  0.00033219  -0.00095852  1
  Fe  Fe11  1  0.49879291  0.50029782  0.50180930  1
  Fe  Fe12  1  -0.00253402  0.49693264  0.24624173  1
  Fe  Fe13  1  0.87401812  0.13557907  0.12189714  1
  Fe  Fe14  1  0.24781511  0.25501575  -0.00379063  1
  Fe  Fe15  1  0.37434661  0.87376713  0.12494375  1
  Fe  Fe16  1  0.12514331  0.62340426  0.12385306  1
  Fe  Fe17  1  0.24624969  0.00185541  0.50465018  1
  Fe  Fe18  1  0.00122185  0.00280988  0.00201557  1
  Fe  Fe19  1  0.75080688  0.00187273  0.74801352  1
  Fe  Fe20  1  0.37293666  0.12295639  0.87247571  1
  Fe  Fe21  1  0.62474526  0.37776067  0.37543905  1
  Fe  Fe22  1  0.25402588  0.49992213  0.74973402  1
  Fe  Fe23  1  0.87556079  0.12504786  0.37451236  1
  Fe  Fe24  1  0.62688658  0.12251686  0.87475339  1
  Fe  Fe25  1  0.37347719  0.62282931  0.37562285  1
  Fe  Fe26  1  0.87691397  0.87508744  0.37234774  1
  Fe  Fe27  1  0.49905347  0.74831041  0.25080968  1
  Fe  Fe28  1  0.62517936  0.37859076  0.87403012  1
  Fe  Fe29  1  -0.00193814  0.24788754  0.75690409  1
  Fe  Fe30  1  0.12251469  0.37344692  0.62814244  1
  Fe  Fe31  1  0.62478789  0.62267852  0.87653846  1
  Fe  Fe32  1  0.87533575  0.62613515  0.12253575  1
  Fe  Fe33  1  0.62440133  0.62311495  0.12283406  1
  Fe  Fe34  1  0.25276943  0.49756196  0.24654517  1
  Fe  Fe35  1  0.75246042  0.74881430  0.75219200  1
  Fe  Fe36  1  0.12492991  0.87669420  0.87506950  1
  Fe  Fe37  1  0.75099779  0.00000912  0.50275101  1
  Fe  Fe38  1  0.00087222  0.25062753  0.49672332  1
  Fe  Fe39  1  0.49752289  0.74780100  0.75126184  1
  Fe  Fe40  1  0.87366787  0.62389672  0.37573489  1
  Fe  Fe41  1  0.00396468  0.00357262  0.74905138  1
  Fe  Fe42  1  -0.00132876  0.49185575  0.00232655  1
  Fe  Fe43  1  0.75098358  0.75122744  0.50068866  1
  Fe  Fe44  1  0.87461300  0.62375764  0.87810481  1
  Fe  Fe45  1  0.49968722  0.00206072  0.24820712  1
  Fe  Fe46  1  0.50311959  0.25055607  -0.00138223  1
  Fe  Fe47  1  0.49576133  0.49776765  0.00095187  1
  Fe  Fe48  1  0.75026709  0.00007147  0.00196832  1
  Fe  Fe49  1  0.24952254  0.24929505  0.75150597  1
  Fe  Fe50  1  0.24962454  -0.00036582  0.00094835  1
  Fe  Fe51  1  0.00132513  0.00376615  0.24712971  1
  Fe  Fe52  1  0.87884837  0.87315185  0.62747677  1
  Fe  Fe53  1  0.24777449  0.75025860  0.24881030  1
  Fe  Fe54  1  0.62523085  0.12335284  0.37626545  1
  Fe  Fe55  1  0.12551231  0.62500202  0.62540644  1
  Fe  Fe56  1  0.49894192  0.24845725  0.50203576  1
  Fe  Fe57  1  0.12329731  0.87617077  0.37292323  1
  Fe  Fe58  1  0.00033179  0.74824829  0.49879289  1
  Fe  Fe59  1  0.75015683  0.49770769  0.24655914  1
  Fe  Fe60  1  0.12614996  0.37617943  0.37208671  1
  Fe  Fe61  1  0.62556871  0.62389544  0.62468664  1
  Fe  Fe62  1  0.87290107  0.37547882  0.37427521  1
  Fe  Fe63  1  0.12435079  0.13276294  0.12434968  1
  Fe  Fe64  1  0.62424599  0.87485292  0.12520325  1
  Fe  Fe65  1  0.25037210  0.75034381  0.50143457  1
  Fe  Fe66  1  0.49814161  0.74960364  0.50069257  1
  Fe  Fe67  1  0.24959194  0.25089203  0.49893526  1
  Fe  Fe68  1  0.25023077  0.75093467  -0.00150251  1
  Fe  Fe69  1  0.75137869  0.24948752  0.49962045  1
  Fe  Fe70  1  0.12551665  0.62052125  0.87649067  1
  Fe  Fe71  1  0.50075888  0.00228370  0.50404941  1
  Fe  Fe72  1  0.75047209  0.74938154  0.24803657  1
  Fe  Fe73  1  0.24799410  0.00248441  0.24744478  1
  Fe  Fe74  1  0.75057764  0.00268991  0.24765927  1
  Fe  Fe75  1  0.25288762  0.49527492  0.00067993  1
  Fe  Fe76  1  0.37404972  0.87762030  0.37510376  1
  Fe  Fe77  1  0.37489509  0.87859444  0.62943290  1
  Fe  Fe78  1  -0.00043714  0.49896296  0.50179157  1
  Fe  Fe79  1  0.37510451  0.37532513  0.62624684  1
  Fe  Fe80  1  0.37596137  0.37623803  0.37329965  1
  Fe  Fe81  1  0.75331288  0.24855974  0.75230329  1
  Fe  Fe82  1  -0.00370155  0.50130523  0.74873212  1
  Fe  Fe83  1  0.62621989  0.62322753  0.37597852  1
  Fe  Fe84  1  0.87715030  0.87317859  0.12524013  1
  Fe  Fe85  1  0.25039156  0.74961077  0.75174786  1
  Fe  Fe86  1  0.00114369  0.75030207  -0.00079859  1
  Fe  Fe87  1  0.49796930  0.75063985  -0.00173637  1
  Fe  Fe88  1  0.50295854  0.24997827  0.24905403  1
  Fe  Fe89  1  0.75287307  0.50044205  0.74789999  1
  Co  Co90  1  0.74550548  0.25136589  -0.00512977  1
  Co  Co91  1  0.00071807  0.74723206  0.24980652  1
  Co  Co92  1  0.87528526  0.62694704  0.62312524  1
  Co  Co93  1  0.12309127  0.13161987  0.62500341  1
  Co  Co94  1  0.12280880  0.87014619  0.62644214  1
  Co  Co95  1  0.24413664  0.00129630  0.74782244  1
  Co  Co96  1  0.75178798  0.49853925  0.50297446  1
  Co  Co97  1  0.50232493  0.00363019  0.75037328  1
  Co  Co98  1  0.25076291  0.24951460  0.25365856  1
  Co  Co99  1  0.49882938  0.50037601  0.74871007  1
  Co  Co100  1  0.00022920  0.25153889  0.25316262  1
  Co  Co101  1  0.37697623  0.37383337  0.87324981  1
  Co  Co102  1  0.37482767  0.62348874  0.87633555  1
  Co  Co103  1  0.12524354  0.37955354  0.87040629  1
  Co  Co104  1  0.62597296  0.12528323  0.12357082  1
  Co  Co105  1  0.87735464  0.12706142  0.62462812  1
  Co  Co106  1  0.62545883  0.37599938  0.12313186  1
  Co  Co107  1  0.12531890  0.12374285  0.37502856  1
  Co  Co108  1  0.12579015  0.37133932  0.12766000  1
  Co  Co109  1  0.87176212  0.36571349  0.12343203  1
  Co  Co110  1  0.00357869  0.25539392  -0.00674151  1
  Co  Co111  1  0.37392354  0.87817603  0.87237621  1
  Co  Co112  1  0.00039982  0.74662790  0.75420773  1
  Co  Co113  1  0.37290741  0.12448683  0.62705532  1
  Co  Co114  1  0.12389265  0.87407688  0.12514444  1
  Co  Co115  1  0.37619352  0.37030371  0.12585188  1
  Co  Co116  1  0.37336808  0.62666405  0.12416310  1
  Co  Co117  1  0.87465778  0.12274364  0.87847184  1
  Co  Co118  1  0.87282387  0.37640330  0.87593351  1
  Co  Co119  1  0.49900099  0.50042911  0.24835315  1
  Co  Co120  1  0.75213081  0.49853584  0.00135640  1
  Co  Co121  1  0.12693432  0.12396795  0.87772735  1
  Co  Co122  1  0.24855005  0.49650764  0.50180889  1
  Co  Co123  1  0.87673533  0.37113672  0.62564082  1
  Co  Co124  1  0.37402143  0.62333962  0.62419122  1
  Co  Co125  1  0.62783243  0.12732786  0.62470821  1
  Co  Co126  1  0.75032166  0.75156043  -0.00078166  1
  Co  Co127  1  0.74517951  0.25043144  0.25280977  1
