# generated using pymatgen
data_Fe45Co19
_symmetry_space_group_name_H-M   'P 1'
_cell_length_a   11.41514959
_cell_length_b   11.41542184
_cell_length_c   11.41490308
_cell_angle_alpha   90.00314001
_cell_angle_beta   89.99842049
_cell_angle_gamma   89.99477257
_symmetry_Int_Tables_number   1
_chemical_formula_structural   Fe45Co19
_chemical_formula_sum   'Fe90 Co38'
_cell_volume   1487.46171862
_cell_formula_units_Z   2
loop_
 _symmetry_equiv_pos_site_id
 _symmetry_equiv_pos_as_xyz
  1  'x, y, z'
loop_
 _atom_site_type_symbol
 _atom_site_label
 _atom_site_symmetry_multiplicity
 _atom_site_fract_x
 _atom_site_fract_y
 _atom_site_fract_z
 _atom_site_occupancy
  Fe  Fe0  1  0.00062371  -0.00058818  0.25029633  1
  Fe  Fe1  1  0.12722042  0.87413359  0.12538529  1
  Fe  Fe2  1  0.25598640  -0.00339643  0.75190967  1
  Fe  Fe3  1  0.74900394  -0.00162745  0.25082145  1
  Fe  Fe4  1  0.37382347  0.62249892  0.12144293  1
  Fe  Fe5  1  0.62576858  0.37489870  0.62820966  1
  Fe  Fe6  1  0.87520101  0.37597553  0.37697463  1
  Fe  Fe7  1  0.24928942  0.74747830  0.50066474  1
  Fe  Fe8  1  0.75337541  0.75098785  0.75157947  1
  Fe  Fe9  1  0.12506927  0.62731348  0.87147460  1
  Fe  Fe10  1  0.87324808  0.87633081  0.12119564  1
  Fe  Fe11  1  0.87434491  0.12534828  0.12502657  1
  Fe  Fe12  1  0.00141973  0.24881568  -0.00029348  1
  Fe  Fe13  1  0.87329989  0.87503416  0.87811955  1
  Fe  Fe14  1  0.62401979  0.12710120  0.62686225  1
  Fe  Fe15  1  0.25200169  0.24876642  -0.00197387  1
  Fe  Fe16  1  0.25172632  0.49981759  0.25236529  1
  Fe  Fe17  1  0.75167714  0.74940276  0.25005710  1
  Fe  Fe18  1  0.49577661  0.25146711  0.75044945  1
  Fe  Fe19  1  0.62307138  0.87201070  0.62692118  1
  Fe  Fe20  1  0.12330318  0.37148862  0.87199065  1
  Fe  Fe21  1  0.12529907  0.62578524  0.12644080  1
  Fe  Fe22  1  0.49960771  -0.00283786  0.24960718  1
  Fe  Fe23  1  0.00033415  -0.00264788  0.74892582  1
  Fe  Fe24  1  0.62210559  0.37898303  0.37166686  1
  Fe  Fe25  1  0.87561532  0.12407050  0.87492885  1
  Fe  Fe26  1  0.87627006  0.37579283  0.87715766  1
  Fe  Fe27  1  0.37312089  0.37932588  0.61878570  1
  Fe  Fe28  1  0.50316898  0.74300731  0.50486913  1
  Fe  Fe29  1  0.87407215  0.12294012  0.37736684  1
  Fe  Fe30  1  0.24644174  0.50015880  -0.00278286  1
  Fe  Fe31  1  0.62363673  0.62400950  0.12777120  1
  Fe  Fe32  1  0.75141339  0.25237954  0.25057566  1
  Fe  Fe33  1  0.37567631  0.37784441  0.12090228  1
  Fe  Fe34  1  0.24787466  0.00158852  0.50061123  1
  Fe  Fe35  1  0.87430676  0.87763489  0.37982045  1
  Fe  Fe36  1  0.00321781  0.00053436  -0.00101805  1
  Fe  Fe37  1  0.62458692  0.87158795  0.37660956  1
  Fe  Fe38  1  0.49964157  0.25218947  0.49916302  1
  Fe  Fe39  1  0.00113508  0.75026923  0.50278228  1
  Fe  Fe40  1  0.74606269  -0.00096427  0.75106855  1
  Fe  Fe41  1  0.49501406  0.25288106  0.24915944  1
  Fe  Fe42  1  0.74749647  0.25097045  0.49967987  1
  Fe  Fe43  1  0.87480988  0.62510049  0.37575589  1
  Fe  Fe44  1  0.12757263  0.12521846  0.12766736  1
  Fe  Fe45  1  0.12708686  0.12784355  0.63079213  1
  Fe  Fe46  1  0.00032243  0.49932315  0.75043781  1
  Fe  Fe47  1  0.62327658  0.37706808  0.12583751  1
  Fe  Fe48  1  0.74661738  0.25046600  -0.00209936  1
  Fe  Fe49  1  0.49819213  0.50258604  0.74811447  1
  Fe  Fe50  1  0.87451338  0.37650936  0.62377413  1
  Fe  Fe51  1  -0.00032297  0.74769068  -0.00156123  1
  Fe  Fe52  1  0.37155971  0.87816008  0.12148347  1
  Fe  Fe53  1  -0.00185472  0.75106566  0.24957298  1
  Fe  Fe54  1  0.12479738  0.37388544  0.12589141  1
  Fe  Fe55  1  0.87414589  0.87755896  0.62172007  1
  Fe  Fe56  1  0.50312322  0.00159568  0.50078234  1
  Fe  Fe57  1  0.37331053  0.12087696  0.12245478  1
  Fe  Fe58  1  0.37752708  0.62066185  0.37916645  1
  Fe  Fe59  1  0.25054422  0.49758077  0.75023694  1
  Fe  Fe60  1  0.12921749  0.37077025  0.37452763  1
  Fe  Fe61  1  0.75148008  0.25029150  0.75156129  1
  Fe  Fe62  1  0.37593736  0.12377194  0.62632498  1
  Fe  Fe63  1  0.87356458  0.12291566  0.62314940  1
  Fe  Fe64  1  0.62723152  0.87401652  0.11994077  1
  Fe  Fe65  1  0.12657889  0.62753921  0.62910131  1
  Fe  Fe66  1  0.12748327  0.12802828  0.37081460  1
  Fe  Fe67  1  0.12708186  0.12802821  0.87043149  1
  Fe  Fe68  1  0.74623318  0.50167355  -0.00265312  1
  Fe  Fe69  1  0.61981734  0.63048952  0.87263291  1
  Fe  Fe70  1  0.12531542  0.87397824  0.37550290  1
  Fe  Fe71  1  0.25310520  0.74930107  0.25219238  1
  Fe  Fe72  1  0.49756574  0.74981344  0.24739590  1
  Fe  Fe73  1  0.25887151  0.75224564  0.74937862  1
  Fe  Fe74  1  0.62457311  0.12484129  0.12559727  1
  Fe  Fe75  1  0.37388596  0.12558658  0.37414427  1
  Fe  Fe76  1  0.25190674  0.74985103  -0.00261665  1
  Fe  Fe77  1  0.62487973  0.12606861  0.37306123  1
  Fe  Fe78  1  0.00124747  0.49825133  0.25125239  1
  Fe  Fe79  1  0.37850067  0.37639843  0.87802767  1
  Fe  Fe80  1  0.74448860  0.50386247  0.49954399  1
  Fe  Fe81  1  0.00561971  0.50109494  0.50063143  1
  Fe  Fe82  1  0.87646385  0.62183462  0.12279904  1
  Fe  Fe83  1  0.00228618  0.24834757  0.50224580  1
  Fe  Fe84  1  0.87586289  0.37636507  0.12228976  1
  Fe  Fe85  1  0.74977715  0.49995017  0.75357811  1
  Fe  Fe86  1  0.37669865  0.87458066  0.37929419  1
  Fe  Fe87  1  0.12536117  0.87228200  0.87212078  1
  Fe  Fe88  1  0.61961278  0.12477896  0.87463037  1
  Fe  Fe89  1  0.87395275  0.62404177  0.62553265  1
  Co  Co90  1  0.00635321  0.00195205  0.50186693  1
  Co  Co91  1  0.50151915  -0.00065880  0.00077670  1
  Co  Co92  1  -0.00283969  0.25118532  0.25053524  1
  Co  Co93  1  0.62355916  0.62523468  0.36924855  1
  Co  Co94  1  0.75273541  0.50033376  0.24998896  1
  Co  Co95  1  0.24235427  0.50204705  0.49941631  1
  Co  Co96  1  0.74864745  0.74736035  0.50045470  1
  Co  Co97  1  0.25079268  -0.00285580  0.25285850  1
  Co  Co98  1  0.74382104  -0.00006307  0.50127183  1
  Co  Co99  1  0.62121618  0.37402201  0.87285389  1
  Co  Co100  1  0.25745758  0.25383930  0.75051835  1
  Co  Co101  1  0.87706269  0.62360731  0.87513777  1
  Co  Co102  1  -0.00436570  0.75187089  0.74881614  1
  Co  Co103  1  0.49204635  0.75058216  0.74782291  1
  Co  Co104  1  0.75057027  0.74458536  -0.00083520  1
  Co  Co105  1  0.37354948  0.37829244  0.38122665  1
  Co  Co106  1  0.50355799  0.50264768  -0.00163008  1
  Co  Co107  1  0.12493193  0.37267692  0.62710332  1
  Co  Co108  1  0.37618762  0.87627893  0.61823299  1
  Co  Co109  1  0.37535306  0.62256516  0.87634110  1
  Co  Co110  1  0.49944505  -0.00375087  0.74893588  1
  Co  Co111  1  0.37152187  0.62070500  0.62280951  1
  Co  Co112  1  0.49988315  0.24968695  0.00186647  1
  Co  Co113  1  0.24633495  0.00042394  -0.00493097  1
  Co  Co114  1  0.25634046  0.25236028  0.24687916  1
  Co  Co115  1  -0.00522203  0.25115830  0.74817519  1
  Co  Co116  1  0.62782785  0.62655387  0.63276196  1
  Co  Co117  1  0.49676830  0.74883830  0.00306872  1
  Co  Co118  1  0.37768764  0.12398698  0.87592708  1
  Co  Co119  1  0.12814569  0.87279303  0.62701134  1
  Co  Co120  1  0.25007795  0.24742545  0.50335483  1
  Co  Co121  1  0.38071567  0.87644425  0.87940920  1
  Co  Co122  1  0.00423245  0.50099380  -0.00213090  1
  Co  Co123  1  0.50736972  0.50239444  0.50336726  1
  Co  Co124  1  0.49453608  0.49978349  0.24942055  1
  Co  Co125  1  0.12396646  0.62828152  0.37161212  1
  Co  Co126  1  0.74782838  0.00281300  -0.00203137  1
  Co  Co127  1  0.62285933  0.87065403  0.87645732  1
