# generated using pymatgen
data_Fe45Co19
_symmetry_space_group_name_H-M   'P 1'
_cell_length_a   11.41565703
_cell_length_b   11.41518943
_cell_length_c   11.41537384
_cell_angle_alpha   90.00220128
_cell_angle_beta   89.98961503
_cell_angle_gamma   89.98810224
_symmetry_Int_Tables_number   1
_chemical_formula_structural   Fe45Co19
_chemical_formula_sum   'Fe90 Co38'
_cell_volume   1487.55885292
_cell_formula_units_Z   2
loop_
 _symmetry_equiv_pos_site_id
 _symmetry_equiv_pos_as_xyz
  1  'x, y, z'
loop_
 _atom_site_type_symbol
 _atom_site_label
 _atom_site_symmetry_multiplicity
 _atom_site_fract_x
 _atom_site_fract_y
 _atom_site_fract_z
 _atom_site_occupancy
  Fe  Fe0  1  0.75224637  0.24843210  0.49825115  1
  Fe  Fe1  1  0.62298597  0.87754780  0.62255136  1
  Fe  Fe2  1  0.49611498  0.00303418  0.25255435  1
  Fe  Fe3  1  -0.00074000  0.75193797  0.74704087  1
  Fe  Fe4  1  0.50051874  0.24704746  0.25138328  1
  Fe  Fe5  1  0.62490751  0.37562003  0.12666144  1
  Fe  Fe6  1  0.12608179  0.87418382  0.37347380  1
  Fe  Fe7  1  0.74854786  0.75171197  0.24884128  1
  Fe  Fe8  1  0.37237008  0.12772237  0.12614764  1
  Fe  Fe9  1  0.25300520  -0.00222075  0.49754905  1
  Fe  Fe10  1  0.00196486  -0.00144216  -0.00047387  1
  Fe  Fe11  1  0.25143749  0.74653613  0.25014192  1
  Fe  Fe12  1  0.00212827  0.75226621  0.00191051  1
  Fe  Fe13  1  0.37701305  0.37776678  0.87274297  1
  Fe  Fe14  1  0.62325339  0.37403141  0.62606773  1
  Fe  Fe15  1  0.25284995  -0.00090922  0.75173343  1
  Fe  Fe16  1  0.62403884  0.62408613  0.12427460  1
  Fe  Fe17  1  0.87233585  0.62686713  0.62444086  1
  Fe  Fe18  1  0.87532416  0.37332065  0.62813089  1
  Fe  Fe19  1  0.87619789  0.12311197  0.62779025  1
  Fe  Fe20  1  0.12836133  0.12444267  0.12180671  1
  Fe  Fe21  1  0.62380688  0.62385234  0.37848284  1
  Fe  Fe22  1  0.37668059  0.62572116  0.61866939  1
  Fe  Fe23  1  0.49976548  0.24793267  0.49820663  1
  Fe  Fe24  1  0.74844373  0.75200635  0.49993326  1
  Fe  Fe25  1  -0.00034381  0.25129016  -0.00162537  1
  Fe  Fe26  1  0.12675299  0.62299411  0.62447961  1
  Fe  Fe27  1  0.87604341  0.87695655  0.87422189  1
  Fe  Fe28  1  0.37817786  0.12429326  0.87398253  1
  Fe  Fe29  1  0.50008410  0.75073200  0.74708895  1
  Fe  Fe30  1  0.87422926  0.62660560  0.87543688  1
  Fe  Fe31  1  0.24846288  0.49493730  0.49659004  1
  Fe  Fe32  1  0.25082091  0.00036039  0.25222909  1
  Fe  Fe33  1  0.87555312  0.87532909  0.37475429  1
  Fe  Fe34  1  0.24753288  0.25424369  0.49928287  1
  Fe  Fe35  1  0.74980299  0.49730634  0.49987415  1
  Fe  Fe36  1  0.49966611  0.75134654  0.00203518  1
  Fe  Fe37  1  0.12722965  0.62327637  0.12532174  1
  Fe  Fe38  1  0.37581386  0.12352232  0.62387504  1
  Fe  Fe39  1  0.12628118  0.62221096  0.37457672  1
  Fe  Fe40  1  0.87516015  0.62665776  0.37725637  1
  Fe  Fe41  1  0.00075057  0.74941326  0.24886622  1
  Fe  Fe42  1  0.00148198  0.75190843  0.50174137  1
  Fe  Fe43  1  0.00180663  0.00167939  0.24896380  1
  Fe  Fe44  1  0.87423932  0.12398923  0.12185430  1
  Fe  Fe45  1  0.87281828  0.62687883  0.12354457  1
  Fe  Fe46  1  0.75014868  0.00207068  0.49844492  1
  Fe  Fe47  1  0.37376307  0.87270159  0.12644001  1
  Fe  Fe48  1  0.62387415  0.62510117  0.87580956  1
  Fe  Fe49  1  -0.00291737  0.49857541  0.00101677  1
  Fe  Fe50  1  0.12770185  0.87580504  0.62624520  1
  Fe  Fe51  1  0.62379375  0.37330121  0.37410055  1
  Fe  Fe52  1  0.25254534  0.74835803  0.74906210  1
  Fe  Fe53  1  0.75050009  -0.00071943  0.24780413  1
  Fe  Fe54  1  -0.00052362  -0.00085471  0.50157449  1
  Fe  Fe55  1  -0.00070981  0.50106126  0.74932852  1
  Fe  Fe56  1  0.62173506  0.12425679  0.62457199  1
  Fe  Fe57  1  0.88058864  0.37138697  0.37181115  1
  Fe  Fe58  1  0.74823572  0.24644570  0.75345420  1
  Fe  Fe59  1  0.12762612  0.87412967  0.87402551  1
  Fe  Fe60  1  0.12407928  0.12772991  0.37749723  1
  Fe  Fe61  1  0.75011801  0.49762313  -0.00019336  1
  Fe  Fe62  1  0.75225752  0.50049295  0.25092922  1
  Fe  Fe63  1  0.74800787  0.50188612  0.74961387  1
  Fe  Fe64  1  0.12507511  0.62488394  0.87483619  1
  Fe  Fe65  1  0.74824711  0.75269488  0.75008463  1
  Fe  Fe66  1  0.25305706  -0.00225417  -0.00167358  1
  Fe  Fe67  1  0.61999065  0.88015733  0.87876326  1
  Fe  Fe68  1  0.25176801  0.49988457  0.00099489  1
  Fe  Fe69  1  0.62201324  0.37572581  0.87241057  1
  Fe  Fe70  1  0.62266495  0.87780612  0.37367663  1
  Fe  Fe71  1  0.37614588  0.37547372  0.12675516  1
  Fe  Fe72  1  0.74832234  0.75555344  0.00256837  1
  Fe  Fe73  1  0.75045148  0.24999204  -0.00337933  1
  Fe  Fe74  1  0.49847584  0.74697304  0.25191884  1
  Fe  Fe75  1  0.50030722  0.25019413  -0.00060853  1
  Fe  Fe76  1  0.12656911  0.12444460  0.62579622  1
  Fe  Fe77  1  0.12675189  0.37740940  0.87187804  1
  Fe  Fe78  1  0.37641640  0.37653591  0.62614712  1
  Fe  Fe79  1  0.75152987  0.24712933  0.25046613  1
  Fe  Fe80  1  0.37639274  0.62519826  0.87783086  1
  Fe  Fe81  1  0.74780950  0.00093736  0.75270463  1
  Fe  Fe82  1  0.00059344  0.49718893  0.50100767  1
  Fe  Fe83  1  0.25120888  0.24961693  0.75078780  1
  Fe  Fe84  1  0.24741258  0.25258477  0.25182878  1
  Fe  Fe85  1  0.62487748  0.12253287  0.12218061  1
  Fe  Fe86  1  0.00228291  0.24787108  0.75153388  1
  Fe  Fe87  1  0.12322578  0.37759751  0.12862916  1
  Fe  Fe88  1  0.25058806  0.25195648  -0.00204794  1
  Fe  Fe89  1  0.49620074  0.50246758  0.25228819  1
  Co  Co90  1  0.50225036  0.49777850  0.50013679  1
  Co  Co91  1  0.00040269  0.24970048  0.50402610  1
  Co  Co92  1  0.49934740  0.24855186  0.75023349  1
  Co  Co93  1  0.87428172  0.37335272  0.12712339  1
  Co  Co94  1  0.50037743  0.50383298  0.74798186  1
  Co  Co95  1  0.50116218  0.49820674  0.00035298  1
  Co  Co96  1  0.37550491  0.62524756  0.12163626  1
  Co  Co97  1  0.49867534  -0.00152882  0.74805204  1
  Co  Co98  1  0.37448971  0.87093882  0.37553098  1
  Co  Co99  1  0.11883807  0.37455959  0.37044837  1
  Co  Co100  1  0.37641330  0.87285267  0.87507157  1
  Co  Co101  1  0.37384820  0.62676766  0.38208008  1
  Co  Co102  1  0.87750550  0.87472944  0.12677096  1
  Co  Co103  1  0.37121211  0.12946563  0.37557955  1
  Co  Co104  1  0.37484662  0.87445268  0.62252313  1
  Co  Co105  1  0.75049112  -0.00254453  0.00079265  1
  Co  Co106  1  0.62101008  0.12177614  0.87791713  1
  Co  Co107  1  0.12614183  0.37512279  0.62975888  1
  Co  Co108  1  0.24611917  0.75175271  0.50055847  1
  Co  Co109  1  0.61950893  0.87690580  0.12690085  1
  Co  Co110  1  0.00135050  0.24376274  0.24589817  1
  Co  Co111  1  0.87623890  0.12245993  0.87489518  1
  Co  Co112  1  0.12674427  0.12446832  0.87587138  1
  Co  Co113  1  0.24898067  0.75033482  0.00002557  1
  Co  Co114  1  0.25462167  0.50014820  0.25188027  1
  Co  Co115  1  -0.00365506  0.50419125  0.24838650  1
  Co  Co116  1  0.62588636  0.12441656  0.37457375  1
  Co  Co117  1  0.00243699  -0.00139720  0.74930427  1
  Co  Co118  1  0.87212207  0.87615995  0.62464573  1
  Co  Co119  1  0.62632970  0.62608266  0.62289792  1
  Co  Co120  1  0.12853908  0.87573419  0.12607279  1
  Co  Co121  1  0.50328845  0.75289026  0.49963392  1
  Co  Co122  1  0.49394356  0.00157922  0.00396603  1
  Co  Co123  1  0.87477896  0.37544024  0.87189596  1
  Co  Co124  1  0.49690979  0.00150938  0.49598751  1
  Co  Co125  1  0.87663527  0.12380766  0.37505066  1
  Co  Co126  1  0.37780276  0.37262935  0.37435451  1
  Co  Co127  1  0.25341225  0.50341499  0.74960743  1
