# generated using pymatgen
data_Fe45Co19
_symmetry_space_group_name_H-M   'P 1'
_cell_length_a   11.41411398
_cell_length_b   11.41555763
_cell_length_c   11.41580693
_cell_angle_alpha   89.99162207
_cell_angle_beta   90.01749705
_cell_angle_gamma   89.99083948
_symmetry_Int_Tables_number   1
_chemical_formula_structural   Fe45Co19
_chemical_formula_sum   'Fe90 Co38'
_cell_volume   1487.46214023
_cell_formula_units_Z   2
loop_
 _symmetry_equiv_pos_site_id
 _symmetry_equiv_pos_as_xyz
  1  'x, y, z'
loop_
 _atom_site_type_symbol
 _atom_site_label
 _atom_site_symmetry_multiplicity
 _atom_site_fract_x
 _atom_site_fract_y
 _atom_site_fract_z
 _atom_site_occupancy
  Fe  Fe0  1  0.12637343  0.37508508  0.87352274  1
  Fe  Fe1  1  0.37681999  0.62490892  0.12522704  1
  Fe  Fe2  1  0.24783023  0.74917176  0.00274692  1
  Fe  Fe3  1  0.62480776  0.12404974  0.87250965  1
  Fe  Fe4  1  0.24848927  0.50161950  0.00098339  1
  Fe  Fe5  1  0.87388741  0.37295646  0.62404637  1
  Fe  Fe6  1  0.75087797  0.25005432  0.74803551  1
  Fe  Fe7  1  0.50489133  0.50281281  -0.00116752  1
  Fe  Fe8  1  0.74755193  0.49847462  0.24671263  1
  Fe  Fe9  1  0.24874273  0.74959897  0.24784096  1
  Fe  Fe10  1  0.24921417  0.74899289  0.74675073  1
  Fe  Fe11  1  0.50116623  0.75025384  0.75077998  1
  Fe  Fe12  1  0.50162825  0.25025968  0.25202127  1
  Fe  Fe13  1  0.74989278  -0.00006031  0.24956945  1
  Fe  Fe14  1  0.75239760  -0.00364004  0.75145778  1
  Fe  Fe15  1  0.87683320  0.12594262  0.87253845  1
  Fe  Fe16  1  0.24798450  0.74714281  0.50232854  1
  Fe  Fe17  1  0.62351666  0.12411944  0.12577253  1
  Fe  Fe18  1  0.37731485  0.62557154  0.62398323  1
  Fe  Fe19  1  0.12339694  0.12490593  0.12688825  1
  Fe  Fe20  1  0.87665859  0.87616069  0.12594637  1
  Fe  Fe21  1  0.50492334  0.24917570  0.50027725  1
  Fe  Fe22  1  0.00053818  0.49775156  0.49778524  1
  Fe  Fe23  1  0.86961286  0.37385002  0.37779631  1
  Fe  Fe24  1  -0.00048559  0.25219992  -0.00247822  1
  Fe  Fe25  1  0.37282312  0.87436332  0.87475458  1
  Fe  Fe26  1  0.11924408  0.12353574  0.62345813  1
  Fe  Fe27  1  0.62576477  0.37658014  0.87221902  1
  Fe  Fe28  1  0.37569952  0.87597000  0.12397672  1
  Fe  Fe29  1  0.50017107  0.24878947  -0.00459008  1
  Fe  Fe30  1  0.38030838  0.12394549  0.62944379  1
  Fe  Fe31  1  0.74864527  0.74970925  0.49994226  1
  Fe  Fe32  1  0.12359842  0.12553607  0.87354280  1
  Fe  Fe33  1  0.12419884  0.62398392  0.37412240  1
  Fe  Fe34  1  0.25066346  0.00139882  0.24981883  1
  Fe  Fe35  1  0.74825498  0.50020268  0.50161983  1
  Fe  Fe36  1  0.50130244  0.75263420  0.24964808  1
  Fe  Fe37  1  0.87832696  0.62044642  0.12658489  1
  Fe  Fe38  1  -0.00114584  -0.00043133  -0.00197047  1
  Fe  Fe39  1  0.74773093  0.25003928  0.25045356  1
  Fe  Fe40  1  0.25088165  0.24816175  0.74922525  1
  Fe  Fe41  1  0.12486362  0.87460192  0.87451487  1
  Fe  Fe42  1  -0.00355415  0.75552117  0.74733424  1
  Fe  Fe43  1  0.37473630  0.62498193  0.37526849  1
  Fe  Fe44  1  0.87157998  0.62753968  0.87726728  1
  Fe  Fe45  1  0.12148088  0.62125925  0.12795181  1
  Fe  Fe46  1  0.37718243  0.12447309  0.12344381  1
  Fe  Fe47  1  0.50097471  0.49943352  0.49991844  1
  Fe  Fe48  1  0.50075153  -0.00188257  -0.00327510  1
  Fe  Fe49  1  0.63029737  0.86825794  0.87820904  1
  Fe  Fe50  1  0.37623373  0.87531162  0.62350520  1
  Fe  Fe51  1  0.74909199  0.75139034  0.24728312  1
  Fe  Fe52  1  0.12652840  0.87509930  0.37475742  1
  Fe  Fe53  1  0.87895993  0.12400498  0.62379766  1
  Fe  Fe54  1  0.62447989  0.87575228  0.62313190  1
  Fe  Fe55  1  -0.00037541  -0.00097924  0.25342713  1
  Fe  Fe56  1  0.87489685  0.37629485  0.12226570  1
  Fe  Fe57  1  -0.00229999  0.49831266  0.75219076  1
  Fe  Fe58  1  0.00088440  0.25314861  0.25301588  1
  Fe  Fe59  1  0.75075979  0.00191064  0.49849685  1
  Fe  Fe60  1  0.62412522  0.62479242  0.62647460  1
  Fe  Fe61  1  0.25023924  0.00304088  0.50051599  1
  Fe  Fe62  1  0.37506892  0.37650954  0.87380329  1
  Fe  Fe63  1  0.62519085  0.62384974  0.37328596  1
  Fe  Fe64  1  0.37624193  0.37493843  0.12393764  1
  Fe  Fe65  1  0.62379086  0.87812169  0.37568957  1
  Fe  Fe66  1  0.62319062  0.12300342  0.62763885  1
  Fe  Fe67  1  0.37506544  0.12652906  0.37438727  1
  Fe  Fe68  1  0.25079415  0.24875497  0.00023567  1
  Fe  Fe69  1  0.87696542  0.62569642  0.62314752  1
  Fe  Fe70  1  0.12439223  0.37707097  0.12546575  1
  Fe  Fe71  1  0.75149783  0.00010978  0.00054828  1
  Fe  Fe72  1  0.75017310  0.50206494  0.75061439  1
  Fe  Fe73  1  0.87498278  0.62612027  0.37352378  1
  Fe  Fe74  1  0.37705479  0.37471318  0.62518395  1
  Fe  Fe75  1  -0.00050222  0.75428929  0.50023911  1
  Fe  Fe76  1  0.24930984  0.00111098  0.74939247  1
  Fe  Fe77  1  0.74928779  0.25070729  -0.00106995  1
  Fe  Fe78  1  0.87585731  0.12706918  0.12554462  1
  Fe  Fe79  1  0.12363019  0.62630468  0.87248146  1
  Fe  Fe80  1  0.25056064  0.50247374  0.74694992  1
  Fe  Fe81  1  0.37168914  0.37402627  0.37737479  1
  Fe  Fe82  1  0.37566728  0.62545974  0.87566281  1
  Fe  Fe83  1  0.50086509  0.49767958  0.25001962  1
  Fe  Fe84  1  0.24905701  0.00099807  0.00019235  1
  Fe  Fe85  1  0.13227730  0.37358573  0.37666316  1
  Fe  Fe86  1  -0.00012023  0.75024802  0.00268325  1
  Fe  Fe87  1  0.37604871  0.87453283  0.37777123  1
  Fe  Fe88  1  0.87552301  0.12690129  0.37719070  1
  Fe  Fe89  1  0.12572094  0.37512903  0.62399077  1
  Co  Co90  1  0.25119669  0.24497288  0.50419494  1
  Co  Co91  1  -0.00033168  0.49501321  0.25564097  1
  Co  Co92  1  0.87126477  0.37447491  0.87541055  1
  Co  Co93  1  0.00022166  0.75138253  0.24978322  1
  Co  Co94  1  0.87256025  0.87168312  0.87841307  1
  Co  Co95  1  0.37492899  0.12307882  0.87348333  1
  Co  Co96  1  0.49828142  -0.00035208  0.25102182  1
  Co  Co97  1  0.62600971  0.12333467  0.37300329  1
  Co  Co98  1  -0.00018680  0.49926746  -0.00447188  1
  Co  Co99  1  0.12377969  0.87749264  0.12545255  1
  Co  Co100  1  0.50240684  -0.00584670  0.75380716  1
  Co  Co101  1  0.25087753  0.24924492  0.24682100  1
  Co  Co102  1  -0.00067834  0.25209272  0.75021102  1
  Co  Co103  1  0.62514703  0.37631506  0.62706121  1
  Co  Co104  1  0.75188709  0.75067620  0.74484251  1
  Co  Co105  1  0.25163369  0.50059994  0.24890454  1
  Co  Co106  1  0.12664680  0.87712122  0.62438491  1
  Co  Co107  1  0.12488600  0.12565326  0.37464387  1
  Co  Co108  1  0.74653467  0.24728976  0.50270890  1
  Co  Co109  1  0.87269107  0.87801562  0.62147306  1
  Co  Co110  1  0.50206305  0.74831954  0.49965526  1
  Co  Co111  1  0.87198453  0.87300456  0.37431166  1
  Co  Co112  1  0.62299338  0.62625320  0.12586058  1
  Co  Co113  1  0.50052159  0.25034252  0.75212183  1
  Co  Co114  1  0.62421601  0.87795640  0.12397272  1
  Co  Co115  1  0.11951906  0.62483254  0.62586965  1
  Co  Co116  1  0.75263364  0.74802169  0.00898323  1
  Co  Co117  1  -0.00247517  -0.00422305  0.75166751  1
  Co  Co118  1  0.50031576  0.50341636  0.75080464  1
  Co  Co119  1  0.62746076  0.37583209  0.37634432  1
  Co  Co120  1  0.49932501  0.00254368  0.49929785  1
  Co  Co121  1  0.74705630  0.50037544  0.00127670  1
  Co  Co122  1  0.49879012  0.75035369  0.00030675  1
  Co  Co123  1  0.62860986  0.62987140  0.87553807  1
  Co  Co124  1  -0.00040352  -0.00333025  0.49629735  1
  Co  Co125  1  0.62354730  0.37147930  0.12441694  1
  Co  Co126  1  0.25055216  0.50411053  0.50295076  1
  Co  Co127  1  0.00108298  0.25284310  0.49736639  1
