# generated using pymatgen
data_Fe45Co19
_symmetry_space_group_name_H-M   'P 1'
_cell_length_a   11.41577933
_cell_length_b   11.41477535
_cell_length_c   11.41493106
_cell_angle_alpha   89.99611417
_cell_angle_beta   89.99981997
_cell_angle_gamma   90.00072952
_symmetry_Int_Tables_number   1
_chemical_formula_structural   Fe45Co19
_chemical_formula_sum   'Fe90 Co38'
_cell_volume   1487.46318538
_cell_formula_units_Z   2
loop_
 _symmetry_equiv_pos_site_id
 _symmetry_equiv_pos_as_xyz
  1  'x, y, z'
loop_
 _atom_site_type_symbol
 _atom_site_label
 _atom_site_symmetry_multiplicity
 _atom_site_fract_x
 _atom_site_fract_y
 _atom_site_fract_z
 _atom_site_occupancy
  Fe  Fe0  1  0.25074492  0.49913030  -0.00293097  1
  Fe  Fe1  1  0.24811120  0.49716625  0.50022415  1
  Fe  Fe2  1  0.87312500  0.37721569  0.12742083  1
  Fe  Fe3  1  0.49834143  0.24943894  0.00001157  1
  Fe  Fe4  1  0.62410032  0.37631822  0.12671987  1
  Fe  Fe5  1  0.87334929  0.12655982  0.87672064  1
  Fe  Fe6  1  0.87522107  0.62374057  0.62361750  1
  Fe  Fe7  1  0.12647171  0.87440294  0.12441885  1
  Fe  Fe8  1  0.87082022  0.87683062  0.12754389  1
  Fe  Fe9  1  0.50089838  0.24763567  0.24809286  1
  Fe  Fe10  1  0.87376643  0.87260706  0.37324989  1
  Fe  Fe11  1  0.75159169  0.25069107  0.50147298  1
  Fe  Fe12  1  0.12474962  0.12433541  0.37797425  1
  Fe  Fe13  1  0.63051841  0.12031986  0.11794664  1
  Fe  Fe14  1  0.87813035  0.87150756  0.87375886  1
  Fe  Fe15  1  0.25295161  0.75012783  0.25160759  1
  Fe  Fe16  1  0.87396402  0.87734413  0.62636518  1
  Fe  Fe17  1  0.49923675  -0.00461776  0.49973932  1
  Fe  Fe18  1  0.37347127  0.12478984  0.12286567  1
  Fe  Fe19  1  0.24749922  0.74728144  -0.00507677  1
  Fe  Fe20  1  0.74922766  -0.00252059  0.49798198  1
  Fe  Fe21  1  -0.00064267  -0.00027340  0.00001067  1
  Fe  Fe22  1  0.62465435  0.86720780  0.37092119  1
  Fe  Fe23  1  0.50183255  0.00278952  0.75376963  1
  Fe  Fe24  1  0.12585892  0.37332379  0.87367885  1
  Fe  Fe25  1  0.49885164  0.74874038  0.75057996  1
  Fe  Fe26  1  0.62343145  0.87276216  0.62422282  1
  Fe  Fe27  1  -0.00059882  0.50290589  0.25082898  1
  Fe  Fe28  1  0.87661910  0.62550390  0.87580899  1
  Fe  Fe29  1  0.62276908  0.37388844  0.87409365  1
  Fe  Fe30  1  0.12497543  0.12529898  0.12300349  1
  Fe  Fe31  1  0.62504361  0.37388945  0.37370796  1
  Fe  Fe32  1  0.50076848  0.24838349  0.74979763  1
  Fe  Fe33  1  -0.00258564  0.25063295  0.74752624  1
  Fe  Fe34  1  0.75052702  0.74891358  0.74948527  1
  Fe  Fe35  1  0.12614080  0.62637268  0.37565120  1
  Fe  Fe36  1  0.49839961  0.49969013  -0.00128812  1
  Fe  Fe37  1  0.62482253  0.12372858  0.62332231  1
  Fe  Fe38  1  0.25018355  0.24719979  0.75150785  1
  Fe  Fe39  1  0.25128319  0.50219729  0.75278797  1
  Fe  Fe40  1  -0.00101300  0.25516807  0.50249602  1
  Fe  Fe41  1  0.37558369  0.87420209  0.12311619  1
  Fe  Fe42  1  0.62268479  0.12593050  0.37789915  1
  Fe  Fe43  1  0.37536530  0.37550028  0.62729581  1
  Fe  Fe44  1  0.25111037  0.49910896  0.24999210  1
  Fe  Fe45  1  0.62309799  0.62832782  0.62134818  1
  Fe  Fe46  1  -0.00028569  0.00083465  0.25040840  1
  Fe  Fe47  1  0.87407683  0.37656575  0.87439231  1
  Fe  Fe48  1  0.50302414  -0.00090469  0.24617979  1
  Fe  Fe49  1  0.37616635  0.37444939  0.37396908  1
  Fe  Fe50  1  0.74969454  0.24890390  0.74868726  1
  Fe  Fe51  1  0.24870437  0.00100646  0.24990210  1
  Fe  Fe52  1  0.00234861  0.74834865  0.00198108  1
  Fe  Fe53  1  0.37654682  0.12188775  0.62378119  1
  Fe  Fe54  1  0.24828906  0.00132766  -0.00316071  1
  Fe  Fe55  1  0.37594334  0.12231156  0.37611114  1
  Fe  Fe56  1  -0.00027729  0.75280400  0.50278564  1
  Fe  Fe57  1  0.37559996  0.62619498  0.62564897  1
  Fe  Fe58  1  0.00184302  0.49538725  0.49996270  1
  Fe  Fe59  1  0.50061342  0.50009457  0.49901092  1
  Fe  Fe60  1  0.25562216  0.75551111  0.50015971  1
  Fe  Fe61  1  0.24764313  0.00136267  0.75209414  1
  Fe  Fe62  1  0.37542583  0.87478462  0.87472131  1
  Fe  Fe63  1  0.12675810  0.87544214  0.62781916  1
  Fe  Fe64  1  -0.00141062  0.25042624  0.00220699  1
  Fe  Fe65  1  0.74755522  0.50180955  0.75012456  1
  Fe  Fe66  1  0.62494589  0.37533432  0.62431070  1
  Fe  Fe67  1  0.62263026  0.62610058  0.87531626  1
  Fe  Fe68  1  0.12637670  0.87549890  0.37441924  1
  Fe  Fe69  1  0.75136152  0.50615921  0.25289797  1
  Fe  Fe70  1  0.74891710  0.75088763  0.00100461  1
  Fe  Fe71  1  0.12697881  0.37533161  0.12594172  1
  Fe  Fe72  1  0.25073165  0.25005429  0.24975131  1
  Fe  Fe73  1  0.00273190  0.50137047  0.00100764  1
  Fe  Fe74  1  -0.00077980  0.24901277  0.24848955  1
  Fe  Fe75  1  -0.00077639  0.74742516  0.24752654  1
  Fe  Fe76  1  0.12683468  0.62694386  0.62595049  1
  Fe  Fe77  1  0.62272070  0.87549219  0.87779450  1
  Fe  Fe78  1  0.00044942  0.49988366  0.74832715  1
  Fe  Fe79  1  0.25088764  0.25037901  0.49988159  1
  Fe  Fe80  1  0.74802092  0.49946215  -0.00035741  1
  Fe  Fe81  1  0.49934053  0.50385064  0.25248660  1
  Fe  Fe82  1  0.75022316  0.50122654  0.49678886  1
  Fe  Fe83  1  0.87658808  0.12503589  0.37754798  1
  Fe  Fe84  1  0.62375838  0.62808242  0.12594014  1
  Fe  Fe85  1  0.37396916  0.62523844  0.12290650  1
  Fe  Fe86  1  0.00034832  0.00090799  0.75062449  1
  Fe  Fe87  1  0.12260076  0.12403034  0.62239477  1
  Fe  Fe88  1  0.74990356  0.24694659  0.24825239  1
  Fe  Fe89  1  0.74888155  0.00087924  0.75238503  1
  Co  Co90  1  0.37642603  0.37562957  0.12587827  1
  Co  Co91  1  0.75310445  -0.00476695  -0.00479906  1
  Co  Co92  1  0.12245493  0.12691281  0.87670204  1
  Co  Co93  1  0.87375539  0.37424846  0.37220164  1
  Co  Co94  1  0.49803439  0.25231226  0.50079972  1
  Co  Co95  1  0.25109522  0.25172544  -0.00002000  1
  Co  Co96  1  0.12772356  0.37389359  0.62918911  1
  Co  Co97  1  0.75301314  0.75153664  0.50248844  1
  Co  Co98  1  0.49508547  0.74798351  0.24992527  1
  Co  Co99  1  0.87149386  0.37803055  0.62589825  1
  Co  Co100  1  0.25057430  0.74889719  0.75298658  1
  Co  Co101  1  0.12879411  0.62468561  0.12702871  1
  Co  Co102  1  0.12532583  0.37445410  0.37216522  1
  Co  Co103  1  0.62742661  0.12614738  0.87934217  1
  Co  Co104  1  0.37645651  0.37396276  0.87243998  1
  Co  Co105  1  0.87444765  0.62363545  0.12034408  1
  Co  Co106  1  0.62427298  0.63163508  0.37762845  1
  Co  Co107  1  -0.00058164  0.74914246  0.74660428  1
  Co  Co108  1  0.75093515  0.25485692  0.00154136  1
  Co  Co109  1  0.12287021  0.87397634  0.87395447  1
  Co  Co110  1  0.37477943  0.12490602  0.87540777  1
  Co  Co111  1  0.75355273  0.74378005  0.24840932  1
  Co  Co112  1  0.87221983  0.12182108  0.12382203  1
  Co  Co113  1  0.37883945  0.62577231  0.87494421  1
  Co  Co114  1  0.49841222  0.00001451  0.00037885  1
  Co  Co115  1  0.49279995  0.75269833  0.49827009  1
  Co  Co116  1  0.37589589  0.87738475  0.63157106  1
  Co  Co117  1  0.37633478  0.88060008  0.37043645  1
  Co  Co118  1  0.25072225  -0.00244777  0.50086830  1
  Co  Co119  1  0.37220924  0.62225878  0.37735873  1
  Co  Co120  1  -0.00000428  -0.00384092  0.49907986  1
  Co  Co121  1  0.50147159  0.75062750  0.00155112  1
  Co  Co122  1  0.87919213  0.62657965  0.37947319  1
  Co  Co123  1  0.50158324  0.50112814  0.74852282  1
  Co  Co124  1  0.12163508  0.62475589  0.87225208  1
  Co  Co125  1  0.87458868  0.12167518  0.62323727  1
  Co  Co126  1  0.74818810  0.00296667  0.25480464  1
  Co  Co127  1  0.62789182  0.87464045  0.12765014  1
