# generated using pymatgen
data_Fe45Co19
_symmetry_space_group_name_H-M   'P 1'
_cell_length_a   11.41531641
_cell_length_b   11.41435882
_cell_length_c   11.41534248
_cell_angle_alpha   89.99761736
_cell_angle_beta   90.00297789
_cell_angle_gamma   90.00552014
_symmetry_Int_Tables_number   1
_chemical_formula_structural   Fe45Co19
_chemical_formula_sum   'Fe90 Co38'
_cell_volume   1487.40219260
_cell_formula_units_Z   2
loop_
 _symmetry_equiv_pos_site_id
 _symmetry_equiv_pos_as_xyz
  1  'x, y, z'
loop_
 _atom_site_type_symbol
 _atom_site_label
 _atom_site_symmetry_multiplicity
 _atom_site_fract_x
 _atom_site_fract_y
 _atom_site_fract_z
 _atom_site_occupancy
  Fe  Fe0  1  0.00169028  0.00107328  0.49902887  1
  Fe  Fe1  1  0.24929263  0.49852997  0.75031479  1
  Fe  Fe2  1  0.62478324  0.62655403  0.62592638  1
  Fe  Fe3  1  0.75098871  0.00042556  0.49847157  1
  Fe  Fe4  1  0.00177930  0.75185834  0.75071715  1
  Fe  Fe5  1  0.62514069  0.12603292  0.12641491  1
  Fe  Fe6  1  0.12539858  0.37367757  0.87651187  1
  Fe  Fe7  1  0.37766016  0.62428417  0.87129588  1
  Fe  Fe8  1  0.87524233  0.62321611  0.87376615  1
  Fe  Fe9  1  0.12512814  0.62549631  0.62572992  1
  Fe  Fe10  1  0.50139050  0.24877118  0.25383030  1
  Fe  Fe11  1  0.49846751  0.24965381  0.00031057  1
  Fe  Fe12  1  0.11758552  0.37430215  0.37472521  1
  Fe  Fe13  1  0.37425109  0.12549918  0.12708858  1
  Fe  Fe14  1  0.37220886  0.12898507  0.62064191  1
  Fe  Fe15  1  0.49776475  0.00103549  0.25232816  1
  Fe  Fe16  1  0.12553951  0.62792510  0.37568313  1
  Fe  Fe17  1  -0.00064575  0.25235987  0.00382125  1
  Fe  Fe18  1  0.49895434  0.00102633  0.00110585  1
  Fe  Fe19  1  0.62631803  0.37278489  0.62293242  1
  Fe  Fe20  1  -0.00095979  0.49627909  0.00382017  1
  Fe  Fe21  1  0.37496077  0.62567777  0.12720525  1
  Fe  Fe22  1  0.75017875  0.49715038  0.00193489  1
  Fe  Fe23  1  0.25244931  0.00014402  0.00259611  1
  Fe  Fe24  1  -0.00260269  0.75294101  0.00103893  1
  Fe  Fe25  1  0.88073261  0.37519657  0.37413437  1
  Fe  Fe26  1  0.36713215  0.87487541  0.37256233  1
  Fe  Fe27  1  0.50044912  0.74836558  -0.00222869  1
  Fe  Fe28  1  0.62260325  0.37740615  0.87646333  1
  Fe  Fe29  1  0.49875664  0.24949909  0.74947808  1
  Fe  Fe30  1  0.74849679  -0.00114606  0.25067502  1
  Fe  Fe31  1  0.87738128  0.12332309  0.87329230  1
  Fe  Fe32  1  0.74972471  0.49975455  0.24980409  1
  Fe  Fe33  1  0.62415635  0.87580129  0.62330453  1
  Fe  Fe34  1  0.49926247  0.50027769  0.50175175  1
  Fe  Fe35  1  0.12811667  0.12809864  0.62115911  1
  Fe  Fe36  1  0.87444841  0.62502361  0.12608191  1
  Fe  Fe37  1  0.87449521  0.62757521  0.37448092  1
  Fe  Fe38  1  0.75125114  0.75173265  0.00025591  1
  Fe  Fe39  1  0.25158954  0.75012724  -0.00050167  1
  Fe  Fe40  1  0.37408257  0.37410048  0.12604450  1
  Fe  Fe41  1  0.37358222  0.37266151  0.62315491  1
  Fe  Fe42  1  0.12445761  0.87769943  0.87737122  1
  Fe  Fe43  1  0.75161164  0.49832069  0.74860683  1
  Fe  Fe44  1  0.62433487  0.12426794  0.87509569  1
  Fe  Fe45  1  0.50199816  0.49871633  0.24894200  1
  Fe  Fe46  1  0.24924958  0.00182134  0.74900159  1
  Fe  Fe47  1  0.75353338  0.24719177  0.49659822  1
  Fe  Fe48  1  0.12274690  0.37436715  0.62164654  1
  Fe  Fe49  1  0.37511776  0.87585670  0.87348399  1
  Fe  Fe50  1  0.49655044  0.74972198  0.49859898  1
  Fe  Fe51  1  0.62470450  0.87688132  0.87440506  1
  Fe  Fe52  1  0.24719379  0.24976100  0.25236159  1
  Fe  Fe53  1  0.75081357  0.25014489  0.25181207  1
  Fe  Fe54  1  0.25139411  0.49879597  0.00028849  1
  Fe  Fe55  1  0.49904913  0.74964705  0.25161430  1
  Fe  Fe56  1  0.87506349  0.12337847  0.12694564  1
  Fe  Fe57  1  0.87699037  0.87994465  0.87240129  1
  Fe  Fe58  1  0.75186583  0.25163681  0.00058012  1
  Fe  Fe59  1  0.12602720  0.12564326  0.87656240  1
  Fe  Fe60  1  0.37649998  0.37529213  0.37599427  1
  Fe  Fe61  1  0.49662447  0.00178611  0.49702316  1
  Fe  Fe62  1  0.12561760  0.62511420  0.12346037  1
  Fe  Fe63  1  0.37252798  0.87243155  0.62655102  1
  Fe  Fe64  1  0.49888897  0.00205298  0.74870277  1
  Fe  Fe65  1  0.37464862  0.37363196  0.87473214  1
  Fe  Fe66  1  0.87504836  0.87640327  0.62677325  1
  Fe  Fe67  1  -0.00110874  0.74968987  0.50076792  1
  Fe  Fe68  1  0.62507797  0.62608187  0.37678776  1
  Fe  Fe69  1  0.75144852  -0.00048321  0.00067825  1
  Fe  Fe70  1  0.12298019  0.62373737  0.87577264  1
  Fe  Fe71  1  0.24792561  0.50073503  0.25171817  1
  Fe  Fe72  1  0.12818755  0.87295262  0.62248165  1
  Fe  Fe73  1  -0.00202132  0.49755192  0.74761810  1
  Fe  Fe74  1  0.00563452  -0.00141373  0.25063052  1
  Fe  Fe75  1  0.62523902  0.12524232  0.62219918  1
  Fe  Fe76  1  0.00058694  0.25047655  0.74860820  1
  Fe  Fe77  1  0.87452666  0.87400745  0.37350813  1
  Fe  Fe78  1  0.62366534  0.87428378  0.12582004  1
  Fe  Fe79  1  0.75094718  0.25082197  0.75166286  1
  Fe  Fe80  1  0.12597698  0.12511104  0.12390060  1
  Fe  Fe81  1  0.37405611  0.62669589  0.62809101  1
  Fe  Fe82  1  0.87429800  0.12396346  0.62698772  1
  Fe  Fe83  1  0.62532883  0.37471897  0.37695512  1
  Fe  Fe84  1  0.62465074  0.62482129  0.12416401  1
  Fe  Fe85  1  0.00233857  0.75211443  0.24804142  1
  Fe  Fe86  1  0.74863313  0.75113413  0.75041457  1
  Fe  Fe87  1  0.75428635  0.50185541  0.50126919  1
  Fe  Fe88  1  0.62610264  0.87378074  0.37571896  1
  Fe  Fe89  1  0.24893006  0.50073018  0.49821486  1
  Co  Co90  1  0.50287961  0.75127487  0.75112211  1
  Co  Co91  1  0.25025428  0.00009472  0.50105355  1
  Co  Co92  1  0.37521996  0.62348894  0.37276090  1
  Co  Co93  1  0.24720923  -0.00015603  0.24684563  1
  Co  Co94  1  0.87729750  0.12179147  0.37173573  1
  Co  Co95  1  0.12771169  0.12360301  0.37701056  1
  Co  Co96  1  0.49750342  0.49973404  0.00207427  1
  Co  Co97  1  0.62456508  0.37287858  0.12465488  1
  Co  Co98  1  0.49978976  0.49753206  0.74739828  1
  Co  Co99  1  0.74752505  0.00047601  0.74970098  1
  Co  Co100  1  0.37338645  0.12461499  0.87503743  1
  Co  Co101  1  -0.00155400  0.50418677  0.50069713  1
  Co  Co102  1  0.62553454  0.12353113  0.37524645  1
  Co  Co103  1  0.87584815  0.62723570  0.62821582  1
  Co  Co104  1  0.00176761  0.24613238  0.24794806  1
  Co  Co105  1  0.25267039  0.74560499  0.49969083  1
  Co  Co106  1  0.24778072  0.74998984  0.24727043  1
  Co  Co107  1  0.12588528  0.87393007  0.12160311  1
  Co  Co108  1  0.75064470  0.75055054  0.50158744  1
  Co  Co109  1  0.87566948  0.87719147  0.12830757  1
  Co  Co110  1  0.37009468  0.12498721  0.37565932  1
  Co  Co111  1  0.87610843  0.37517280  0.13003979  1
  Co  Co112  1  -0.00234274  0.24488219  0.49935204  1
  Co  Co113  1  0.50069438  0.24858551  0.49751799  1
  Co  Co114  1  0.12618850  0.37627300  0.12707474  1
  Co  Co115  1  0.87683917  0.37530754  0.87497995  1
  Co  Co116  1  0.24699842  0.75020665  0.75344469  1
  Co  Co117  1  0.37639839  0.87387087  0.12581889  1
  Co  Co118  1  0.00085366  0.50418815  0.24896692  1
  Co  Co119  1  0.24984377  0.25029033  0.00120429  1
  Co  Co120  1  -0.00118642  0.00115783  0.00204008  1
  Co  Co121  1  0.24791315  0.25494785  0.49505297  1
  Co  Co122  1  0.87591581  0.37292714  0.62187486  1
  Co  Co123  1  0.62597580  0.62108496  0.87487930  1
  Co  Co124  1  0.74901492  0.74955798  0.24852112  1
  Co  Co125  1  0.12896295  0.87318203  0.37788487  1
  Co  Co126  1  0.24909989  0.25058201  0.75033767  1
  Co  Co127  1  0.00556332  0.00163577  0.74667248  1
