# generated using pymatgen
data_Fe45Co19
_symmetry_space_group_name_H-M   'P 1'
_cell_length_a   11.41617714
_cell_length_b   11.41587590
_cell_length_c   11.41483544
_cell_angle_alpha   89.99838867
_cell_angle_beta   89.99397896
_cell_angle_gamma   90.00180816
_symmetry_Int_Tables_number   1
_chemical_formula_structural   Fe45Co19
_chemical_formula_sum   'Fe90 Co38'
_cell_volume   1487.64596999
_cell_formula_units_Z   2
loop_
 _symmetry_equiv_pos_site_id
 _symmetry_equiv_pos_as_xyz
  1  'x, y, z'
loop_
 _atom_site_type_symbol
 _atom_site_label
 _atom_site_symmetry_multiplicity
 _atom_site_fract_x
 _atom_site_fract_y
 _atom_site_fract_z
 _atom_site_occupancy
  Fe  Fe0  1  0.87035294  0.87633376  0.87185166  1
  Fe  Fe1  1  0.74837719  0.24651846  0.74987429  1
  Fe  Fe2  1  0.49514277  0.25283453  0.49944335  1
  Fe  Fe3  1  0.49827560  0.49770940  0.00015585  1
  Fe  Fe4  1  -0.00122124  0.25212663  0.49636142  1
  Fe  Fe5  1  0.87454008  0.37489013  0.62593207  1
  Fe  Fe6  1  0.75027109  0.50173808  -0.00066743  1
  Fe  Fe7  1  0.50076428  0.50009288  0.74984299  1
  Fe  Fe8  1  0.24536066  0.00148931  0.25338857  1
  Fe  Fe9  1  0.24984039  0.50226216  0.00366238  1
  Fe  Fe10  1  0.24896591  0.50053758  0.74716309  1
  Fe  Fe11  1  0.74866898  0.50082750  0.50026906  1
  Fe  Fe12  1  0.49825218  0.75228073  0.75206679  1
  Fe  Fe13  1  0.37536711  0.11943530  0.37870894  1
  Fe  Fe14  1  0.87458282  0.37741606  0.12529774  1
  Fe  Fe15  1  0.12620980  0.87401209  0.62425162  1
  Fe  Fe16  1  0.25611476  0.24931289  0.50262180  1
  Fe  Fe17  1  0.62202587  0.12421195  0.62239295  1
  Fe  Fe18  1  0.37363878  0.87543919  0.12793710  1
  Fe  Fe19  1  0.00253190  -0.00014309  0.75067028  1
  Fe  Fe20  1  0.12645633  0.87269627  0.12625758  1
  Fe  Fe21  1  0.00224305  0.24980515  0.75152595  1
  Fe  Fe22  1  0.75166865  0.74935382  0.00027194  1
  Fe  Fe23  1  0.12598322  0.62719383  0.37697755  1
  Fe  Fe24  1  0.74414213  0.50231209  0.25136774  1
  Fe  Fe25  1  0.87775968  0.12350104  0.62416245  1
  Fe  Fe26  1  0.62224862  0.62616441  0.62162507  1
  Fe  Fe27  1  0.25347043  0.74606349  0.25160727  1
  Fe  Fe28  1  0.87364458  0.62444445  0.37432219  1
  Fe  Fe29  1  0.62104267  0.62617234  0.12373872  1
  Fe  Fe30  1  0.12566243  0.37461066  0.87656426  1
  Fe  Fe31  1  0.12223626  0.62717784  0.12338265  1
  Fe  Fe32  1  0.37297584  0.37550868  0.87249373  1
  Fe  Fe33  1  0.62502454  0.12650691  0.37696036  1
  Fe  Fe34  1  0.75186730  0.24751991  0.50049920  1
  Fe  Fe35  1  0.87797900  0.12157559  0.12841048  1
  Fe  Fe36  1  0.12213833  0.62699627  0.62448267  1
  Fe  Fe37  1  0.24967804  0.00155051  0.00219669  1
  Fe  Fe38  1  0.87369685  0.87768880  0.12969343  1
  Fe  Fe39  1  0.12274243  0.62503683  0.87352472  1
  Fe  Fe40  1  0.13224066  0.37070144  0.36964878  1
  Fe  Fe41  1  0.49884171  0.74842692  0.25326468  1
  Fe  Fe42  1  0.74987401  0.24679355  0.24832397  1
  Fe  Fe43  1  -0.00177548  0.75206455  -0.00161676  1
  Fe  Fe44  1  -0.00371041  0.75264565  0.49956670  1
  Fe  Fe45  1  0.00264510  0.49758799  0.49888894  1
  Fe  Fe46  1  0.50101167  0.49580610  0.49369654  1
  Fe  Fe47  1  0.62354495  0.37327803  0.12649820  1
  Fe  Fe48  1  0.74955410  0.50249880  0.74788274  1
  Fe  Fe49  1  0.25407181  0.75136195  0.49892889  1
  Fe  Fe50  1  0.62510421  0.37318479  0.62348768  1
  Fe  Fe51  1  0.49678840  0.75428465  0.49754549  1
  Fe  Fe52  1  0.25154965  0.24919574  0.00206774  1
  Fe  Fe53  1  0.62797050  0.87619539  0.62727322  1
  Fe  Fe54  1  0.74968949  0.24797169  0.00217049  1
  Fe  Fe55  1  0.12472168  0.12650292  0.62191774  1
  Fe  Fe56  1  0.00329950  -0.00331693  0.49467365  1
  Fe  Fe57  1  0.87600406  0.62352002  0.12677998  1
  Fe  Fe58  1  0.87832635  0.62435668  0.87154402  1
  Fe  Fe59  1  0.62195654  0.12398631  0.88156870  1
  Fe  Fe60  1  0.62595514  0.87561569  0.12281903  1
  Fe  Fe61  1  0.12593480  0.37199851  0.62523206  1
  Fe  Fe62  1  0.49738391  0.25083793  0.25228122  1
  Fe  Fe63  1  0.37363050  0.37868600  0.13088231  1
  Fe  Fe64  1  0.87533148  0.37543360  0.87452402  1
  Fe  Fe65  1  -0.00177548  0.75182796  0.25167389  1
  Fe  Fe66  1  0.25330355  0.74811078  -0.00110965  1
  Fe  Fe67  1  0.50152012  -0.00131258  0.75310299  1
  Fe  Fe68  1  0.62951898  0.87386255  0.37480601  1
  Fe  Fe69  1  0.12150800  0.12765356  0.12803028  1
  Fe  Fe70  1  0.00085889  -0.00204992  0.00060796  1
  Fe  Fe71  1  0.49795506  0.24962458  0.74911105  1
  Fe  Fe72  1  0.24803803  0.00426507  0.74917175  1
  Fe  Fe73  1  0.75285998  0.74992353  0.50150844  1
  Fe  Fe74  1  0.00057038  0.25210970  0.00241032  1
  Fe  Fe75  1  0.62578014  0.37441955  0.87534415  1
  Fe  Fe76  1  0.87259001  0.87749323  0.62778279  1
  Fe  Fe77  1  0.87696180  0.12443568  0.87565128  1
  Fe  Fe78  1  0.87673360  0.12086871  0.37271233  1
  Fe  Fe79  1  0.37407456  0.88090684  0.62394018  1
  Fe  Fe80  1  0.87185076  0.37645408  0.37361821  1
  Fe  Fe81  1  0.49566925  0.75482693  -0.00409751  1
  Fe  Fe82  1  0.62266925  0.62701624  0.87611834  1
  Fe  Fe83  1  0.25227548  0.74886758  0.74951917  1
  Fe  Fe84  1  0.00421601  0.49757092  0.24964028  1
  Fe  Fe85  1  0.37988829  0.12222933  0.12373307  1
  Fe  Fe86  1  0.37522499  0.12461613  0.87578380  1
  Fe  Fe87  1  0.37676943  0.62191645  0.62164018  1
  Fe  Fe88  1  0.12768334  0.87553929  0.87537793  1
  Fe  Fe89  1  0.50365174  -0.00062523  0.25112066  1
  Co  Co90  1  0.00169820  0.49733686  0.74792577  1
  Co  Co91  1  0.37546630  0.62265657  0.87433388  1
  Co  Co92  1  0.49650743  0.25497280  0.00095661  1
  Co  Co93  1  0.49795752  -0.00622053  -0.00147413  1
  Co  Co94  1  0.50407785  0.50052573  0.25455866  1
  Co  Co95  1  0.74469005  0.00288965  0.24866314  1
  Co  Co96  1  0.24732574  0.50746538  0.24698178  1
  Co  Co97  1  0.00649922  -0.00326249  0.25381730  1
  Co  Co98  1  0.74906680  0.74512222  0.74801451  1
  Co  Co99  1  0.25106332  0.24808513  0.74850708  1
  Co  Co100  1  0.62546260  0.62952616  0.37815223  1
  Co  Co101  1  0.38034823  0.62543842  0.12491931  1
  Co  Co102  1  0.36938774  0.87813600  0.87357910  1
  Co  Co103  1  0.25621508  0.24313880  0.24805839  1
  Co  Co104  1  0.00024067  0.75330594  0.75013447  1
  Co  Co105  1  0.24509499  -0.00057927  0.49698724  1
  Co  Co106  1  0.37358016  0.87892181  0.37300524  1
  Co  Co107  1  0.50388143  -0.00397118  0.49827295  1
  Co  Co108  1  0.74788335  0.00622217  0.75026928  1
  Co  Co109  1  0.37480198  0.62059978  0.37762053  1
  Co  Co110  1  0.37671522  0.11922399  0.62361189  1
  Co  Co111  1  0.87105165  0.87677167  0.37146013  1
  Co  Co112  1  0.37647986  0.37826121  0.62628663  1
  Co  Co113  1  0.00083470  0.49959345  0.00166507  1
  Co  Co114  1  0.74945553  0.00081316  0.49992101  1
  Co  Co115  1  0.61965682  0.12612033  0.12137589  1
  Co  Co116  1  0.75101054  0.00170368  0.00257169  1
  Co  Co117  1  0.12493586  0.12525126  0.87743477  1
  Co  Co118  1  -0.00338070  0.25347756  0.25069215  1
  Co  Co119  1  0.12811658  0.37181963  0.12756592  1
  Co  Co120  1  0.62773823  0.36959154  0.37522260  1
  Co  Co121  1  0.87883941  0.62341134  0.62451307  1
  Co  Co122  1  0.74863361  0.74837591  0.24789711  1
  Co  Co123  1  0.63046171  0.87465581  0.87485140  1
  Co  Co124  1  0.12753839  0.86872263  0.37440741  1
  Co  Co125  1  0.36881814  0.37968088  0.37130645  1
  Co  Co126  1  0.24597223  0.49898960  0.50194709  1
  Co  Co127  1  0.12481079  0.13185309  0.37564927  1
