# generated using pymatgen
data_Fe45Co19
_symmetry_space_group_name_H-M   'P 1'
_cell_length_a   11.41531062
_cell_length_b   11.41587859
_cell_length_c   11.41555082
_cell_angle_alpha   90.00096541
_cell_angle_beta   89.99372902
_cell_angle_gamma   89.99885461
_symmetry_Int_Tables_number   1
_chemical_formula_structural   Fe45Co19
_chemical_formula_sum   'Fe90 Co38'
_cell_volume   1487.62662922
_cell_formula_units_Z   2
loop_
 _symmetry_equiv_pos_site_id
 _symmetry_equiv_pos_as_xyz
  1  'x, y, z'
loop_
 _atom_site_type_symbol
 _atom_site_label
 _atom_site_symmetry_multiplicity
 _atom_site_fract_x
 _atom_site_fract_y
 _atom_site_fract_z
 _atom_site_occupancy
  Fe  Fe0  1  0.37373853  0.62756263  0.37804996  1
  Fe  Fe1  1  0.12166785  0.37376636  0.62766342  1
  Fe  Fe2  1  -0.00117378  0.74856378  0.24923665  1
  Fe  Fe3  1  -0.00046316  0.00164171  0.25197392  1
  Fe  Fe4  1  0.37566069  0.62680207  0.62438228  1
  Fe  Fe5  1  0.25094248  0.25208969  0.24730441  1
  Fe  Fe6  1  0.62572643  0.12279793  0.37449276  1
  Fe  Fe7  1  0.12195730  0.37228902  0.12350750  1
  Fe  Fe8  1  0.62774953  0.62666876  0.62546850  1
  Fe  Fe9  1  0.12537168  0.87386789  0.37491878  1
  Fe  Fe10  1  0.12293817  0.87487635  0.62765769  1
  Fe  Fe11  1  0.25354025  -0.00322487  0.24783891  1
  Fe  Fe12  1  0.25444150  -0.00084192  0.00118472  1
  Fe  Fe13  1  0.25265577  -0.00050871  0.74944606  1
  Fe  Fe14  1  0.74815299  0.25037215  0.74889609  1
  Fe  Fe15  1  0.74847110  0.75100710  -0.00124891  1
  Fe  Fe16  1  0.12326452  0.62480883  0.37566925  1
  Fe  Fe17  1  0.25172375  0.75103929  0.00070737  1
  Fe  Fe18  1  0.12911852  0.12853059  0.87696193  1
  Fe  Fe19  1  0.50064092  0.75043637  0.25437249  1
  Fe  Fe20  1  0.62408838  0.12435283  0.62469960  1
  Fe  Fe21  1  0.12648782  0.12718297  0.12242442  1
  Fe  Fe22  1  0.00242757  0.50037471  -0.00481579  1
  Fe  Fe23  1  -0.00144291  0.24763046  0.75205785  1
  Fe  Fe24  1  0.37357131  0.12408166  0.37463266  1
  Fe  Fe25  1  0.37622056  0.62488728  0.12504083  1
  Fe  Fe26  1  0.87570583  0.62497328  0.12247098  1
  Fe  Fe27  1  0.12173548  0.62640638  0.62953258  1
  Fe  Fe28  1  0.75104862  0.50037110  0.24918749  1
  Fe  Fe29  1  0.74752113  0.50059740  0.00056018  1
  Fe  Fe30  1  0.24725684  0.49754567  0.75179514  1
  Fe  Fe31  1  0.12321317  0.37574212  0.37369908  1
  Fe  Fe32  1  0.87392432  0.37570519  0.87414115  1
  Fe  Fe33  1  -0.00096957  0.74902638  -0.00455160  1
  Fe  Fe34  1  0.87438264  0.62561782  0.37563725  1
  Fe  Fe35  1  0.62104709  0.87655280  0.87680311  1
  Fe  Fe36  1  0.75391472  0.75235433  0.75300169  1
  Fe  Fe37  1  0.62263663  0.12203854  0.12386488  1
  Fe  Fe38  1  0.87505950  0.12409028  0.12512689  1
  Fe  Fe39  1  0.24869354  0.50033433  0.50190790  1
  Fe  Fe40  1  0.24888283  -0.00125763  0.50141275  1
  Fe  Fe41  1  0.50212948  0.50263270  0.49961670  1
  Fe  Fe42  1  -0.00067389  -0.00027374  0.75171880  1
  Fe  Fe43  1  0.74769422  -0.00037395  0.75119689  1
  Fe  Fe44  1  0.37479163  0.62565394  0.87399793  1
  Fe  Fe45  1  0.75029009  0.75133994  0.24990785  1
  Fe  Fe46  1  0.25046435  0.75044351  0.24920186  1
  Fe  Fe47  1  -0.00019854  0.00150275  -0.00124634  1
  Fe  Fe48  1  -0.00030284  0.24730955  0.49797922  1
  Fe  Fe49  1  0.87613939  0.87543352  0.12289896  1
  Fe  Fe50  1  0.12514457  0.62539682  0.12244016  1
  Fe  Fe51  1  0.12737330  0.12512751  0.37434189  1
  Fe  Fe52  1  0.61982127  0.87743295  0.12375138  1
  Fe  Fe53  1  0.87079200  0.12226862  0.87600352  1
  Fe  Fe54  1  -0.00233482  0.50011331  0.50241215  1
  Fe  Fe55  1  0.12508449  0.87366316  0.87463836  1
  Fe  Fe56  1  0.37598814  0.12522700  0.62501532  1
  Fe  Fe57  1  0.75066219  0.24975326  0.24912235  1
  Fe  Fe58  1  0.49965497  0.24915406  0.24986345  1
  Fe  Fe59  1  0.75072718  -0.00111804  0.24979282  1
  Fe  Fe60  1  0.87818336  0.37537213  0.12599266  1
  Fe  Fe61  1  0.37848302  0.87285635  0.87586649  1
  Fe  Fe62  1  0.62427676  0.37709041  0.37430109  1
  Fe  Fe63  1  0.37718113  0.37615629  0.62666290  1
  Fe  Fe64  1  0.50088028  0.50132285  -0.00261146  1
  Fe  Fe65  1  0.25018053  0.49627452  -0.00242000  1
  Fe  Fe66  1  0.37663896  0.87209519  0.62169443  1
  Fe  Fe67  1  0.50273113  0.25039046  0.75055439  1
  Fe  Fe68  1  0.37567640  0.37702621  0.37356016  1
  Fe  Fe69  1  0.74964343  0.75377722  0.49894717  1
  Fe  Fe70  1  0.49995118  0.25094592  0.49926354  1
  Fe  Fe71  1  0.50149214  -0.00230742  0.49861147  1
  Fe  Fe72  1  0.87679024  0.37383044  0.37297642  1
  Fe  Fe73  1  0.62360782  0.62509345  0.12685178  1
  Fe  Fe74  1  0.75128158  0.49757624  0.50181059  1
  Fe  Fe75  1  0.75124680  0.49784671  0.74746458  1
  Fe  Fe76  1  0.50349325  0.50133311  0.75127332  1
  Fe  Fe77  1  0.62190027  0.37648230  0.12574131  1
  Fe  Fe78  1  0.49874440  0.24984358  -0.00052856  1
  Fe  Fe79  1  0.87407852  0.12136469  0.62164816  1
  Fe  Fe80  1  0.74972543  0.24939512  0.00103514  1
  Fe  Fe81  1  -0.00141206  0.75256357  0.50271249  1
  Fe  Fe82  1  0.62386808  0.87467472  0.62655248  1
  Fe  Fe83  1  0.37429620  0.12805460  0.87289245  1
  Fe  Fe84  1  0.12431512  0.87471520  0.12376513  1
  Fe  Fe85  1  0.74939406  0.25115100  0.50078901  1
  Fe  Fe86  1  0.24913185  0.50038100  0.24911061  1
  Fe  Fe87  1  0.25092654  0.25209459  0.50213880  1
  Fe  Fe88  1  0.25122651  0.75063684  0.74912672  1
  Fe  Fe89  1  0.12533519  0.12461274  0.62566967  1
  Co  Co90  1  0.87193272  0.12377495  0.37749371  1
  Co  Co91  1  0.50208026  0.74585167  -0.00158951  1
  Co  Co92  1  0.87195672  0.62248534  0.87552001  1
  Co  Co93  1  0.50029302  0.74886792  0.74974796  1
  Co  Co94  1  0.24535632  0.74854529  0.50258789  1
  Co  Co95  1  0.62662176  0.37452462  0.87550256  1
  Co  Co96  1  -0.00021125  0.50106732  0.75259932  1
  Co  Co97  1  0.62636447  0.87743434  0.37252432  1
  Co  Co98  1  0.12472403  0.36927754  0.87466061  1
  Co  Co99  1  0.87549784  0.87590762  0.37512653  1
  Co  Co100  1  0.50021047  0.50403345  0.25294262  1
  Co  Co101  1  0.62842714  0.62493220  0.87216753  1
  Co  Co102  1  0.87791056  0.37209431  0.62604941  1
  Co  Co103  1  0.87479241  0.87823700  0.87731627  1
  Co  Co104  1  0.62926979  0.62351027  0.37552408  1
  Co  Co105  1  0.37519562  0.12473331  0.12663846  1
  Co  Co106  1  -0.00052183  0.24676068  0.25063292  1
  Co  Co107  1  0.74833610  -0.00090195  0.00133705  1
  Co  Co108  1  0.62280132  0.37485913  0.62451050  1
  Co  Co109  1  -0.00000312  0.50249860  0.24858597  1
  Co  Co110  1  0.37974892  0.87290354  0.12373236  1
  Co  Co111  1  0.37888405  0.37780526  0.12673842  1
  Co  Co112  1  0.00244859  -0.00028881  0.49826651  1
  Co  Co113  1  0.37641243  0.37431324  0.87161563  1
  Co  Co114  1  0.74705474  -0.00208886  0.50035019  1
  Co  Co115  1  0.87332693  0.62685009  0.62541672  1
  Co  Co116  1  0.25489210  0.25329690  0.00278001  1
  Co  Co117  1  0.49889685  -0.00066362  0.74997743  1
  Co  Co118  1  0.87538329  0.87879519  0.62483638  1
  Co  Co119  1  0.62535446  0.12468841  0.87589335  1
  Co  Co120  1  0.25039545  0.25073890  0.74620947  1
  Co  Co121  1  -0.00449331  0.24806876  -0.00158042  1
  Co  Co122  1  0.49666043  -0.00136889  0.25264008  1
  Co  Co123  1  0.50496039  0.74943995  0.49877159  1
  Co  Co124  1  0.49613037  0.00342598  -0.00197881  1
  Co  Co125  1  0.37226933  0.87238433  0.37900048  1
  Co  Co126  1  -0.00477289  0.75061147  0.75281309  1
  Co  Co127  1  0.12736772  0.62810478  0.87342024  1
