# generated using pymatgen
data_Fe45Co19
_symmetry_space_group_name_H-M   'P 1'
_cell_length_a   11.41595905
_cell_length_b   11.41457491
_cell_length_c   11.41495864
_cell_angle_alpha   89.99954675
_cell_angle_beta   89.99557435
_cell_angle_gamma   90.00309124
_symmetry_Int_Tables_number   1
_chemical_formula_structural   Fe45Co19
_chemical_formula_sum   'Fe90 Co38'
_cell_volume   1487.46407273
_cell_formula_units_Z   2
loop_
 _symmetry_equiv_pos_site_id
 _symmetry_equiv_pos_as_xyz
  1  'x, y, z'
loop_
 _atom_site_type_symbol
 _atom_site_label
 _atom_site_symmetry_multiplicity
 _atom_site_fract_x
 _atom_site_fract_y
 _atom_site_fract_z
 _atom_site_occupancy
  Fe  Fe0  1  0.25230635  -0.00408893  0.25239745  1
  Fe  Fe1  1  0.37604371  0.37448261  0.87823219  1
  Fe  Fe2  1  0.12247854  0.87401087  0.62412049  1
  Fe  Fe3  1  0.87578279  0.87208467  0.87444011  1
  Fe  Fe4  1  0.50102400  0.74781821  0.50104981  1
  Fe  Fe5  1  -0.00195029  0.74679678  0.74957930  1
  Fe  Fe6  1  0.24892263  0.75038734  0.49592399  1
  Fe  Fe7  1  0.24813406  0.25217913  0.75159913  1
  Fe  Fe8  1  0.37455395  0.62600516  0.87690276  1
  Fe  Fe9  1  0.62376835  0.37581654  0.87470352  1
  Fe  Fe10  1  0.49878942  -0.00246126  0.24938053  1
  Fe  Fe11  1  0.24856614  0.74858350  0.75079092  1
  Fe  Fe12  1  0.24615568  0.50050627  -0.00257550  1
  Fe  Fe13  1  0.62732367  0.87245146  0.62522912  1
  Fe  Fe14  1  0.24856034  0.25221687  0.24894851  1
  Fe  Fe15  1  0.50090532  0.74796191  0.75088800  1
  Fe  Fe16  1  0.74990969  0.00046620  0.49937839  1
  Fe  Fe17  1  0.62530512  0.12563069  0.37229864  1
  Fe  Fe18  1  0.12113265  0.12466048  0.62817752  1
  Fe  Fe19  1  0.49970754  0.50003251  0.50127802  1
  Fe  Fe20  1  0.12451739  0.12577453  0.37429870  1
  Fe  Fe21  1  0.37448594  0.62452151  0.62540742  1
  Fe  Fe22  1  0.50026698  0.50329564  0.24690184  1
  Fe  Fe23  1  0.87450395  0.87314100  0.62358840  1
  Fe  Fe24  1  0.00252377  0.25268047  0.00447967  1
  Fe  Fe25  1  0.37496028  0.87448752  0.62464765  1
  Fe  Fe26  1  0.12369170  0.62200736  0.62072475  1
  Fe  Fe27  1  0.50216555  0.25078520  0.24622987  1
  Fe  Fe28  1  -0.00047634  0.74797224  0.00140978  1
  Fe  Fe29  1  0.87449297  0.87293132  0.12636904  1
  Fe  Fe30  1  0.25036096  -0.00119565  0.49916701  1
  Fe  Fe31  1  0.37605684  0.37657167  0.62654674  1
  Fe  Fe32  1  0.24978982  0.25067700  0.50121395  1
  Fe  Fe33  1  0.12455940  0.37846472  0.62257279  1
  Fe  Fe34  1  0.62640787  0.62306147  0.62652596  1
  Fe  Fe35  1  0.12322327  0.87242454  0.87542556  1
  Fe  Fe36  1  -0.00140349  0.74887856  0.25331070  1
  Fe  Fe37  1  0.24865894  -0.00109221  0.75103071  1
  Fe  Fe38  1  0.74998119  0.25111364  0.49986876  1
  Fe  Fe39  1  0.49505378  0.74821387  0.24364300  1
  Fe  Fe40  1  0.37508553  0.87307681  0.87788982  1
  Fe  Fe41  1  0.00129290  0.50073454  0.00161295  1
  Fe  Fe42  1  0.24957096  0.50064712  0.75131035  1
  Fe  Fe43  1  0.37617725  0.12452070  0.62657724  1
  Fe  Fe44  1  0.62630461  0.12530449  0.62697037  1
  Fe  Fe45  1  0.12700361  0.87322021  0.12680767  1
  Fe  Fe46  1  0.75039638  0.50187595  0.49673693  1
  Fe  Fe47  1  0.50200742  0.25179807  0.74994855  1
  Fe  Fe48  1  0.37457119  0.37538322  0.12123695  1
  Fe  Fe49  1  0.12615919  0.12488468  0.12604344  1
  Fe  Fe50  1  0.74680846  0.49975982  0.24755251  1
  Fe  Fe51  1  0.75055229  -0.00009736  -0.00016294  1
  Fe  Fe52  1  0.87571833  0.37455703  0.36961143  1
  Fe  Fe53  1  0.75008640  -0.00199555  0.25009894  1
  Fe  Fe54  1  0.50253604  0.25158526  0.50219204  1
  Fe  Fe55  1  0.75125039  0.25063642  0.74917747  1
  Fe  Fe56  1  -0.00337375  0.74592041  0.49511413  1
  Fe  Fe57  1  0.50152899  -0.00107867  0.75113694  1
  Fe  Fe58  1  0.87144467  0.62329379  0.12496438  1
  Fe  Fe59  1  -0.00056376  0.50055211  0.75153086  1
  Fe  Fe60  1  0.12938000  0.62731609  0.12743105  1
  Fe  Fe61  1  0.75259999  -0.00048139  0.75050865  1
  Fe  Fe62  1  0.37632309  0.12607762  0.37494930  1
  Fe  Fe63  1  0.37620413  0.37405443  0.37518339  1
  Fe  Fe64  1  0.87663147  0.12773795  0.87484802  1
  Fe  Fe65  1  0.87629109  0.37573899  0.87870825  1
  Fe  Fe66  1  0.24920305  0.49847346  0.25371526  1
  Fe  Fe67  1  0.50339959  0.00171462  -0.00089127  1
  Fe  Fe68  1  0.75277175  0.74550883  0.49544377  1
  Fe  Fe69  1  0.62361731  0.37678673  0.37393858  1
  Fe  Fe70  1  0.37630734  0.12738143  0.87604777  1
  Fe  Fe71  1  0.87284542  0.37830731  0.62502286  1
  Fe  Fe72  1  0.50455380  0.50508635  0.00085662  1
  Fe  Fe73  1  -0.00108054  -0.00041593  0.00077553  1
  Fe  Fe74  1  0.62622451  0.87009473  0.87643149  1
  Fe  Fe75  1  0.87325198  0.12864960  0.12701788  1
  Fe  Fe76  1  0.62665781  0.87126264  0.12403886  1
  Fe  Fe77  1  0.87422987  0.12745822  0.37189537  1
  Fe  Fe78  1  0.37560546  0.12495174  0.12267692  1
  Fe  Fe79  1  0.37509182  0.62550335  0.37497107  1
  Fe  Fe80  1  0.12050593  0.12711085  0.87235286  1
  Fe  Fe81  1  0.62383259  0.87080578  0.37338255  1
  Fe  Fe82  1  -0.00208523  0.25206994  0.50021099  1
  Fe  Fe83  1  0.00395680  0.49659899  0.24913487  1
  Fe  Fe84  1  0.74568348  0.25205879  0.00427611  1
  Fe  Fe85  1  0.50072225  -0.00012417  0.50025366  1
  Fe  Fe86  1  -0.00156811  0.00048160  0.49964381  1
  Fe  Fe87  1  -0.00139070  0.00034504  0.24974125  1
  Fe  Fe88  1  0.24767213  0.00049221  -0.00233743  1
  Fe  Fe89  1  0.75034803  0.50399685  0.75404176  1
  Co  Co90  1  0.24973559  0.75003265  0.00020685  1
  Co  Co91  1  0.62713215  0.37884323  0.62634259  1
  Co  Co92  1  0.87514707  0.62297042  0.62576711  1
  Co  Co93  1  0.25456578  0.49931107  0.49862778  1
  Co  Co94  1  0.12865623  0.37661867  0.12318322  1
  Co  Co95  1  0.25352959  0.75248264  0.25239437  1
  Co  Co96  1  0.12237802  0.87509123  0.37388832  1
  Co  Co97  1  0.49996467  0.50203174  0.75199696  1
  Co  Co98  1  0.74824259  0.49861042  0.00019319  1
  Co  Co99  1  0.50442069  0.24869899  0.00193174  1
  Co  Co100  1  0.12307845  0.37537641  0.87557085  1
  Co  Co101  1  0.62987463  0.62923042  0.12464289  1
  Co  Co102  1  0.75349463  0.75009771  -0.00045059  1
  Co  Co103  1  0.74624541  0.25283386  0.24787187  1
  Co  Co104  1  0.12485547  0.37564881  0.37877123  1
  Co  Co105  1  0.37318648  0.87828003  0.12002153  1
  Co  Co106  1  0.00390785  0.25226382  0.24821148  1
  Co  Co107  1  0.62267084  0.62601096  0.37263636  1
  Co  Co108  1  0.24719899  0.24885336  -0.00071369  1
  Co  Co109  1  0.62765758  0.12615803  0.87291797  1
  Co  Co110  1  0.62650346  0.62912437  0.87735672  1
  Co  Co111  1  -0.00447296  0.49942365  0.49787030  1
  Co  Co112  1  0.75169474  0.74737698  0.74957139  1
  Co  Co113  1  0.12551853  0.62261507  0.37573428  1
  Co  Co114  1  0.12344497  0.62616630  0.87541723  1
  Co  Co115  1  0.87562989  0.61949267  0.36911673  1
  Co  Co116  1  0.87525812  0.62417699  0.87828060  1
  Co  Co117  1  0.49740884  0.74690895  0.00401443  1
  Co  Co118  1  0.87581358  0.12495599  0.62617848  1
  Co  Co119  1  0.62561681  0.12207837  0.12724066  1
  Co  Co120  1  0.87513549  0.87757476  0.37539538  1
  Co  Co121  1  0.62247079  0.37806500  0.12484852  1
  Co  Co122  1  0.37854286  0.87358283  0.37767190  1
  Co  Co123  1  0.36860046  0.62086581  0.12306954  1
  Co  Co124  1  0.87450139  0.37583812  0.12637240  1
  Co  Co125  1  -0.00284592  -0.00290523  0.75072927  1
  Co  Co126  1  0.75320226  0.74968297  0.25278511  1
  Co  Co127  1  -0.00154960  0.25565481  0.74760993  1
