# generated using pymatgen
data_Fe45Co19
_symmetry_space_group_name_H-M   'P 1'
_cell_length_a   11.41345701
_cell_length_b   11.41544674
_cell_length_c   11.41462972
_cell_angle_alpha   90.00126695
_cell_angle_beta   89.98632878
_cell_angle_gamma   89.98932938
_symmetry_Int_Tables_number   1
_chemical_formula_structural   Fe45Co19
_chemical_formula_sum   'Fe90 Co38'
_cell_volume   1487.20873503
_cell_formula_units_Z   2
loop_
 _symmetry_equiv_pos_site_id
 _symmetry_equiv_pos_as_xyz
  1  'x, y, z'
loop_
 _atom_site_type_symbol
 _atom_site_label
 _atom_site_symmetry_multiplicity
 _atom_site_fract_x
 _atom_site_fract_y
 _atom_site_fract_z
 _atom_site_occupancy
  Fe  Fe0  1  0.12378101  0.62416285  0.87635308  1
  Fe  Fe1  1  0.24847226  0.74944893  0.74745711  1
  Fe  Fe2  1  0.49952223  -0.00043013  -0.00134344  1
  Fe  Fe3  1  0.87415397  0.87190690  0.87324907  1
  Fe  Fe4  1  -0.00186880  0.49954715  0.49905886  1
  Fe  Fe5  1  0.12400659  0.61932061  0.36936604  1
  Fe  Fe6  1  0.74987373  0.24678128  0.24718227  1
  Fe  Fe7  1  0.87402733  0.62600848  0.62594019  1
  Fe  Fe8  1  -0.00336815  0.00259218  0.25301512  1
  Fe  Fe9  1  0.37364509  0.12627187  0.37418809  1
  Fe  Fe10  1  -0.00106839  0.00235575  0.49789384  1
  Fe  Fe11  1  0.74517215  0.75237621  0.25330975  1
  Fe  Fe12  1  0.87476374  0.37336426  0.62582051  1
  Fe  Fe13  1  0.00057074  0.74879041  0.74937817  1
  Fe  Fe14  1  0.00096034  0.24889054  0.25464038  1
  Fe  Fe15  1  0.50408098  0.25212586  0.49946396  1
  Fe  Fe16  1  0.37685441  0.12818921  0.62560046  1
  Fe  Fe17  1  0.24896686  0.00060889  0.00043386  1
  Fe  Fe18  1  0.12173759  0.87315255  0.12561896  1
  Fe  Fe19  1  0.62727831  0.87560452  0.87501015  1
  Fe  Fe20  1  0.37798553  0.62466845  0.37459424  1
  Fe  Fe21  1  0.12303035  0.12463492  0.12549342  1
  Fe  Fe22  1  0.50457868  0.25096679  0.75145063  1
  Fe  Fe23  1  0.50353229  0.74966927  0.49717744  1
  Fe  Fe24  1  0.24983445  0.50052157  0.74921990  1
  Fe  Fe25  1  0.37661983  0.37491888  0.62505205  1
  Fe  Fe26  1  0.38040237  0.37358166  0.12514168  1
  Fe  Fe27  1  0.62442643  0.87559345  0.12460127  1
  Fe  Fe28  1  0.87291608  0.87513445  0.37495196  1
  Fe  Fe29  1  0.12309436  0.37971312  0.12710699  1
  Fe  Fe30  1  0.37834003  0.37559652  0.37350886  1
  Fe  Fe31  1  -0.00191973  -0.00124243  -0.00148790  1
  Fe  Fe32  1  0.62740365  0.12362261  0.37473137  1
  Fe  Fe33  1  0.38039096  0.62633208  0.12422127  1
  Fe  Fe34  1  0.37760368  0.87266908  0.12428318  1
  Fe  Fe35  1  0.12413291  0.12357234  0.62599989  1
  Fe  Fe36  1  0.37458632  0.87254451  0.37560797  1
  Fe  Fe37  1  0.62866041  0.12430926  0.87646974  1
  Fe  Fe38  1  0.25237054  -0.00059730  0.50306431  1
  Fe  Fe39  1  0.12270844  0.37833413  0.87743113  1
  Fe  Fe40  1  0.87277853  0.12728148  0.87771597  1
  Fe  Fe41  1  0.63176604  0.37657653  0.87683133  1
  Fe  Fe42  1  0.74813808  0.75007622  0.50013476  1
  Fe  Fe43  1  0.74905222  0.49889804  0.24805982  1
  Fe  Fe44  1  0.87569793  0.87255207  0.12710671  1
  Fe  Fe45  1  0.62926401  0.62281722  0.87550610  1
  Fe  Fe46  1  0.87529250  0.37300817  0.12417703  1
  Fe  Fe47  1  0.37649140  0.12722993  0.12414954  1
  Fe  Fe48  1  0.62259678  0.37410216  0.12327065  1
  Fe  Fe49  1  0.87351441  0.37154827  0.37637356  1
  Fe  Fe50  1  0.75197572  0.00027913  0.74873274  1
  Fe  Fe51  1  0.49771040  -0.00087780  0.74936918  1
  Fe  Fe52  1  -0.00001953  0.25026540  -0.00051669  1
  Fe  Fe53  1  0.37522586  0.62528418  0.87641585  1
  Fe  Fe54  1  0.37299498  0.12593385  0.87534173  1
  Fe  Fe55  1  0.50220953  0.74988809  0.75100927  1
  Fe  Fe56  1  0.12476386  0.87594026  0.62513313  1
  Fe  Fe57  1  0.87514443  0.12664624  0.62352376  1
  Fe  Fe58  1  0.62559694  0.12350298  0.12260230  1
  Fe  Fe59  1  0.24620052  0.25208981  0.49808432  1
  Fe  Fe60  1  0.37581883  0.62642633  0.62319473  1
  Fe  Fe61  1  0.37329096  0.87434962  0.87463842  1
  Fe  Fe62  1  0.62340618  0.62589137  0.12425880  1
  Fe  Fe63  1  0.74778570  0.49803029  0.50024848  1
  Fe  Fe64  1  0.12360247  0.37694111  0.62444212  1
  Fe  Fe65  1  -0.00732967  0.50623156  0.00227331  1
  Fe  Fe66  1  0.62572299  0.62174103  0.62497127  1
  Fe  Fe67  1  -0.00066400  0.24983097  0.75172016  1
  Fe  Fe68  1  0.87267063  0.62505104  0.37251489  1
  Fe  Fe69  1  0.24839933  0.25100412  0.00067560  1
  Fe  Fe70  1  0.12503346  0.87715646  0.87303181  1
  Fe  Fe71  1  0.75052919  0.00027038  0.50021362  1
  Fe  Fe72  1  0.24744609  0.74903048  0.00201199  1
  Fe  Fe73  1  0.50036964  0.49941715  0.75118918  1
  Fe  Fe74  1  0.24666328  0.25014851  0.75143426  1
  Fe  Fe75  1  0.24803655  0.25248970  0.25103005  1
  Fe  Fe76  1  0.25035154  0.50069891  0.49953674  1
  Fe  Fe77  1  0.75149709  0.74917347  -0.00016236  1
  Fe  Fe78  1  0.49827503  -0.00003079  0.49945911  1
  Fe  Fe79  1  0.25075432  0.00046063  0.24852933  1
  Fe  Fe80  1  0.50062002  -0.00042997  0.25083050  1
  Fe  Fe81  1  0.00232606  0.74774558  0.49703859  1
  Fe  Fe82  1  0.74587522  0.25107866  0.50395958  1
  Fe  Fe83  1  0.87602530  0.87383131  0.62441551  1
  Fe  Fe84  1  -0.00344077  0.50042880  0.75101950  1
  Fe  Fe85  1  0.62387201  0.87674762  0.62416984  1
  Fe  Fe86  1  0.37444114  0.37452159  0.87588081  1
  Fe  Fe87  1  0.24944347  0.74781407  0.24916229  1
  Fe  Fe88  1  0.12673116  0.87684854  0.37467241  1
  Fe  Fe89  1  0.25135500  0.50115987  0.00367295  1
  Co  Co90  1  0.74971187  0.24889398  0.74773074  1
  Co  Co91  1  0.75310506  -0.00223336  0.00088469  1
  Co  Co92  1  0.12391193  0.38071249  0.37344373  1
  Co  Co93  1  0.62360881  0.12195661  0.62510440  1
  Co  Co94  1  0.50240194  0.50076421  0.24990617  1
  Co  Co95  1  0.00160440  0.75153310  0.25450270  1
  Co  Co96  1  0.87769394  0.12455163  0.12372008  1
  Co  Co97  1  0.50185242  0.24730424  0.25103951  1
  Co  Co98  1  0.50164184  0.75067961  -0.00357312  1
  Co  Co99  1  0.50106610  0.49864136  -0.00209311  1
  Co  Co100  1  0.62462363  0.37804154  0.62736758  1
  Co  Co101  1  0.62622092  0.37370789  0.37214304  1
  Co  Co102  1  0.50149071  0.24977613  -0.00342254  1
  Co  Co103  1  0.62630226  0.62214641  0.37518905  1
  Co  Co104  1  0.87107978  0.12812499  0.37743008  1
  Co  Co105  1  0.25322918  0.00018197  0.74716462  1
  Co  Co106  1  0.75036666  0.25025409  0.00320098  1
  Co  Co107  1  0.00337941  0.25006336  0.49860048  1
  Co  Co108  1  0.75186893  0.00111655  0.24882846  1
  Co  Co109  1  0.50255156  0.75103575  0.25262432  1
  Co  Co110  1  0.50194809  0.49789254  0.49937929  1
  Co  Co111  1  0.87261102  0.37420187  0.87658328  1
  Co  Co112  1  0.75277844  0.49893399  0.74891732  1
  Co  Co113  1  0.25570648  0.49972681  0.24730210  1
  Co  Co114  1  0.12390256  0.62264036  0.62544611  1
  Co  Co115  1  0.87451145  0.63211268  0.13123098  1
  Co  Co116  1  0.87160807  0.62722308  0.87163690  1
  Co  Co117  1  0.75442557  0.50270646  0.00457381  1
  Co  Co118  1  -0.00115638  0.74830844  -0.00156207  1
  Co  Co119  1  0.62581994  0.87919091  0.37635576  1
  Co  Co120  1  0.12167440  0.62367627  0.12824458  1
  Co  Co121  1  0.12512128  0.12352577  0.87555743  1
  Co  Co122  1  0.37570811  0.86961551  0.62313887  1
  Co  Co123  1  -0.00393819  0.00153728  0.75091408  1
  Co  Co124  1  0.24516717  0.74674606  0.49771845  1
  Co  Co125  1  0.74806954  0.75138701  0.74698555  1
  Co  Co126  1  -0.00682378  0.49793925  0.24951637  1
  Co  Co127  1  0.12759249  0.12267079  0.37495894  1
