# generated using pymatgen
data_Fe45Co19
_symmetry_space_group_name_H-M   'P 1'
_cell_length_a   11.41562109
_cell_length_b   11.41422817
_cell_length_c   11.41564948
_cell_angle_alpha   89.99588622
_cell_angle_beta   89.99869258
_cell_angle_gamma   89.99351851
_symmetry_Int_Tables_number   1
_chemical_formula_structural   Fe45Co19
_chemical_formula_sum   'Fe90 Co38'
_cell_volume   1487.46486521
_cell_formula_units_Z   2
loop_
 _symmetry_equiv_pos_site_id
 _symmetry_equiv_pos_as_xyz
  1  'x, y, z'
loop_
 _atom_site_type_symbol
 _atom_site_label
 _atom_site_symmetry_multiplicity
 _atom_site_fract_x
 _atom_site_fract_y
 _atom_site_fract_z
 _atom_site_occupancy
  Fe  Fe0  1  0.00113738  -0.00311652  0.75365868  1
  Fe  Fe1  1  0.74905159  0.00049741  0.25194885  1
  Fe  Fe2  1  0.50044149  0.25219654  0.00002886  1
  Fe  Fe3  1  0.24924611  0.25074925  0.00157248  1
  Fe  Fe4  1  0.00087368  0.25079043  0.50424434  1
  Fe  Fe5  1  0.87700219  0.12770762  0.37350941  1
  Fe  Fe6  1  0.74856363  0.00143684  0.75119634  1
  Fe  Fe7  1  0.49758000  -0.00225533  0.00032421  1
  Fe  Fe8  1  0.87441748  0.37988207  0.12742134  1
  Fe  Fe9  1  0.75096482  0.74862963  0.74670967  1
  Fe  Fe10  1  0.87347842  0.87409058  0.12739318  1
  Fe  Fe11  1  0.62600705  0.87360935  0.87570278  1
  Fe  Fe12  1  0.24689696  0.00210711  0.25463051  1
  Fe  Fe13  1  0.87827256  0.62264489  0.37590947  1
  Fe  Fe14  1  0.62454742  0.12463201  0.62138249  1
  Fe  Fe15  1  0.74687590  0.74350944  0.25133105  1
  Fe  Fe16  1  0.87352572  0.12883827  0.87387783  1
  Fe  Fe17  1  0.37244867  0.62867581  0.87335119  1
  Fe  Fe18  1  0.12268736  0.37513540  0.37661096  1
  Fe  Fe19  1  0.75495943  0.50070396  0.49986942  1
  Fe  Fe20  1  0.49640862  0.75195035  0.00226207  1
  Fe  Fe21  1  0.00227086  0.25326651  0.24770678  1
  Fe  Fe22  1  0.37464922  0.12617649  0.12886054  1
  Fe  Fe23  1  0.62536925  0.62611976  0.61920249  1
  Fe  Fe24  1  0.62558107  0.12527840  0.12421742  1
  Fe  Fe25  1  0.62748168  0.87353147  0.62114093  1
  Fe  Fe26  1  0.24676788  0.24546461  0.49981780  1
  Fe  Fe27  1  0.12475053  0.37425385  0.87421101  1
  Fe  Fe28  1  0.50240582  0.74532348  0.25155419  1
  Fe  Fe29  1  0.00155268  0.75014565  0.25018493  1
  Fe  Fe30  1  0.37501646  0.87766215  0.62428507  1
  Fe  Fe31  1  0.37738240  0.62150992  0.12488506  1
  Fe  Fe32  1  0.62516680  0.37587110  0.62385709  1
  Fe  Fe33  1  0.50250859  0.25040140  0.25286812  1
  Fe  Fe34  1  0.37529188  0.12506004  0.62274229  1
  Fe  Fe35  1  0.37387917  0.37279862  0.37546001  1
  Fe  Fe36  1  0.12480888  0.12572040  0.12495772  1
  Fe  Fe37  1  0.37487197  0.62388617  0.62594468  1
  Fe  Fe38  1  0.12761135  0.63037187  0.87458354  1
  Fe  Fe39  1  0.87529758  0.62407752  0.87053914  1
  Fe  Fe40  1  0.37322876  0.37401610  0.87171375  1
  Fe  Fe41  1  0.24865863  -0.00240555  0.75078011  1
  Fe  Fe42  1  0.50239548  0.24994085  0.74844151  1
  Fe  Fe43  1  0.37545777  0.37609610  0.12703060  1
  Fe  Fe44  1  0.87552848  0.12429264  0.12713469  1
  Fe  Fe45  1  0.75195523  0.00001959  0.00009620  1
  Fe  Fe46  1  0.62465503  0.62476223  0.87743855  1
  Fe  Fe47  1  0.74914147  0.25174125  0.24956120  1
  Fe  Fe48  1  0.24684389  0.50236727  0.74762099  1
  Fe  Fe49  1  0.12175821  0.62510125  0.37924684  1
  Fe  Fe50  1  0.25038796  0.49994563  -0.00064528  1
  Fe  Fe51  1  -0.00492939  0.75586195  0.50225256  1
  Fe  Fe52  1  0.24832763  0.74758204  0.24847390  1
  Fe  Fe53  1  -0.00290859  0.25274182  -0.00098828  1
  Fe  Fe54  1  0.62558224  0.87345197  0.12543812  1
  Fe  Fe55  1  0.87486366  0.37564011  0.63000572  1
  Fe  Fe56  1  0.50154740  -0.00011882  0.75061565  1
  Fe  Fe57  1  0.00354487  0.49959603  0.74696372  1
  Fe  Fe58  1  0.25283718  -0.00388683  0.00055390  1
  Fe  Fe59  1  0.49740816  0.49916747  0.49965011  1
  Fe  Fe60  1  0.62537921  0.38235785  0.12456971  1
  Fe  Fe61  1  0.00149456  -0.00263855  0.25319707  1
  Fe  Fe62  1  0.24600625  0.24697405  0.74744172  1
  Fe  Fe63  1  0.12464724  0.12468834  0.87620417  1
  Fe  Fe64  1  -0.00131803  0.75149955  -0.00013628  1
  Fe  Fe65  1  0.37343054  0.37322183  0.62485987  1
  Fe  Fe66  1  0.87833958  0.12179468  0.62610558  1
  Fe  Fe67  1  0.75183206  0.25008154  0.50107350  1
  Fe  Fe68  1  0.25094072  0.75124532  0.50312047  1
  Fe  Fe69  1  0.49869445  0.00076089  0.49650250  1
  Fe  Fe70  1  0.12567093  0.87461786  0.12476615  1
  Fe  Fe71  1  0.50138792  0.50029911  0.75050218  1
  Fe  Fe72  1  0.75173655  0.74737910  0.00136084  1
  Fe  Fe73  1  0.50034862  0.75043617  0.74709688  1
  Fe  Fe74  1  0.12376422  0.62254330  0.12337757  1
  Fe  Fe75  1  0.63098245  0.37528898  0.87520169  1
  Fe  Fe76  1  0.62642770  0.12758697  0.87753537  1
  Fe  Fe77  1  -0.00164980  -0.00271317  -0.00113671  1
  Fe  Fe78  1  0.37550218  0.12546025  0.87456058  1
  Fe  Fe79  1  0.37439553  0.62429227  0.37594908  1
  Fe  Fe80  1  0.00106126  0.75395035  0.74734096  1
  Fe  Fe81  1  0.24709200  0.50099448  0.50160927  1
  Fe  Fe82  1  0.75428131  -0.00080462  0.49704473  1
  Fe  Fe83  1  0.87627297  0.62252561  0.12750732  1
  Fe  Fe84  1  0.50261451  0.00123520  0.25339905  1
  Fe  Fe85  1  0.62638945  0.37731091  0.37652429  1
  Fe  Fe86  1  -0.00186373  0.49928385  -0.00262609  1
  Fe  Fe87  1  0.62734568  0.87076091  0.37809697  1
  Fe  Fe88  1  0.24690028  0.49888215  0.25068115  1
  Fe  Fe89  1  0.37364311  0.87389543  0.37322406  1
  Co  Co90  1  0.74709593  0.50372835  0.74767441  1
  Co  Co91  1  -0.00080809  0.49630209  0.50282955  1
  Co  Co92  1  0.24655264  0.25207999  0.25036073  1
  Co  Co93  1  0.49747427  0.49812438  -0.00549937  1
  Co  Co94  1  0.87342166  0.87902807  0.62825804  1
  Co  Co95  1  0.00202466  0.49934637  0.25150176  1
  Co  Co96  1  0.74859198  0.24726924  0.74652987  1
  Co  Co97  1  0.12404201  0.37720051  0.12259681  1
  Co  Co98  1  0.75712477  0.74928242  0.50053536  1
  Co  Co99  1  0.12179394  0.62797245  0.62164932  1
  Co  Co100  1  0.62199878  0.62034773  0.12141537  1
  Co  Co101  1  0.50011799  0.50182602  0.25503431  1
  Co  Co102  1  0.37577283  0.12828901  0.37338063  1
  Co  Co103  1  0.87265820  0.87314198  0.36937381  1
  Co  Co104  1  0.12646567  0.87060786  0.37705638  1
  Co  Co105  1  0.12757776  0.87114088  0.87743172  1
  Co  Co106  1  0.11957447  0.12788429  0.37512315  1
  Co  Co107  1  0.37555764  0.87667964  0.13241347  1
  Co  Co108  1  -0.00250484  -0.00390189  0.49388288  1
  Co  Co109  1  0.62791466  0.12628864  0.37731090  1
  Co  Co110  1  0.62475199  0.62460284  0.38287435  1
  Co  Co111  1  0.87211231  0.87337975  0.87429305  1
  Co  Co112  1  0.87799581  0.62353003  0.62589978  1
  Co  Co113  1  0.00290955  0.24949343  0.74852763  1
  Co  Co114  1  0.25037731  0.00228998  0.49517764  1
  Co  Co115  1  0.24854137  0.75227623  0.74362603  1
  Co  Co116  1  0.49542151  0.75038759  0.50007371  1
  Co  Co117  1  0.75312136  0.25231289  0.00367014  1
  Co  Co118  1  0.87305619  0.37548151  0.86840253  1
  Co  Co119  1  0.50116245  0.25030685  0.49924016  1
  Co  Co120  1  0.12756265  0.37489579  0.62460583  1
  Co  Co121  1  0.87647621  0.37354459  0.37428868  1
  Co  Co122  1  0.25327411  0.75173525  0.00506775  1
  Co  Co123  1  0.37467007  0.87222296  0.87184527  1
  Co  Co124  1  0.12236901  0.11782315  0.62385028  1
  Co  Co125  1  0.74949070  0.50398619  0.25354692  1
  Co  Co126  1  0.12379861  0.87900098  0.62095954  1
  Co  Co127  1  0.75437755  0.50163368  -0.00110053  1
