# generated using pymatgen
data_Fe45Co19
_symmetry_space_group_name_H-M   'P 1'
_cell_length_a   11.41476124
_cell_length_b   11.41504918
_cell_length_c   11.41440058
_cell_angle_alpha   90.00782119
_cell_angle_beta   90.00590393
_cell_angle_gamma   89.99768763
_symmetry_Int_Tables_number   1
_chemical_formula_structural   Fe45Co19
_chemical_formula_sum   'Fe90 Co38'
_cell_volume   1487.29706781
_cell_formula_units_Z   2
loop_
 _symmetry_equiv_pos_site_id
 _symmetry_equiv_pos_as_xyz
  1  'x, y, z'
loop_
 _atom_site_type_symbol
 _atom_site_label
 _atom_site_symmetry_multiplicity
 _atom_site_fract_x
 _atom_site_fract_y
 _atom_site_fract_z
 _atom_site_occupancy
  Fe  Fe0  1  0.74894361  0.25267773  0.74961417  1
  Fe  Fe1  1  0.49810978  0.25258294  0.50035341  1
  Fe  Fe2  1  0.24913097  0.75032977  0.25263633  1
  Fe  Fe3  1  0.62730111  0.12426186  0.62495363  1
  Fe  Fe4  1  0.12596113  0.37505278  0.12152718  1
  Fe  Fe5  1  0.62552432  0.87319838  0.37545989  1
  Fe  Fe6  1  0.37465272  0.62599753  0.87464163  1
  Fe  Fe7  1  0.75274041  -0.00116579  0.49978495  1
  Fe  Fe8  1  0.75315690  0.49786245  0.50044280  1
  Fe  Fe9  1  0.50180033  0.50099783  0.75035543  1
  Fe  Fe10  1  0.88187185  0.87903515  0.62762101  1
  Fe  Fe11  1  0.49946220  0.00045959  0.49954030  1
  Fe  Fe12  1  0.37884679  0.87351401  0.87275814  1
  Fe  Fe13  1  0.50067772  0.49839547  0.49874768  1
  Fe  Fe14  1  0.62894638  0.62457158  0.37599302  1
  Fe  Fe15  1  0.87836293  0.87414391  0.37401283  1
  Fe  Fe16  1  0.24634729  0.49754461  0.75149138  1
  Fe  Fe17  1  0.00145846  0.24889546  0.74467215  1
  Fe  Fe18  1  0.12239233  0.87447784  0.87264361  1
  Fe  Fe19  1  0.24666530  0.25308584  0.25314643  1
  Fe  Fe20  1  0.50033393  0.00126257  -0.00014978  1
  Fe  Fe21  1  0.62237098  0.87565105  0.62761427  1
  Fe  Fe22  1  0.00117387  0.49914942  -0.00373368  1
  Fe  Fe23  1  0.37341375  0.62333270  0.37541520  1
  Fe  Fe24  1  0.12659597  0.62362619  0.12284860  1
  Fe  Fe25  1  0.24709387  0.75471395  0.49940059  1
  Fe  Fe26  1  0.00169452  0.00415867  0.25197608  1
  Fe  Fe27  1  0.62775584  0.37474944  0.12388940  1
  Fe  Fe28  1  0.75466467  0.75128232  0.50451361  1
  Fe  Fe29  1  0.50250580  0.25035285  0.25116624  1
  Fe  Fe30  1  0.62514022  0.12594906  0.87584460  1
  Fe  Fe31  1  0.74939202  0.49858478  -0.00465638  1
  Fe  Fe32  1  0.37337077  0.37391134  0.87337537  1
  Fe  Fe33  1  0.37101585  0.12703236  0.37810829  1
  Fe  Fe34  1  0.62496102  0.87540887  0.12556150  1
  Fe  Fe35  1  0.87379757  0.37570392  0.12339347  1
  Fe  Fe36  1  0.87822812  0.12770110  0.37660025  1
  Fe  Fe37  1  0.87504056  0.62559558  0.37597151  1
  Fe  Fe38  1  0.87848723  0.37253850  0.37485753  1
  Fe  Fe39  1  0.74985579  0.24995057  0.24949433  1
  Fe  Fe40  1  0.75136069  0.75332877  -0.00220154  1
  Fe  Fe41  1  -0.00080520  0.74637214  0.24828755  1
  Fe  Fe42  1  0.37483830  0.87547696  0.12666804  1
  Fe  Fe43  1  0.50323689  0.49893361  0.25315810  1
  Fe  Fe44  1  0.24883944  -0.00055224  0.74972231  1
  Fe  Fe45  1  0.62882422  0.62324684  0.12506434  1
  Fe  Fe46  1  0.74901308  -0.00178442  -0.00280320  1
  Fe  Fe47  1  0.24956845  -0.00001422  -0.00162594  1
  Fe  Fe48  1  0.37263375  0.37759547  0.12675084  1
  Fe  Fe49  1  -0.00104709  0.74875788  0.00025313  1
  Fe  Fe50  1  0.37549235  0.87664293  0.62521267  1
  Fe  Fe51  1  0.74941886  -0.00366454  0.75346903  1
  Fe  Fe52  1  0.24777879  0.25298937  0.74480036  1
  Fe  Fe53  1  0.87306130  0.62511636  0.87119530  1
  Fe  Fe54  1  0.75265219  0.74820349  0.24821115  1
  Fe  Fe55  1  0.12417614  0.87476733  0.12597228  1
  Fe  Fe56  1  0.87725100  0.87630657  0.12415905  1
  Fe  Fe57  1  0.37202649  0.62172336  0.12645155  1
  Fe  Fe58  1  0.74989519  0.00202196  0.25114246  1
  Fe  Fe59  1  0.62979218  0.62492299  0.62703158  1
  Fe  Fe60  1  0.12625849  0.12994156  0.87651760  1
  Fe  Fe61  1  0.50038559  0.74758036  0.25018432  1
  Fe  Fe62  1  0.62473362  0.37563749  0.62468721  1
  Fe  Fe63  1  0.00171758  0.00324507  -0.00128604  1
  Fe  Fe64  1  0.62560644  0.63066235  0.87190016  1
  Fe  Fe65  1  0.12345608  0.62405827  0.37740417  1
  Fe  Fe66  1  0.37170964  0.12468891  0.62149447  1
  Fe  Fe67  1  0.49966250  0.50096399  -0.00130029  1
  Fe  Fe68  1  0.37309552  0.12678097  0.87354507  1
  Fe  Fe69  1  -0.00052172  0.74683521  0.74723079  1
  Fe  Fe70  1  0.25146762  0.75084873  -0.00020624  1
  Fe  Fe71  1  -0.00032516  0.50019186  0.24921272  1
  Fe  Fe72  1  0.87538912  0.12620043  0.87377158  1
  Fe  Fe73  1  0.50018817  0.74795855  0.50174727  1
  Fe  Fe74  1  0.50119248  0.00152452  0.25253879  1
  Fe  Fe75  1  0.24967091  0.74987986  0.74724368  1
  Fe  Fe76  1  0.50047762  0.24895305  0.74864964  1
  Fe  Fe77  1  0.37182922  0.62102795  0.62302902  1
  Fe  Fe78  1  0.62657813  0.12715426  0.37745024  1
  Fe  Fe79  1  0.12613484  0.62609964  0.87543743  1
  Fe  Fe80  1  0.24909301  0.49202619  0.49648534  1
  Fe  Fe81  1  0.49883741  0.24931234  0.00155453  1
  Fe  Fe82  1  0.12747961  0.12218387  0.61792253  1
  Fe  Fe83  1  0.75427794  0.25131870  0.50385093  1
  Fe  Fe84  1  0.87329386  0.12588335  0.12291348  1
  Fe  Fe85  1  0.37303563  0.12467842  0.12751725  1
  Fe  Fe86  1  0.12357437  0.62128279  0.62209644  1
  Fe  Fe87  1  0.24747879  -0.00105445  0.25622108  1
  Fe  Fe88  1  0.87713463  0.37382812  0.87144283  1
  Fe  Fe89  1  0.12645057  0.12698097  0.12421833  1
  Co  Co90  1  0.24795842  -0.00635777  0.49632336  1
  Co  Co91  1  0.87366329  0.62030493  0.62970465  1
  Co  Co92  1  0.11844376  0.87288350  0.37378002  1
  Co  Co93  1  -0.00175367  0.74828289  0.50294305  1
  Co  Co94  1  0.49711044  0.74602334  0.74449549  1
  Co  Co95  1  -0.00010346  0.00188424  0.49747961  1
  Co  Co96  1  0.87686298  0.37981649  0.62986153  1
  Co  Co97  1  0.75102699  0.25016251  -0.00183118  1
  Co  Co98  1  0.25024650  0.25872233  0.50114847  1
  Co  Co99  1  0.74636558  0.49665892  0.75183639  1
  Co  Co100  1  0.62671818  0.12584393  0.12427929  1
  Co  Co101  1  -0.00470873  0.50078071  0.49893055  1
  Co  Co102  1  0.12515015  0.13032924  0.38045388  1
  Co  Co103  1  0.11679939  0.37174360  0.37789082  1
  Co  Co104  1  0.12539647  0.37025876  0.87576234  1
  Co  Co105  1  0.00068760  0.24925351  0.24583185  1
  Co  Co106  1  0.25263937  0.25001668  0.00173550  1
  Co  Co107  1  0.49877203  0.74779668  0.00350892  1
  Co  Co108  1  0.49893831  0.00434933  0.74913057  1
  Co  Co109  1  0.24481418  0.49815578  0.25354414  1
  Co  Co110  1  0.62212433  0.37292545  0.87651571  1
  Co  Co111  1  0.11992397  0.37983893  0.62285723  1
  Co  Co112  1  0.75290967  0.49880172  0.25234483  1
  Co  Co113  1  0.00442442  0.50088121  0.75372074  1
  Co  Co114  1  -0.00366203  0.24828878  0.50732686  1
  Co  Co115  1  0.87235712  0.12130327  0.62784238  1
  Co  Co116  1  0.37736326  0.37717478  0.62838071  1
  Co  Co117  1  0.62835303  0.37348376  0.37693944  1
  Co  Co118  1  0.61840731  0.87174937  0.87322331  1
  Co  Co119  1  0.24958871  0.49960524  -0.00329916  1
  Co  Co120  1  0.87366731  0.62246126  0.12110149  1
  Co  Co121  1  0.88203728  0.87631204  0.87480116  1
  Co  Co122  1  0.00362951  0.00604211  0.75125915  1
  Co  Co123  1  0.75372378  0.75607835  0.74871969  1
  Co  Co124  1  -0.00146073  0.24990820  0.00103273  1
  Co  Co125  1  0.12069484  0.87656173  0.62704386  1
  Co  Co126  1  0.37814828  0.87295490  0.37511164  1
  Co  Co127  1  0.37612775  0.37508117  0.37198861  1
