# generated using pymatgen
data_Fe45Co19
_symmetry_space_group_name_H-M   'P 1'
_cell_length_a   11.41597620
_cell_length_b   11.41619519
_cell_length_c   11.41529163
_cell_angle_alpha   89.99843502
_cell_angle_beta   90.00085930
_cell_angle_gamma   89.99761960
_symmetry_Int_Tables_number   1
_chemical_formula_structural   Fe45Co19
_chemical_formula_sum   'Fe90 Co38'
_cell_volume   1487.72085446
_cell_formula_units_Z   2
loop_
 _symmetry_equiv_pos_site_id
 _symmetry_equiv_pos_as_xyz
  1  'x, y, z'
loop_
 _atom_site_type_symbol
 _atom_site_label
 _atom_site_symmetry_multiplicity
 _atom_site_fract_x
 _atom_site_fract_y
 _atom_site_fract_z
 _atom_site_occupancy
  Fe  Fe0  1  0.12723877  0.87750644  0.62293288  1
  Fe  Fe1  1  0.37590525  0.12222537  0.37152129  1
  Fe  Fe2  1  0.25068710  0.50062370  0.24722533  1
  Fe  Fe3  1  0.12629382  0.87592582  0.12461979  1
  Fe  Fe4  1  0.75144286  0.00280159  0.75017304  1
  Fe  Fe5  1  0.75077306  0.24650539  0.25232963  1
  Fe  Fe6  1  0.12531075  0.12454514  0.87500193  1
  Fe  Fe7  1  0.87422799  0.37559933  0.62588055  1
  Fe  Fe8  1  0.87657048  0.62701007  0.12582422  1
  Fe  Fe9  1  0.49708974  0.49883909  0.74891246  1
  Fe  Fe10  1  0.87201079  0.87588521  0.37200278  1
  Fe  Fe11  1  0.24695074  0.24645899  0.50134544  1
  Fe  Fe12  1  0.00051778  0.50015395  0.75219151  1
  Fe  Fe13  1  -0.00076572  0.25186709  -0.00243046  1
  Fe  Fe14  1  0.12612306  0.37681989  0.62413546  1
  Fe  Fe15  1  0.62260788  0.62197966  0.62272230  1
  Fe  Fe16  1  -0.00058384  -0.00224665  0.75139075  1
  Fe  Fe17  1  0.62710783  0.37745676  0.37730652  1
  Fe  Fe18  1  0.75003660  0.74890972  0.50012913  1
  Fe  Fe19  1  0.75402470  0.00215220  0.00246727  1
  Fe  Fe20  1  0.12776379  0.37568655  0.87505991  1
  Fe  Fe21  1  0.74772421  0.74951416  0.24882202  1
  Fe  Fe22  1  0.49688683  -0.00135248  0.49995019  1
  Fe  Fe23  1  0.49649190  0.00423300  -0.00035576  1
  Fe  Fe24  1  0.74569914  0.74898907  0.75112689  1
  Fe  Fe25  1  0.87421884  0.37280967  0.12626566  1
  Fe  Fe26  1  0.62483071  0.87783760  0.37483840  1
  Fe  Fe27  1  0.37675137  0.36756173  0.12486191  1
  Fe  Fe28  1  0.37706202  0.62569455  0.12450610  1
  Fe  Fe29  1  0.75009824  0.74967632  -0.00000072  1
  Fe  Fe30  1  0.62417896  0.62240736  0.37626030  1
  Fe  Fe31  1  0.62174955  0.12724026  0.12584364  1
  Fe  Fe32  1  0.62593994  0.37163678  0.87276507  1
  Fe  Fe33  1  0.37417766  0.87478420  0.87291497  1
  Fe  Fe34  1  -0.00476341  -0.00180662  -0.00022821  1
  Fe  Fe35  1  -0.00270153  0.00014044  0.24944947  1
  Fe  Fe36  1  0.50077203  0.75190078  0.24891590  1
  Fe  Fe37  1  0.25301129  0.50169003  0.50156605  1
  Fe  Fe38  1  -0.00367147  0.49952572  0.49752300  1
  Fe  Fe39  1  0.87633615  0.62709641  0.62583079  1
  Fe  Fe40  1  0.12148655  0.12110985  0.38120883  1
  Fe  Fe41  1  0.87397733  0.87248705  0.62832840  1
  Fe  Fe42  1  0.00539678  0.75224177  0.75456392  1
  Fe  Fe43  1  0.25224754  0.49785765  -0.00021183  1
  Fe  Fe44  1  0.12711747  0.62375350  0.62649997  1
  Fe  Fe45  1  0.50124080  0.49619403  0.24785850  1
  Fe  Fe46  1  0.12504538  0.62260519  0.37413764  1
  Fe  Fe47  1  0.00143346  0.75258285  -0.00359045  1
  Fe  Fe48  1  0.12142471  0.12535063  0.12365731  1
  Fe  Fe49  1  0.25365723  0.00609022  0.00331476  1
  Fe  Fe50  1  0.37431040  0.37200404  0.62509191  1
  Fe  Fe51  1  0.87589939  0.62551688  0.87469298  1
  Fe  Fe52  1  0.12556335  0.37742640  0.37447182  1
  Fe  Fe53  1  -0.00097890  0.24975286  0.25383059  1
  Fe  Fe54  1  0.00091967  0.25076942  0.75016718  1
  Fe  Fe55  1  0.75074813  0.24915731  -0.00291341  1
  Fe  Fe56  1  0.13033949  0.87841312  0.37463125  1
  Fe  Fe57  1  0.37491967  0.87211026  0.62725644  1
  Fe  Fe58  1  0.62466654  0.12157403  0.37509340  1
  Fe  Fe59  1  0.62475336  0.12596489  0.62470698  1
  Fe  Fe60  1  0.62107146  0.62582693  0.87797286  1
  Fe  Fe61  1  0.37672256  0.62478306  0.37389394  1
  Fe  Fe62  1  0.12491043  0.62410655  0.12325127  1
  Fe  Fe63  1  0.00008629  0.75191314  0.49852971  1
  Fe  Fe64  1  0.50064711  0.49636813  0.00097157  1
  Fe  Fe65  1  0.49908023  0.75038175  0.50046784  1
  Fe  Fe66  1  0.37515416  0.62807792  0.87230713  1
  Fe  Fe67  1  0.74887461  0.49958881  0.00106666  1
  Fe  Fe68  1  0.37529166  0.12734347  0.62691676  1
  Fe  Fe69  1  0.24943496  0.75049157  -0.00151668  1
  Fe  Fe70  1  0.50066935  0.00289934  0.75211234  1
  Fe  Fe71  1  0.75278503  -0.00047387  0.50069866  1
  Fe  Fe72  1  0.87958846  0.12534944  0.62241042  1
  Fe  Fe73  1  0.74983387  0.50060273  0.75057923  1
  Fe  Fe74  1  0.75265994  0.24999134  0.50003796  1
  Fe  Fe75  1  0.62518149  0.87693428  0.87692829  1
  Fe  Fe76  1  0.62441134  0.87667390  0.62515438  1
  Fe  Fe77  1  0.24722312  0.24632552  0.25001596  1
  Fe  Fe78  1  0.62528178  0.87585184  0.12328400  1
  Fe  Fe79  1  0.75086184  0.50140862  0.24835396  1
  Fe  Fe80  1  -0.00113468  0.49844351  0.00037291  1
  Fe  Fe81  1  0.24916437  0.00261397  0.74805962  1
  Fe  Fe82  1  0.12471576  0.37475585  0.12617380  1
  Fe  Fe83  1  0.50006281  0.24993988  0.49785667  1
  Fe  Fe84  1  0.37327728  0.36734494  0.87392891  1
  Fe  Fe85  1  0.37214688  0.87570788  0.12917782  1
  Fe  Fe86  1  0.37284122  0.37414597  0.37491914  1
  Fe  Fe87  1  0.25183545  0.74997099  0.49871416  1
  Fe  Fe88  1  0.00261540  0.75034959  0.25099250  1
  Fe  Fe89  1  0.62503954  0.37489660  0.62399713  1
  Co  Co90  1  0.24841450  0.74697449  0.24969064  1
  Co  Co91  1  0.87521961  0.62690861  0.37402534  1
  Co  Co92  1  0.12678693  0.62084649  0.87646920  1
  Co  Co93  1  0.24437099  0.24845461  0.74664808  1
  Co  Co94  1  -0.00124338  0.49989306  0.24934059  1
  Co  Co95  1  0.37191862  0.12952320  0.87254400  1
  Co  Co96  1  0.62281800  0.62548175  0.12364741  1
  Co  Co97  1  0.24780909  0.00529636  0.24757133  1
  Co  Co98  1  0.50096600  -0.00226528  0.24796782  1
  Co  Co99  1  0.37977925  0.13070458  0.12945213  1
  Co  Co100  1  0.50440110  0.75100672  0.74976886  1
  Co  Co101  1  0.24794568  0.24740385  0.00265720  1
  Co  Co102  1  0.87350113  0.37506766  0.37312594  1
  Co  Co103  1  0.75210800  0.24806081  0.74794159  1
  Co  Co104  1  0.87690732  0.12875248  0.12429380  1
  Co  Co105  1  0.75089896  0.00237260  0.24661852  1
  Co  Co106  1  0.37280728  0.87614198  0.37202878  1
  Co  Co107  1  0.25463651  0.00122881  0.50208074  1
  Co  Co108  1  0.12857134  0.88125865  0.87864355  1
  Co  Co109  1  0.00018200  0.25511715  0.49880681  1
  Co  Co110  1  0.11960245  0.12175005  0.62180697  1
  Co  Co111  1  0.87660664  0.12535063  0.87453444  1
  Co  Co112  1  0.49633006  0.49879290  0.50118629  1
  Co  Co113  1  0.62767159  0.12436257  0.87486503  1
  Co  Co114  1  0.87540482  0.87219932  0.12644325  1
  Co  Co115  1  -0.00376748  -0.00705441  0.49954106  1
  Co  Co116  1  0.37367472  0.62849631  0.62832995  1
  Co  Co117  1  0.87121703  0.87423900  0.87365688  1
  Co  Co118  1  0.24435377  0.75160774  0.75220904  1
  Co  Co119  1  0.50215521  0.24725697  -0.00362476  1
  Co  Co120  1  0.50245222  0.25245643  0.25508129  1
  Co  Co121  1  0.50298303  0.24839478  0.74985871  1
  Co  Co122  1  0.25323401  0.49823402  0.75120507  1
  Co  Co123  1  0.87363571  0.37561674  0.87448820  1
  Co  Co124  1  0.87648967  0.12303122  0.37801031  1
  Co  Co125  1  0.49761885  0.75339110  0.00127748  1
  Co  Co126  1  0.62672395  0.37070724  0.12496986  1
  Co  Co127  1  0.75418684  0.50107895  0.50081605  1
