# generated using pymatgen
data_Fe45Co19
_symmetry_space_group_name_H-M   'P 1'
_cell_length_a   11.41346895
_cell_length_b   11.41474329
_cell_length_c   11.41528734
_cell_angle_alpha   89.99369853
_cell_angle_beta   90.00811577
_cell_angle_gamma   90.00553786
_symmetry_Int_Tables_number   1
_chemical_formula_structural   Fe45Co19
_chemical_formula_sum   'Fe90 Co38'
_cell_volume   1487.20435789
_cell_formula_units_Z   2
loop_
 _symmetry_equiv_pos_site_id
 _symmetry_equiv_pos_as_xyz
  1  'x, y, z'
loop_
 _atom_site_type_symbol
 _atom_site_label
 _atom_site_symmetry_multiplicity
 _atom_site_fract_x
 _atom_site_fract_y
 _atom_site_fract_z
 _atom_site_occupancy
  Fe  Fe0  1  0.87449171  0.37354155  0.87366200  1
  Fe  Fe1  1  -0.00006887  -0.00106987  0.50341015  1
  Fe  Fe2  1  0.75172275  0.50023003  0.25031906  1
  Fe  Fe3  1  0.75048171  0.49921618  -0.00233698  1
  Fe  Fe4  1  0.37360320  0.12579677  0.37404049  1
  Fe  Fe5  1  0.37346177  0.12421691  0.87892832  1
  Fe  Fe6  1  0.12731882  0.37639664  0.37659162  1
  Fe  Fe7  1  0.25014760  0.24888078  0.75073943  1
  Fe  Fe8  1  0.12421679  0.37723449  0.12204723  1
  Fe  Fe9  1  0.75537849  -0.00179138  0.75260238  1
  Fe  Fe10  1  0.75091358  0.25087263  0.75009650  1
  Fe  Fe11  1  0.62807514  0.12517916  0.87654130  1
  Fe  Fe12  1  0.62520663  0.37689173  0.12477174  1
  Fe  Fe13  1  0.49955811  -0.00114045  0.49962121  1
  Fe  Fe14  1  0.49866967  0.00165522  0.24855774  1
  Fe  Fe15  1  0.62656997  0.87699054  0.12410140  1
  Fe  Fe16  1  0.00095363  0.74962341  0.00169661  1
  Fe  Fe17  1  0.25135345  0.75299392  0.74902955  1
  Fe  Fe18  1  0.37281122  0.37674623  0.12187913  1
  Fe  Fe19  1  0.25226469  -0.00252882  0.74991276  1
  Fe  Fe20  1  0.74959763  0.00223317  0.49609085  1
  Fe  Fe21  1  0.62425045  0.62495905  0.62665338  1
  Fe  Fe22  1  0.62406201  0.37606830  0.37432808  1
  Fe  Fe23  1  0.24672118  0.74733102  0.25013718  1
  Fe  Fe24  1  0.37449924  0.62753425  0.87676513  1
  Fe  Fe25  1  0.37452141  0.87200685  0.37557859  1
  Fe  Fe26  1  0.87410575  0.62372792  0.62593615  1
  Fe  Fe27  1  -0.00389482  -0.00063820  0.24711791  1
  Fe  Fe28  1  0.87427707  0.87457010  0.37343853  1
  Fe  Fe29  1  0.62693686  0.12410779  0.12435438  1
  Fe  Fe30  1  0.12268925  0.12296897  0.87452286  1
  Fe  Fe31  1  0.37599868  0.87557054  0.12226666  1
  Fe  Fe32  1  0.62248235  0.62131578  0.12366087  1
  Fe  Fe33  1  0.88071875  0.62281612  0.12676580  1
  Fe  Fe34  1  0.49980440  0.24949688  0.75121562  1
  Fe  Fe35  1  0.50026851  0.74807299  0.24777298  1
  Fe  Fe36  1  0.25057863  -0.00200310  0.50078101  1
  Fe  Fe37  1  0.37213329  0.37412003  0.87525612  1
  Fe  Fe38  1  0.62596745  0.37697789  0.62700666  1
  Fe  Fe39  1  0.74978361  0.24895512  0.49957038  1
  Fe  Fe40  1  0.11972770  0.87550713  0.87144089  1
  Fe  Fe41  1  0.62592765  0.87623028  0.37180661  1
  Fe  Fe42  1  0.75082324  0.74845377  0.00076770  1
  Fe  Fe43  1  0.50096398  0.25020746  0.00002827  1
  Fe  Fe44  1  0.24383104  0.50183112  -0.00528724  1
  Fe  Fe45  1  0.75780437  0.00063907  0.00072028  1
  Fe  Fe46  1  0.49838421  -0.00143081  0.75282234  1
  Fe  Fe47  1  0.37413115  0.37588359  0.37635684  1
  Fe  Fe48  1  0.49818893  0.25020706  0.24789151  1
  Fe  Fe49  1  0.87605058  0.37516513  0.12407879  1
  Fe  Fe50  1  0.75009151  0.49997140  0.50083401  1
  Fe  Fe51  1  -0.00045258  0.24855416  0.74819096  1
  Fe  Fe52  1  0.24962314  0.24952748  0.24860065  1
  Fe  Fe53  1  0.24798340  0.00003675  0.00069019  1
  Fe  Fe54  1  0.49727547  0.49839467  0.75007820  1
  Fe  Fe55  1  0.12337818  0.87538983  0.12610620  1
  Fe  Fe56  1  0.62243104  0.62218671  0.37440131  1
  Fe  Fe57  1  0.37696566  0.62886347  0.62339459  1
  Fe  Fe58  1  0.12503000  0.12451052  0.12587386  1
  Fe  Fe59  1  0.00101936  0.25145914  0.25120906  1
  Fe  Fe60  1  0.12678289  0.12362878  0.62578229  1
  Fe  Fe61  1  0.00159916  0.25071559  0.50155697  1
  Fe  Fe62  1  0.12844091  0.37506937  0.62763478  1
  Fe  Fe63  1  0.37467086  0.12509900  0.62434159  1
  Fe  Fe64  1  0.87363048  0.12481505  0.62389404  1
  Fe  Fe65  1  0.62552680  0.87575235  0.87897519  1
  Fe  Fe66  1  0.75231527  0.75168693  0.75115943  1
  Fe  Fe67  1  0.87496152  0.37428970  0.37582619  1
  Fe  Fe68  1  0.12566093  0.62627919  0.62665594  1
  Fe  Fe69  1  0.74858810  0.74889566  0.49922871  1
  Fe  Fe70  1  0.25171935  0.50095031  0.50299648  1
  Fe  Fe71  1  0.24726890  0.75088526  0.00014824  1
  Fe  Fe72  1  0.37652149  0.62563815  0.37776914  1
  Fe  Fe73  1  0.87892656  0.62453914  0.37312375  1
  Fe  Fe74  1  0.24722231  0.50273620  0.24993655  1
  Fe  Fe75  1  0.00129376  0.75155538  0.50167019  1
  Fe  Fe76  1  0.62595695  0.87600463  0.62519655  1
  Fe  Fe77  1  0.49959516  0.75473491  0.75253413  1
  Fe  Fe78  1  0.75048019  0.74850915  0.24838102  1
  Fe  Fe79  1  0.87720303  0.62631984  0.87441029  1
  Fe  Fe80  1  0.49920544  0.25171094  0.50163251  1
  Fe  Fe81  1  0.37483649  0.62376357  0.12186495  1
  Fe  Fe82  1  0.12561268  0.87509521  0.37459900  1
  Fe  Fe83  1  0.75062322  0.24636174  0.25223016  1
  Fe  Fe84  1  0.12527663  0.12314124  0.37380809  1
  Fe  Fe85  1  0.00022420  0.49806377  0.50084674  1
  Fe  Fe86  1  0.62323205  0.62357324  0.87502929  1
  Fe  Fe87  1  0.00038839  0.24923296  -0.00129606  1
  Fe  Fe88  1  0.00224003  0.50016004  0.75263695  1
  Fe  Fe89  1  0.62523964  0.12335990  0.62604087  1
  Co  Co90  1  0.00180208  0.49672364  0.25156029  1
  Co  Co91  1  0.12141225  0.62268331  0.12499378  1
  Co  Co92  1  0.50464149  0.75146794  0.49903606  1
  Co  Co93  1  0.37644327  0.87363506  0.62299428  1
  Co  Co94  1  0.37357233  0.12420515  0.12343346  1
  Co  Co95  1  0.12320615  0.62371866  0.37686814  1
  Co  Co96  1  0.00160103  0.49933458  -0.00564397  1
  Co  Co97  1  0.87529429  0.12918306  0.12502118  1
  Co  Co98  1  0.50162813  0.74991559  0.00082203  1
  Co  Co99  1  0.12545303  0.87546751  0.62836680  1
  Co  Co100  1  0.24678473  0.75091423  0.50028131  1
  Co  Co101  1  0.87943536  0.12558593  0.37603005  1
  Co  Co102  1  0.37162092  0.37264180  0.62680373  1
  Co  Co103  1  0.12602312  0.37138683  0.87300278  1
  Co  Co104  1  0.25116498  -0.00111568  0.24914906  1
  Co  Co105  1  0.62553095  0.37542461  0.87300361  1
  Co  Co106  1  0.75090262  0.50087653  0.75197382  1
  Co  Co107  1  0.74915930  0.25221506  -0.00059804  1
  Co  Co108  1  0.49979361  0.49836938  -0.00264160  1
  Co  Co109  1  0.87142265  0.87500579  0.62233894  1
  Co  Co110  1  0.37448965  0.87524759  0.87950721  1
  Co  Co111  1  -0.00200543  0.00143413  0.00188597  1
  Co  Co112  1  0.24875724  0.24867092  0.49934853  1
  Co  Co113  1  0.62122007  0.12580348  0.37471201  1
  Co  Co114  1  0.12382095  0.63124006  0.87168450  1
  Co  Co115  1  0.49976551  0.49828250  0.50236791  1
  Co  Co116  1  -0.00355247  0.75147182  0.74469738  1
  Co  Co117  1  0.25058241  0.50219428  0.75158451  1
  Co  Co118  1  0.87996170  0.87241640  0.87658540  1
  Co  Co119  1  0.87487072  0.87167305  0.12609339  1
  Co  Co120  1  0.50045611  0.00243670  -0.00079405  1
  Co  Co121  1  -0.00447642  0.00086078  0.74763006  1
  Co  Co122  1  0.75304940  0.00354705  0.25033174  1
  Co  Co123  1  0.49772570  0.49976779  0.24991119  1
  Co  Co124  1  0.87486417  0.37575764  0.62645686  1
  Co  Co125  1  0.87564414  0.12803728  0.87482185  1
  Co  Co126  1  0.00285295  0.75091490  0.25134388  1
  Co  Co127  1  0.24802818  0.24832229  0.00098619  1
