# generated using pymatgen
data_Fe45Co19
_symmetry_space_group_name_H-M   'P 1'
_cell_length_a   11.41544851
_cell_length_b   11.41588215
_cell_length_c   11.41544758
_cell_angle_alpha   90.00071262
_cell_angle_beta   90.00278771
_cell_angle_gamma   89.99141052
_symmetry_Int_Tables_number   1
_chemical_formula_structural   Fe45Co19
_chemical_formula_sum   'Fe90 Co38'
_cell_volume   1487.63159815
_cell_formula_units_Z   2
loop_
 _symmetry_equiv_pos_site_id
 _symmetry_equiv_pos_as_xyz
  1  'x, y, z'
loop_
 _atom_site_type_symbol
 _atom_site_label
 _atom_site_symmetry_multiplicity
 _atom_site_fract_x
 _atom_site_fract_y
 _atom_site_fract_z
 _atom_site_occupancy
  Fe  Fe0  1  -0.00174882  0.74998116  0.50043911  1
  Fe  Fe1  1  0.12478891  0.62511393  0.12461251  1
  Fe  Fe2  1  0.74965532  0.24857015  0.24773054  1
  Fe  Fe3  1  0.37617338  0.12531653  0.37351117  1
  Fe  Fe4  1  -0.00012186  -0.00033632  0.75120485  1
  Fe  Fe5  1  0.75008979  0.24968965  0.50032115  1
  Fe  Fe6  1  0.00422495  0.25037343  0.24693263  1
  Fe  Fe7  1  0.87651426  0.12555245  0.37486419  1
  Fe  Fe8  1  0.49746572  0.75304323  0.00199554  1
  Fe  Fe9  1  0.12862841  0.37311931  0.37454813  1
  Fe  Fe10  1  0.75103997  0.49921882  -0.00033833  1
  Fe  Fe11  1  0.12282432  0.62594959  0.62722207  1
  Fe  Fe12  1  0.12517177  0.87322991  0.37583907  1
  Fe  Fe13  1  0.24679044  0.24913504  0.75165846  1
  Fe  Fe14  1  0.37474884  0.37443943  0.87520537  1
  Fe  Fe15  1  0.75205744  0.74766568  0.75223741  1
  Fe  Fe16  1  0.37810640  0.62285468  0.12543006  1
  Fe  Fe17  1  0.75291985  0.74815829  -0.00209044  1
  Fe  Fe18  1  0.74683648  0.50333432  0.25506974  1
  Fe  Fe19  1  0.24755731  0.00253691  0.25135641  1
  Fe  Fe20  1  0.74764845  0.00097512  0.24980941  1
  Fe  Fe21  1  0.24978263  0.50139878  -0.00234537  1
  Fe  Fe22  1  0.62280468  0.12715795  0.37433005  1
  Fe  Fe23  1  0.49669969  0.25646758  0.24947202  1
  Fe  Fe24  1  0.38405234  0.62302761  0.37444147  1
  Fe  Fe25  1  0.87184427  0.87439614  0.12608239  1
  Fe  Fe26  1  0.87526302  0.62405072  0.12653009  1
  Fe  Fe27  1  0.37555988  0.12559560  0.12481502  1
  Fe  Fe28  1  0.37613633  0.62188311  0.62588324  1
  Fe  Fe29  1  0.12767485  0.87366842  0.12345920  1
  Fe  Fe30  1  0.49941025  -0.00184086  0.00082620  1
  Fe  Fe31  1  0.87598192  0.12811481  0.87393825  1
  Fe  Fe32  1  -0.00079561  -0.00202109  -0.00024860  1
  Fe  Fe33  1  0.62934128  0.37587892  0.62321196  1
  Fe  Fe34  1  0.87484616  0.12590381  0.62534492  1
  Fe  Fe35  1  0.00233545  -0.00035624  0.24921639  1
  Fe  Fe36  1  0.50266421  0.25026773  0.74836066  1
  Fe  Fe37  1  0.62665920  0.62533921  0.61851031  1
  Fe  Fe38  1  0.37747499  0.12444234  0.62711026  1
  Fe  Fe39  1  0.12360750  0.12481584  0.62563236  1
  Fe  Fe40  1  0.50246468  0.49919745  0.74888235  1
  Fe  Fe41  1  0.37162373  0.37640355  0.62541693  1
  Fe  Fe42  1  -0.00354593  0.75068407  -0.00217041  1
  Fe  Fe43  1  0.62877480  0.37455845  0.12594354  1
  Fe  Fe44  1  0.24707358  0.24879914  0.00135595  1
  Fe  Fe45  1  0.62760675  0.37447600  0.87458342  1
  Fe  Fe46  1  0.12470943  0.87326311  0.87399641  1
  Fe  Fe47  1  0.00019804  0.25365098  0.00228759  1
  Fe  Fe48  1  0.62260541  0.86981588  0.37651374  1
  Fe  Fe49  1  0.37417770  0.87706879  0.62846147  1
  Fe  Fe50  1  0.62381195  0.12611953  0.87600337  1
  Fe  Fe51  1  0.24622958  0.50057070  0.75360824  1
  Fe  Fe52  1  -0.00078652  0.49852244  -0.00046313  1
  Fe  Fe53  1  0.12312718  0.62603427  0.37362050  1
  Fe  Fe54  1  0.87349763  0.87486590  0.62650264  1
  Fe  Fe55  1  0.74881485  0.74652425  0.25352407  1
  Fe  Fe56  1  0.00067030  0.49939324  0.24957726  1
  Fe  Fe57  1  0.62388026  0.62481941  0.87667227  1
  Fe  Fe58  1  0.25156349  0.74707862  0.75307227  1
  Fe  Fe59  1  0.24946823  0.00112765  0.49911461  1
  Fe  Fe60  1  0.25337201  0.74954669  0.25133470  1
  Fe  Fe61  1  0.25167207  0.00265890  -0.00429477  1
  Fe  Fe62  1  0.25318152  0.74769067  -0.00290009  1
  Fe  Fe63  1  0.12591347  0.87278488  0.62690740  1
  Fe  Fe64  1  0.87275363  0.37698511  0.62873766  1
  Fe  Fe65  1  0.00094378  0.25174332  0.50238409  1
  Fe  Fe66  1  0.74912068  -0.00014530  0.49820720  1
  Fe  Fe67  1  0.50188407  0.25158651  0.00132825  1
  Fe  Fe68  1  0.62604079  0.87411959  0.62493575  1
  Fe  Fe69  1  0.49944487  0.25332680  0.50039166  1
  Fe  Fe70  1  0.74758499  0.00391977  0.74917587  1
  Fe  Fe71  1  0.25375435  0.49784042  0.24958750  1
  Fe  Fe72  1  0.62254066  0.62549600  0.12625887  1
  Fe  Fe73  1  0.25111591  0.00321674  0.75397191  1
  Fe  Fe74  1  0.25384985  0.74891490  0.49886482  1
  Fe  Fe75  1  0.25013414  0.50211116  0.49913888  1
  Fe  Fe76  1  0.00081909  -0.00034340  0.49970263  1
  Fe  Fe77  1  0.50088801  -0.00485217  0.24648973  1
  Fe  Fe78  1  0.50050287  0.49743213  0.00096932  1
  Fe  Fe79  1  0.74828298  0.00329886  0.00243256  1
  Fe  Fe80  1  0.87401163  0.37442418  0.37293397  1
  Fe  Fe81  1  0.87570257  0.12559939  0.12480686  1
  Fe  Fe82  1  -0.00005346  0.49814657  0.49985451  1
  Fe  Fe83  1  0.87663466  0.87351241  0.37326943  1
  Fe  Fe84  1  0.62517477  0.87515694  0.87535016  1
  Fe  Fe85  1  0.49964060  0.74882090  0.74937571  1
  Fe  Fe86  1  0.87260040  0.37472537  0.87115463  1
  Fe  Fe87  1  0.87527812  0.62209017  0.62677183  1
  Fe  Fe88  1  0.49998760  -0.00191221  0.50123950  1
  Fe  Fe89  1  0.24999430  0.24745613  0.50006086  1
  Co  Co90  1  0.36939409  0.87717839  0.12390191  1
  Co  Co91  1  0.75172250  0.50103272  0.49559373  1
  Co  Co92  1  0.37249999  0.37466477  0.12024542  1
  Co  Co93  1  0.12074790  0.12575448  0.87558251  1
  Co  Co94  1  0.87135778  0.87895132  0.87458188  1
  Co  Co95  1  0.62221737  0.12752298  0.12704267  1
  Co  Co96  1  0.12524892  0.37441714  0.87723540  1
  Co  Co97  1  0.74597754  0.50250294  0.75068790  1
  Co  Co98  1  0.00269057  0.25236518  0.74806345  1
  Co  Co99  1  0.50085600  0.49460997  0.50149784  1
  Co  Co100  1  0.12428197  0.12310433  0.12239822  1
  Co  Co101  1  0.12841157  0.37639303  0.62253840  1
  Co  Co102  1  0.12717810  0.37863542  0.12551931  1
  Co  Co103  1  0.62946197  0.87233420  0.12300973  1
  Co  Co104  1  0.12314072  0.12744365  0.37626229  1
  Co  Co105  1  -0.00422952  0.75076382  0.75281592  1
  Co  Co106  1  0.25002796  0.24905393  0.24752266  1
  Co  Co107  1  0.37662040  0.87425113  0.87270316  1
  Co  Co108  1  0.87232609  0.37672119  0.12814900  1
  Co  Co109  1  0.12176967  0.62686407  0.87571238  1
  Co  Co110  1  0.37810127  0.12897882  0.87563950  1
  Co  Co111  1  0.87903592  0.62472347  0.37446968  1
  Co  Co112  1  0.00075213  0.75103269  0.24707856  1
  Co  Co113  1  0.49788980  0.75402491  0.24594240  1
  Co  Co114  1  0.62754798  0.37373603  0.37559149  1
  Co  Co115  1  0.62369524  0.12460122  0.62078170  1
  Co  Co116  1  0.50078387  0.49404559  0.24932772  1
  Co  Co117  1  0.75441314  0.74895886  0.49782220  1
  Co  Co118  1  0.00449321  0.49756408  0.75031385  1
  Co  Co119  1  0.37905855  0.62252345  0.87462880  1
  Co  Co120  1  0.37466806  0.87727068  0.37504045  1
  Co  Co121  1  0.75057486  0.24966261  0.00091194  1
  Co  Co122  1  0.74706993  0.24683161  0.74913042  1
  Co  Co123  1  0.50146141  0.00188762  0.75105203  1
  Co  Co124  1  0.37062757  0.37514428  0.37834430  1
  Co  Co125  1  0.49389445  0.75268311  0.50415510  1
  Co  Co126  1  0.61674558  0.62772538  0.37871918  1
  Co  Co127  1  0.87603497  0.61960437  0.87291256  1
