# generated using pymatgen
data_Fe45Co19
_symmetry_space_group_name_H-M   'P 1'
_cell_length_a   11.41591937
_cell_length_b   11.41645055
_cell_length_c   11.41556133
_cell_angle_alpha   89.99594490
_cell_angle_beta   90.00468765
_cell_angle_gamma   90.00487716
_symmetry_Int_Tables_number   1
_chemical_formula_structural   Fe45Co19
_chemical_formula_sum   'Fe90 Co38'
_cell_volume   1487.78186270
_cell_formula_units_Z   2
loop_
 _symmetry_equiv_pos_site_id
 _symmetry_equiv_pos_as_xyz
  1  'x, y, z'
loop_
 _atom_site_type_symbol
 _atom_site_label
 _atom_site_symmetry_multiplicity
 _atom_site_fract_x
 _atom_site_fract_y
 _atom_site_fract_z
 _atom_site_occupancy
  Fe  Fe0  1  0.75182951  -0.00140069  0.49923838  1
  Fe  Fe1  1  0.37346620  0.37527629  0.62354513  1
  Fe  Fe2  1  0.37486434  0.37581172  0.37446223  1
  Fe  Fe3  1  0.12705766  0.62352604  0.63066061  1
  Fe  Fe4  1  0.24771573  -0.00059834  0.25154189  1
  Fe  Fe5  1  0.62149821  0.62388803  0.87608046  1
  Fe  Fe6  1  0.87433855  0.62741780  0.62491719  1
  Fe  Fe7  1  0.00148263  -0.00055877  0.50105193  1
  Fe  Fe8  1  0.50002260  0.00150925  0.50226880  1
  Fe  Fe9  1  0.12585951  0.37642168  0.62594713  1
  Fe  Fe10  1  0.37190770  0.62425653  0.12615161  1
  Fe  Fe11  1  0.87881119  0.62266476  0.37482020  1
  Fe  Fe12  1  0.87770021  0.87386723  0.37456534  1
  Fe  Fe13  1  0.24779063  0.00165078  -0.00179911  1
  Fe  Fe14  1  0.87552936  0.12381744  0.37414348  1
  Fe  Fe15  1  0.37340663  0.12540783  0.12592789  1
  Fe  Fe16  1  0.24898337  0.25282906  0.75302277  1
  Fe  Fe17  1  0.88125060  0.62450750  0.87691598  1
  Fe  Fe18  1  0.62745793  0.12231248  0.12385865  1
  Fe  Fe19  1  0.62494489  0.62327144  0.37761798  1
  Fe  Fe20  1  0.12946493  0.87392187  0.62310426  1
  Fe  Fe21  1  0.87442594  0.12460263  0.12277496  1
  Fe  Fe22  1  -0.00038615  0.25324410  0.24725770  1
  Fe  Fe23  1  0.62552709  0.87544898  0.37590927  1
  Fe  Fe24  1  0.12356345  0.12663948  0.37344959  1
  Fe  Fe25  1  0.87170299  0.37210284  0.62375783  1
  Fe  Fe26  1  0.37783818  0.87603369  0.87487942  1
  Fe  Fe27  1  0.24726175  0.74517449  -0.00819824  1
  Fe  Fe28  1  0.87464875  0.87482308  0.12038126  1
  Fe  Fe29  1  0.12528986  0.12658062  0.62695016  1
  Fe  Fe30  1  0.87925101  0.37814098  0.87995572  1
  Fe  Fe31  1  0.50086502  0.24997255  0.50002696  1
  Fe  Fe32  1  0.49822612  0.75033507  0.74877846  1
  Fe  Fe33  1  0.49814360  0.74819827  0.00228250  1
  Fe  Fe34  1  0.87837741  0.37977187  0.37429018  1
  Fe  Fe35  1  0.75078147  0.25098503  0.25172194  1
  Fe  Fe36  1  0.12442768  0.12692038  0.12434553  1
  Fe  Fe37  1  0.62923462  0.37429128  0.62453421  1
  Fe  Fe38  1  0.24913907  0.50332336  -0.00460259  1
  Fe  Fe39  1  0.12019102  0.38015309  0.87508413  1
  Fe  Fe40  1  0.62907222  0.12791951  0.62728085  1
  Fe  Fe41  1  0.62778322  0.87651008  0.12239577  1
  Fe  Fe42  1  -0.00067835  0.25016139  0.50073224  1
  Fe  Fe43  1  -0.00013238  0.74695790  0.24445001  1
  Fe  Fe44  1  0.87270738  0.12536240  0.62756222  1
  Fe  Fe45  1  0.37427383  0.12562154  0.37312417  1
  Fe  Fe46  1  0.75015225  0.75002308  0.75400062  1
  Fe  Fe47  1  0.75108294  0.75075181  -0.00415632  1
  Fe  Fe48  1  0.37810223  0.37701749  0.87651077  1
  Fe  Fe49  1  0.37288316  0.87493786  0.37793265  1
  Fe  Fe50  1  0.37109156  0.87440073  0.62252409  1
  Fe  Fe51  1  0.00263088  -0.00195238  0.75123854  1
  Fe  Fe52  1  0.50036201  0.25041060  0.74930880  1
  Fe  Fe53  1  0.37171026  0.62501131  0.62619855  1
  Fe  Fe54  1  0.62944533  0.37782398  0.12315727  1
  Fe  Fe55  1  0.24938421  -0.00111438  0.75145924  1
  Fe  Fe56  1  0.62867084  0.62340915  0.12362611  1
  Fe  Fe57  1  0.37114044  0.87308462  0.12369387  1
  Fe  Fe58  1  0.62627033  0.12324145  0.37372802  1
  Fe  Fe59  1  0.37351553  0.12498932  0.62612083  1
  Fe  Fe60  1  0.12597768  0.87203952  0.12277287  1
  Fe  Fe61  1  0.00062686  -0.00171336  0.24726219  1
  Fe  Fe62  1  0.00303920  0.75272013  0.75166231  1
  Fe  Fe63  1  0.50019150  0.75011519  0.24880897  1
  Fe  Fe64  1  0.49821442  0.74807114  0.49994046  1
  Fe  Fe65  1  0.49918511  -0.00257073  0.24725678  1
  Fe  Fe66  1  0.75297506  0.50052261  0.75143163  1
  Fe  Fe67  1  0.87946709  0.12378572  0.87616383  1
  Fe  Fe68  1  0.37766679  0.12441822  0.87423192  1
  Fe  Fe69  1  0.24822963  0.25004289  0.49790571  1
  Fe  Fe70  1  0.24596863  0.50109143  0.25376920  1
  Fe  Fe71  1  0.62357564  0.37646259  0.87574535  1
  Fe  Fe72  1  0.24861061  0.74837297  0.25603447  1
  Fe  Fe73  1  0.75069735  0.24932665  -0.00325272  1
  Fe  Fe74  1  0.49905463  0.49969410  0.74795728  1
  Fe  Fe75  1  0.24828352  0.24963323  -0.00278230  1
  Fe  Fe76  1  0.62579535  0.37787058  0.37767728  1
  Fe  Fe77  1  0.62686740  0.62427199  0.62314995  1
  Fe  Fe78  1  0.49934128  0.25066235  0.00296322  1
  Fe  Fe79  1  0.12618830  0.37472231  0.12443666  1
  Fe  Fe80  1  0.24733182  0.50284476  0.49724748  1
  Fe  Fe81  1  0.87294012  0.87511439  0.62761646  1
  Fe  Fe82  1  -0.00018723  0.25201258  0.75072113  1
  Fe  Fe83  1  0.50132852  0.50050866  0.24744548  1
  Fe  Fe84  1  0.62689400  0.87286357  0.62515533  1
  Fe  Fe85  1  0.37192273  0.37709871  0.12541387  1
  Fe  Fe86  1  0.74668433  -0.00177789  0.75730837  1
  Fe  Fe87  1  0.00188118  0.75020083  0.50222450  1
  Fe  Fe88  1  0.75028294  0.74996773  0.25214830  1
  Fe  Fe89  1  0.50064323  0.25144502  0.24781825  1
  Co  Co90  1  0.87955803  0.87370771  0.87627081  1
  Co  Co91  1  0.62041714  0.12644443  0.87623141  1
  Co  Co92  1  0.00139836  0.25096238  0.00113580  1
  Co  Co93  1  0.12107829  0.37632182  0.37458900  1
  Co  Co94  1  0.37814075  0.62350502  0.37286123  1
  Co  Co95  1  0.75073140  -0.00080442  -0.00544494  1
  Co  Co96  1  0.00270244  0.74551161  0.00173758  1
  Co  Co97  1  0.49865571  0.49988581  0.50245907  1
  Co  Co98  1  0.24919492  0.25059736  0.25038638  1
  Co  Co99  1  0.49917697  -0.00055381  0.00263356  1
  Co  Co100  1  0.12349847  0.87503952  0.87747604  1
  Co  Co101  1  0.12308503  0.12583829  0.87324478  1
  Co  Co102  1  0.00055329  0.50037051  0.50541949  1
  Co  Co103  1  0.86807062  0.62619350  0.12392610  1
  Co  Co104  1  -0.00544445  0.49771717  0.74490933  1
  Co  Co105  1  0.12262792  0.87316185  0.37492677  1
  Co  Co106  1  0.50173894  -0.00077614  0.74718653  1
  Co  Co107  1  0.25340352  0.49849366  0.75307023  1
  Co  Co108  1  0.75345586  0.50108480  0.50148100  1
  Co  Co109  1  0.11696795  0.62368044  0.37334888  1
  Co  Co110  1  0.75214331  0.25129577  0.75661081  1
  Co  Co111  1  0.61962589  0.87225305  0.87671178  1
  Co  Co112  1  0.24710046  0.00275566  0.49836767  1
  Co  Co113  1  0.75204858  0.75000789  0.49823597  1
  Co  Co114  1  0.24743430  0.74428843  0.49680721  1
  Co  Co115  1  0.75178050  0.50097562  -0.00394279  1
  Co  Co116  1  0.11880661  0.61937028  0.86949613  1
  Co  Co117  1  0.75212313  -0.00190518  0.24986011  1
  Co  Co118  1  -0.00017060  0.50123301  0.24040131  1
  Co  Co119  1  0.75186582  0.24995947  0.49626504  1
  Co  Co120  1  0.00117524  0.50453766  0.00951581  1
  Co  Co121  1  0.87129220  0.37417545  0.12382123  1
  Co  Co122  1  0.49889228  0.50102690  0.00359559  1
  Co  Co123  1  0.75082983  0.50083516  0.25181323  1
  Co  Co124  1  0.00253950  -0.00048897  0.00139608  1
  Co  Co125  1  0.25003159  0.75048855  0.75487605  1
  Co  Co126  1  0.13138255  0.62784498  0.12587240  1
  Co  Co127  1  0.37905077  0.62403764  0.87370297  1
