# generated using pymatgen
data_Fe45Co19
_symmetry_space_group_name_H-M   'P 1'
_cell_length_a   11.41346239
_cell_length_b   11.41519319
_cell_length_c   11.41597055
_cell_angle_alpha   90.00198914
_cell_angle_beta   90.01084211
_cell_angle_gamma   90.00165861
_symmetry_Int_Tables_number   1
_chemical_formula_structural   Fe45Co19
_chemical_formula_sum   'Fe90 Co38'
_cell_volume   1487.35113548
_cell_formula_units_Z   2
loop_
 _symmetry_equiv_pos_site_id
 _symmetry_equiv_pos_as_xyz
  1  'x, y, z'
loop_
 _atom_site_type_symbol
 _atom_site_label
 _atom_site_symmetry_multiplicity
 _atom_site_fract_x
 _atom_site_fract_y
 _atom_site_fract_z
 _atom_site_occupancy
  Fe  Fe0  1  0.87476987  0.37635303  0.62462346  1
  Fe  Fe1  1  0.37219653  0.62443182  0.87482641  1
  Fe  Fe2  1  0.75383639  -0.00037616  0.24964462  1
  Fe  Fe3  1  0.62709409  0.87307167  0.37325703  1
  Fe  Fe4  1  0.62597909  0.37473350  0.12382724  1
  Fe  Fe5  1  0.74816075  0.75342970  0.74810855  1
  Fe  Fe6  1  0.12771513  0.62780816  0.62575699  1
  Fe  Fe7  1  0.50129112  0.50176965  0.00045638  1
  Fe  Fe8  1  0.00086940  -0.00480724  0.75196370  1
  Fe  Fe9  1  0.87677751  0.37291494  0.12239482  1
  Fe  Fe10  1  0.50153225  0.25010757  0.25106504  1
  Fe  Fe11  1  0.12526085  0.12378579  0.62577614  1
  Fe  Fe12  1  0.50028637  0.75097106  0.74940908  1
  Fe  Fe13  1  0.37354629  0.12342551  0.87486408  1
  Fe  Fe14  1  0.49917157  0.25155653  0.75083730  1
  Fe  Fe15  1  0.37079883  0.37621083  0.62061124  1
  Fe  Fe16  1  0.62680817  0.12289262  0.87351134  1
  Fe  Fe17  1  0.37377786  0.62469756  0.12648797  1
  Fe  Fe18  1  -0.00204297  0.00198180  0.50081161  1
  Fe  Fe19  1  0.12279396  0.37582084  0.12436867  1
  Fe  Fe20  1  0.37074828  0.62705270  0.62401044  1
  Fe  Fe21  1  0.12622665  0.37603211  0.62227588  1
  Fe  Fe22  1  0.24734711  0.24984623  0.25003482  1
  Fe  Fe23  1  -0.00135969  0.24712662  0.50010797  1
  Fe  Fe24  1  0.37536095  0.37511103  0.12489736  1
  Fe  Fe25  1  0.24945406  -0.00167348  0.00185469  1
  Fe  Fe26  1  -0.00303257  0.50345651  0.50062530  1
  Fe  Fe27  1  0.49880735  0.50085801  0.74907738  1
  Fe  Fe28  1  0.63101297  0.62738382  0.37495483  1
  Fe  Fe29  1  0.37450682  0.12620884  0.12482440  1
  Fe  Fe30  1  0.62669240  0.37617790  0.62451548  1
  Fe  Fe31  1  0.75094809  0.25122747  0.75233346  1
  Fe  Fe32  1  0.75110543  -0.00128728  0.50114214  1
  Fe  Fe33  1  0.50003165  -0.00091759  0.49890444  1
  Fe  Fe34  1  0.62782462  0.37313574  0.37670432  1
  Fe  Fe35  1  0.00275598  0.50540627  0.00187174  1
  Fe  Fe36  1  0.50121778  0.50044501  0.25140996  1
  Fe  Fe37  1  0.24807850  0.74951146  0.00162005  1
  Fe  Fe38  1  -0.00207033  0.00216339  0.25076420  1
  Fe  Fe39  1  -0.00492710  0.74708258  0.50147613  1
  Fe  Fe40  1  0.87572896  0.62901036  0.87283892  1
  Fe  Fe41  1  0.37311667  0.12431791  0.62613507  1
  Fe  Fe42  1  0.12494291  0.12310945  0.87461701  1
  Fe  Fe43  1  0.12453157  0.37500176  0.37743165  1
  Fe  Fe44  1  0.87670009  0.12875343  0.12455787  1
  Fe  Fe45  1  0.11980584  0.87363397  0.12413450  1
  Fe  Fe46  1  0.24861869  -0.00187093  0.24947729  1
  Fe  Fe47  1  0.12711383  0.62635372  0.87293470  1
  Fe  Fe48  1  0.24598009  0.25002404  -0.00065005  1
  Fe  Fe49  1  0.75004729  0.49985512  0.75122114  1
  Fe  Fe50  1  0.62519956  0.62644028  0.87479389  1
  Fe  Fe51  1  0.24730822  0.25241550  0.75091383  1
  Fe  Fe52  1  0.87493910  0.37219757  0.37576291  1
  Fe  Fe53  1  0.49895893  0.24978538  0.49947882  1
  Fe  Fe54  1  0.74991033  0.50027615  -0.00127825  1
  Fe  Fe55  1  0.00073510  0.50232228  0.74882783  1
  Fe  Fe56  1  0.50240828  0.75056935  0.00294553  1
  Fe  Fe57  1  0.50075343  -0.00016972  0.25034502  1
  Fe  Fe58  1  0.50032657  0.75058010  0.49733942  1
  Fe  Fe59  1  0.37590527  0.87379525  0.87637565  1
  Fe  Fe60  1  0.75792508  0.75307057  0.24860430  1
  Fe  Fe61  1  0.11943728  0.87343971  0.37603401  1
  Fe  Fe62  1  0.37775883  0.87391123  0.12778458  1
  Fe  Fe63  1  0.24933392  -0.00154147  0.49873789  1
  Fe  Fe64  1  0.75294690  0.49748790  0.25091556  1
  Fe  Fe65  1  0.87810509  0.37460470  0.87790972  1
  Fe  Fe66  1  0.12428548  0.12492725  0.37478987  1
  Fe  Fe67  1  0.24917472  0.49877514  0.25128041  1
  Fe  Fe68  1  0.62774345  0.62636536  0.12781396  1
  Fe  Fe69  1  0.24686338  -0.00641465  0.75040035  1
  Fe  Fe70  1  0.37345035  0.12538936  0.37381583  1
  Fe  Fe71  1  0.75213530  -0.00190110  -0.00226313  1
  Fe  Fe72  1  0.00139743  0.25058212  0.75210661  1
  Fe  Fe73  1  0.24963521  0.75285915  0.25229282  1
  Fe  Fe74  1  0.50175228  -0.00203364  0.00116185  1
  Fe  Fe75  1  0.75267129  0.75237946  0.00318719  1
  Fe  Fe76  1  0.11937524  0.62611277  0.37082383  1
  Fe  Fe77  1  -0.00184569  0.00203833  -0.00282649  1
  Fe  Fe78  1  0.62623316  0.12427967  0.62617534  1
  Fe  Fe79  1  0.37463290  0.62487905  0.37398220  1
  Fe  Fe80  1  0.62924669  0.12659894  0.37592157  1
  Fe  Fe81  1  0.50028566  0.50053652  0.49806033  1
  Fe  Fe82  1  0.37314195  0.87304913  0.62163909  1
  Fe  Fe83  1  0.50156095  -0.00358270  0.74953111  1
  Fe  Fe84  1  0.62818317  0.62503299  0.62203844  1
  Fe  Fe85  1  0.50253481  0.25037945  -0.00233486  1
  Fe  Fe86  1  0.62684123  0.12463404  0.12424066  1
  Fe  Fe87  1  0.87400812  0.12402485  0.62828151  1
  Fe  Fe88  1  0.87567679  0.87414076  0.62665944  1
  Fe  Fe89  1  0.37262723  0.37816447  0.87632190  1
  Co  Co90  1  0.24948227  0.49919290  0.74801099  1
  Co  Co91  1  0.75270774  0.49992021  0.49922359  1
  Co  Co92  1  0.12409903  0.87331542  0.61921724  1
  Co  Co93  1  0.50039764  0.74832552  0.25066418  1
  Co  Co94  1  0.87622825  0.87033499  0.87455827  1
  Co  Co95  1  0.24893455  0.24644411  0.50011267  1
  Co  Co96  1  0.75469635  0.75140728  0.50010759  1
  Co  Co97  1  0.24845561  0.75472537  0.75134747  1
  Co  Co98  1  0.00098349  0.24929328  0.25111054  1
  Co  Co99  1  0.37650345  0.87605924  0.37455866  1
  Co  Co100  1  0.62440535  0.87411473  0.62228052  1
  Co  Co101  1  0.00337679  0.24779745  -0.00165840  1
  Co  Co102  1  0.24876045  0.74965689  0.49477189  1
  Co  Co103  1  0.62465999  0.37735012  0.87387536  1
  Co  Co104  1  0.87787564  0.87621077  0.37693837  1
  Co  Co105  1  0.87524557  0.12597416  0.87292346  1
  Co  Co106  1  0.12295280  0.37913484  0.87567995  1
  Co  Co107  1  0.00294968  0.75176157  0.74827447  1
  Co  Co108  1  0.62569263  0.87384984  0.87626134  1
  Co  Co109  1  0.74892016  0.24976305  -0.00221877  1
  Co  Co110  1  0.24698536  0.50162798  0.00260307  1
  Co  Co111  1  0.24765506  0.50435280  0.49753936  1
  Co  Co112  1  0.12321724  0.12264457  0.12492380  1
  Co  Co113  1  0.87434812  0.62123449  0.12631272  1
  Co  Co114  1  -0.00228738  0.49696196  0.24960196  1
  Co  Co115  1  0.87475797  0.62367388  0.37292419  1
  Co  Co116  1  0.75027292  -0.00343799  0.75060902  1
  Co  Co117  1  0.12134619  0.87291500  0.88081898  1
  Co  Co118  1  0.75202952  0.24935107  0.50328705  1
  Co  Co119  1  -0.00071499  0.74411309  0.00319130  1
  Co  Co120  1  0.12521589  0.62697556  0.13132336  1
  Co  Co121  1  0.87325827  0.12679811  0.37483819  1
  Co  Co122  1  0.75068818  0.25027322  0.24777667  1
  Co  Co123  1  -0.00671235  0.75044062  0.24644719  1
  Co  Co124  1  0.87987603  0.87854915  0.12202873  1
  Co  Co125  1  0.37324343  0.37450958  0.37597496  1
  Co  Co126  1  0.62595831  0.87516144  0.12806916  1
  Co  Co127  1  0.87203378  0.62550683  0.62839563  1
