# generated using pymatgen
data_Fe45Co19
_symmetry_space_group_name_H-M   'P 1'
_cell_length_a   11.41562274
_cell_length_b   11.41466155
_cell_length_c   11.41617633
_cell_angle_alpha   89.99540623
_cell_angle_beta   90.00594743
_cell_angle_gamma   89.99309063
_symmetry_Int_Tables_number   1
_chemical_formula_structural   Fe45Co19
_chemical_formula_sum   'Fe90 Co38'
_cell_volume   1487.59019776
_cell_formula_units_Z   2
loop_
 _symmetry_equiv_pos_site_id
 _symmetry_equiv_pos_as_xyz
  1  'x, y, z'
loop_
 _atom_site_type_symbol
 _atom_site_label
 _atom_site_symmetry_multiplicity
 _atom_site_fract_x
 _atom_site_fract_y
 _atom_site_fract_z
 _atom_site_occupancy
  Fe  Fe0  1  0.12436338  0.62526300  0.87646357  1
  Fe  Fe1  1  0.25163121  0.50342489  0.00156785  1
  Fe  Fe2  1  -0.00065522  -0.00019776  0.75100980  1
  Fe  Fe3  1  0.12183331  0.37561674  0.62741918  1
  Fe  Fe4  1  -0.00217808  -0.00314054  0.50199367  1
  Fe  Fe5  1  0.75453005  0.50331676  0.75190918  1
  Fe  Fe6  1  -0.00455879  0.50511166  0.75248388  1
  Fe  Fe7  1  0.62933145  0.12275965  0.12420536  1
  Fe  Fe8  1  0.25113880  0.50208881  0.75059757  1
  Fe  Fe9  1  -0.00029601  0.24544673  0.75358578  1
  Fe  Fe10  1  0.50172136  0.74574518  0.75063349  1
  Fe  Fe11  1  0.62420202  0.87470726  0.87417163  1
  Fe  Fe12  1  0.37525799  0.62592089  0.37355758  1
  Fe  Fe13  1  0.87376853  0.87368450  0.87397005  1
  Fe  Fe14  1  0.49959675  0.00103199  0.75055878  1
  Fe  Fe15  1  0.74663564  0.75210618  0.00108823  1
  Fe  Fe16  1  0.75121704  0.49879714  0.24894922  1
  Fe  Fe17  1  0.50148671  0.24854425  0.50004091  1
  Fe  Fe18  1  0.75389047  0.49687492  -0.00074347  1
  Fe  Fe19  1  0.25548300  0.49718826  0.24680642  1
  Fe  Fe20  1  0.75082760  0.74818752  0.75018461  1
  Fe  Fe21  1  0.62478567  0.87814612  0.12716016  1
  Fe  Fe22  1  0.24675343  0.75161986  0.24623200  1
  Fe  Fe23  1  -0.00019472  0.24880028  0.50103461  1
  Fe  Fe24  1  0.62370284  0.87640392  0.62213991  1
  Fe  Fe25  1  0.49773639  0.50371874  0.00057401  1
  Fe  Fe26  1  0.12353053  0.87636950  0.37473879  1
  Fe  Fe27  1  0.62949168  0.12355484  0.87739697  1
  Fe  Fe28  1  -0.00193751  0.50054907  0.24980712  1
  Fe  Fe29  1  0.62449977  0.37558345  0.62689962  1
  Fe  Fe30  1  0.12220170  0.37580283  0.12319502  1
  Fe  Fe31  1  0.62430219  0.11935493  0.37249179  1
  Fe  Fe32  1  0.50241645  0.74997259  0.24983321  1
  Fe  Fe33  1  0.87502004  0.37299492  0.37403859  1
  Fe  Fe34  1  0.49966440  0.25238590  0.24734486  1
  Fe  Fe35  1  0.37528240  0.87041096  0.12171721  1
  Fe  Fe36  1  0.12641158  0.87717324  0.87441077  1
  Fe  Fe37  1  0.75218555  0.49862638  0.50031629  1
  Fe  Fe38  1  -0.00245435  0.00316930  -0.00215036  1
  Fe  Fe39  1  0.74993509  0.25186721  0.24641327  1
  Fe  Fe40  1  0.37890944  0.87521767  0.37544607  1
  Fe  Fe41  1  0.12758641  0.12180146  0.62698740  1
  Fe  Fe42  1  0.49877886  0.50163146  0.49934270  1
  Fe  Fe43  1  0.75196923  0.75571684  0.49737129  1
  Fe  Fe44  1  0.62344383  0.37654085  0.37318278  1
  Fe  Fe45  1  0.74932824  0.24949827  0.49934035  1
  Fe  Fe46  1  0.12578992  0.12359726  0.12369098  1
  Fe  Fe47  1  0.00438397  0.75004786  0.00157241  1
  Fe  Fe48  1  0.37677385  0.87256308  0.62470884  1
  Fe  Fe49  1  0.87551906  0.62563530  0.12274578  1
  Fe  Fe50  1  0.12116006  0.37539137  0.87622766  1
  Fe  Fe51  1  0.37707459  0.37394555  0.62618503  1
  Fe  Fe52  1  0.87581753  0.37436015  0.62665871  1
  Fe  Fe53  1  0.24873061  0.74994374  0.75031399  1
  Fe  Fe54  1  0.37425163  0.12497880  0.87462893  1
  Fe  Fe55  1  0.62671821  0.12290898  0.62529303  1
  Fe  Fe56  1  0.87599674  0.87631129  0.12520213  1
  Fe  Fe57  1  0.24906249  0.74987042  0.50041861  1
  Fe  Fe58  1  0.74927123  0.75348968  0.25152982  1
  Fe  Fe59  1  -0.00164787  0.00172906  0.24868028  1
  Fe  Fe60  1  0.00237737  0.74970034  0.24811804  1
  Fe  Fe61  1  0.00014744  0.24842710  0.24722494  1
  Fe  Fe62  1  0.24871402  0.25082892  0.75187138  1
  Fe  Fe63  1  0.87354547  0.12410376  0.37388155  1
  Fe  Fe64  1  0.50086344  -0.00100746  0.00053120  1
  Fe  Fe65  1  0.62699836  0.62487530  0.62327792  1
  Fe  Fe66  1  0.62478925  0.62220863  0.12512719  1
  Fe  Fe67  1  0.25183075  -0.00104064  0.24880125  1
  Fe  Fe68  1  0.87154722  0.12198064  0.62636820  1
  Fe  Fe69  1  0.12613478  0.12385418  0.37495643  1
  Fe  Fe70  1  0.12568686  0.62463383  0.37313614  1
  Fe  Fe71  1  0.37561054  0.86984246  0.87818602  1
  Fe  Fe72  1  0.24853779  0.25106725  0.50048473  1
  Fe  Fe73  1  0.74940958  0.25041401  0.75207581  1
  Fe  Fe74  1  0.37436102  0.12676101  0.62839332  1
  Fe  Fe75  1  0.12160482  0.62785309  0.62433329  1
  Fe  Fe76  1  0.37352999  0.12725553  0.12424407  1
  Fe  Fe77  1  0.50286723  0.24964539  -0.00078756  1
  Fe  Fe78  1  -0.00085590  0.50057781  0.49893696  1
  Fe  Fe79  1  0.25231687  -0.00128368  0.50149426  1
  Fe  Fe80  1  0.62543255  0.62492395  0.37509679  1
  Fe  Fe81  1  0.62508997  0.37674649  0.87519456  1
  Fe  Fe82  1  0.24677457  0.24993643  -0.00099298  1
  Fe  Fe83  1  0.87513972  0.62731852  0.37584450  1
  Fe  Fe84  1  0.49830435  0.50389991  0.75159930  1
  Fe  Fe85  1  0.12566901  0.37456894  0.37415895  1
  Fe  Fe86  1  0.37561759  0.37489684  0.87581893  1
  Fe  Fe87  1  0.25117795  -0.00113040  -0.00087330  1
  Fe  Fe88  1  0.25010861  0.49958328  0.50150108  1
  Fe  Fe89  1  0.37473989  0.12653220  0.37271385  1
  Co  Co90  1  0.12419022  0.62063186  0.12691020  1
  Co  Co91  1  0.87833740  0.37533085  0.12518284  1
  Co  Co92  1  0.87381513  0.63043897  0.88061297  1
  Co  Co93  1  0.37442030  0.62569325  0.62552589  1
  Co  Co94  1  0.75141109  -0.00340750  0.25214828  1
  Co  Co95  1  0.12754771  0.12233110  0.87420753  1
  Co  Co96  1  0.00026857  0.74902278  0.75274124  1
  Co  Co97  1  0.37569170  0.37323944  0.37744920  1
  Co  Co98  1  0.87922095  0.87516275  0.37123550  1
  Co  Co99  1  0.49765209  0.00335086  0.50226560  1
  Co  Co100  1  0.87038576  0.12303021  0.12329803  1
  Co  Co101  1  0.50029650  0.74715766  0.49949368  1
  Co  Co102  1  0.37590478  0.63114007  0.12377622  1
  Co  Co103  1  0.50656337  0.74916637  0.00063432  1
  Co  Co104  1  0.75188529  0.25486144  0.00137534  1
  Co  Co105  1  0.12384608  0.88111086  0.12448558  1
  Co  Co106  1  0.87562639  0.87370739  0.62876845  1
  Co  Co107  1  0.49643185  0.50002742  0.24934859  1
  Co  Co108  1  0.37394678  0.63035019  0.87803826  1
  Co  Co109  1  0.49655237  -0.00041697  0.24498655  1
  Co  Co110  1  0.74953689  -0.00506042  -0.00037629  1
  Co  Co111  1  0.87571380  0.62805221  0.62153552  1
  Co  Co112  1  0.25353041  -0.00314885  0.75042281  1
  Co  Co113  1  -0.00116417  0.24546791  -0.00051130  1
  Co  Co114  1  0.75210772  -0.00343441  0.49748149  1
  Co  Co115  1  0.86896251  0.12374491  0.87578630  1
  Co  Co116  1  -0.00027536  0.75251733  0.49828921  1
  Co  Co117  1  0.24854984  0.25189947  0.24863533  1
  Co  Co118  1  0.37634759  0.37198643  0.12078645  1
  Co  Co119  1  0.50209519  0.24854099  0.75296708  1
  Co  Co120  1  0.87791246  0.37264387  0.87390307  1
  Co  Co121  1  0.61961026  0.87927998  0.37641430  1
  Co  Co122  1  0.62729511  0.62319564  0.87657344  1
  Co  Co123  1  -0.00207586  0.50141573  -0.00164067  1
  Co  Co124  1  0.62306708  0.37807462  0.12391798  1
  Co  Co125  1  0.12495224  0.87433842  0.62589208  1
  Co  Co126  1  0.24242534  0.74907309  0.00278233  1
  Co  Co127  1  0.74786514  -0.00265068  0.75036583  1
