# generated using pymatgen
data_Fe45Co19
_symmetry_space_group_name_H-M   'P 1'
_cell_length_a   11.41489911
_cell_length_b   11.41538536
_cell_length_c   11.41582156
_cell_angle_alpha   90.00014838
_cell_angle_beta   90.00508716
_cell_angle_gamma   90.00487739
_symmetry_Int_Tables_number   1
_chemical_formula_structural   Fe45Co19
_chemical_formula_sum   'Fe90 Co38'
_cell_volume   1487.54400763
_cell_formula_units_Z   2
loop_
 _symmetry_equiv_pos_site_id
 _symmetry_equiv_pos_as_xyz
  1  'x, y, z'
loop_
 _atom_site_type_symbol
 _atom_site_label
 _atom_site_symmetry_multiplicity
 _atom_site_fract_x
 _atom_site_fract_y
 _atom_site_fract_z
 _atom_site_occupancy
  Fe  Fe0  1  0.62785393  0.12496385  0.87942720  1
  Fe  Fe1  1  0.37677752  0.87685924  0.87371706  1
  Fe  Fe2  1  0.24833689  0.00105764  0.25012427  1
  Fe  Fe3  1  0.62230372  0.62523184  0.37523504  1
  Fe  Fe4  1  0.25040829  0.25353622  0.50173655  1
  Fe  Fe5  1  0.87479907  0.37201508  0.12741919  1
  Fe  Fe6  1  0.00016803  0.50249836  0.24887570  1
  Fe  Fe7  1  0.75414790  0.75438234  -0.00323238  1
  Fe  Fe8  1  0.37659885  0.37214646  0.12876497  1
  Fe  Fe9  1  0.49839367  0.24724841  0.75296803  1
  Fe  Fe10  1  0.75187271  -0.00196171  0.50250400  1
  Fe  Fe11  1  0.37312163  0.62395103  0.87569307  1
  Fe  Fe12  1  0.62676714  0.62761168  0.12483399  1
  Fe  Fe13  1  0.37409730  0.62394993  0.62380502  1
  Fe  Fe14  1  0.75077241  -0.00224287  0.75044745  1
  Fe  Fe15  1  0.37544744  0.12559282  0.12170591  1
  Fe  Fe16  1  0.62530558  0.37469975  0.87440220  1
  Fe  Fe17  1  0.87366319  0.12140570  0.87630050  1
  Fe  Fe18  1  0.12786540  0.62448530  0.62251362  1
  Fe  Fe19  1  -0.00215105  0.00278496  0.74247266  1
  Fe  Fe20  1  0.37698384  0.62275867  0.37490473  1
  Fe  Fe21  1  0.25354605  0.75270956  0.49899395  1
  Fe  Fe22  1  0.37565334  0.87605525  0.12611885  1
  Fe  Fe23  1  0.87609018  0.37975585  0.87134372  1
  Fe  Fe24  1  0.75178326  0.75198513  0.75328203  1
  Fe  Fe25  1  -0.00242313  0.75070267  0.50049559  1
  Fe  Fe26  1  0.49936863  -0.00195486  0.50288601  1
  Fe  Fe27  1  0.50061391  0.75218272  0.00045478  1
  Fe  Fe28  1  0.12186699  0.87327038  0.12696702  1
  Fe  Fe29  1  0.62579270  0.62591709  0.62428369  1
  Fe  Fe30  1  0.12408144  0.37320484  0.12436045  1
  Fe  Fe31  1  0.12439210  0.12591903  0.87261148  1
  Fe  Fe32  1  0.24899391  0.49978531  0.00003820  1
  Fe  Fe33  1  0.37590363  0.62517625  0.12545659  1
  Fe  Fe34  1  0.87568271  0.12304686  0.37754532  1
  Fe  Fe35  1  -0.00064438  0.00123132  0.00263501  1
  Fe  Fe36  1  0.12436609  0.62711432  0.12457176  1
  Fe  Fe37  1  -0.00028998  0.24703797  0.25181868  1
  Fe  Fe38  1  0.87676283  0.87548897  0.12743021  1
  Fe  Fe39  1  0.62415059  0.37352578  0.62609362  1
  Fe  Fe40  1  0.74960090  0.49756143  0.50158689  1
  Fe  Fe41  1  0.75267096  0.25161118  0.75106588  1
  Fe  Fe42  1  0.24809748  0.75196297  -0.00151195  1
  Fe  Fe43  1  0.24894740  0.24856906  0.25186097  1
  Fe  Fe44  1  0.12177713  0.37284838  0.62613003  1
  Fe  Fe45  1  0.49866320  0.49763541  0.49958157  1
  Fe  Fe46  1  -0.00208952  0.25043201  -0.00331480  1
  Fe  Fe47  1  0.62533898  0.87307282  0.62556603  1
  Fe  Fe48  1  0.37242661  0.12499162  0.62577775  1
  Fe  Fe49  1  0.49957714  0.74948132  0.74919984  1
  Fe  Fe50  1  0.11830777  0.87258981  0.87387071  1
  Fe  Fe51  1  0.49895018  0.25030733  0.49913948  1
  Fe  Fe52  1  0.37277575  0.37716159  0.87147504  1
  Fe  Fe53  1  0.87512086  0.62280539  0.37462947  1
  Fe  Fe54  1  0.12446383  0.12709227  0.12387900  1
  Fe  Fe55  1  0.62341551  0.87663685  0.37375384  1
  Fe  Fe56  1  0.12390606  0.12200183  0.38043358  1
  Fe  Fe57  1  0.12528193  0.62382797  0.37715948  1
  Fe  Fe58  1  0.25147290  0.24959405  -0.00370920  1
  Fe  Fe59  1  0.62824969  0.12606335  0.62353981  1
  Fe  Fe60  1  0.24932632  0.49969156  0.25057423  1
  Fe  Fe61  1  0.62313315  0.37265124  0.37251083  1
  Fe  Fe62  1  0.50531157  -0.00103603  0.00170365  1
  Fe  Fe63  1  0.87666916  0.87794737  0.37305555  1
  Fe  Fe64  1  -0.00155151  0.50332577  0.00107891  1
  Fe  Fe65  1  0.50126237  0.50141819  0.75009165  1
  Fe  Fe66  1  0.12541262  0.87640522  0.62246785  1
  Fe  Fe67  1  0.74713616  0.00695271  0.24508220  1
  Fe  Fe68  1  0.50155022  0.00113917  0.74922779  1
  Fe  Fe69  1  0.74835212  0.49844418  0.24929224  1
  Fe  Fe70  1  0.12286848  0.37677762  0.37734160  1
  Fe  Fe71  1  0.50515831  0.00559816  0.24653320  1
  Fe  Fe72  1  0.74929570  0.75086961  0.49811199  1
  Fe  Fe73  1  0.37454265  0.12471777  0.37690165  1
  Fe  Fe74  1  0.24849937  0.74990369  0.75135786  1
  Fe  Fe75  1  0.00082908  0.50389598  0.74876063  1
  Fe  Fe76  1  0.75242744  0.25274071  0.49914796  1
  Fe  Fe77  1  0.87175408  0.62479239  0.62570293  1
  Fe  Fe78  1  0.24989917  0.75099585  0.25153182  1
  Fe  Fe79  1  0.24723057  -0.00144803  -0.00120392  1
  Fe  Fe80  1  0.75017000  0.75002720  0.25213722  1
  Fe  Fe81  1  0.50177475  0.49781742  0.00158497  1
  Fe  Fe82  1  0.87785238  0.37658343  0.37608431  1
  Fe  Fe83  1  0.12199700  0.87813330  0.37625135  1
  Fe  Fe84  1  0.62725483  0.62552964  0.87572229  1
  Fe  Fe85  1  0.62500810  0.36660122  0.12627887  1
  Fe  Fe86  1  0.37829039  0.87636945  0.37304532  1
  Fe  Fe87  1  0.24881923  0.00063905  0.75000947  1
  Fe  Fe88  1  0.12517507  0.37575333  0.87254985  1
  Fe  Fe89  1  0.75026562  0.49880338  0.00052635  1
  Co  Co90  1  0.87168319  0.62578658  0.12649890  1
  Co  Co91  1  0.87730440  0.37559634  0.62580305  1
  Co  Co92  1  0.37524863  0.37480702  0.37103990  1
  Co  Co93  1  0.62772739  0.13417135  0.11696912  1
  Co  Co94  1  0.25189720  0.49536921  0.50113079  1
  Co  Co95  1  0.88209860  0.87661612  0.87351836  1
  Co  Co96  1  0.12430484  0.62554455  0.87625926  1
  Co  Co97  1  0.75171336  0.24633152  0.25468193  1
  Co  Co98  1  0.49554196  0.25222645  -0.00538420  1
  Co  Co99  1  0.75573407  0.25406789  -0.00511915  1
  Co  Co100  1  0.25263591  -0.00214781  0.50007769  1
  Co  Co101  1  0.87375022  0.12782535  0.12174482  1
  Co  Co102  1  -0.00294517  0.24725741  0.75085262  1
  Co  Co103  1  0.24826943  0.50038829  0.74825899  1
  Co  Co104  1  -0.00112499  0.24732322  0.50124381  1
  Co  Co105  1  0.87462913  0.62431641  0.87286621  1
  Co  Co106  1  -0.00371578  0.00000752  0.50527358  1
  Co  Co107  1  0.74923227  -0.00517017  0.00146545  1
  Co  Co108  1  0.49939982  0.75188025  0.50077267  1
  Co  Co109  1  0.37436826  0.87527893  0.62867430  1
  Co  Co110  1  0.62314567  0.87470157  0.87262720  1
  Co  Co111  1  0.62714659  0.87158552  0.12786667  1
  Co  Co112  1  0.87054003  0.12806331  0.62383044  1
  Co  Co113  1  0.37741067  0.37420007  0.62848585  1
  Co  Co114  1  0.00103676  0.00407802  0.24857674  1
  Co  Co115  1  -0.00111453  0.50277966  0.50251028  1
  Co  Co116  1  0.50259910  0.49957860  0.24802919  1
  Co  Co117  1  0.00070722  0.74744204  0.74520340  1
  Co  Co118  1  0.12806287  0.12591035  0.62280479  1
  Co  Co119  1  0.50011078  0.74929937  0.24944677  1
  Co  Co120  1  0.25053028  0.24858937  0.75066623  1
  Co  Co121  1  0.62664098  0.12334957  0.38099911  1
  Co  Co122  1  0.50141678  0.24391136  0.25265966  1
  Co  Co123  1  0.74813742  0.49884658  0.74828720  1
  Co  Co124  1  -0.00014560  0.74813692  0.25220694  1
  Co  Co125  1  0.87281885  0.87184883  0.62573909  1
  Co  Co126  1  -0.00328878  0.74708903  0.00161101  1
  Co  Co127  1  0.37459867  0.11969700  0.87624158  1
