# generated using pymatgen
data_Fe45Co19
_symmetry_space_group_name_H-M   'P 1'
_cell_length_a   11.41374834
_cell_length_b   11.41512258
_cell_length_c   11.41446234
_cell_angle_alpha   89.99895186
_cell_angle_beta   90.00503649
_cell_angle_gamma   90.00401818
_symmetry_Int_Tables_number   1
_chemical_formula_structural   Fe45Co19
_chemical_formula_sum   'Fe90 Co38'
_cell_volume   1487.18271433
_cell_formula_units_Z   2
loop_
 _symmetry_equiv_pos_site_id
 _symmetry_equiv_pos_as_xyz
  1  'x, y, z'
loop_
 _atom_site_type_symbol
 _atom_site_label
 _atom_site_symmetry_multiplicity
 _atom_site_fract_x
 _atom_site_fract_y
 _atom_site_fract_z
 _atom_site_occupancy
  Fe  Fe0  1  0.12861871  0.37371832  0.62888778  1
  Fe  Fe1  1  0.00001969  0.00257369  0.74897858  1
  Fe  Fe2  1  0.87364065  0.12685671  0.62333523  1
  Fe  Fe3  1  0.24979053  0.00045214  0.50001092  1
  Fe  Fe4  1  0.74942226  0.00132070  0.24617442  1
  Fe  Fe5  1  0.62479882  0.62397522  0.62553051  1
  Fe  Fe6  1  0.49962066  0.49987201  0.75117247  1
  Fe  Fe7  1  0.62257349  0.62585455  0.12484624  1
  Fe  Fe8  1  0.62476066  0.37622549  0.87624866  1
  Fe  Fe9  1  0.37220342  0.62492680  0.62688560  1
  Fe  Fe10  1  0.87463762  0.12663823  0.37319789  1
  Fe  Fe11  1  0.00142621  0.49720322  0.00031524  1
  Fe  Fe12  1  0.62362065  0.12397301  0.37581990  1
  Fe  Fe13  1  0.12300713  0.87889248  0.87972660  1
  Fe  Fe14  1  0.49494639  0.49924877  0.50076460  1
  Fe  Fe15  1  0.87630486  0.87414730  0.62541478  1
  Fe  Fe16  1  0.00126511  0.25029730  0.49947204  1
  Fe  Fe17  1  0.37293688  0.87437579  0.62568217  1
  Fe  Fe18  1  0.12587870  0.87359585  0.62419508  1
  Fe  Fe19  1  0.75094280  0.75159492  -0.00061963  1
  Fe  Fe20  1  0.74857052  0.74848117  0.25054191  1
  Fe  Fe21  1  0.25020965  0.24959352  -0.00014622  1
  Fe  Fe22  1  0.12052318  0.12763081  0.87909126  1
  Fe  Fe23  1  0.74973415  0.74968362  0.75195263  1
  Fe  Fe24  1  0.24854185  0.75204028  0.75387650  1
  Fe  Fe25  1  0.00542970  0.50336786  0.50198381  1
  Fe  Fe26  1  0.87631190  0.87481027  0.37259338  1
  Fe  Fe27  1  0.37259632  0.87480359  0.87749559  1
  Fe  Fe28  1  0.50067440  0.24830678  0.75222060  1
  Fe  Fe29  1  0.49826117  0.24982926  0.49976457  1
  Fe  Fe30  1  0.62397104  0.37469891  0.62457586  1
  Fe  Fe31  1  0.87504408  0.62312505  0.87464855  1
  Fe  Fe32  1  0.49781470  0.74861076  0.49854866  1
  Fe  Fe33  1  0.87498782  0.37582772  0.62552004  1
  Fe  Fe34  1  0.50004015  0.00099093  0.75078945  1
  Fe  Fe35  1  0.12424000  0.87585278  0.37457065  1
  Fe  Fe36  1  0.61968830  0.12470900  0.12036119  1
  Fe  Fe37  1  0.87456143  0.62470747  0.12500858  1
  Fe  Fe38  1  0.74877762  0.49951077  0.24915571  1
  Fe  Fe39  1  0.74642070  0.25040187  0.25116026  1
  Fe  Fe40  1  0.37314967  0.62563701  0.87766374  1
  Fe  Fe41  1  0.12724493  0.37937701  0.37304738  1
  Fe  Fe42  1  0.00082777  0.00174897  0.24700845  1
  Fe  Fe43  1  0.75040614  0.24756605  -0.00117154  1
  Fe  Fe44  1  0.12752634  0.12565363  0.37229607  1
  Fe  Fe45  1  0.12597983  0.62122696  0.87539978  1
  Fe  Fe46  1  0.24852840  0.49858688  0.75116775  1
  Fe  Fe47  1  0.75158324  0.74921656  0.49893696  1
  Fe  Fe48  1  0.24687444  0.74675904  0.49696153  1
  Fe  Fe49  1  0.50014095  0.75035881  0.75244565  1
  Fe  Fe50  1  0.62272718  0.62277727  0.37393575  1
  Fe  Fe51  1  0.62172227  0.37671970  0.37472539  1
  Fe  Fe52  1  0.00094343  0.00126975  0.49926662  1
  Fe  Fe53  1  0.49875964  0.00092496  0.50086338  1
  Fe  Fe54  1  0.87638012  0.37663018  0.37401177  1
  Fe  Fe55  1  0.62574541  0.62300319  0.87595598  1
  Fe  Fe56  1  0.12651965  0.37500536  0.12310861  1
  Fe  Fe57  1  0.00134949  0.75015467  0.75129968  1
  Fe  Fe58  1  0.87789761  0.37320445  0.87411447  1
  Fe  Fe59  1  0.62156067  0.37404671  0.12428664  1
  Fe  Fe60  1  0.37297220  0.37554955  0.87507610  1
  Fe  Fe61  1  0.75041652  0.00038364  0.50002162  1
  Fe  Fe62  1  0.37483559  0.86974616  0.12141979  1
  Fe  Fe63  1  0.13035993  0.62329158  0.12716972  1
  Fe  Fe64  1  0.62415482  0.87495295  0.62487881  1
  Fe  Fe65  1  0.25241502  0.25294585  0.49908764  1
  Fe  Fe66  1  0.24823445  0.00218387  0.75274266  1
  Fe  Fe67  1  0.87633227  0.62427050  0.62736899  1
  Fe  Fe68  1  0.25208958  -0.00109974  0.24416482  1
  Fe  Fe69  1  0.37408043  0.12590020  0.62621210  1
  Fe  Fe70  1  0.37654840  0.12391577  0.87860671  1
  Fe  Fe71  1  0.62412359  0.87462455  0.12361177  1
  Fe  Fe72  1  0.62366422  0.87582733  0.37490069  1
  Fe  Fe73  1  0.49564697  0.50154269  0.00305593  1
  Fe  Fe74  1  0.75032837  0.49966525  0.49992531  1
  Fe  Fe75  1  0.00133518  0.25150720  0.24869560  1
  Fe  Fe76  1  0.00349878  0.74918790  0.24926060  1
  Fe  Fe77  1  0.74867219  0.24865040  0.75103000  1
  Fe  Fe78  1  0.37497137  0.87555970  0.37499610  1
  Fe  Fe79  1  0.25249197  0.25157946  0.24756504  1
  Fe  Fe80  1  0.12761519  0.12670287  0.62394946  1
  Fe  Fe81  1  -0.00582299  0.00282156  0.00557659  1
  Fe  Fe82  1  0.62689729  0.87835495  0.87732501  1
  Fe  Fe83  1  0.37456043  0.12500801  0.37202903  1
  Fe  Fe84  1  0.00133981  0.74866466  0.00096987  1
  Fe  Fe85  1  0.87851178  0.62303903  0.37339041  1
  Fe  Fe86  1  0.37091677  0.62190557  0.36903688  1
  Fe  Fe87  1  0.75089493  0.49901516  -0.00011424  1
  Fe  Fe88  1  0.87321863  0.37360306  0.12603767  1
  Fe  Fe89  1  0.75137264  0.00296742  0.75275600  1
  Co  Co90  1  0.00189223  0.49867395  0.75076482  1
  Co  Co91  1  0.12563526  0.12646049  0.12503968  1
  Co  Co92  1  0.50162023  0.74946769  -0.00323892  1
  Co  Co93  1  0.25541563  0.49521314  0.24390985  1
  Co  Co94  1  0.74978154  0.49833091  0.75068057  1
  Co  Co95  1  0.00009613  0.24931091  0.74681115  1
  Co  Co96  1  0.49921746  0.25215726  -0.00425956  1
  Co  Co97  1  0.24985402  0.49915107  0.50150645  1
  Co  Co98  1  0.37652978  0.37604646  0.37349515  1
  Co  Co99  1  0.25053427  0.24643138  0.75395949  1
  Co  Co100  1  0.62541376  0.12585773  0.62449906  1
  Co  Co101  1  -0.00015293  0.49840087  0.24519447  1
  Co  Co102  1  0.62473763  0.12198910  0.87950755  1
  Co  Co103  1  0.24749779  0.75448290  0.25024509  1
  Co  Co104  1  0.37880076  0.12860341  0.12335378  1
  Co  Co105  1  0.49713474  -0.00349541  0.00050526  1
  Co  Co106  1  0.50100043  0.24899318  0.25204992  1
  Co  Co107  1  0.49725387  0.50036151  0.24485046  1
  Co  Co108  1  0.25087283  0.00290481  0.00230789  1
  Co  Co109  1  0.25221023  0.49828958  0.00218350  1
  Co  Co110  1  0.12838236  0.62685108  0.62840977  1
  Co  Co111  1  0.87684185  0.87536958  0.87609659  1
  Co  Co112  1  0.87535328  0.87164381  0.12686575  1
  Co  Co113  1  0.50010762  0.75076683  0.25164918  1
  Co  Co114  1  0.37288291  0.63130116  0.12547760  1
  Co  Co115  1  0.12357289  0.87683036  0.12148939  1
  Co  Co116  1  0.12504239  0.37233036  0.87482018  1
  Co  Co117  1  0.75503418  0.00096796  0.00284699  1
  Co  Co118  1  0.87778026  0.12781722  0.87594537  1
  Co  Co119  1  0.75022735  0.25176848  0.49807482  1
  Co  Co120  1  0.49781871  -0.00142915  0.24795725  1
  Co  Co121  1  0.37842943  0.36977826  0.12377769  1
  Co  Co122  1  0.87436818  0.12991440  0.12820201  1
  Co  Co123  1  0.00173236  0.74761983  0.49873742  1
  Co  Co124  1  0.12800136  0.61975542  0.36899708  1
  Co  Co125  1  0.24587432  0.74964413  -0.00164154  1
  Co  Co126  1  0.37433628  0.37387254  0.62895107  1
  Co  Co127  1  -0.00048876  0.25270764  0.00415498  1
