# generated using pymatgen
data_Fe45Co19
_symmetry_space_group_name_H-M   'P 1'
_cell_length_a   11.41539083
_cell_length_b   11.41427859
_cell_length_c   11.41455921
_cell_angle_alpha   89.99604876
_cell_angle_beta   90.00241855
_cell_angle_gamma   90.01779336
_symmetry_Int_Tables_number   1
_chemical_formula_structural   Fe45Co19
_chemical_formula_sum   'Fe90 Co38'
_cell_volume   1487.29930921
_cell_formula_units_Z   2
loop_
 _symmetry_equiv_pos_site_id
 _symmetry_equiv_pos_as_xyz
  1  'x, y, z'
loop_
 _atom_site_type_symbol
 _atom_site_label
 _atom_site_symmetry_multiplicity
 _atom_site_fract_x
 _atom_site_fract_y
 _atom_site_fract_z
 _atom_site_occupancy
  Fe  Fe0  1  0.74805952  0.24874570  0.25211368  1
  Fe  Fe1  1  0.50103308  0.50043817  0.24749773  1
  Fe  Fe2  1  0.62394387  0.12328912  0.12222367  1
  Fe  Fe3  1  0.50157602  0.25182082  0.74947505  1
  Fe  Fe4  1  0.50108241  0.75001838  0.25017823  1
  Fe  Fe5  1  0.87413770  0.62400126  0.37326218  1
  Fe  Fe6  1  0.49838316  0.74645222  0.75007168  1
  Fe  Fe7  1  0.25368531  -0.00072997  0.49984251  1
  Fe  Fe8  1  0.87757399  0.12763046  0.37734833  1
  Fe  Fe9  1  0.12564650  0.12608292  0.87611644  1
  Fe  Fe10  1  0.25032971  0.74969007  0.74930106  1
  Fe  Fe11  1  0.74611151  -0.00167946  0.75357139  1
  Fe  Fe12  1  0.24807550  0.25171837  0.74855420  1
  Fe  Fe13  1  0.37543300  0.62645969  0.37404779  1
  Fe  Fe14  1  0.74802151  0.25190975  0.75085661  1
  Fe  Fe15  1  0.49810813  0.50336129  0.00138470  1
  Fe  Fe16  1  0.37748197  0.12542086  0.37201709  1
  Fe  Fe17  1  0.12261472  0.12782897  0.37786266  1
  Fe  Fe18  1  0.74966519  0.74727732  -0.00467859  1
  Fe  Fe19  1  0.74939484  0.50233499  -0.00080633  1
  Fe  Fe20  1  -0.00080909  0.49808421  0.50006214  1
  Fe  Fe21  1  0.62448226  0.37488471  0.12393679  1
  Fe  Fe22  1  0.12584976  0.62691450  0.37658527  1
  Fe  Fe23  1  0.25041691  0.49834212  0.25026471  1
  Fe  Fe24  1  0.37446551  0.87649986  0.87281451  1
  Fe  Fe25  1  0.87615017  0.12337373  0.12329325  1
  Fe  Fe26  1  0.74850985  0.49960448  0.75164154  1
  Fe  Fe27  1  0.37451936  0.12359209  0.62807853  1
  Fe  Fe28  1  0.12237291  0.37073859  0.37752201  1
  Fe  Fe29  1  0.87435850  0.87408884  0.62765610  1
  Fe  Fe30  1  0.00124350  0.00131672  0.25026524  1
  Fe  Fe31  1  0.12487384  0.62395422  0.87645584  1
  Fe  Fe32  1  0.62572667  0.87421942  0.37816001  1
  Fe  Fe33  1  0.37577875  0.87558869  0.12417329  1
  Fe  Fe34  1  0.49984578  0.50004428  0.50197636  1
  Fe  Fe35  1  0.00037387  0.49832334  0.24998207  1
  Fe  Fe36  1  0.75068326  0.50049058  0.50033925  1
  Fe  Fe37  1  0.12627523  0.87561177  0.87655924  1
  Fe  Fe38  1  0.12561707  0.87567204  0.62334935  1
  Fe  Fe39  1  0.62381912  0.87219981  0.62439080  1
  Fe  Fe40  1  0.12648712  0.62470739  0.62306081  1
  Fe  Fe41  1  0.25115059  0.49771443  0.49789862  1
  Fe  Fe42  1  0.87522798  0.62738471  0.62933997  1
  Fe  Fe43  1  0.25651497  0.75304719  0.50157680  1
  Fe  Fe44  1  0.62505366  0.87585429  0.11917600  1
  Fe  Fe45  1  0.00012407  0.25025551  0.00040393  1
  Fe  Fe46  1  0.87378437  0.62370538  0.12567296  1
  Fe  Fe47  1  0.00288885  0.49819906  0.75048459  1
  Fe  Fe48  1  0.00202141  -0.00001054  0.74957074  1
  Fe  Fe49  1  0.87723715  0.37704352  0.87653719  1
  Fe  Fe50  1  0.12428256  0.87488851  0.37728163  1
  Fe  Fe51  1  0.74907276  0.75058490  0.24970595  1
  Fe  Fe52  1  0.25267382  0.24780618  0.00237071  1
  Fe  Fe53  1  0.87486574  0.87506264  0.37508357  1
  Fe  Fe54  1  0.49690295  0.74617859  -0.00163606  1
  Fe  Fe55  1  0.75018799  0.24938460  -0.00098670  1
  Fe  Fe56  1  0.12495558  0.12495672  0.62216176  1
  Fe  Fe57  1  0.87416062  0.37570445  0.12639568  1
  Fe  Fe58  1  0.25022173  0.24919645  0.24796873  1
  Fe  Fe59  1  -0.00236406  0.75068906  0.50105445  1
  Fe  Fe60  1  0.12517241  0.37421008  0.12339409  1
  Fe  Fe61  1  0.75163586  0.00113348  0.50077199  1
  Fe  Fe62  1  0.37470971  0.37496560  0.87531514  1
  Fe  Fe63  1  0.87452485  0.87682012  0.12260314  1
  Fe  Fe64  1  0.49804825  -0.00160182  0.50019054  1
  Fe  Fe65  1  0.87415073  0.12460784  0.87311806  1
  Fe  Fe66  1  0.50296759  0.00227526  0.75439950  1
  Fe  Fe67  1  -0.00003174  0.75041217  0.24938374  1
  Fe  Fe68  1  0.12634835  0.62583363  0.12470487  1
  Fe  Fe69  1  0.87523653  0.87409638  0.87352124  1
  Fe  Fe70  1  0.50133574  0.24924137  0.50065295  1
  Fe  Fe71  1  0.37430987  0.37525653  0.62431307  1
  Fe  Fe72  1  -0.00042401  0.74883252  -0.00135862  1
  Fe  Fe73  1  0.25183097  0.50059755  0.00149530  1
  Fe  Fe74  1  0.49693390  0.24646809  0.00012500  1
  Fe  Fe75  1  0.24971154  0.75193431  0.24917160  1
  Fe  Fe76  1  0.25340675  0.00293954  -0.00022653  1
  Fe  Fe77  1  0.50242293  -0.00144662  0.24951046  1
  Fe  Fe78  1  0.24820781  0.00080652  0.25003530  1
  Fe  Fe79  1  0.62687511  0.37474064  0.37660106  1
  Fe  Fe80  1  0.62746499  0.12609663  0.62506983  1
  Fe  Fe81  1  0.87319797  0.37346855  0.62390393  1
  Fe  Fe82  1  0.62575637  0.62650448  0.37585082  1
  Fe  Fe83  1  0.25020420  0.49869107  0.75018634  1
  Fe  Fe84  1  0.12391849  0.87718353  0.12252017  1
  Fe  Fe85  1  0.62413192  0.62554117  0.62608494  1
  Fe  Fe86  1  0.62243393  0.37653309  0.87558486  1
  Fe  Fe87  1  0.37705395  0.37228850  0.37316661  1
  Fe  Fe88  1  0.00191580  0.25182668  0.74831572  1
  Fe  Fe89  1  0.74944659  0.00091270  0.24940921  1
  Co  Co90  1  0.87706148  0.62379846  0.87233223  1
  Co  Co91  1  -0.00253983  0.25169046  0.50519843  1
  Co  Co92  1  -0.00006869  0.25033595  0.24719977  1
  Co  Co93  1  0.49662102  0.75085974  0.50095279  1
  Co  Co94  1  0.75154296  0.74911502  0.50095328  1
  Co  Co95  1  0.37294773  0.62319231  0.87396221  1
  Co  Co96  1  0.12596959  0.37477595  0.87806632  1
  Co  Co97  1  0.62306449  0.12244027  0.37637701  1
  Co  Co98  1  0.62656230  0.37505615  0.62425187  1
  Co  Co99  1  0.74703829  0.75060459  0.75274859  1
  Co  Co100  1  0.74969167  0.24839952  0.49870084  1
  Co  Co101  1  0.62110787  0.87268001  0.87853421  1
  Co  Co102  1  0.74783479  0.49918622  0.24927988  1
  Co  Co103  1  0.74955621  0.00028460  -0.00373887  1
  Co  Co104  1  0.37318620  0.62605767  0.12777601  1
  Co  Co105  1  0.37347488  0.62246501  0.62398723  1
  Co  Co106  1  0.49814772  0.49864794  0.74805711  1
  Co  Co107  1  -0.00090335  0.00055807  -0.00314142  1
  Co  Co108  1  0.50400604  0.25110257  0.24988088  1
  Co  Co109  1  0.12346890  0.12369410  0.12309511  1
  Co  Co110  1  0.25109914  0.75095674  -0.00080220  1
  Co  Co111  1  0.87259658  0.12435639  0.62853912  1
  Co  Co112  1  0.00002908  0.50079339  0.00192672  1
  Co  Co113  1  0.37295359  0.12653962  0.86969468  1
  Co  Co114  1  0.87421498  0.37390174  0.37444197  1
  Co  Co115  1  0.37708466  0.87808985  0.63116413  1
  Co  Co116  1  0.37596904  0.87552075  0.37151413  1
  Co  Co117  1  0.25318694  0.24897376  0.50057485  1
  Co  Co118  1  0.24640405  0.00034449  0.75004268  1
  Co  Co119  1  0.62608740  0.12846563  0.87640748  1
  Co  Co120  1  0.00383602  0.75078746  0.75049138  1
  Co  Co121  1  0.62561498  0.62702003  0.12451028  1
  Co  Co122  1  0.62313108  0.62201812  0.87253397  1
  Co  Co123  1  0.12707548  0.37617476  0.62275794  1
  Co  Co124  1  0.49686979  0.00416998  -0.00382832  1
  Co  Co125  1  -0.00141719  -0.00060075  0.50135686  1
  Co  Co126  1  0.37788077  0.12361970  0.12988362  1
  Co  Co127  1  0.37635523  0.37478615  0.12563513  1
