# generated using pymatgen
data_Fe45Co19
_symmetry_space_group_name_H-M   'P 1'
_cell_length_a   11.41621096
_cell_length_b   11.41476533
_cell_length_c   11.41690177
_cell_angle_alpha   90.00084998
_cell_angle_beta   90.00603220
_cell_angle_gamma   90.00766465
_symmetry_Int_Tables_number   1
_chemical_formula_structural   Fe45Co19
_chemical_formula_sum   'Fe90 Co38'
_cell_volume   1487.77491368
_cell_formula_units_Z   2
loop_
 _symmetry_equiv_pos_site_id
 _symmetry_equiv_pos_as_xyz
  1  'x, y, z'
loop_
 _atom_site_type_symbol
 _atom_site_label
 _atom_site_symmetry_multiplicity
 _atom_site_fract_x
 _atom_site_fract_y
 _atom_site_fract_z
 _atom_site_occupancy
  Fe  Fe0  1  0.37858637  0.37427761  0.37616288  1
  Fe  Fe1  1  -0.00070514  0.75057316  0.24855122  1
  Fe  Fe2  1  0.87571165  0.37542035  0.12559634  1
  Fe  Fe3  1  0.61955261  0.62212203  0.37338235  1
  Fe  Fe4  1  -0.00269668  -0.00170647  0.75360083  1
  Fe  Fe5  1  0.50061300  0.74868990  0.00021687  1
  Fe  Fe6  1  0.74799572  0.49664378  0.25210178  1
  Fe  Fe7  1  0.25170164  0.50108764  0.49987321  1
  Fe  Fe8  1  0.37699891  0.37093982  0.62545128  1
  Fe  Fe9  1  0.00012364  0.50020099  0.50130188  1
  Fe  Fe10  1  0.50208878  0.00294681  0.24960260  1
  Fe  Fe11  1  0.87447754  0.37667119  0.62803016  1
  Fe  Fe12  1  0.25031856  0.24767212  0.49977276  1
  Fe  Fe13  1  0.62830116  0.12855453  0.12147509  1
  Fe  Fe14  1  0.00275309  0.25018143  0.75109380  1
  Fe  Fe15  1  0.75033268  0.00210622  0.50217161  1
  Fe  Fe16  1  0.74561452  0.24808861  0.75022104  1
  Fe  Fe17  1  0.12389517  0.37460206  0.37547668  1
  Fe  Fe18  1  0.75078591  0.75130473  0.75154742  1
  Fe  Fe19  1  0.37696547  0.12637268  0.62648096  1
  Fe  Fe20  1  0.12464756  0.62652746  0.37576108  1
  Fe  Fe21  1  0.62357151  0.62318421  0.87473221  1
  Fe  Fe22  1  0.00092992  0.49961881  -0.00158155  1
  Fe  Fe23  1  0.37655182  0.62579502  0.62743616  1
  Fe  Fe24  1  -0.00156827  -0.00039038  0.24989658  1
  Fe  Fe25  1  0.87297289  0.87143877  0.12154922  1
  Fe  Fe26  1  0.50110672  0.49666939  0.74912103  1
  Fe  Fe27  1  -0.00527310  0.00207542  -0.00178238  1
  Fe  Fe28  1  0.12502536  0.87458581  0.12138931  1
  Fe  Fe29  1  0.74627930  0.74852941  0.24903243  1
  Fe  Fe30  1  0.87325445  0.87378614  0.37496419  1
  Fe  Fe31  1  0.25072105  0.49833829  0.25001387  1
  Fe  Fe32  1  0.62470840  0.37295001  0.87699888  1
  Fe  Fe33  1  -0.00014727  0.25117948  0.25056819  1
  Fe  Fe34  1  0.12377464  0.12375199  0.62593297  1
  Fe  Fe35  1  -0.00146025  0.00087119  0.49796188  1
  Fe  Fe36  1  0.37446233  0.12987565  0.87515432  1
  Fe  Fe37  1  0.37964812  0.62574154  0.37368283  1
  Fe  Fe38  1  0.87452888  0.62364649  0.87305073  1
  Fe  Fe39  1  0.24809462  0.24852798  0.24956120  1
  Fe  Fe40  1  0.49994107  0.75176190  0.75162341  1
  Fe  Fe41  1  0.87395585  0.12572165  0.62769951  1
  Fe  Fe42  1  0.62284880  0.37131269  0.62083236  1
  Fe  Fe43  1  0.50211633  0.24813477  0.25191991  1
  Fe  Fe44  1  0.37436060  0.87408739  0.87601441  1
  Fe  Fe45  1  0.74975995  0.49924735  -0.00107884  1
  Fe  Fe46  1  0.37527397  0.87655112  0.12422508  1
  Fe  Fe47  1  0.50126136  0.00404983  0.49760187  1
  Fe  Fe48  1  0.37751744  0.87718806  0.62547338  1
  Fe  Fe49  1  0.25167979  0.75187050  0.24881844  1
  Fe  Fe50  1  0.87599512  0.62244825  0.62839102  1
  Fe  Fe51  1  0.12374612  0.87313323  0.62545668  1
  Fe  Fe52  1  0.62427413  0.62552579  0.62619473  1
  Fe  Fe53  1  0.24932143  0.00190616  0.49899917  1
  Fe  Fe54  1  -0.00234588  0.25031148  0.50007633  1
  Fe  Fe55  1  0.00110979  0.49947103  0.24948617  1
  Fe  Fe56  1  0.87374234  0.37575043  0.87149672  1
  Fe  Fe57  1  0.62561279  0.37437435  0.12401547  1
  Fe  Fe58  1  -0.00169341  0.24941687  -0.00198154  1
  Fe  Fe59  1  0.24988762  0.00141523  0.75147325  1
  Fe  Fe60  1  0.49879955  0.49880814  0.00096811  1
  Fe  Fe61  1  0.50353127  0.00495560  0.75278467  1
  Fe  Fe62  1  0.87488774  0.87425680  0.62486587  1
  Fe  Fe63  1  0.12282179  0.12547828  0.12387954  1
  Fe  Fe64  1  0.25134914  0.75019897  0.50215318  1
  Fe  Fe65  1  0.12605128  0.37575834  0.62493184  1
  Fe  Fe66  1  0.37357053  0.37226568  0.87447661  1
  Fe  Fe67  1  0.24863645  0.00139936  0.25041860  1
  Fe  Fe68  1  0.12342464  0.87373341  0.37638650  1
  Fe  Fe69  1  0.37749383  0.62536727  0.12581740  1
  Fe  Fe70  1  0.74885775  0.74840323  0.49918969  1
  Fe  Fe71  1  0.62475009  0.87572667  0.37548650  1
  Fe  Fe72  1  0.87230273  0.12662420  0.37253381  1
  Fe  Fe73  1  0.12572942  0.62550506  0.12464881  1
  Fe  Fe74  1  0.24939789  0.50048060  0.74957184  1
  Fe  Fe75  1  0.12673131  0.62867264  0.87337157  1
  Fe  Fe76  1  0.87248162  0.62438693  0.12412281  1
  Fe  Fe77  1  0.75049345  0.00105069  0.24620075  1
  Fe  Fe78  1  0.37759214  0.87587615  0.37474773  1
  Fe  Fe79  1  0.87559725  0.62409484  0.37483801  1
  Fe  Fe80  1  0.37372388  0.37126050  0.12388570  1
  Fe  Fe81  1  0.62654661  0.87466474  0.12120276  1
  Fe  Fe82  1  0.12811843  0.37273944  0.87610129  1
  Fe  Fe83  1  0.12563132  0.87221870  0.87628906  1
  Fe  Fe84  1  0.25077460  0.50027820  0.00091308  1
  Fe  Fe85  1  0.62971876  0.87908298  0.87737242  1
  Fe  Fe86  1  0.25063334  0.00398464  -0.00042948  1
  Fe  Fe87  1  0.62421521  0.87640812  0.62547950  1
  Fe  Fe88  1  0.74904522  0.49781547  0.49939650  1
  Fe  Fe89  1  0.49916473  0.00421153  0.00009381  1
  Co  Co90  1  0.63102763  0.12485341  0.37496059  1
  Co  Co91  1  0.12449134  0.62586593  0.62586668  1
  Co  Co92  1  0.74778959  0.74577925  -0.00141385  1
  Co  Co93  1  -0.00142373  0.74827440  -0.00025180  1
  Co  Co94  1  -0.00209671  0.74906418  0.50110875  1
  Co  Co95  1  0.00448730  0.49921135  0.75152307  1
  Co  Co96  1  0.75291832  0.25211194  0.49938119  1
  Co  Co97  1  0.24833015  0.24856537  0.74857631  1
  Co  Co98  1  0.25229663  0.75135646  0.74887161  1
  Co  Co99  1  0.87076065  0.12639920  0.87152540  1
  Co  Co100  1  0.49934422  0.24487153  0.49636531  1
  Co  Co101  1  0.24867275  0.24753445  0.00174048  1
  Co  Co102  1  0.25287905  0.74883216  0.00082892  1
  Co  Co103  1  0.75623099  0.00376825  0.00214811  1
  Co  Co104  1  0.50356352  0.24857758  0.75282613  1
  Co  Co105  1  0.12450006  0.12446500  0.87516108  1
  Co  Co106  1  0.50063924  0.75055351  0.50082495  1
  Co  Co107  1  0.12418557  0.37468405  0.12441980  1
  Co  Co108  1  0.49953637  0.24999121  -0.00038556  1
  Co  Co109  1  0.37505275  0.12570236  0.12585740  1
  Co  Co110  1  0.62440024  0.12611184  0.62274254  1
  Co  Co111  1  0.62879375  0.12401431  0.87997011  1
  Co  Co112  1  0.62107400  0.37613441  0.37819241  1
  Co  Co113  1  0.50152939  0.75292147  0.24759222  1
  Co  Co114  1  0.74554140  0.49796571  0.74982330  1
  Co  Co115  1  0.87514726  0.12938345  0.12791967  1
  Co  Co116  1  0.37687720  0.62329719  0.87362930  1
  Co  Co117  1  0.49880643  0.49593885  0.24683506  1
  Co  Co118  1  0.87737011  0.37590339  0.37447631  1
  Co  Co119  1  0.62461804  0.62213698  0.12544967  1
  Co  Co120  1  0.74881315  0.25463916  0.25141338  1
  Co  Co121  1  -0.00218800  0.75151735  0.75055291  1
  Co  Co122  1  0.87119475  0.87415053  0.87787489  1
  Co  Co123  1  0.49926355  0.50045951  0.50357277  1
  Co  Co124  1  0.75389382  0.25207361  -0.00035373  1
  Co  Co125  1  0.74962158  0.00067098  0.74836894  1
  Co  Co126  1  0.12327963  0.12585476  0.37478339  1
  Co  Co127  1  0.37309753  0.12352775  0.37323231  1
