# generated using pymatgen
data_Fe45Co19
_symmetry_space_group_name_H-M   'P 1'
_cell_length_a   11.41558493
_cell_length_b   11.41419801
_cell_length_c   11.41452353
_cell_angle_alpha   89.99924886
_cell_angle_beta   89.99781184
_cell_angle_gamma   90.00440237
_symmetry_Int_Tables_number   1
_chemical_formula_structural   Fe45Co19
_chemical_formula_sum   'Fe90 Co38'
_cell_volume   1487.30951923
_cell_formula_units_Z   2
loop_
 _symmetry_equiv_pos_site_id
 _symmetry_equiv_pos_as_xyz
  1  'x, y, z'
loop_
 _atom_site_type_symbol
 _atom_site_label
 _atom_site_symmetry_multiplicity
 _atom_site_fract_x
 _atom_site_fract_y
 _atom_site_fract_z
 _atom_site_occupancy
  Fe  Fe0  1  0.62599887  0.87230098  0.12822760  1
  Fe  Fe1  1  0.62274260  0.12709594  0.62321213  1
  Fe  Fe2  1  0.49876987  0.25105322  0.25229509  1
  Fe  Fe3  1  0.25004029  0.00444244  0.75350585  1
  Fe  Fe4  1  0.24948514  0.74924297  0.75037605  1
  Fe  Fe5  1  0.49799900  0.74626281  0.49839703  1
  Fe  Fe6  1  0.62874119  0.62344641  0.12690385  1
  Fe  Fe7  1  0.37204535  0.87222691  0.37467249  1
  Fe  Fe8  1  0.12519823  0.37514836  0.12417675  1
  Fe  Fe9  1  0.49869501  0.25316935  0.75227361  1
  Fe  Fe10  1  0.62270856  0.12396607  0.37518783  1
  Fe  Fe11  1  0.37474346  0.62181100  0.87465894  1
  Fe  Fe12  1  0.75438611  0.49829155  0.00331393  1
  Fe  Fe13  1  0.12178241  0.62280177  0.87237366  1
  Fe  Fe14  1  0.37625418  0.12755605  0.62334272  1
  Fe  Fe15  1  0.49956670  0.74847447  0.75085165  1
  Fe  Fe16  1  0.87531980  0.12675267  0.87477711  1
  Fe  Fe17  1  0.49640839  -0.00014587  0.24922904  1
  Fe  Fe18  1  0.24889801  0.74882713  -0.00098527  1
  Fe  Fe19  1  0.62601119  0.37766759  0.87543493  1
  Fe  Fe20  1  0.75117665  0.50380449  0.49615528  1
  Fe  Fe21  1  0.37613943  0.37587795  0.62413530  1
  Fe  Fe22  1  0.00064960  0.25118517  0.49915324  1
  Fe  Fe23  1  0.62434741  0.12414837  0.87587095  1
  Fe  Fe24  1  -0.00136503  -0.00153890  0.74899273  1
  Fe  Fe25  1  0.50086794  0.50054987  0.00162163  1
  Fe  Fe26  1  0.49962167  0.25223190  -0.00191389  1
  Fe  Fe27  1  0.87388206  0.87295913  0.87480702  1
  Fe  Fe28  1  0.50138943  -0.00150112  0.74815665  1
  Fe  Fe29  1  0.62533138  0.87207132  0.37636331  1
  Fe  Fe30  1  0.37188388  0.62439352  0.12534251  1
  Fe  Fe31  1  0.25013288  0.25193222  0.25212354  1
  Fe  Fe32  1  0.49757750  -0.00158769  0.00466701  1
  Fe  Fe33  1  0.12524450  0.37793892  0.37548971  1
  Fe  Fe34  1  0.74842642  0.25041024  0.49638003  1
  Fe  Fe35  1  0.74873270  -0.00154244  0.74722057  1
  Fe  Fe36  1  0.87597181  0.37462974  0.37153048  1
  Fe  Fe37  1  0.62508990  0.62540592  0.62428513  1
  Fe  Fe38  1  0.12692703  0.62279984  0.37703955  1
  Fe  Fe39  1  0.12425129  0.62360887  0.62683857  1
  Fe  Fe40  1  0.75086815  -0.00010916  0.00236160  1
  Fe  Fe41  1  0.37388211  0.37465364  0.12370009  1
  Fe  Fe42  1  0.00040562  0.50170703  0.24721959  1
  Fe  Fe43  1  0.75130526  0.00069352  0.25044933  1
  Fe  Fe44  1  0.74982461  0.25199003  0.00288301  1
  Fe  Fe45  1  0.37282433  0.87402707  0.62500611  1
  Fe  Fe46  1  0.00312429  -0.00180261  0.50034420  1
  Fe  Fe47  1  0.75044435  0.25112238  0.74962067  1
  Fe  Fe48  1  0.62303115  0.12671160  0.12626583  1
  Fe  Fe49  1  0.00194004  0.49603506  0.50372044  1
  Fe  Fe50  1  0.12600755  0.12477227  0.12625175  1
  Fe  Fe51  1  0.37558409  0.38204045  0.37585224  1
  Fe  Fe52  1  0.00649579  0.75489155  0.50248668  1
  Fe  Fe53  1  -0.00054345  0.00055752  0.00204861  1
  Fe  Fe54  1  0.12384486  0.37417569  0.87205000  1
  Fe  Fe55  1  0.12574309  0.87658949  0.87511449  1
  Fe  Fe56  1  0.24850416  0.74616673  0.25060251  1
  Fe  Fe57  1  0.12605121  0.12837597  0.62689948  1
  Fe  Fe58  1  0.24902084  -0.00146007  0.49964338  1
  Fe  Fe59  1  0.49742819  0.74559061  0.25095789  1
  Fe  Fe60  1  0.87396919  0.87098238  0.12619792  1
  Fe  Fe61  1  0.87841375  0.62637126  0.62464840  1
  Fe  Fe62  1  0.87440792  0.12554031  0.62285470  1
  Fe  Fe63  1  -0.00015435  0.74821254  -0.00185456  1
  Fe  Fe64  1  -0.00049484  0.25087601  0.00143869  1
  Fe  Fe65  1  0.87650674  0.12578367  0.37294474  1
  Fe  Fe66  1  -0.00355713  0.25467709  0.74654831  1
  Fe  Fe67  1  0.62797738  0.62373888  0.87461119  1
  Fe  Fe68  1  0.00180473  0.74870323  0.25041240  1
  Fe  Fe69  1  0.37485079  0.87588726  0.87760838  1
  Fe  Fe70  1  0.62536574  0.37632663  0.62301879  1
  Fe  Fe71  1  0.75267309  0.74464228  0.25505809  1
  Fe  Fe72  1  0.25073875  0.24616050  -0.00625197  1
  Fe  Fe73  1  0.25110380  0.25160273  0.49849877  1
  Fe  Fe74  1  0.74882971  -0.00177756  0.50128033  1
  Fe  Fe75  1  0.25311828  -0.00023089  0.24701052  1
  Fe  Fe76  1  -0.00386410  0.50020392  -0.00032362  1
  Fe  Fe77  1  0.75422485  0.49928925  0.75007449  1
  Fe  Fe78  1  0.24944342  0.49743684  0.74847622  1
  Fe  Fe79  1  0.62413557  0.87516009  0.87612569  1
  Fe  Fe80  1  0.50098923  0.74786682  0.00057401  1
  Fe  Fe81  1  0.87660839  0.87379964  0.37726343  1
  Fe  Fe82  1  0.75062134  0.75258681  0.74742101  1
  Fe  Fe83  1  0.24801638  0.50062086  0.00005256  1
  Fe  Fe84  1  0.12563283  0.12255107  0.37305462  1
  Fe  Fe85  1  0.12625486  0.87461306  0.12481588  1
  Fe  Fe86  1  0.49877661  -0.00118857  0.49920397  1
  Fe  Fe87  1  0.62397560  0.38106583  0.37168372  1
  Fe  Fe88  1  0.87581374  0.12913984  0.12937735  1
  Fe  Fe89  1  0.37338616  0.62344563  0.62379621  1
  Co  Co90  1  -0.00255639  0.49608246  0.74898263  1
  Co  Co91  1  0.87457003  0.62740807  0.12344117  1
  Co  Co92  1  0.87440315  0.62719035  0.87363265  1
  Co  Co93  1  0.62262457  0.62353876  0.37379356  1
  Co  Co94  1  0.49715119  0.50261733  0.24700959  1
  Co  Co95  1  0.12400777  0.62509113  0.12329725  1
  Co  Co96  1  0.62460794  0.37674462  0.12771735  1
  Co  Co97  1  0.12772805  0.37082075  0.62719113  1
  Co  Co98  1  0.24877699  0.49900999  0.50336347  1
  Co  Co99  1  0.75047344  0.74699962  0.49909249  1
  Co  Co100  1  0.87587918  0.37286204  0.13078980  1
  Co  Co101  1  0.38028579  0.12161238  0.87557701  1
  Co  Co102  1  0.88295353  0.62540266  0.37931397  1
  Co  Co103  1  0.25503477  0.24949767  0.75369575  1
  Co  Co104  1  0.24805386  0.49997189  0.24743124  1
  Co  Co105  1  0.37319600  0.87075294  0.12464780  1
  Co  Co106  1  0.74801218  0.75036402  -0.00075600  1
  Co  Co107  1  0.50031687  0.25314596  0.49679836  1
  Co  Co108  1  0.12886683  0.87770902  0.62981106  1
  Co  Co109  1  0.50096239  0.50260970  0.50127904  1
  Co  Co110  1  0.24919090  0.00292233  -0.00024607  1
  Co  Co111  1  0.37456247  0.38030785  0.87608901  1
  Co  Co112  1  0.87074859  0.37508897  0.62028128  1
  Co  Co113  1  0.62279137  0.87211815  0.62125255  1
  Co  Co114  1  0.11902111  0.12713932  0.87217887  1
  Co  Co115  1  0.24699200  0.75040485  0.50072744  1
  Co  Co116  1  0.50082566  0.50022941  0.74946840  1
  Co  Co117  1  -0.00169179  -0.00110435  0.24811774  1
  Co  Co118  1  0.87591346  0.87409427  0.62213097  1
  Co  Co119  1  0.75491359  0.50376204  0.25136447  1
  Co  Co120  1  0.12705622  0.87655194  0.37069683  1
  Co  Co121  1  0.37411526  0.12431098  0.37583446  1
  Co  Co122  1  0.00113457  0.75161221  0.74977997  1
  Co  Co123  1  0.37037867  0.62173892  0.37596179  1
  Co  Co124  1  0.87510224  0.37297705  0.87615595  1
  Co  Co125  1  0.37462935  0.12953234  0.12508088  1
  Co  Co126  1  0.00514132  0.25024991  0.25182824  1
  Co  Co127  1  0.74639938  0.24964711  0.25160552  1
