# generated using pymatgen
data_Fe45Co19
_symmetry_space_group_name_H-M   'P 1'
_cell_length_a   11.41571983
_cell_length_b   11.41528764
_cell_length_c   11.41402392
_cell_angle_alpha   90.00233490
_cell_angle_beta   90.00875369
_cell_angle_gamma   90.00490569
_symmetry_Int_Tables_number   1
_chemical_formula_structural   Fe45Co19
_chemical_formula_sum   'Fe90 Co38'
_cell_volume   1487.40395472
_cell_formula_units_Z   2
loop_
 _symmetry_equiv_pos_site_id
 _symmetry_equiv_pos_as_xyz
  1  'x, y, z'
loop_
 _atom_site_type_symbol
 _atom_site_label
 _atom_site_symmetry_multiplicity
 _atom_site_fract_x
 _atom_site_fract_y
 _atom_site_fract_z
 _atom_site_occupancy
  Fe  Fe0  1  0.37153697  0.63113781  0.37819978  1
  Fe  Fe1  1  -0.00050588  0.00100684  0.75108144  1
  Fe  Fe2  1  0.25116746  0.24994081  0.50062425  1
  Fe  Fe3  1  0.49876479  0.24999559  -0.00087764  1
  Fe  Fe4  1  0.49919275  0.74833071  0.75072529  1
  Fe  Fe5  1  0.12474433  0.87165307  0.36972223  1
  Fe  Fe6  1  0.49785509  0.00027510  0.74873381  1
  Fe  Fe7  1  0.37561403  0.87517748  0.87795237  1
  Fe  Fe8  1  0.87222601  0.62443352  0.87692899  1
  Fe  Fe9  1  0.00222084  0.50315394  0.75231125  1
  Fe  Fe10  1  0.24817572  0.25162160  -0.00252993  1
  Fe  Fe11  1  0.50221569  0.00146339  0.24778912  1
  Fe  Fe12  1  -0.00008485  -0.00046559  0.49704655  1
  Fe  Fe13  1  0.49896344  0.50328884  0.75251838  1
  Fe  Fe14  1  0.25061810  -0.00357915  0.49973721  1
  Fe  Fe15  1  0.12630722  0.62571835  0.12672495  1
  Fe  Fe16  1  0.74517644  0.25353374  0.25267634  1
  Fe  Fe17  1  0.75136136  -0.00269833  0.50044498  1
  Fe  Fe18  1  0.87674097  0.87393909  0.12747942  1
  Fe  Fe19  1  0.62900015  0.62457021  0.37459320  1
  Fe  Fe20  1  0.49963014  0.50316884  0.49870577  1
  Fe  Fe21  1  0.87350943  0.12707503  0.37369085  1
  Fe  Fe22  1  -0.00136343  0.74894364  0.49816713  1
  Fe  Fe23  1  0.61879422  0.37859413  0.12854441  1
  Fe  Fe24  1  0.62812637  0.12433116  0.87608803  1
  Fe  Fe25  1  0.50042782  0.74634951  0.00115056  1
  Fe  Fe26  1  0.49899269  -0.00094273  0.49984792  1
  Fe  Fe27  1  0.87323907  0.12530946  0.87732220  1
  Fe  Fe28  1  0.74906251  0.74939116  0.00298753  1
  Fe  Fe29  1  0.62523084  0.87370594  0.62453505  1
  Fe  Fe30  1  0.25059675  -0.00428357  0.24777708  1
  Fe  Fe31  1  0.62500646  0.12459401  0.62295578  1
  Fe  Fe32  1  0.24791930  -0.00177704  0.00245177  1
  Fe  Fe33  1  0.12594052  0.62493319  0.62478696  1
  Fe  Fe34  1  0.75125488  0.75073282  0.74847604  1
  Fe  Fe35  1  0.87371377  0.87493853  0.87610569  1
  Fe  Fe36  1  0.37493547  0.37604888  0.62800740  1
  Fe  Fe37  1  0.87414239  0.62315251  0.62165761  1
  Fe  Fe38  1  0.62509542  0.87258794  0.37283878  1
  Fe  Fe39  1  0.00051953  0.49819585  0.25437505  1
  Fe  Fe40  1  0.00027779  0.74896154  0.00168431  1
  Fe  Fe41  1  0.74956590  0.25389212  0.00098215  1
  Fe  Fe42  1  0.37623822  0.37469719  0.37376984  1
  Fe  Fe43  1  0.12225106  0.12641625  0.12674387  1
  Fe  Fe44  1  0.62487686  0.62116910  0.12608087  1
  Fe  Fe45  1  0.62597355  0.87478625  0.87706937  1
  Fe  Fe46  1  0.62371585  0.37653327  0.87504864  1
  Fe  Fe47  1  0.87784950  0.37643521  0.62301100  1
  Fe  Fe48  1  -0.00114277  0.74844943  0.75081742  1
  Fe  Fe49  1  0.74708709  -0.00012445  0.24661186  1
  Fe  Fe50  1  0.00111868  0.50058962  -0.00073362  1
  Fe  Fe51  1  0.12344857  0.37455585  0.12630699  1
  Fe  Fe52  1  0.49862462  0.24750216  0.75039424  1
  Fe  Fe53  1  0.87449265  0.87300677  0.37203866  1
  Fe  Fe54  1  0.49618855  0.74807974  0.24806125  1
  Fe  Fe55  1  0.37850585  0.37755335  0.12525975  1
  Fe  Fe56  1  0.87764746  0.37433699  0.12670963  1
  Fe  Fe57  1  0.75005029  0.25106878  0.74916418  1
  Fe  Fe58  1  0.12579301  0.37761840  0.62604410  1
  Fe  Fe59  1  0.37235123  0.62404892  0.87691895  1
  Fe  Fe60  1  0.62589287  0.62615799  0.62465805  1
  Fe  Fe61  1  0.75137990  -0.00021518  0.74826510  1
  Fe  Fe62  1  0.24995801  0.75263931  0.00499001  1
  Fe  Fe63  1  0.87140543  0.62191898  0.37673355  1
  Fe  Fe64  1  0.24864784  0.49756420  -0.00333800  1
  Fe  Fe65  1  0.12810499  0.62683117  0.37317640  1
  Fe  Fe66  1  0.37516166  0.12279816  0.37425948  1
  Fe  Fe67  1  0.37105764  0.12460985  0.87292452  1
  Fe  Fe68  1  0.25062252  0.50110573  0.50143085  1
  Fe  Fe69  1  0.74664881  0.25399602  0.49829429  1
  Fe  Fe70  1  0.12829530  0.12348220  0.62614317  1
  Fe  Fe71  1  0.49976202  0.24873154  0.49757437  1
  Fe  Fe72  1  0.74968756  0.49928581  0.75013337  1
  Fe  Fe73  1  0.87754143  0.37571251  0.87542890  1
  Fe  Fe74  1  0.00301237  0.25276523  0.49579289  1
  Fe  Fe75  1  0.25138221  0.25082281  0.24907696  1
  Fe  Fe76  1  0.12224730  0.87440851  0.62594782  1
  Fe  Fe77  1  0.00302345  0.24787684  0.75177374  1
  Fe  Fe78  1  0.37556350  0.12508373  0.12530368  1
  Fe  Fe79  1  -0.00043191  0.00123582  0.00169554  1
  Fe  Fe80  1  0.37618780  0.87104490  0.62116462  1
  Fe  Fe81  1  0.12552412  0.87439667  0.87520922  1
  Fe  Fe82  1  0.87571183  0.12647779  0.62218549  1
  Fe  Fe83  1  0.50289162  0.00237651  0.00107798  1
  Fe  Fe84  1  0.87479426  0.12837193  0.12713622  1
  Fe  Fe85  1  0.12666620  0.12529432  0.37235111  1
  Fe  Fe86  1  0.25130165  0.74960448  0.74877649  1
  Fe  Fe87  1  0.62188917  0.37577042  0.62474019  1
  Fe  Fe88  1  0.87399468  0.62220336  0.12618310  1
  Fe  Fe89  1  0.25275096  0.50107900  0.25022813  1
  Co  Co90  1  0.62007394  0.37902749  0.37221575  1
  Co  Co91  1  0.12662755  0.62850702  0.87719950  1
  Co  Co92  1  0.62624117  0.12836281  0.12304393  1
  Co  Co93  1  0.62538242  0.12267985  0.37703543  1
  Co  Co94  1  0.87358913  0.37643472  0.37750206  1
  Co  Co95  1  0.25429285  0.75254039  0.24474464  1
  Co  Co96  1  -0.00112576  0.00191548  0.25031619  1
  Co  Co97  1  -0.00222894  0.74523185  0.25097891  1
  Co  Co98  1  0.75114659  0.49684209  0.24935318  1
  Co  Co99  1  0.00348956  0.50003861  0.49625600  1
  Co  Co100  1  0.00153498  0.24827741  -0.00105556  1
  Co  Co101  1  0.49462057  0.50654331  0.25374594  1
  Co  Co102  1  0.37286953  0.62116972  0.12090563  1
  Co  Co103  1  0.12780874  0.12172273  0.87409454  1
  Co  Co104  1  0.13034074  0.37606030  0.37458771  1
  Co  Co105  1  0.24666045  0.75261696  0.50148154  1
  Co  Co106  1  0.75031518  0.74860327  0.24741460  1
  Co  Co107  1  0.75065299  -0.00146400  0.00405507  1
  Co  Co108  1  0.87781062  0.87520375  0.62516851  1
  Co  Co109  1  0.24878577  0.25194938  0.75135055  1
  Co  Co110  1  0.12055472  0.87325522  0.12789888  1
  Co  Co111  1  0.00164263  0.25290339  0.25467152  1
  Co  Co112  1  0.37372218  0.12596517  0.62440908  1
  Co  Co113  1  0.74663185  0.49677225  0.50155845  1
  Co  Co114  1  0.62853908  0.62566968  0.87515118  1
  Co  Co115  1  0.50090352  0.50187728  -0.00377982  1
  Co  Co116  1  0.37467622  0.62583895  0.62376022  1
  Co  Co117  1  0.24955082  0.50150792  0.75212482  1
  Co  Co118  1  0.37660674  0.87359715  0.37457049  1
  Co  Co119  1  0.75109359  0.75161611  0.50125419  1
  Co  Co120  1  0.25319910  -0.00415630  0.74728056  1
  Co  Co121  1  0.62235244  0.87198895  0.12422921  1
  Co  Co122  1  0.12185138  0.37554336  0.87389004  1
  Co  Co123  1  0.50344505  0.74842676  0.49867440  1
  Co  Co124  1  0.50036092  0.24658653  0.25156354  1
  Co  Co125  1  0.74898638  0.49708190  0.00130666  1
  Co  Co126  1  0.37940456  0.87733840  0.12377212  1
  Co  Co127  1  0.37593683  0.37537075  0.87361597  1
