# generated using pymatgen
data_Fe45Co19
_symmetry_space_group_name_H-M   'P 1'
_cell_length_a   11.41450001
_cell_length_b   11.41510068
_cell_length_c   11.41571893
_cell_angle_alpha   89.99570191
_cell_angle_beta   90.00327723
_cell_angle_gamma   90.00112153
_symmetry_Int_Tables_number   1
_chemical_formula_structural   Fe45Co19
_chemical_formula_sum   'Fe90 Co38'
_cell_volume   1487.44153476
_cell_formula_units_Z   2
loop_
 _symmetry_equiv_pos_site_id
 _symmetry_equiv_pos_as_xyz
  1  'x, y, z'
loop_
 _atom_site_type_symbol
 _atom_site_label
 _atom_site_symmetry_multiplicity
 _atom_site_fract_x
 _atom_site_fract_y
 _atom_site_fract_z
 _atom_site_occupancy
  Fe  Fe0  1  0.00282079  0.74871661  0.74667025  1
  Fe  Fe1  1  -0.00547843  0.00231207  0.25511144  1
  Fe  Fe2  1  0.24537345  0.75104678  0.74506453  1
  Fe  Fe3  1  0.74961967  0.49974004  0.24767274  1
  Fe  Fe4  1  0.12560123  0.62272960  0.87296424  1
  Fe  Fe5  1  0.00027893  0.24992495  0.49949227  1
  Fe  Fe6  1  0.24790765  0.75105802  0.00158751  1
  Fe  Fe7  1  0.25314462  0.49980772  -0.00177907  1
  Fe  Fe8  1  0.62536247  0.62860470  0.87306368  1
  Fe  Fe9  1  0.37905395  0.12539611  0.62474549  1
  Fe  Fe10  1  0.00210487  0.75105110  0.00086326  1
  Fe  Fe11  1  0.87491871  0.87374337  0.62326057  1
  Fe  Fe12  1  0.87034138  0.12628646  0.62163520  1
  Fe  Fe13  1  0.25045744  -0.00128185  -0.00045268  1
  Fe  Fe14  1  0.00059154  0.24992298  0.74830148  1
  Fe  Fe15  1  0.49689996  0.50427307  0.75235580  1
  Fe  Fe16  1  0.50412699  0.74838029  0.50257744  1
  Fe  Fe17  1  0.12496968  0.12615739  0.87511678  1
  Fe  Fe18  1  0.25050939  0.25231057  0.74661720  1
  Fe  Fe19  1  -0.00215780  0.50063425  0.25326518  1
  Fe  Fe20  1  0.74462833  0.25082411  0.74624511  1
  Fe  Fe21  1  0.87051706  0.37137408  0.37482283  1
  Fe  Fe22  1  0.12465125  0.12457949  0.12635550  1
  Fe  Fe23  1  0.74797704  0.25408595  0.00311419  1
  Fe  Fe24  1  0.62592171  0.62452760  0.37479307  1
  Fe  Fe25  1  0.62212371  0.37647186  0.87689492  1
  Fe  Fe26  1  0.37959281  0.37553092  0.12361973  1
  Fe  Fe27  1  0.38027765  0.37616755  0.62382603  1
  Fe  Fe28  1  0.87419386  0.12932958  0.87522329  1
  Fe  Fe29  1  0.50458236  -0.00269299  0.49913199  1
  Fe  Fe30  1  0.24967882  0.25156416  0.50141851  1
  Fe  Fe31  1  0.25104837  0.00092398  0.49905720  1
  Fe  Fe32  1  0.87466668  0.62388267  0.12336135  1
  Fe  Fe33  1  -0.00499240  0.49470751  -0.00219707  1
  Fe  Fe34  1  0.62474808  0.12556715  0.87570781  1
  Fe  Fe35  1  0.62594994  0.87984854  0.12749167  1
  Fe  Fe36  1  0.00214811  0.74757528  0.50139950  1
  Fe  Fe37  1  0.12502329  0.37593135  0.37645979  1
  Fe  Fe38  1  0.37814417  0.37239188  0.87614452  1
  Fe  Fe39  1  -0.00039249  0.00080096  -0.00074059  1
  Fe  Fe40  1  0.75251751  0.50078279  0.75361949  1
  Fe  Fe41  1  0.25078697  0.24972201  0.00116002  1
  Fe  Fe42  1  0.37690425  0.12378196  0.12552677  1
  Fe  Fe43  1  0.74655637  0.49883749  0.50002609  1
  Fe  Fe44  1  0.75109594  -0.00149219  -0.00185655  1
  Fe  Fe45  1  0.87084309  0.62797051  0.37582455  1
  Fe  Fe46  1  0.24884718  -0.00067623  0.74899610  1
  Fe  Fe47  1  0.37898208  0.12745646  0.37757463  1
  Fe  Fe48  1  0.74372007  0.24881440  0.24690793  1
  Fe  Fe49  1  0.12386063  0.37484386  0.87375220  1
  Fe  Fe50  1  -0.00104389  0.00086956  0.75076123  1
  Fe  Fe51  1  -0.00463447  0.00162727  0.49510028  1
  Fe  Fe52  1  0.12336527  0.37584526  0.12578284  1
  Fe  Fe53  1  0.49894471  -0.00105482  -0.00182216  1
  Fe  Fe54  1  0.37561686  0.12711281  0.87236607  1
  Fe  Fe55  1  0.37481366  0.87108634  0.37509696  1
  Fe  Fe56  1  0.50610355  0.24673377  0.24744496  1
  Fe  Fe57  1  0.87306013  0.62415785  0.62402886  1
  Fe  Fe58  1  0.12265975  0.38252942  0.62381651  1
  Fe  Fe59  1  0.12490846  0.87668724  0.12747634  1
  Fe  Fe60  1  0.25368428  -0.00080355  0.25212578  1
  Fe  Fe61  1  0.37524427  0.87536856  0.62438785  1
  Fe  Fe62  1  0.38111496  0.37325423  0.37682359  1
  Fe  Fe63  1  0.62571901  0.62135875  0.12239331  1
  Fe  Fe64  1  0.12451137  0.12280101  0.62289329  1
  Fe  Fe65  1  0.51045119  0.25102030  0.50342436  1
  Fe  Fe66  1  0.87508299  0.12757894  0.12374320  1
  Fe  Fe67  1  0.50163176  -0.00078855  0.75154662  1
  Fe  Fe68  1  0.37419605  0.62664424  0.12527627  1
  Fe  Fe69  1  0.00037911  0.24793349  0.25227209  1
  Fe  Fe70  1  0.50065934  0.75057023  0.00048568  1
  Fe  Fe71  1  0.87523311  0.62747161  0.87685549  1
  Fe  Fe72  1  0.25243327  0.49905969  0.25207859  1
  Fe  Fe73  1  0.37244737  0.62378595  0.62367224  1
  Fe  Fe74  1  0.87684935  0.87295436  0.87501238  1
  Fe  Fe75  1  0.12463186  0.62140733  0.12461302  1
  Fe  Fe76  1  0.00076342  0.74788033  0.25107975  1
  Fe  Fe77  1  0.37445015  0.87141785  0.87391847  1
  Fe  Fe78  1  0.87429085  0.37609492  0.62515367  1
  Fe  Fe79  1  0.62780319  0.87241643  0.62924170  1
  Fe  Fe80  1  0.12571768  0.87469907  0.37607418  1
  Fe  Fe81  1  0.75092404  -0.00169286  0.75151602  1
  Fe  Fe82  1  0.74874016  0.75152875  0.00073568  1
  Fe  Fe83  1  0.25088781  0.25066302  0.25062988  1
  Fe  Fe84  1  0.37395042  0.62756767  0.37645281  1
  Fe  Fe85  1  0.49934319  0.50138605  0.25046432  1
  Fe  Fe86  1  0.50151644  0.75085333  0.24847306  1
  Fe  Fe87  1  0.63001871  0.87557979  0.37111957  1
  Fe  Fe88  1  0.87422136  0.87340041  0.12798852  1
  Fe  Fe89  1  0.12909885  0.62369486  0.37841665  1
  Co  Co90  1  0.62765459  0.62445033  0.62961154  1
  Co  Co91  1  0.12784497  0.12479111  0.37514099  1
  Co  Co92  1  0.75103038  -0.00440162  0.49956067  1
  Co  Co93  1  0.62420891  0.87178082  0.87303590  1
  Co  Co94  1  0.62537199  0.11875452  0.12331866  1
  Co  Co95  1  0.62594242  0.11913771  0.62494189  1
  Co  Co96  1  0.75306045  0.49821381  -0.00221507  1
  Co  Co97  1  0.62134307  0.38031369  0.12219284  1
  Co  Co98  1  0.50294147  0.24900560  0.74853101  1
  Co  Co99  1  0.86736293  0.13244660  0.38013409  1
  Co  Co100  1  0.62415362  0.37759633  0.37215721  1
  Co  Co101  1  0.74121017  0.25550914  0.50520099  1
  Co  Co102  1  0.62796671  0.12230348  0.37747964  1
  Co  Co103  1  0.12431694  0.87514812  0.87396553  1
  Co  Co104  1  -0.00429560  0.50095234  0.75265455  1
  Co  Co105  1  0.37597992  0.87354106  0.12490166  1
  Co  Co106  1  0.87223532  0.86827940  0.37419359  1
  Co  Co107  1  0.24847507  0.74937262  0.24869516  1
  Co  Co108  1  0.12598047  0.61651560  0.62393146  1
  Co  Co109  1  0.37183618  0.63118713  0.87346839  1
  Co  Co110  1  0.50209579  0.50398029  0.49986310  1
  Co  Co111  1  0.62199195  0.38340539  0.63008720  1
  Co  Co112  1  0.49726815  0.50522142  -0.00357835  1
  Co  Co113  1  -0.00013534  0.25193327  0.00009578  1
  Co  Co114  1  0.24797028  0.75073573  0.50412094  1
  Co  Co115  1  -0.00508747  0.50061835  0.49588251  1
  Co  Co116  1  0.87325971  0.36923617  0.87155678  1
  Co  Co117  1  0.75448098  0.75071991  0.75074909  1
  Co  Co118  1  0.74827721  0.74716150  0.24591963  1
  Co  Co119  1  0.49744629  0.74913851  0.74623976  1
  Co  Co120  1  0.50104165  0.24676780  0.00195523  1
  Co  Co121  1  0.87550945  0.37412524  0.12940068  1
  Co  Co122  1  0.74607119  0.74951409  0.50163358  1
  Co  Co123  1  0.25399973  0.49707511  0.75085855  1
  Co  Co124  1  0.12212772  0.88024116  0.62214282  1
  Co  Co125  1  0.75559827  0.00330969  0.25166592  1
  Co  Co126  1  0.25430518  0.49637831  0.49741155  1
  Co  Co127  1  0.49832078  0.00059241  0.25238069  1
