# generated using pymatgen
data_Fe45Co19
_symmetry_space_group_name_H-M   'P 1'
_cell_length_a   11.41476059
_cell_length_b   11.41383111
_cell_length_c   11.41388738
_cell_angle_alpha   89.99069182
_cell_angle_beta   89.99293413
_cell_angle_gamma   89.99645030
_symmetry_Int_Tables_number   1
_chemical_formula_structural   Fe45Co19
_chemical_formula_sum   'Fe90 Co38'
_cell_volume   1487.07140311
_cell_formula_units_Z   2
loop_
 _symmetry_equiv_pos_site_id
 _symmetry_equiv_pos_as_xyz
  1  'x, y, z'
loop_
 _atom_site_type_symbol
 _atom_site_label
 _atom_site_symmetry_multiplicity
 _atom_site_fract_x
 _atom_site_fract_y
 _atom_site_fract_z
 _atom_site_occupancy
  Fe  Fe0  1  0.50100068  0.24582617  0.25043169  1
  Fe  Fe1  1  0.24693231  0.24951124  0.00096850  1
  Fe  Fe2  1  0.24939927  0.75353207  0.00237934  1
  Fe  Fe3  1  0.87656284  0.87603217  0.87867426  1
  Fe  Fe4  1  0.62349026  0.62688730  0.12247454  1
  Fe  Fe5  1  0.87880253  0.37494995  0.87690172  1
  Fe  Fe6  1  -0.00499606  0.00217980  0.24613449  1
  Fe  Fe7  1  0.62170014  0.37309458  0.87903018  1
  Fe  Fe8  1  0.25047138  0.24895574  0.74962492  1
  Fe  Fe9  1  -0.00023908  0.75055780  0.75243360  1
  Fe  Fe10  1  0.25155714  0.49753614  0.75025153  1
  Fe  Fe11  1  0.12667744  0.62730791  0.62393284  1
  Fe  Fe12  1  0.87447284  0.37473114  0.37426650  1
  Fe  Fe13  1  0.37639859  0.37240121  0.87749528  1
  Fe  Fe14  1  0.00422617  0.24591368  0.00271417  1
  Fe  Fe15  1  0.00104176  0.50030145  0.25224843  1
  Fe  Fe16  1  0.12866690  0.62679983  0.37376368  1
  Fe  Fe17  1  0.87090862  0.62624919  0.37602808  1
  Fe  Fe18  1  0.74929029  0.75150790  0.75060289  1
  Fe  Fe19  1  0.50240657  0.75055485  0.25178504  1
  Fe  Fe20  1  0.25159387  0.49821470  0.50017529  1
  Fe  Fe21  1  0.00031062  0.50087620  0.74888891  1
  Fe  Fe22  1  0.74859439  0.50163915  0.24813959  1
  Fe  Fe23  1  0.62615069  0.87883061  0.87338389  1
  Fe  Fe24  1  0.37628995  0.87590069  0.37208384  1
  Fe  Fe25  1  0.12467949  0.88022413  0.87434398  1
  Fe  Fe26  1  0.50042935  0.75031054  0.75198342  1
  Fe  Fe27  1  -0.00040752  0.49995066  0.49942312  1
  Fe  Fe28  1  0.49800624  0.49912006  0.75010105  1
  Fe  Fe29  1  0.25144781  0.49864974  0.24924284  1
  Fe  Fe30  1  0.62526640  0.62506456  0.62405785  1
  Fe  Fe31  1  0.37693549  0.62877034  0.12316038  1
  Fe  Fe32  1  0.87372034  0.62525522  0.87715160  1
  Fe  Fe33  1  0.87831517  0.37281681  0.12566628  1
  Fe  Fe34  1  0.87312285  0.12456965  0.37496496  1
  Fe  Fe35  1  0.62462047  0.87595304  0.12793781  1
  Fe  Fe36  1  0.74740549  0.24919045  0.49919049  1
  Fe  Fe37  1  0.75028345  0.49815395  0.74981545  1
  Fe  Fe38  1  0.50347625  0.75294419  0.49725480  1
  Fe  Fe39  1  0.62372323  0.37337637  0.62446173  1
  Fe  Fe40  1  0.37788965  0.37272040  0.12310990  1
  Fe  Fe41  1  0.00266352  0.50123725  0.00030931  1
  Fe  Fe42  1  0.49920844  0.24649564  0.75258032  1
  Fe  Fe43  1  0.87429444  0.87043787  0.12379943  1
  Fe  Fe44  1  0.12202096  0.87645835  0.62588351  1
  Fe  Fe45  1  0.24890451  0.24900042  0.49912221  1
  Fe  Fe46  1  0.49956257  0.00264427  0.00045496  1
  Fe  Fe47  1  0.37586092  0.62631129  0.87811672  1
  Fe  Fe48  1  0.37605132  0.12642277  0.62281146  1
  Fe  Fe49  1  0.87597694  0.62870390  0.12409870  1
  Fe  Fe50  1  0.37750709  0.87443561  0.62455370  1
  Fe  Fe51  1  0.00259649  0.75198431  0.49518810  1
  Fe  Fe52  1  0.74339778  0.75468416  0.49736078  1
  Fe  Fe53  1  0.25030997  0.75274875  0.74920272  1
  Fe  Fe54  1  0.37689605  0.37127577  0.37632486  1
  Fe  Fe55  1  0.12285359  0.12218566  0.62620241  1
  Fe  Fe56  1  0.12198421  0.87439096  0.12750141  1
  Fe  Fe57  1  0.24941002  0.49835223  0.00104113  1
  Fe  Fe58  1  0.62639780  0.12271383  0.62612288  1
  Fe  Fe59  1  0.49961372  0.49837605  0.50045389  1
  Fe  Fe60  1  0.87529568  0.37255795  0.62467774  1
  Fe  Fe61  1  0.37182712  0.12435135  0.12519326  1
  Fe  Fe62  1  0.75590984  -0.00042846  0.74561638  1
  Fe  Fe63  1  0.37302690  0.87781779  0.87707986  1
  Fe  Fe64  1  0.37443568  0.62729202  0.62383631  1
  Fe  Fe65  1  0.87289973  0.62784852  0.62314143  1
  Fe  Fe66  1  0.37420638  0.62816298  0.37530183  1
  Fe  Fe67  1  0.49974653  0.50035551  0.24844135  1
  Fe  Fe68  1  0.75032630  0.24968654  0.75306506  1
  Fe  Fe69  1  0.87259750  0.12263851  0.88022389  1
  Fe  Fe70  1  0.50042164  0.00144083  0.49742134  1
  Fe  Fe71  1  0.12802855  0.11828687  0.87439375  1
  Fe  Fe72  1  0.12671933  0.62526940  0.87493916  1
  Fe  Fe73  1  0.00152120  0.24960734  0.49693420  1
  Fe  Fe74  1  0.62477860  0.37631780  0.37328997  1
  Fe  Fe75  1  0.12427063  0.62709937  0.12743927  1
  Fe  Fe76  1  0.00033169  0.24639735  0.75236180  1
  Fe  Fe77  1  -0.00403881  0.00012814  0.50169303  1
  Fe  Fe78  1  0.62986496  0.12584418  0.12191527  1
  Fe  Fe79  1  0.49705549  0.00310194  0.75230816  1
  Fe  Fe80  1  0.12457995  0.37425689  0.62577439  1
  Fe  Fe81  1  0.75063351  0.24940431  0.24876810  1
  Fe  Fe82  1  0.74869829  0.49732128  0.00207184  1
  Fe  Fe83  1  0.12492555  0.12208907  0.37143414  1
  Fe  Fe84  1  0.24770069  0.25201904  0.25101366  1
  Fe  Fe85  1  0.62428379  0.62433042  0.87750967  1
  Fe  Fe86  1  0.25064001  -0.00150248  0.50009971  1
  Fe  Fe87  1  0.62809365  0.11925397  0.37384435  1
  Fe  Fe88  1  0.25295079  -0.00345261  0.24855610  1
  Fe  Fe89  1  0.87084433  0.87620342  0.37346040  1
  Co  Co90  1  0.62976938  0.12209941  0.87542351  1
  Co  Co91  1  0.87142362  0.12915268  0.12146801  1
  Co  Co92  1  0.12406596  0.87990088  0.37179014  1
  Co  Co93  1  0.75164165  -0.00156778  0.50429761  1
  Co  Co94  1  -0.00591215  0.00067784  0.74871319  1
  Co  Co95  1  0.37929745  0.87435587  0.12583970  1
  Co  Co96  1  0.62272881  0.37213560  0.12613321  1
  Co  Co97  1  0.37196231  0.12459038  0.37360632  1
  Co  Co98  1  0.74996636  -0.00384752  0.00270110  1
  Co  Co99  1  0.74761442  0.75094136  -0.00108140  1
  Co  Co100  1  0.00262920  0.75040719  -0.00178641  1
  Co  Co101  1  0.24946749  -0.00234710  0.00516770  1
  Co  Co102  1  0.49872586  0.00472564  0.24689243  1
  Co  Co103  1  0.50042580  0.49926676  0.00116730  1
  Co  Co104  1  0.87430781  0.13019685  0.62345986  1
  Co  Co105  1  0.50303848  0.24647167  0.49738071  1
  Co  Co106  1  0.74706679  0.74839832  0.25088454  1
  Co  Co107  1  0.49988381  0.24305391  0.00026115  1
  Co  Co108  1  0.00069559  0.00193531  0.00442883  1
  Co  Co109  1  0.25280672  -0.00044323  0.74530573  1
  Co  Co110  1  0.62457870  0.62175340  0.37605150  1
  Co  Co111  1  0.12425002  0.37455201  0.87507651  1
  Co  Co112  1  0.74998172  0.49776991  0.50111289  1
  Co  Co113  1  0.87643360  0.86879492  0.62283953  1
  Co  Co114  1  -0.00086709  0.75037876  0.25335940  1
  Co  Co115  1  -0.00003442  0.24770941  0.25034683  1
  Co  Co116  1  0.62268560  0.87828722  0.62804473  1
  Co  Co117  1  0.75384388  0.00113672  0.24489204  1
  Co  Co118  1  0.12805616  0.12339869  0.13020946  1
  Co  Co119  1  0.25013421  0.75304296  0.24902359  1
  Co  Co120  1  0.50178759  0.75481233  -0.00230969  1
  Co  Co121  1  0.36975985  0.12364361  0.87743911  1
  Co  Co122  1  0.24884863  0.75509508  0.49870956  1
  Co  Co123  1  0.12529560  0.37554052  0.37445834  1
  Co  Co124  1  0.37623761  0.37136564  0.62404523  1
  Co  Co125  1  0.75004971  0.25460378  -0.00119231  1
  Co  Co126  1  0.62602878  0.88250227  0.36990198  1
  Co  Co127  1  0.12261438  0.37558877  0.12632531  1
