# generated using pymatgen
data_Fe45Co19
_symmetry_space_group_name_H-M   'P 1'
_cell_length_a   11.41503793
_cell_length_b   11.41416047
_cell_length_c   11.41576606
_cell_angle_alpha   89.99496595
_cell_angle_beta   90.00202421
_cell_angle_gamma   89.99733729
_symmetry_Int_Tables_number   1
_chemical_formula_structural   Fe45Co19
_chemical_formula_sum   'Fe90 Co38'
_cell_volume   1487.39525161
_cell_formula_units_Z   2
loop_
 _symmetry_equiv_pos_site_id
 _symmetry_equiv_pos_as_xyz
  1  'x, y, z'
loop_
 _atom_site_type_symbol
 _atom_site_label
 _atom_site_symmetry_multiplicity
 _atom_site_fract_x
 _atom_site_fract_y
 _atom_site_fract_z
 _atom_site_occupancy
  Fe  Fe0  1  0.38042793  0.37858004  0.62365088  1
  Fe  Fe1  1  0.37379202  0.12421335  0.62627756  1
  Fe  Fe2  1  -0.00088999  0.50222798  0.25177407  1
  Fe  Fe3  1  0.37499591  0.62466793  0.87333843  1
  Fe  Fe4  1  0.74792804  0.25038319  0.25081567  1
  Fe  Fe5  1  0.00271529  0.24973712  0.49929023  1
  Fe  Fe6  1  0.50209379  0.74835016  0.00003928  1
  Fe  Fe7  1  0.87302132  0.12759526  0.12304668  1
  Fe  Fe8  1  0.25286075  -0.00207688  0.75086536  1
  Fe  Fe9  1  0.12386014  0.37642221  0.12373065  1
  Fe  Fe10  1  0.12640919  0.62128003  0.87149201  1
  Fe  Fe11  1  0.12522813  0.37700102  0.37575495  1
  Fe  Fe12  1  0.62379917  0.12410915  0.12633991  1
  Fe  Fe13  1  0.49708745  0.24680975  0.00095672  1
  Fe  Fe14  1  0.12627380  0.87653779  0.87436911  1
  Fe  Fe15  1  0.87225143  0.87476645  0.87739237  1
  Fe  Fe16  1  0.25153481  0.49955471  -0.00004468  1
  Fe  Fe17  1  0.00297021  0.24695762  0.24990946  1
  Fe  Fe18  1  0.75090135  0.50112017  0.00103991  1
  Fe  Fe19  1  0.74985852  0.50027635  0.24924580  1
  Fe  Fe20  1  0.87562577  0.37493614  0.62440953  1
  Fe  Fe21  1  0.62318121  0.87626526  0.12312355  1
  Fe  Fe22  1  0.25169848  0.50527515  0.50218277  1
  Fe  Fe23  1  0.13279807  0.11959583  0.12548766  1
  Fe  Fe24  1  0.62361112  0.12418390  0.37406601  1
  Fe  Fe25  1  0.87556494  0.37312929  0.87700595  1
  Fe  Fe26  1  0.75043233  0.49912273  0.74960005  1
  Fe  Fe27  1  0.62208418  0.37468703  0.37824903  1
  Fe  Fe28  1  0.50271630  0.74838053  0.25067009  1
  Fe  Fe29  1  0.12278865  0.62679838  0.12541416  1
  Fe  Fe30  1  0.00014290  0.74899623  0.75229943  1
  Fe  Fe31  1  0.87544682  0.62850335  0.12162839  1
  Fe  Fe32  1  0.50091660  0.74555093  0.49925475  1
  Fe  Fe33  1  0.37478095  0.12718466  0.37421776  1
  Fe  Fe34  1  0.62505101  0.12153645  0.62771154  1
  Fe  Fe35  1  0.11879939  0.88015591  0.37053126  1
  Fe  Fe36  1  0.24933105  0.25066842  0.50111444  1
  Fe  Fe37  1  0.62365999  0.37572085  0.12426351  1
  Fe  Fe38  1  0.49659318  -0.00139449  0.25046167  1
  Fe  Fe39  1  0.87580804  0.37303212  0.37412244  1
  Fe  Fe40  1  0.87694377  0.87402134  0.62361103  1
  Fe  Fe41  1  0.50225881  0.75076329  0.74947227  1
  Fe  Fe42  1  0.75026986  0.50014822  0.50004323  1
  Fe  Fe43  1  0.00346115  0.24821327  -0.00038494  1
  Fe  Fe44  1  -0.00132780  0.50248066  -0.00309958  1
  Fe  Fe45  1  0.12176063  0.38160224  0.62516503  1
  Fe  Fe46  1  0.62363939  0.62357539  0.62398792  1
  Fe  Fe47  1  0.24829077  -0.00173303  0.49846695  1
  Fe  Fe48  1  0.87340465  0.62751911  0.37602531  1
  Fe  Fe49  1  0.24698316  0.75249149  0.00151386  1
  Fe  Fe50  1  0.75316104  -0.00228169  0.24885649  1
  Fe  Fe51  1  0.24653633  0.75368216  0.24892133  1
  Fe  Fe52  1  0.37500599  0.87234594  0.62372810  1
  Fe  Fe53  1  0.62586395  0.12014466  0.87268637  1
  Fe  Fe54  1  0.50167998  0.25051353  0.74805688  1
  Fe  Fe55  1  0.24497437  0.74871689  0.50115245  1
  Fe  Fe56  1  0.62648493  0.62355832  0.87652509  1
  Fe  Fe57  1  0.87670547  0.12388511  0.37675721  1
  Fe  Fe58  1  0.37690165  0.37498166  0.37734572  1
  Fe  Fe59  1  0.12578140  0.12289861  0.62484166  1
  Fe  Fe60  1  0.37641836  0.37432503  0.12529031  1
  Fe  Fe61  1  0.62791588  0.87271639  0.37778905  1
  Fe  Fe62  1  0.87631636  0.12636560  0.62565238  1
  Fe  Fe63  1  0.00163889  0.25152601  0.75221410  1
  Fe  Fe64  1  0.24955584  0.25099994  0.25094844  1
  Fe  Fe65  1  0.75053638  0.75105310  0.24796993  1
  Fe  Fe66  1  0.00044456  0.00036702  0.00006295  1
  Fe  Fe67  1  0.37522490  0.37482901  0.87455188  1
  Fe  Fe68  1  0.62662787  0.87928090  0.87468771  1
  Fe  Fe69  1  0.49901432  0.00002623  0.50123104  1
  Fe  Fe70  1  0.50063376  0.50266840  0.25224093  1
  Fe  Fe71  1  0.24795794  0.25479729  0.74894182  1
  Fe  Fe72  1  -0.00111417  0.00034040  0.74985227  1
  Fe  Fe73  1  0.74851677  0.75189533  0.74827938  1
  Fe  Fe74  1  0.49340623  0.00241422  -0.00049311  1
  Fe  Fe75  1  0.87593542  0.37327704  0.12459636  1
  Fe  Fe76  1  0.74765787  0.24890333  0.50033430  1
  Fe  Fe77  1  0.37528453  0.62773206  0.12629952  1
  Fe  Fe78  1  0.74829492  0.24771708  -0.00136694  1
  Fe  Fe79  1  0.24958823  0.50089316  0.24952445  1
  Fe  Fe80  1  0.37584566  0.87085797  0.37613031  1
  Fe  Fe81  1  0.62326498  0.37665895  0.87642365  1
  Fe  Fe82  1  0.24854133  0.74765055  0.74670561  1
  Fe  Fe83  1  0.12947589  0.12496398  0.87607848  1
  Fe  Fe84  1  0.75120209  -0.00185363  0.50201310  1
  Fe  Fe85  1  0.00280987  0.74984919  0.49852144  1
  Fe  Fe86  1  0.37532232  0.87216480  0.87436202  1
  Fe  Fe87  1  0.87876710  0.62358043  0.62542357  1
  Fe  Fe88  1  0.74952272  0.24962928  0.75106224  1
  Fe  Fe89  1  0.87948663  0.87133852  0.12230406  1
  Co  Co90  1  0.87527094  0.12422029  0.87498316  1
  Co  Co91  1  0.25541958  -0.00411587  -0.00151527  1
  Co  Co92  1  0.75356898  -0.00230998  0.74691253  1
  Co  Co93  1  0.62492282  0.62379166  0.12462651  1
  Co  Co94  1  0.12654109  0.62376130  0.37430625  1
  Co  Co95  1  0.49886497  0.50579160  0.49663069  1
  Co  Co96  1  0.75134901  0.74967380  0.50377769  1
  Co  Co97  1  0.00069719  -0.00047738  0.50251544  1
  Co  Co98  1  0.87566585  0.87538344  0.37658944  1
  Co  Co99  1  0.12161658  0.87722665  0.12635059  1
  Co  Co100  1  0.50111924  0.50044879  0.75128411  1
  Co  Co101  1  0.49745862  0.50180264  0.00034942  1
  Co  Co102  1  0.37173387  0.12875257  0.87108408  1
  Co  Co103  1  0.12516120  0.87548908  0.62766637  1
  Co  Co104  1  -0.00527566  0.00457852  0.24641522  1
  Co  Co105  1  0.37664178  0.62708914  0.62686159  1
  Co  Co106  1  0.37654814  0.87149212  0.12492726  1
  Co  Co107  1  -0.00152304  0.50031320  0.49568555  1
  Co  Co108  1  0.87054260  0.62810222  0.87551068  1
  Co  Co109  1  0.25492426  -0.00476455  0.25227135  1
  Co  Co110  1  0.62247431  0.87531200  0.62306257  1
  Co  Co111  1  0.12546652  0.37719893  0.87629880  1
  Co  Co112  1  -0.00065789  0.74768081  0.25251680  1
  Co  Co113  1  0.62962147  0.62702887  0.37494007  1
  Co  Co114  1  0.00423080  0.74918279  -0.00525525  1
  Co  Co115  1  0.49587601  -0.00230705  0.74965662  1
  Co  Co116  1  0.12583201  0.12249524  0.37460156  1
  Co  Co117  1  -0.00380076  0.49929452  0.75487703  1
  Co  Co118  1  0.12059260  0.62162767  0.62736064  1
  Co  Co119  1  0.49973496  0.25089015  0.24965859  1
  Co  Co120  1  0.25101764  0.25251781  0.00095195  1
  Co  Co121  1  0.62448474  0.37681626  0.62237139  1
  Co  Co122  1  0.74605363  0.75134785  0.00099349  1
  Co  Co123  1  0.75135650  0.00012030  0.00289684  1
  Co  Co124  1  0.37116587  0.62798461  0.37195682  1
  Co  Co125  1  0.37097539  0.12536373  0.12855187  1
  Co  Co126  1  0.50044897  0.24687831  0.50288366  1
  Co  Co127  1  0.25285607  0.49898117  0.74804185  1
