# generated using pymatgen
data_Fe45Co19
_symmetry_space_group_name_H-M   'P 1'
_cell_length_a   11.41523107
_cell_length_b   11.41577946
_cell_length_c   11.41491284
_cell_angle_alpha   89.99961371
_cell_angle_beta   90.00042897
_cell_angle_gamma   90.00339512
_symmetry_Int_Tables_number   1
_chemical_formula_structural   Fe45Co19
_chemical_formula_sum   'Fe90 Co38'
_cell_volume   1487.52021429
_cell_formula_units_Z   2
loop_
 _symmetry_equiv_pos_site_id
 _symmetry_equiv_pos_as_xyz
  1  'x, y, z'
loop_
 _atom_site_type_symbol
 _atom_site_label
 _atom_site_symmetry_multiplicity
 _atom_site_fract_x
 _atom_site_fract_y
 _atom_site_fract_z
 _atom_site_occupancy
  Fe  Fe0  1  0.87396135  0.87620552  0.87655219  1
  Fe  Fe1  1  0.37274795  0.62590947  0.12468523  1
  Fe  Fe2  1  0.37590678  0.37688012  0.37727166  1
  Fe  Fe3  1  0.12184006  0.87132320  0.12781202  1
  Fe  Fe4  1  0.00171217  0.00012054  -0.00070416  1
  Fe  Fe5  1  0.37519867  0.86983226  0.61984916  1
  Fe  Fe6  1  0.12123288  0.62655410  0.37270317  1
  Fe  Fe7  1  0.62495000  0.37722563  0.86994992  1
  Fe  Fe8  1  0.12528959  0.87499231  0.87327564  1
  Fe  Fe9  1  0.12466024  0.12716274  0.12791945  1
  Fe  Fe10  1  -0.00199741  0.49847652  0.75097493  1
  Fe  Fe11  1  0.37606170  0.12364034  0.12510172  1
  Fe  Fe12  1  0.75517915  0.74876537  0.24740137  1
  Fe  Fe13  1  0.87523586  0.12541836  0.87544762  1
  Fe  Fe14  1  0.37981582  0.12197245  0.87288906  1
  Fe  Fe15  1  0.12295522  0.37353271  0.37273642  1
  Fe  Fe16  1  0.37495188  0.87475673  0.12531293  1
  Fe  Fe17  1  -0.00053675  0.50081064  0.24607826  1
  Fe  Fe18  1  0.12241427  0.62696302  0.62615722  1
  Fe  Fe19  1  0.37825449  0.62520476  0.37657009  1
  Fe  Fe20  1  0.74722520  0.00029259  0.75156123  1
  Fe  Fe21  1  0.62688453  0.87490609  0.12505553  1
  Fe  Fe22  1  0.62672535  0.87489723  0.37392672  1
  Fe  Fe23  1  0.37395586  0.37562693  0.12350482  1
  Fe  Fe24  1  0.87212166  0.87838617  0.37719324  1
  Fe  Fe25  1  0.00005418  0.00055046  0.25310777  1
  Fe  Fe26  1  0.24643646  0.50223429  0.49906997  1
  Fe  Fe27  1  0.37698907  0.87472609  0.87601635  1
  Fe  Fe28  1  0.75033275  0.49988178  0.50199325  1
  Fe  Fe29  1  0.24659137  0.75005230  -0.00235007  1
  Fe  Fe30  1  0.87298090  0.87561601  0.62340182  1
  Fe  Fe31  1  -0.00180231  0.74984756  0.49920564  1
  Fe  Fe32  1  0.37212105  0.37693067  0.87410842  1
  Fe  Fe33  1  0.62412538  0.12647551  0.12460127  1
  Fe  Fe34  1  0.62623991  0.87086650  0.62650044  1
  Fe  Fe35  1  0.50106818  -0.00158356  0.50121831  1
  Fe  Fe36  1  0.74710739  0.00133245  -0.00090803  1
  Fe  Fe37  1  -0.00079282  0.24958454  0.74913353  1
  Fe  Fe38  1  0.75082549  0.25041667  0.75125033  1
  Fe  Fe39  1  0.12643299  0.87491376  0.62027747  1
  Fe  Fe40  1  0.50111545  0.74980999  0.00098681  1
  Fe  Fe41  1  0.24922650  0.00036162  0.00135778  1
  Fe  Fe42  1  0.62653117  0.62095840  0.12783606  1
  Fe  Fe43  1  0.87355593  0.12289532  0.62427096  1
  Fe  Fe44  1  0.62585809  0.62019758  0.37111451  1
  Fe  Fe45  1  0.74875296  0.25350455  0.25038182  1
  Fe  Fe46  1  0.75278431  0.74684308  0.75151815  1
  Fe  Fe47  1  0.87623282  0.37585142  0.12201830  1
  Fe  Fe48  1  0.49935492  0.50071837  0.00018535  1
  Fe  Fe49  1  -0.00010273  0.00004527  0.74839289  1
  Fe  Fe50  1  0.50119801  0.25477567  0.24980086  1
  Fe  Fe51  1  0.25198775  0.24963162  0.25159943  1
  Fe  Fe52  1  0.87598568  0.37635883  0.37671279  1
  Fe  Fe53  1  0.25313208  -0.00175317  0.74664147  1
  Fe  Fe54  1  0.37419242  0.62655802  0.87491560  1
  Fe  Fe55  1  0.50051519  0.25503493  0.50482594  1
  Fe  Fe56  1  -0.00035056  0.24893417  0.50012680  1
  Fe  Fe57  1  0.75251671  0.74994921  0.00203766  1
  Fe  Fe58  1  0.62419130  0.62479212  0.87315081  1
  Fe  Fe59  1  0.50025857  0.74863299  0.24986802  1
  Fe  Fe60  1  0.25107058  0.75133203  0.25516673  1
  Fe  Fe61  1  0.50134948  0.49901789  0.50336426  1
  Fe  Fe62  1  0.87403365  0.37666804  0.62511528  1
  Fe  Fe63  1  0.37544317  0.62821837  0.62342579  1
  Fe  Fe64  1  0.74818954  0.25182861  0.50094388  1
  Fe  Fe65  1  0.25035627  0.50089482  0.24924735  1
  Fe  Fe66  1  0.37708992  0.12458817  0.37640545  1
  Fe  Fe67  1  0.12668250  0.12241633  0.62190961  1
  Fe  Fe68  1  0.74767275  0.25111484  -0.00172878  1
  Fe  Fe69  1  0.50061209  0.25132337  -0.00176906  1
  Fe  Fe70  1  0.87155877  0.12302970  0.37647700  1
  Fe  Fe71  1  0.62541102  0.62315864  0.62907679  1
  Fe  Fe72  1  0.12600517  0.37504057  0.62612965  1
  Fe  Fe73  1  0.87471248  0.12445233  0.12430304  1
  Fe  Fe74  1  0.25049595  0.24891745  0.49990143  1
  Fe  Fe75  1  0.25352089  0.24787120  0.74821751  1
  Fe  Fe76  1  0.24174034  0.50074846  0.00141786  1
  Fe  Fe77  1  0.50095476  -0.00110105  0.24935986  1
  Fe  Fe78  1  0.00326706  0.25278391  -0.00167731  1
  Fe  Fe79  1  0.87476736  0.62207583  0.37617178  1
  Fe  Fe80  1  0.62167314  0.12654970  0.62871137  1
  Fe  Fe81  1  0.74946755  0.49849026  -0.00076174  1
  Fe  Fe82  1  0.74916043  0.74723842  0.49989227  1
  Fe  Fe83  1  0.24917485  -0.00206093  0.25495598  1
  Fe  Fe84  1  0.62473878  0.12615307  0.37614228  1
  Fe  Fe85  1  0.12606290  0.12502012  0.87257277  1
  Fe  Fe86  1  0.24898416  0.24917104  -0.00075003  1
  Fe  Fe87  1  0.87960476  0.62282609  0.87961176  1
  Fe  Fe88  1  0.25036716  0.50350038  0.74950202  1
  Fe  Fe89  1  -0.00120622  0.75162020  0.75050496  1
  Co  Co90  1  0.25016267  0.75066701  0.74977182  1
  Co  Co91  1  0.87690587  0.62106868  0.12020579  1
  Co  Co92  1  0.12538932  0.12694652  0.37616584  1
  Co  Co93  1  0.12218112  0.87359984  0.37758914  1
  Co  Co94  1  0.00199224  0.49921796  0.50077240  1
  Co  Co95  1  0.75572097  0.50339153  0.75120840  1
  Co  Co96  1  -0.00452350  0.24821417  0.25156791  1
  Co  Co97  1  0.75379150  0.49676627  0.24926337  1
  Co  Co98  1  0.49686990  0.25621021  0.74825508  1
  Co  Co99  1  -0.00746742  0.75067411  0.25151797  1
  Co  Co100  1  0.12248336  0.62612956  0.87249255  1
  Co  Co101  1  0.62106546  0.12612034  0.87165917  1
  Co  Co102  1  0.74574525  0.00094278  0.50321781  1
  Co  Co103  1  0.87573833  0.37504686  0.87621501  1
  Co  Co104  1  0.24750827  0.74696963  0.49649057  1
  Co  Co105  1  0.62442653  0.37828863  0.37603240  1
  Co  Co106  1  0.49581145  0.50008293  0.74901000  1
  Co  Co107  1  -0.00118492  0.00193566  0.49942179  1
  Co  Co108  1  0.00846674  0.49630752  0.00109336  1
  Co  Co109  1  0.36997410  0.37756055  0.62370162  1
  Co  Co110  1  0.37883875  0.87304826  0.37784466  1
  Co  Co111  1  0.49921030  0.74961545  0.75173242  1
  Co  Co112  1  0.50032656  -0.00608039  0.74832499  1
  Co  Co113  1  0.50238455  -0.00129524  0.00098637  1
  Co  Co114  1  0.12610910  0.37082646  0.12993150  1
  Co  Co115  1  0.87646944  0.87886220  0.12367374  1
  Co  Co116  1  0.62648612  0.87209986  0.87623662  1
  Co  Co117  1  0.50578890  0.74704961  0.49837596  1
  Co  Co118  1  0.49634624  0.49862059  0.24832186  1
  Co  Co119  1  0.12742183  0.37334398  0.86968531  1
  Co  Co120  1  0.87750954  0.62467573  0.62333623  1
  Co  Co121  1  0.00032598  0.75148981  -0.00102600  1
  Co  Co122  1  0.25253044  -0.00002425  0.49677975  1
  Co  Co123  1  0.62909872  0.37845599  0.62962988  1
  Co  Co124  1  0.74855339  0.00142557  0.24844025  1
  Co  Co125  1  0.37806344  0.12397588  0.62417824  1
  Co  Co126  1  0.62393589  0.37773080  0.12494955  1
  Co  Co127  1  0.12418924  0.63135024  0.12751297  1
