# generated using pymatgen
data_Fe45Co19
_symmetry_space_group_name_H-M   'P 1'
_cell_length_a   11.41524930
_cell_length_b   11.41470205
_cell_length_c   11.41690489
_cell_angle_alpha   89.99590925
_cell_angle_beta   89.99766299
_cell_angle_gamma   90.00428099
_symmetry_Int_Tables_number   1
_chemical_formula_structural   Fe45Co19
_chemical_formula_sum   'Fe90 Co38'
_cell_volume   1487.64175959
_cell_formula_units_Z   2
loop_
 _symmetry_equiv_pos_site_id
 _symmetry_equiv_pos_as_xyz
  1  'x, y, z'
loop_
 _atom_site_type_symbol
 _atom_site_label
 _atom_site_symmetry_multiplicity
 _atom_site_fract_x
 _atom_site_fract_y
 _atom_site_fract_z
 _atom_site_occupancy
  Fe  Fe0  1  0.87557428  0.87488326  0.62367700  1
  Fe  Fe1  1  0.49478775  -0.00159322  0.50276648  1
  Fe  Fe2  1  0.87777234  0.12611989  0.87595444  1
  Fe  Fe3  1  0.62622607  0.87441194  0.87593640  1
  Fe  Fe4  1  0.49911993  0.25096939  0.24805948  1
  Fe  Fe5  1  0.12552269  0.12376531  0.37571383  1
  Fe  Fe6  1  0.74939606  0.00020413  0.74971132  1
  Fe  Fe7  1  0.75113813  -0.00027787  0.25038065  1
  Fe  Fe8  1  0.50037206  -0.00328283  0.00075522  1
  Fe  Fe9  1  0.37055495  0.37589318  0.12095244  1
  Fe  Fe10  1  0.75213255  0.24895741  0.00085350  1
  Fe  Fe11  1  0.62250365  0.12337535  0.62595160  1
  Fe  Fe12  1  0.87708258  0.87531908  0.12711042  1
  Fe  Fe13  1  0.62435111  0.62342735  0.12274945  1
  Fe  Fe14  1  0.74773281  0.24931219  0.74906789  1
  Fe  Fe15  1  0.87365691  0.37647562  0.87458569  1
  Fe  Fe16  1  0.62445417  0.62382964  0.37496080  1
  Fe  Fe17  1  0.50018585  0.75315504  0.24774365  1
  Fe  Fe18  1  0.87522573  0.87191401  0.87297517  1
  Fe  Fe19  1  0.24836218  0.24992515  0.75248393  1
  Fe  Fe20  1  0.37434382  0.62705153  0.37471661  1
  Fe  Fe21  1  0.00270583  0.74897197  0.74549527  1
  Fe  Fe22  1  0.62749784  0.37809464  0.12195305  1
  Fe  Fe23  1  0.00108536  0.50156037  0.74780655  1
  Fe  Fe24  1  0.74878916  0.24847896  0.50091161  1
  Fe  Fe25  1  0.25175937  0.24868411  0.50016615  1
  Fe  Fe26  1  0.87408947  0.37718273  0.12530936  1
  Fe  Fe27  1  0.37540380  0.62640215  0.12289236  1
  Fe  Fe28  1  -0.00229659  0.50238935  0.00001162  1
  Fe  Fe29  1  0.12456219  0.62591942  0.12583979  1
  Fe  Fe30  1  0.62523367  0.62355093  0.87789131  1
  Fe  Fe31  1  0.25154122  0.00020239  0.24721040  1
  Fe  Fe32  1  0.24906621  0.00071389  0.00037841  1
  Fe  Fe33  1  -0.00110941  0.00056891  0.74924767  1
  Fe  Fe34  1  0.50228243  0.75226156  0.74986572  1
  Fe  Fe35  1  0.25425641  -0.00013908  0.50279911  1
  Fe  Fe36  1  0.49847935  0.49926772  0.24839042  1
  Fe  Fe37  1  0.24997307  0.24667598  0.24673826  1
  Fe  Fe38  1  0.00178957  0.24991245  0.75067845  1
  Fe  Fe39  1  0.12531134  0.12336185  0.62596472  1
  Fe  Fe40  1  0.49936332  0.25238192  -0.00087462  1
  Fe  Fe41  1  0.37254023  0.37403507  0.37269198  1
  Fe  Fe42  1  0.12760747  0.37571029  0.87862277  1
  Fe  Fe43  1  0.49824522  0.24959415  0.50023684  1
  Fe  Fe44  1  0.37541006  0.12564703  0.87506628  1
  Fe  Fe45  1  0.00073013  0.50031307  0.25103140  1
  Fe  Fe46  1  -0.00043615  0.24980296  0.24874587  1
  Fe  Fe47  1  0.75204767  0.74774280  0.00133768  1
  Fe  Fe48  1  0.62061850  0.12370938  0.37445365  1
  Fe  Fe49  1  0.12423633  0.87607989  0.87383451  1
  Fe  Fe50  1  0.37574221  0.62482294  0.87424652  1
  Fe  Fe51  1  0.87352996  0.62488077  0.37459735  1
  Fe  Fe52  1  0.12696932  0.37732038  0.62314122  1
  Fe  Fe53  1  0.50164313  0.25210700  0.75309342  1
  Fe  Fe54  1  0.00178869  0.75036390  0.50140493  1
  Fe  Fe55  1  0.49711009  -0.00395480  0.24792929  1
  Fe  Fe56  1  0.74844137  0.74982870  0.74783244  1
  Fe  Fe57  1  0.62466604  0.62305767  0.62407155  1
  Fe  Fe58  1  0.11899551  0.12345638  0.12088935  1
  Fe  Fe59  1  0.12687459  0.37647610  0.12298768  1
  Fe  Fe60  1  0.37413866  0.37445459  0.62722036  1
  Fe  Fe61  1  0.75245140  -0.00055077  0.00041639  1
  Fe  Fe62  1  0.37635628  0.87337853  0.87506149  1
  Fe  Fe63  1  0.74981512  0.50076740  0.74994685  1
  Fe  Fe64  1  0.49718153  0.50046681  0.50050589  1
  Fe  Fe65  1  0.50028246  0.49611577  0.75315073  1
  Fe  Fe66  1  -0.00009608  0.50199138  0.50112641  1
  Fe  Fe67  1  0.12806488  0.62290797  0.37661834  1
  Fe  Fe68  1  -0.00027924  0.75067392  -0.00011495  1
  Fe  Fe69  1  0.74907671  0.75080987  0.25010660  1
  Fe  Fe70  1  0.62429134  0.12450131  0.87618955  1
  Fe  Fe71  1  0.87325039  0.37608602  0.37578129  1
  Fe  Fe72  1  0.75194631  0.00054635  0.50047758  1
  Fe  Fe73  1  0.87334503  0.37518584  0.62441483  1
  Fe  Fe74  1  0.24992604  0.75231547  0.50233689  1
  Fe  Fe75  1  0.12754778  0.37578800  0.37469087  1
  Fe  Fe76  1  0.00159706  0.75233172  0.25234373  1
  Fe  Fe77  1  0.62407811  0.12372980  0.12504047  1
  Fe  Fe78  1  0.74963570  0.24871909  0.24994470  1
  Fe  Fe79  1  0.87703848  0.12391141  0.37444359  1
  Fe  Fe80  1  0.24942257  0.75181871  0.24995310  1
  Fe  Fe81  1  0.12390038  0.62438474  0.87219716  1
  Fe  Fe82  1  0.24879401  0.74927941  -0.00240796  1
  Fe  Fe83  1  0.62534727  0.37698326  0.37640153  1
  Fe  Fe84  1  0.37129796  0.62630645  0.62832042  1
  Fe  Fe85  1  0.25250462  -0.00124826  0.74903118  1
  Fe  Fe86  1  0.00011377  0.24805845  0.50111943  1
  Fe  Fe87  1  0.12525211  0.87901887  0.37629379  1
  Fe  Fe88  1  0.62231607  0.87460211  0.37742547  1
  Fe  Fe89  1  0.74850809  0.75007731  0.50085901  1
  Co  Co90  1  0.25306096  0.49888849  0.49952323  1
  Co  Co91  1  0.37008031  0.37382181  0.87767234  1
  Co  Co92  1  0.75428426  0.50459131  -0.00079789  1
  Co  Co93  1  0.75000336  0.50062189  0.50016517  1
  Co  Co94  1  0.50114684  0.75138347  -0.00046685  1
  Co  Co95  1  0.87655683  0.62720664  0.87125627  1
  Co  Co96  1  0.87533142  0.12618545  0.62690390  1
  Co  Co97  1  0.37842370  0.12423402  0.12351751  1
  Co  Co98  1  0.00025222  -0.00036323  0.25067249  1
  Co  Co99  1  0.62705147  0.87500846  0.12390692  1
  Co  Co100  1  0.62936792  0.37602551  0.87783762  1
  Co  Co101  1  0.49991596  0.74788683  0.50220500  1
  Co  Co102  1  0.37233726  0.87261707  0.12253537  1
  Co  Co103  1  0.37652257  0.87057503  0.62747086  1
  Co  Co104  1  0.49842857  0.49775985  -0.00185125  1
  Co  Co105  1  0.62486546  0.37515602  0.62402969  1
  Co  Co106  1  0.74922782  0.50071241  0.25030509  1
  Co  Co107  1  0.12337318  0.12320917  0.87448333  1
  Co  Co108  1  0.24826950  0.75167406  0.75203946  1
  Co  Co109  1  0.25056603  0.50165204  0.24926316  1
  Co  Co110  1  0.24831007  0.24507378  0.00063711  1
  Co  Co111  1  -0.00121524  0.00143826  0.50145874  1
  Co  Co112  1  -0.00194364  -0.00338417  -0.00239802  1
  Co  Co113  1  -0.00108104  0.25257613  -0.00118793  1
  Co  Co114  1  0.62414199  0.87689260  0.62367488  1
  Co  Co115  1  0.87415457  0.62552719  0.62477664  1
  Co  Co116  1  0.12944005  0.62367515  0.62451955  1
  Co  Co117  1  0.50006864  -0.00188294  0.75121868  1
  Co  Co118  1  0.37547476  0.12480783  0.37271831  1
  Co  Co119  1  0.12525729  0.87422912  0.12462587  1
  Co  Co120  1  0.37583911  0.12769400  0.62847926  1
  Co  Co121  1  0.87591780  0.87458620  0.37590944  1
  Co  Co122  1  0.87716274  0.62664887  0.12877260  1
  Co  Co123  1  0.87741568  0.12367831  0.12437751  1
  Co  Co124  1  0.24884888  0.49869148  0.75161169  1
  Co  Co125  1  0.12497570  0.87729236  0.62549204  1
  Co  Co126  1  0.37485240  0.87369362  0.37479503  1
  Co  Co127  1  0.24917019  0.50523296  -0.00104385  1
