# generated using pymatgen
data_Fe45Co19
_symmetry_space_group_name_H-M   'P 1'
_cell_length_a   11.41496851
_cell_length_b   11.41586651
_cell_length_c   11.41490242
_cell_angle_alpha   90.00870707
_cell_angle_beta   90.00625136
_cell_angle_gamma   89.99649251
_symmetry_Int_Tables_number   1
_chemical_formula_structural   Fe45Co19
_chemical_formula_sum   'Fe90 Co38'
_cell_volume   1487.49595874
_cell_formula_units_Z   2
loop_
 _symmetry_equiv_pos_site_id
 _symmetry_equiv_pos_as_xyz
  1  'x, y, z'
loop_
 _atom_site_type_symbol
 _atom_site_label
 _atom_site_symmetry_multiplicity
 _atom_site_fract_x
 _atom_site_fract_y
 _atom_site_fract_z
 _atom_site_occupancy
  Fe  Fe0  1  0.12728671  0.87107915  0.12666766  1
  Fe  Fe1  1  0.12328290  0.62545992  0.62400470  1
  Fe  Fe2  1  0.62497613  0.12564916  0.37276573  1
  Fe  Fe3  1  0.12250128  0.12729747  0.62392981  1
  Fe  Fe4  1  0.62458268  0.87586994  0.37455534  1
  Fe  Fe5  1  0.87717275  0.37804917  0.12667822  1
  Fe  Fe6  1  0.50131128  0.00190068  0.00026931  1
  Fe  Fe7  1  0.12219050  0.12336363  0.87691369  1
  Fe  Fe8  1  0.75169943  0.25136254  0.49802314  1
  Fe  Fe9  1  0.75428056  0.25192304  0.75033661  1
  Fe  Fe10  1  0.50033925  0.00385101  0.50262822  1
  Fe  Fe11  1  0.24598149  0.24910644  0.75217908  1
  Fe  Fe12  1  0.75265461  0.49848356  0.00071063  1
  Fe  Fe13  1  0.87747695  0.87583974  0.37145417  1
  Fe  Fe14  1  0.37663440  0.87760654  0.62688218  1
  Fe  Fe15  1  0.62772134  0.87660256  0.87705034  1
  Fe  Fe16  1  0.00141630  0.00042479  0.49712910  1
  Fe  Fe17  1  -0.00109728  0.25210371  -0.00020282  1
  Fe  Fe18  1  0.75004140  0.49793297  0.49872056  1
  Fe  Fe19  1  0.36940023  0.62727414  0.12091620  1
  Fe  Fe20  1  0.50134291  0.24712026  0.74872443  1
  Fe  Fe21  1  0.00131140  0.74698566  0.24732720  1
  Fe  Fe22  1  0.49515776  0.49867748  -0.00284707  1
  Fe  Fe23  1  0.87599481  0.12746887  0.62335300  1
  Fe  Fe24  1  0.50068912  0.74868127  0.50111388  1
  Fe  Fe25  1  0.12654031  0.37811139  0.12238038  1
  Fe  Fe26  1  0.49764564  0.25050633  0.24810803  1
  Fe  Fe27  1  0.50188908  0.75013232  0.74997844  1
  Fe  Fe28  1  0.75086297  0.00066206  0.49849219  1
  Fe  Fe29  1  0.50135383  0.00032753  0.24824075  1
  Fe  Fe30  1  0.62235339  0.62189641  0.37303076  1
  Fe  Fe31  1  0.62767688  0.12718813  0.87827127  1
  Fe  Fe32  1  0.62473234  0.37344558  0.87673232  1
  Fe  Fe33  1  0.75266884  0.75118797  0.74892784  1
  Fe  Fe34  1  0.24883420  -0.00092175  -0.00042977  1
  Fe  Fe35  1  -0.00282220  0.74790032  0.74792491  1
  Fe  Fe36  1  0.62618398  0.62227775  0.12480177  1
  Fe  Fe37  1  0.25039867  0.25123712  0.49978564  1
  Fe  Fe38  1  0.50159564  0.75037617  0.00008761  1
  Fe  Fe39  1  0.61959892  0.37723326  0.37287333  1
  Fe  Fe40  1  0.25102266  0.49866656  0.50108929  1
  Fe  Fe41  1  -0.00170382  0.74569878  0.00496526  1
  Fe  Fe42  1  -0.00317547  -0.00152145  0.00553578  1
  Fe  Fe43  1  0.24647068  0.00015973  0.25207838  1
  Fe  Fe44  1  0.25115222  0.49897350  0.25041870  1
  Fe  Fe45  1  -0.00256521  0.00113184  0.74934414  1
  Fe  Fe46  1  0.75267376  0.75040717  0.50052243  1
  Fe  Fe47  1  0.37237663  0.12686651  0.37419388  1
  Fe  Fe48  1  0.49973276  0.74940259  0.24785787  1
  Fe  Fe49  1  0.24833067  -0.00024763  0.75025354  1
  Fe  Fe50  1  0.11977353  0.37416646  0.62679458  1
  Fe  Fe51  1  0.87631248  0.37650567  0.37219764  1
  Fe  Fe52  1  0.49893126  0.24895616  0.50150451  1
  Fe  Fe53  1  0.87408176  0.87385902  0.87930523  1
  Fe  Fe54  1  0.75177501  0.00070085  0.75092889  1
  Fe  Fe55  1  0.12497159  0.12693517  0.12549122  1
  Fe  Fe56  1  0.37606620  0.87566590  0.37450173  1
  Fe  Fe57  1  0.37616264  0.62306209  0.62760181  1
  Fe  Fe58  1  0.37686403  0.87550269  0.87431101  1
  Fe  Fe59  1  0.37802139  0.62123145  0.37517417  1
  Fe  Fe60  1  0.25207601  0.75049356  0.49889815  1
  Fe  Fe61  1  0.00387708  0.25150712  0.25045165  1
  Fe  Fe62  1  0.37403937  0.12673925  0.87567853  1
  Fe  Fe63  1  0.62564838  0.87808233  0.62562462  1
  Fe  Fe64  1  0.12590944  0.37421174  0.37573185  1
  Fe  Fe65  1  0.87500077  0.12762167  0.87928069  1
  Fe  Fe66  1  0.62309439  0.37563436  0.12389802  1
  Fe  Fe67  1  0.37131037  0.37187626  0.12147382  1
  Fe  Fe68  1  0.37227245  0.12675924  0.12393564  1
  Fe  Fe69  1  0.12523170  0.62457857  0.87809321  1
  Fe  Fe70  1  0.25136126  0.49992400  0.75409300  1
  Fe  Fe71  1  0.12093624  0.87493463  0.87565641  1
  Fe  Fe72  1  0.12095109  0.37745778  0.87570055  1
  Fe  Fe73  1  0.87765798  0.12452485  0.36993039  1
  Fe  Fe74  1  0.24779305  -0.00058393  0.49922484  1
  Fe  Fe75  1  0.75232294  0.49718535  0.74908783  1
  Fe  Fe76  1  0.37251343  0.87397710  0.12520200  1
  Fe  Fe77  1  0.62531492  0.37426570  0.62497362  1
  Fe  Fe78  1  0.24913033  0.75114466  0.75194918  1
  Fe  Fe79  1  0.37601110  0.37529938  0.62742731  1
  Fe  Fe80  1  0.12512688  0.62632286  0.37581578  1
  Fe  Fe81  1  -0.00122174  0.49978009  0.49979528  1
  Fe  Fe82  1  0.62460434  0.62338279  0.87474642  1
  Fe  Fe83  1  0.87479246  0.62279349  0.87544353  1
  Fe  Fe84  1  0.62650003  0.62343816  0.62573626  1
  Fe  Fe85  1  0.74928191  0.74888130  0.24928396  1
  Fe  Fe86  1  0.62996745  0.87640818  0.12314403  1
  Fe  Fe87  1  0.87464542  0.62220676  0.37202256  1
  Fe  Fe88  1  0.74855607  0.25044781  0.24723722  1
  Fe  Fe89  1  0.12183744  0.87283544  0.62323224  1
  Co  Co90  1  0.37152852  0.12539743  0.62589923  1
  Co  Co91  1  -0.00412167  0.74779034  0.50009195  1
  Co  Co92  1  0.62448412  0.12537998  0.12517531  1
  Co  Co93  1  0.75092208  0.74520389  0.00021157  1
  Co  Co94  1  0.50155173  0.49945267  0.50314049  1
  Co  Co95  1  -0.00149447  0.50282418  0.00249899  1
  Co  Co96  1  0.25365876  0.49756621  -0.00555590  1
  Co  Co97  1  0.37692657  0.37622101  0.37561124  1
  Co  Co98  1  0.25129604  0.74839861  0.25430099  1
  Co  Co99  1  0.00494624  0.50092126  0.25032694  1
  Co  Co100  1  -0.00026894  0.50242136  0.74996340  1
  Co  Co101  1  0.75211702  0.00438173  0.00265812  1
  Co  Co102  1  0.49554113  0.49985782  0.24407560  1
  Co  Co103  1  0.87868080  0.37442952  0.62509598  1
  Co  Co104  1  0.87697086  0.37673202  0.87600387  1
  Co  Co105  1  0.24828968  0.75389504  -0.00433073  1
  Co  Co106  1  0.87768193  0.12763364  0.12835878  1
  Co  Co107  1  0.50186960  0.00449235  0.75092346  1
  Co  Co108  1  0.24592033  0.24942317  -0.00322848  1
  Co  Co109  1  0.87634401  0.87741599  0.62412079  1
  Co  Co110  1  -0.00125474  0.24898753  0.75338840  1
  Co  Co111  1  0.50073423  0.24902131  0.00118654  1
  Co  Co112  1  0.37594040  0.62895797  0.87521596  1
  Co  Co113  1  0.62970660  0.12586015  0.62455409  1
  Co  Co114  1  0.37644426  0.36903498  0.87327191  1
  Co  Co115  1  0.12564143  0.12734274  0.37499687  1
  Co  Co116  1  0.74742755  0.49716548  0.25048828  1
  Co  Co117  1  0.75261476  0.25237222  0.00438607  1
  Co  Co118  1  0.49949038  0.49882296  0.75216671  1
  Co  Co119  1  0.24845442  0.25230865  0.25035532  1
  Co  Co120  1  0.75006085  0.00147928  0.24833343  1
  Co  Co121  1  0.87108540  0.87300545  0.12539965  1
  Co  Co122  1  0.87263733  0.62104550  0.12890443  1
  Co  Co123  1  -0.00117119  0.25090046  0.49641151  1
  Co  Co124  1  0.87358670  0.62128145  0.62429946  1
  Co  Co125  1  0.00336660  -0.00181697  0.24737707  1
  Co  Co126  1  0.13155200  0.62335668  0.12294327  1
  Co  Co127  1  0.12315997  0.87110815  0.37565202  1
