# generated using pymatgen
data_Fe45Co19
_symmetry_space_group_name_H-M   'P 1'
_cell_length_a   11.41544089
_cell_length_b   11.41521540
_cell_length_c   11.41358784
_cell_angle_alpha   90.00722454
_cell_angle_beta   89.99800019
_cell_angle_gamma   90.00331728
_symmetry_Int_Tables_number   1
_chemical_formula_structural   Fe45Co19
_chemical_formula_sum   'Fe90 Co38'
_cell_volume   1487.30138232
_cell_formula_units_Z   2
loop_
 _symmetry_equiv_pos_site_id
 _symmetry_equiv_pos_as_xyz
  1  'x, y, z'
loop_
 _atom_site_type_symbol
 _atom_site_label
 _atom_site_symmetry_multiplicity
 _atom_site_fract_x
 _atom_site_fract_y
 _atom_site_fract_z
 _atom_site_occupancy
  Fe  Fe0  1  0.62327832  0.37720202  0.87374914  1
  Fe  Fe1  1  -0.00042381  0.75145030  0.75140852  1
  Fe  Fe2  1  0.75048279  -0.00007722  0.74882596  1
  Fe  Fe3  1  0.12654403  0.37653746  0.12456271  1
  Fe  Fe4  1  -0.00028006  0.75083956  0.49830787  1
  Fe  Fe5  1  -0.00074022  0.25124777  0.49976470  1
  Fe  Fe6  1  0.37352722  0.37276588  0.12738266  1
  Fe  Fe7  1  -0.00162641  -0.00132777  0.49968712  1
  Fe  Fe8  1  0.37124254  0.37300965  0.37330947  1
  Fe  Fe9  1  0.87559126  0.62640881  0.12503501  1
  Fe  Fe10  1  0.50021699  -0.00239150  0.49478793  1
  Fe  Fe11  1  -0.00227269  0.49950323  0.00011989  1
  Fe  Fe12  1  0.50033692  0.25328687  0.00055545  1
  Fe  Fe13  1  0.12320591  0.12560342  0.62660170  1
  Fe  Fe14  1  0.75149892  0.00331165  0.49818071  1
  Fe  Fe15  1  0.25025186  0.00304025  0.50082120  1
  Fe  Fe16  1  0.25446814  0.00007870  0.24808787  1
  Fe  Fe17  1  0.87677705  0.12629286  0.62616821  1
  Fe  Fe18  1  0.87203638  0.87373031  0.37312408  1
  Fe  Fe19  1  0.12555728  0.87532850  0.62420301  1
  Fe  Fe20  1  0.37776085  0.12997152  0.12889219  1
  Fe  Fe21  1  0.62319231  0.62204886  0.87601060  1
  Fe  Fe22  1  0.25384145  0.49926234  -0.00058435  1
  Fe  Fe23  1  0.12646373  0.87969785  0.87844541  1
  Fe  Fe24  1  0.24704507  0.74715772  0.25103424  1
  Fe  Fe25  1  0.00310030  0.24808269  -0.00211824  1
  Fe  Fe26  1  -0.00378543  0.49894765  0.25018142  1
  Fe  Fe27  1  0.62304956  0.12249792  0.87527061  1
  Fe  Fe28  1  0.25342170  0.00129043  0.74851961  1
  Fe  Fe29  1  0.62120453  0.62346375  0.12626587  1
  Fe  Fe30  1  -0.00315285  -0.00196154  0.24722756  1
  Fe  Fe31  1  0.00390631  0.75018605  0.24849651  1
  Fe  Fe32  1  0.50241670  0.75004695  0.74839971  1
  Fe  Fe33  1  0.24781161  0.24826432  0.49869997  1
  Fe  Fe34  1  -0.00135023  -0.00076274  0.75075831  1
  Fe  Fe35  1  0.74631157  0.74933262  0.00041305  1
  Fe  Fe36  1  0.24929039  0.74885082  0.74865340  1
  Fe  Fe37  1  0.62126763  0.12295145  0.13019033  1
  Fe  Fe38  1  0.87442437  0.12777035  0.12525067  1
  Fe  Fe39  1  0.37755676  0.12811144  0.37287778  1
  Fe  Fe40  1  0.12719109  0.37480779  0.87403778  1
  Fe  Fe41  1  0.87445299  0.12560286  0.87482450  1
  Fe  Fe42  1  0.12459937  0.37693514  0.37483600  1
  Fe  Fe43  1  0.62162891  0.12322247  0.62396817  1
  Fe  Fe44  1  -0.00251600  0.50051007  0.75129253  1
  Fe  Fe45  1  0.12385194  0.12263957  0.37316303  1
  Fe  Fe46  1  0.00116342  0.75230389  0.00230865  1
  Fe  Fe47  1  0.25074335  0.50227130  0.49928545  1
  Fe  Fe48  1  0.50320575  0.25263511  0.49768494  1
  Fe  Fe49  1  0.12462534  0.62472806  0.87706413  1
  Fe  Fe50  1  0.74671758  0.74670484  0.25163100  1
  Fe  Fe51  1  0.37865091  0.62730874  0.12570894  1
  Fe  Fe52  1  0.74917218  0.74806127  0.74877655  1
  Fe  Fe53  1  0.37821635  0.62668470  0.87739564  1
  Fe  Fe54  1  0.87291153  0.87405318  0.87653320  1
  Fe  Fe55  1  0.62558444  0.87685213  0.62372645  1
  Fe  Fe56  1  0.75242860  0.50097875  0.74689649  1
  Fe  Fe57  1  0.63321781  0.37964685  0.37990183  1
  Fe  Fe58  1  0.74790018  0.25051526  0.74686553  1
  Fe  Fe59  1  0.37740531  0.87294296  0.87541577  1
  Fe  Fe60  1  0.12361631  0.37565848  0.62503841  1
  Fe  Fe61  1  0.87437784  0.12822832  0.37379847  1
  Fe  Fe62  1  0.37549223  0.87355750  0.62125040  1
  Fe  Fe63  1  0.24871544  0.75063249  0.00225017  1
  Fe  Fe64  1  0.37427813  0.37252084  0.62507567  1
  Fe  Fe65  1  0.62215019  0.62128613  0.61851017  1
  Fe  Fe66  1  0.37787113  0.62822123  0.61911349  1
  Fe  Fe67  1  0.24970160  0.24769642  0.75058781  1
  Fe  Fe68  1  0.75084589  0.50058389  0.00165682  1
  Fe  Fe69  1  0.74939589  0.74666386  0.49918861  1
  Fe  Fe70  1  0.00261257  0.25134732  0.24909169  1
  Fe  Fe71  1  0.87373219  0.37348367  0.87502661  1
  Fe  Fe72  1  0.62394684  0.87740112  0.87407672  1
  Fe  Fe73  1  0.12794429  0.87613707  0.37439814  1
  Fe  Fe74  1  -0.00696377  0.49976887  0.49747395  1
  Fe  Fe75  1  0.49759448  -0.00245741  0.00368982  1
  Fe  Fe76  1  0.49800471  0.49994303  0.74811733  1
  Fe  Fe77  1  0.62636572  0.37716383  0.12474381  1
  Fe  Fe78  1  0.74790545  0.25062985  0.25018612  1
  Fe  Fe79  1  0.37599924  0.12602182  0.87608653  1
  Fe  Fe80  1  0.50108819  0.25004798  0.74854534  1
  Fe  Fe81  1  0.12168993  0.62439582  0.62306570  1
  Fe  Fe82  1  0.12751787  0.12122390  0.12148315  1
  Fe  Fe83  1  0.74728038  0.24966108  0.00033986  1
  Fe  Fe84  1  0.50016840  0.49826091  0.25351161  1
  Fe  Fe85  1  0.62466385  0.87725686  0.12921778  1
  Fe  Fe86  1  0.75122894  -0.00021777  0.00349232  1
  Fe  Fe87  1  0.25182172  0.50274938  0.74932222  1
  Fe  Fe88  1  0.50158923  0.75294128  0.25855778  1
  Fe  Fe89  1  0.24981433  0.50374918  0.25199725  1
  Co  Co90  1  0.87303561  0.87410275  0.62400619  1
  Co  Co91  1  0.37623268  0.86796256  0.12688561  1
  Co  Co92  1  0.87439187  0.62681265  0.87658655  1
  Co  Co93  1  0.12709699  0.11991744  0.87639209  1
  Co  Co94  1  0.87204232  0.87105836  0.12711155  1
  Co  Co95  1  0.12235806  0.62288192  0.37650935  1
  Co  Co96  1  0.00148677  0.24956249  0.75222050  1
  Co  Co97  1  -0.00525214  -0.00020237  0.00231004  1
  Co  Co98  1  0.49569142  -0.00496687  0.25320297  1
  Co  Co99  1  0.87488945  0.37181968  0.12386811  1
  Co  Co100  1  0.12724472  0.87904673  0.12477843  1
  Co  Co101  1  0.62423281  0.61854246  0.37859524  1
  Co  Co102  1  0.37634882  0.37416466  0.87222574  1
  Co  Co103  1  0.37846737  0.12638935  0.62151847  1
  Co  Co104  1  0.24448713  0.24879875  0.25068582  1
  Co  Co105  1  0.36768935  0.87275112  0.37823524  1
  Co  Co106  1  0.50438876  0.75508257  0.49501974  1
  Co  Co107  1  0.24605722  0.74675622  0.50055374  1
  Co  Co108  1  0.87531228  0.37259817  0.62568051  1
  Co  Co109  1  0.50460045  0.75192200  -0.00067702  1
  Co  Co110  1  0.12456608  0.62154010  0.12335682  1
  Co  Co111  1  0.87112488  0.37120428  0.37392246  1
  Co  Co112  1  0.25801620  -0.00090279  0.00281833  1
  Co  Co113  1  0.63160762  0.87891297  0.37384327  1
  Co  Co114  1  0.62398246  0.12414982  0.37140110  1
  Co  Co115  1  0.25011153  0.25105753  -0.00081989  1
  Co  Co116  1  0.49767653  -0.00092332  0.74937621  1
  Co  Co117  1  0.74912978  0.24651913  0.50317650  1
  Co  Co118  1  0.75181227  0.50059757  0.24757306  1
  Co  Co119  1  0.75891247  0.50396616  0.50276650  1
  Co  Co120  1  0.49824698  0.49736666  0.00174311  1
  Co  Co121  1  0.75338632  0.00295028  0.24943659  1
  Co  Co122  1  0.37702889  0.62721885  0.37720926  1
  Co  Co123  1  0.49512320  0.49486970  0.49695332  1
  Co  Co124  1  0.87458972  0.62765436  0.37075699  1
  Co  Co125  1  0.87806695  0.62820896  0.62688319  1
  Co  Co126  1  0.62543473  0.37859301  0.62285940  1
  Co  Co127  1  0.50533243  0.25700303  0.25325674  1
