# generated using pymatgen
data_Fe45Co19
_symmetry_space_group_name_H-M   'P 1'
_cell_length_a   11.41413367
_cell_length_b   11.41605277
_cell_length_c   11.41600190
_cell_angle_alpha   89.99552562
_cell_angle_beta   90.00280861
_cell_angle_gamma   89.99417731
_symmetry_Int_Tables_number   1
_chemical_formula_structural   Fe45Co19
_chemical_formula_sum   'Fe90 Co38'
_cell_volume   1487.55472017
_cell_formula_units_Z   2
loop_
 _symmetry_equiv_pos_site_id
 _symmetry_equiv_pos_as_xyz
  1  'x, y, z'
loop_
 _atom_site_type_symbol
 _atom_site_label
 _atom_site_symmetry_multiplicity
 _atom_site_fract_x
 _atom_site_fract_y
 _atom_site_fract_z
 _atom_site_occupancy
  Fe  Fe0  1  0.62835973  0.87551663  0.87170231  1
  Fe  Fe1  1  0.37699423  0.12354946  0.62294077  1
  Fe  Fe2  1  0.12508629  0.37578363  0.12265795  1
  Fe  Fe3  1  -0.00528234  0.25335947  0.50179212  1
  Fe  Fe4  1  0.87531675  0.12414167  0.12358884  1
  Fe  Fe5  1  -0.00391470  -0.00266943  0.49746971  1
  Fe  Fe6  1  0.50321991  0.00169755  0.25244585  1
  Fe  Fe7  1  0.50064772  0.49631256  0.49799109  1
  Fe  Fe8  1  0.49999002  0.75268678  0.49915134  1
  Fe  Fe9  1  0.37574708  0.87650283  0.12520034  1
  Fe  Fe10  1  0.25035793  0.24789931  0.75266897  1
  Fe  Fe11  1  0.62510878  0.62429901  0.12208767  1
  Fe  Fe12  1  0.87179315  0.87248529  0.12651735  1
  Fe  Fe13  1  0.74977471  0.00438464  0.25184580  1
  Fe  Fe14  1  0.37604885  0.62621253  0.12525858  1
  Fe  Fe15  1  -0.00048056  0.50113979  0.75247617  1
  Fe  Fe16  1  0.25341231  0.49922454  0.75226940  1
  Fe  Fe17  1  0.12802642  0.37488957  0.87768353  1
  Fe  Fe18  1  0.75280185  0.50370981  0.24850889  1
  Fe  Fe19  1  0.62975317  0.36917550  0.37089101  1
  Fe  Fe20  1  0.12270961  0.62424725  0.62503183  1
  Fe  Fe21  1  0.12234976  0.12508273  0.37618641  1
  Fe  Fe22  1  0.87226484  0.37480093  0.87263787  1
  Fe  Fe23  1  -0.00199545  0.25103622  0.24952946  1
  Fe  Fe24  1  0.25035591  0.49945987  0.49914040  1
  Fe  Fe25  1  0.37391397  0.37469537  0.12351365  1
  Fe  Fe26  1  0.62489707  0.37687051  0.87447182  1
  Fe  Fe27  1  0.62487605  0.37555300  0.62678179  1
  Fe  Fe28  1  0.62576696  0.12389716  0.87754332  1
  Fe  Fe29  1  0.12440983  0.62707663  0.37412437  1
  Fe  Fe30  1  0.62702419  0.87558768  0.12672611  1
  Fe  Fe31  1  0.49980042  0.24902032  0.75175635  1
  Fe  Fe32  1  0.87210917  0.63091680  0.87282697  1
  Fe  Fe33  1  -0.00371596  0.49762349  0.49809380  1
  Fe  Fe34  1  0.37634972  0.12176215  0.87970848  1
  Fe  Fe35  1  0.37597045  0.12147875  0.12241905  1
  Fe  Fe36  1  0.37767812  0.87588550  0.62774431  1
  Fe  Fe37  1  0.12459247  0.87314331  0.12798562  1
  Fe  Fe38  1  0.62576706  0.87878666  0.62563473  1
  Fe  Fe39  1  0.75263272  0.00449658  0.50070231  1
  Fe  Fe40  1  0.12446467  0.37475318  0.37430525  1
  Fe  Fe41  1  -0.00183404  -0.00143438  0.25234329  1
  Fe  Fe42  1  0.62631211  0.62527181  0.37734787  1
  Fe  Fe43  1  0.24981352  0.25034760  0.49980888  1
  Fe  Fe44  1  0.24788375  -0.00101288  0.25119272  1
  Fe  Fe45  1  -0.00075292  -0.00239506  -0.00060186  1
  Fe  Fe46  1  0.75220370  0.74842311  0.50346471  1
  Fe  Fe47  1  0.50047392  0.49876809  0.25181445  1
  Fe  Fe48  1  0.50288949  0.74951784  0.25116297  1
  Fe  Fe49  1  0.00058274  0.24985916  -0.00131403  1
  Fe  Fe50  1  0.25076136  0.75069308  0.50009742  1
  Fe  Fe51  1  0.50092876  0.25195501  0.49832205  1
  Fe  Fe52  1  0.37522159  0.62503194  0.37513645  1
  Fe  Fe53  1  0.25025272  -0.00132679  0.49888658  1
  Fe  Fe54  1  0.12215931  0.12418802  0.62479612  1
  Fe  Fe55  1  0.75274011  0.49827078  0.50163543  1
  Fe  Fe56  1  0.37609289  0.37498049  0.62619885  1
  Fe  Fe57  1  0.12504727  0.12468809  0.12421059  1
  Fe  Fe58  1  0.87495838  0.12518934  0.87547795  1
  Fe  Fe59  1  0.00014256  0.25080621  0.75114405  1
  Fe  Fe60  1  -0.00414940  0.74960833  0.25310322  1
  Fe  Fe61  1  0.25158374  0.24977170  0.25018642  1
  Fe  Fe62  1  0.62268587  0.12311528  0.62300849  1
  Fe  Fe63  1  0.74878506  0.25186948  0.00358096  1
  Fe  Fe64  1  0.87626556  0.37668395  0.12614327  1
  Fe  Fe65  1  0.25155771  0.75157068  0.00033830  1
  Fe  Fe66  1  -0.00371185  -0.00220062  0.75158694  1
  Fe  Fe67  1  0.62862829  0.87522344  0.37572459  1
  Fe  Fe68  1  0.24858152  0.75034637  0.74941762  1
  Fe  Fe69  1  0.37424415  0.87465795  0.37310865  1
  Fe  Fe70  1  0.75239743  0.50183872  0.00040987  1
  Fe  Fe71  1  0.50345380  0.25079501  0.00371996  1
  Fe  Fe72  1  0.49770960  0.50023734  -0.00352402  1
  Fe  Fe73  1  0.12741150  0.62575069  0.87599570  1
  Fe  Fe74  1  -0.00161395  0.50210715  -0.00092510  1
  Fe  Fe75  1  -0.00277209  0.75139410  -0.00154372  1
  Fe  Fe76  1  0.25122396  0.00089642  0.75139053  1
  Fe  Fe77  1  0.74718399  0.50590845  0.74761590  1
  Fe  Fe78  1  0.12334536  0.62585244  0.12606699  1
  Fe  Fe79  1  0.50180726  0.75255432  -0.00156294  1
  Fe  Fe80  1  0.12483689  0.37555927  0.62662311  1
  Fe  Fe81  1  0.12523813  0.87618188  0.87497104  1
  Fe  Fe82  1  0.12360475  0.87593107  0.62399957  1
  Fe  Fe83  1  0.24890900  0.50046781  0.24981927  1
  Fe  Fe84  1  -0.00315135  0.75217263  0.49946719  1
  Fe  Fe85  1  0.75070987  -0.00181148  -0.00139270  1
  Fe  Fe86  1  0.37803209  0.12589450  0.37524347  1
  Fe  Fe87  1  0.50434756  0.74678207  0.75051594  1
  Fe  Fe88  1  0.75002685  0.24693784  0.74749698  1
  Fe  Fe89  1  0.37810280  0.62402289  0.62497612  1
  Co  Co90  1  0.24808195  0.24660271  -0.00057256  1
  Co  Co91  1  0.74797603  0.75081837  0.00107214  1
  Co  Co92  1  0.12553540  0.87285843  0.37440091  1
  Co  Co93  1  0.87464258  0.12885540  0.37393904  1
  Co  Co94  1  0.24681525  -0.00269832  0.00047150  1
  Co  Co95  1  0.87121387  0.87158811  0.87207091  1
  Co  Co96  1  0.37468982  0.62814733  0.87362355  1
  Co  Co97  1  0.50031444  -0.00203946  0.49750555  1
  Co  Co98  1  0.62132647  0.62317539  0.61966665  1
  Co  Co99  1  -0.00037069  0.50057615  0.25050016  1
  Co  Co100  1  0.87280304  0.87364458  0.62810943  1
  Co  Co101  1  0.37589772  0.87428674  0.87307612  1
  Co  Co102  1  0.74945772  0.24694184  0.24237983  1
  Co  Co103  1  0.75303455  0.24962307  0.50537348  1
  Co  Co104  1  0.37608958  0.37223416  0.87730005  1
  Co  Co105  1  0.74787817  0.74621259  0.24917871  1
  Co  Co106  1  0.62598472  0.38066416  0.12577608  1
  Co  Co107  1  0.49987740  0.50124603  0.75161198  1
  Co  Co108  1  0.74513799  0.74607974  0.74522895  1
  Co  Co109  1  0.50354281  -0.00411980  -0.00125441  1
  Co  Co110  1  0.87899060  0.12427534  0.62665305  1
  Co  Co111  1  0.87421531  0.37759754  0.63020421  1
  Co  Co112  1  0.50061815  0.00200931  0.75133124  1
  Co  Co113  1  0.62602902  0.62348882  0.87891653  1
  Co  Co114  1  0.12269814  0.12224770  0.87451699  1
  Co  Co115  1  0.87073906  0.37237428  0.37112414  1
  Co  Co116  1  0.62492857  0.12140483  0.12304250  1
  Co  Co117  1  0.87000018  0.87436145  0.37362691  1
  Co  Co118  1  0.25162478  0.74942452  0.24944956  1
  Co  Co119  1  0.75090977  0.00348522  0.74953972  1
  Co  Co120  1  0.37515893  0.37412114  0.37381204  1
  Co  Co121  1  0.50098633  0.24941002  0.24533681  1
  Co  Co122  1  0.87365732  0.62532515  0.37607629  1
  Co  Co123  1  0.25098995  0.50265804  0.00080920  1
  Co  Co124  1  0.87871086  0.62554538  0.62619564  1
  Co  Co125  1  0.87544442  0.62803800  0.12442385  1
  Co  Co126  1  0.00230984  0.75092889  0.75031265  1
  Co  Co127  1  0.62592572  0.13019077  0.37647296  1
