# generated using pymatgen
data_Fe45Co19
_symmetry_space_group_name_H-M   'P 1'
_cell_length_a   11.41638310
_cell_length_b   11.41539612
_cell_length_c   11.41617907
_cell_angle_alpha   89.99904966
_cell_angle_beta   89.99320073
_cell_angle_gamma   90.00903152
_symmetry_Int_Tables_number   1
_chemical_formula_structural   Fe45Co19
_chemical_formula_sum   'Fe90 Co38'
_cell_volume   1487.78537064
_cell_formula_units_Z   2
loop_
 _symmetry_equiv_pos_site_id
 _symmetry_equiv_pos_as_xyz
  1  'x, y, z'
loop_
 _atom_site_type_symbol
 _atom_site_label
 _atom_site_symmetry_multiplicity
 _atom_site_fract_x
 _atom_site_fract_y
 _atom_site_fract_z
 _atom_site_occupancy
  Fe  Fe0  1  0.24639515  0.24981187  0.24598333  1
  Fe  Fe1  1  0.24986354  0.50193491  0.75234412  1
  Fe  Fe2  1  0.25057173  0.00099505  0.25097933  1
  Fe  Fe3  1  0.50235835  0.49676354  0.49580403  1
  Fe  Fe4  1  0.87418452  0.37193895  0.37148215  1
  Fe  Fe5  1  0.49991179  -0.00051488  0.49868769  1
  Fe  Fe6  1  0.37357409  0.62531066  0.37413717  1
  Fe  Fe7  1  0.37473468  0.12646843  0.37372917  1
  Fe  Fe8  1  0.75173448  0.24713876  0.24685781  1
  Fe  Fe9  1  0.00067260  0.24708600  0.24329606  1
  Fe  Fe10  1  0.62131539  0.88101140  0.12463551  1
  Fe  Fe11  1  0.62418587  0.62619020  0.87717332  1
  Fe  Fe12  1  0.12592288  0.87247519  0.87662862  1
  Fe  Fe13  1  0.12618419  0.12493197  0.87707694  1
  Fe  Fe14  1  -0.00156823  0.50266164  0.25051082  1
  Fe  Fe15  1  -0.00136875  -0.00002687  -0.00088260  1
  Fe  Fe16  1  0.50176103  0.25255285  0.50025187  1
  Fe  Fe17  1  0.74727947  0.74908733  0.75007673  1
  Fe  Fe18  1  0.74782902  0.75224423  0.00183418  1
  Fe  Fe19  1  0.24608366  0.74896958  0.25109321  1
  Fe  Fe20  1  0.50141196  0.24792270  0.24796326  1
  Fe  Fe21  1  0.12425524  0.37716479  0.62518593  1
  Fe  Fe22  1  -0.00075401  0.25029602  0.50077216  1
  Fe  Fe23  1  0.87309299  0.62528402  0.62431725  1
  Fe  Fe24  1  0.37593743  0.37745501  0.12703967  1
  Fe  Fe25  1  0.62601738  0.62062348  0.62479385  1
  Fe  Fe26  1  0.75143816  -0.00118701  0.49753383  1
  Fe  Fe27  1  0.37723230  0.62493685  0.12535021  1
  Fe  Fe28  1  0.12463511  0.37660349  0.37216843  1
  Fe  Fe29  1  0.24751653  0.24877492  0.74785015  1
  Fe  Fe30  1  0.12760183  0.87312026  0.62403141  1
  Fe  Fe31  1  0.87418447  0.87205195  0.87459376  1
  Fe  Fe32  1  0.74949235  -0.00082084  -0.00209863  1
  Fe  Fe33  1  0.37555504  0.37679835  0.62573785  1
  Fe  Fe34  1  0.00063199  0.74916493  0.75040733  1
  Fe  Fe35  1  0.12476420  0.62808029  0.87903086  1
  Fe  Fe36  1  0.37425346  0.37236899  0.87539828  1
  Fe  Fe37  1  0.37425891  0.37495947  0.37186947  1
  Fe  Fe38  1  0.50088194  0.24869560  0.74871337  1
  Fe  Fe39  1  0.00172738  0.00033421  0.74995604  1
  Fe  Fe40  1  0.25588694  -0.00046191  -0.00199324  1
  Fe  Fe41  1  0.74874861  0.49565410  0.49665956  1
  Fe  Fe42  1  0.37764613  0.62877724  0.87714307  1
  Fe  Fe43  1  0.75162283  0.25008390  0.00309766  1
  Fe  Fe44  1  0.87403140  0.87310998  0.62567565  1
  Fe  Fe45  1  0.62345671  0.12424840  0.87724546  1
  Fe  Fe46  1  -0.00221083  0.50044860  0.49819978  1
  Fe  Fe47  1  0.62619965  0.37884680  0.12779117  1
  Fe  Fe48  1  -0.00484466  0.49906365  -0.00218373  1
  Fe  Fe49  1  0.38009049  0.87174109  0.87142050  1
  Fe  Fe50  1  0.87277137  0.63145795  0.37422997  1
  Fe  Fe51  1  0.87470928  0.12463074  0.62320062  1
  Fe  Fe52  1  0.62529202  0.37530356  0.87423579  1
  Fe  Fe53  1  0.12315131  0.12402172  0.37506024  1
  Fe  Fe54  1  0.12531219  0.87613462  0.12401357  1
  Fe  Fe55  1  0.50021650  0.24848031  0.00302639  1
  Fe  Fe56  1  -0.00198019  0.50199803  0.75290835  1
  Fe  Fe57  1  0.25001634  0.00010548  0.50022413  1
  Fe  Fe58  1  0.87573026  0.87474381  0.12565034  1
  Fe  Fe59  1  0.87334413  0.86922104  0.37432112  1
  Fe  Fe60  1  0.87590754  0.12694869  0.87666491  1
  Fe  Fe61  1  0.37410474  0.12319386  0.62740222  1
  Fe  Fe62  1  0.12421511  0.62483540  0.12289436  1
  Fe  Fe63  1  0.74969639  -0.00017159  0.25240677  1
  Fe  Fe64  1  0.62605458  0.12450730  0.62226462  1
  Fe  Fe65  1  0.87479166  0.62775493  0.12513618  1
  Fe  Fe66  1  0.62776283  0.62719846  0.37337165  1
  Fe  Fe67  1  0.12629519  0.62640357  0.62217624  1
  Fe  Fe68  1  0.00109216  0.24825262  0.74921405  1
  Fe  Fe69  1  -0.00132813  -0.00169691  0.49940365  1
  Fe  Fe70  1  0.24843469  0.24884707  0.00446305  1
  Fe  Fe71  1  0.62463846  0.87639878  0.62566864  1
  Fe  Fe72  1  0.24884677  0.25020403  0.50094773  1
  Fe  Fe73  1  0.49940620  0.50021202  0.75254002  1
  Fe  Fe74  1  0.75317254  0.49840730  -0.00245064  1
  Fe  Fe75  1  0.25257544  0.50034078  0.00062743  1
  Fe  Fe76  1  0.24995367  0.49908794  0.49800100  1
  Fe  Fe77  1  0.87283217  0.37638361  0.62788006  1
  Fe  Fe78  1  0.37413714  0.62543253  0.62408166  1
  Fe  Fe79  1  0.62451716  0.62110209  0.12503210  1
  Fe  Fe80  1  0.50340640  0.75016635  0.24962034  1
  Fe  Fe81  1  0.37448999  0.87407703  0.62836668  1
  Fe  Fe82  1  0.74875333  0.00025126  0.75195039  1
  Fe  Fe83  1  0.37608497  0.87437233  0.37380895  1
  Fe  Fe84  1  0.50111198  0.75089762  0.50055137  1
  Fe  Fe85  1  -0.00151244  -0.00082355  0.25104115  1
  Fe  Fe86  1  0.62672466  0.12629766  0.37579812  1
  Fe  Fe87  1  0.12321618  0.37407542  0.87756858  1
  Fe  Fe88  1  0.74923484  0.24971691  0.74850405  1
  Fe  Fe89  1  0.37817586  0.87646374  0.12760152  1
  Co  Co90  1  0.50028820  0.50060839  0.25265324  1
  Co  Co91  1  0.75310801  0.50152829  0.25160439  1
  Co  Co92  1  0.25095789  0.75103559  0.49731915  1
  Co  Co93  1  0.50315393  0.74755732  0.74707993  1
  Co  Co94  1  0.00385748  0.75050492  0.25001699  1
  Co  Co95  1  0.00075299  0.75071731  0.49925101  1
  Co  Co96  1  0.87502359  0.37576646  0.12526477  1
  Co  Co97  1  0.24984957  0.50184288  0.24861535  1
  Co  Co98  1  0.37570819  0.12339318  0.12665536  1
  Co  Co99  1  0.00011243  0.24827353  0.00447766  1
  Co  Co100  1  0.62676036  0.37222197  0.36951828  1
  Co  Co101  1  0.49549959  0.00234164  -0.00324649  1
  Co  Co102  1  0.74769318  0.75074005  0.50298643  1
  Co  Co103  1  0.74646062  0.75220589  0.24485741  1
  Co  Co104  1  0.24935860  0.74808231  0.75213180  1
  Co  Co105  1  0.12557977  0.11855629  0.12342920  1
  Co  Co106  1  0.75117806  0.50088147  0.75416236  1
  Co  Co107  1  0.37393675  0.12844661  0.87342929  1
  Co  Co108  1  0.87401398  0.12067948  0.12351397  1
  Co  Co109  1  0.50193878  0.00252629  0.75103734  1
  Co  Co110  1  0.12521176  0.87659467  0.37591183  1
  Co  Co111  1  0.12257580  0.38052176  0.12375649  1
  Co  Co112  1  -0.00118761  0.75204744  0.00185108  1
  Co  Co113  1  0.87354149  0.63048648  0.87630447  1
  Co  Co114  1  0.62500804  0.37724824  0.62797020  1
  Co  Co115  1  0.62515486  0.87345862  0.37535005  1
  Co  Co116  1  0.62532830  0.12034141  0.12435604  1
  Co  Co117  1  0.24870312  -0.00049491  0.75160152  1
  Co  Co118  1  0.87570574  0.37020586  0.87414036  1
  Co  Co119  1  0.12530141  0.62353543  0.37700413  1
  Co  Co120  1  0.62232145  0.87422004  0.87542431  1
  Co  Co121  1  0.49901221  0.49783634  -0.00089872  1
  Co  Co122  1  0.12429015  0.12357270  0.62267805  1
  Co  Co123  1  0.25321531  0.75195705  0.00177704  1
  Co  Co124  1  0.50140845  0.00267739  0.25398189  1
  Co  Co125  1  0.75002842  0.25333393  0.50072598  1
  Co  Co126  1  0.87561822  0.12645622  0.37492344  1
  Co  Co127  1  0.50178818  0.75168679  0.00360722  1
