# generated using pymatgen
data_Fe45Co19
_symmetry_space_group_name_H-M   'P 1'
_cell_length_a   11.41416017
_cell_length_b   11.41373268
_cell_length_c   11.41427676
_cell_angle_alpha   89.99072620
_cell_angle_beta   89.99451874
_cell_angle_gamma   90.01051916
_symmetry_Int_Tables_number   1
_chemical_formula_structural   Fe45Co19
_chemical_formula_sum   'Fe90 Co38'
_cell_volume   1487.03107019
_cell_formula_units_Z   2
loop_
 _symmetry_equiv_pos_site_id
 _symmetry_equiv_pos_as_xyz
  1  'x, y, z'
loop_
 _atom_site_type_symbol
 _atom_site_label
 _atom_site_symmetry_multiplicity
 _atom_site_fract_x
 _atom_site_fract_y
 _atom_site_fract_z
 _atom_site_occupancy
  Fe  Fe0  1  0.50075728  0.00126970  -0.00078218  1
  Fe  Fe1  1  0.62625901  0.62365489  0.12270049  1
  Fe  Fe2  1  0.62670053  0.87497147  0.87473478  1
  Fe  Fe3  1  -0.00084470  -0.00174312  0.25198333  1
  Fe  Fe4  1  0.62555044  0.12736774  0.12383717  1
  Fe  Fe5  1  0.62706039  0.37496100  0.87450929  1
  Fe  Fe6  1  0.87603815  0.37834496  0.87282855  1
  Fe  Fe7  1  0.25138104  0.25158327  0.24811859  1
  Fe  Fe8  1  0.74937546  0.74879937  0.24982987  1
  Fe  Fe9  1  0.25094029  -0.00022329  0.00176124  1
  Fe  Fe10  1  0.37785541  0.12910484  0.12303736  1
  Fe  Fe11  1  0.50016103  0.24925791  0.50057285  1
  Fe  Fe12  1  0.62580093  0.37721765  0.37453395  1
  Fe  Fe13  1  0.12902542  0.62658991  0.62616135  1
  Fe  Fe14  1  -0.00059554  0.74967391  0.25041462  1
  Fe  Fe15  1  0.12449435  0.37416999  0.12347645  1
  Fe  Fe16  1  0.50146627  0.74886506  0.50133295  1
  Fe  Fe17  1  0.87227184  0.87229819  0.62652432  1
  Fe  Fe18  1  0.12430142  0.87442820  0.87693212  1
  Fe  Fe19  1  -0.00131632  0.74960310  0.75057839  1
  Fe  Fe20  1  0.00103862  -0.00021562  0.74926237  1
  Fe  Fe21  1  0.12721042  0.37361962  0.62352488  1
  Fe  Fe22  1  0.24918581  -0.00157728  0.74931564  1
  Fe  Fe23  1  0.37458258  0.62589201  0.37308791  1
  Fe  Fe24  1  0.74615494  0.74631031  0.50198305  1
  Fe  Fe25  1  0.75400487  0.24991933  -0.00029040  1
  Fe  Fe26  1  0.62517494  0.37430203  0.12423858  1
  Fe  Fe27  1  0.12644068  0.12627305  0.87371109  1
  Fe  Fe28  1  0.00017513  0.50022929  0.25117469  1
  Fe  Fe29  1  0.75176177  0.25102868  0.24892421  1
  Fe  Fe30  1  0.12525378  0.62466661  0.12586610  1
  Fe  Fe31  1  0.49789999  0.49839841  0.75235585  1
  Fe  Fe32  1  0.00049392  0.50261325  0.50156842  1
  Fe  Fe33  1  0.37438387  0.62669722  0.12239247  1
  Fe  Fe34  1  0.62771132  0.12626549  0.87389000  1
  Fe  Fe35  1  0.24815251  0.75263952  0.24730798  1
  Fe  Fe36  1  0.24943476  -0.00135937  0.24793286  1
  Fe  Fe37  1  0.25098777  0.25216388  0.74967631  1
  Fe  Fe38  1  0.00130314  0.49898128  -0.00127258  1
  Fe  Fe39  1  0.87442907  0.37736017  0.37589832  1
  Fe  Fe40  1  0.50266073  0.75013414  0.75037983  1
  Fe  Fe41  1  0.87526673  0.12523271  0.37564256  1
  Fe  Fe42  1  -0.00258892  0.25110374  0.24971441  1
  Fe  Fe43  1  0.37586077  0.12550571  0.37513083  1
  Fe  Fe44  1  0.74981073  -0.00018588  0.24920313  1
  Fe  Fe45  1  0.87213527  0.37810926  0.62700565  1
  Fe  Fe46  1  0.62508202  0.37717942  0.62629119  1
  Fe  Fe47  1  0.74968538  0.00014623  0.75030822  1
  Fe  Fe48  1  0.50118147  0.75024803  0.24727330  1
  Fe  Fe49  1  0.49982304  0.49867426  -0.00048049  1
  Fe  Fe50  1  0.87284188  0.62332252  0.37492788  1
  Fe  Fe51  1  0.37405999  0.62773246  0.87596265  1
  Fe  Fe52  1  0.12473260  0.87117360  0.62243938  1
  Fe  Fe53  1  0.62410037  0.12488488  0.37566986  1
  Fe  Fe54  1  0.50094172  0.00090675  0.75003637  1
  Fe  Fe55  1  0.12457071  0.12820309  0.37820631  1
  Fe  Fe56  1  0.37410157  0.62473891  0.62787357  1
  Fe  Fe57  1  0.74766806  0.00151938  0.50265725  1
  Fe  Fe58  1  0.12338131  0.87134466  0.37821535  1
  Fe  Fe59  1  0.87361111  0.62121310  0.12360786  1
  Fe  Fe60  1  0.37550354  0.12541278  0.62576817  1
  Fe  Fe61  1  0.24954631  0.49881838  -0.00107675  1
  Fe  Fe62  1  0.24933351  0.00053306  0.50121127  1
  Fe  Fe63  1  0.00061780  0.25127435  0.74928311  1
  Fe  Fe64  1  0.50071314  0.00015113  0.24799545  1
  Fe  Fe65  1  0.37579125  0.37485924  0.37515986  1
  Fe  Fe66  1  0.00010907  0.00160249  0.50236985  1
  Fe  Fe67  1  0.37654031  0.87556823  0.37490542  1
  Fe  Fe68  1  0.12481821  0.37400511  0.37808234  1
  Fe  Fe69  1  0.87383298  0.87341654  0.37850264  1
  Fe  Fe70  1  0.62376304  0.87524059  0.37712163  1
  Fe  Fe71  1  0.87437717  0.87597864  0.12228684  1
  Fe  Fe72  1  0.49972402  0.24976738  0.75132470  1
  Fe  Fe73  1  0.25144069  0.50072804  0.50044709  1
  Fe  Fe74  1  0.87140108  0.62347026  0.62916007  1
  Fe  Fe75  1  0.75130525  0.74610942  -0.00626507  1
  Fe  Fe76  1  0.12237852  0.12467993  0.12530213  1
  Fe  Fe77  1  0.37227736  0.37191169  0.87784251  1
  Fe  Fe78  1  0.37590856  0.87452112  0.62453457  1
  Fe  Fe79  1  -0.00043809  0.74857887  -0.00145303  1
  Fe  Fe80  1  0.37518596  0.87326025  0.87816682  1
  Fe  Fe81  1  0.50058719  0.49937340  0.24800280  1
  Fe  Fe82  1  0.12619689  0.62352946  0.87174960  1
  Fe  Fe83  1  0.87489035  0.12652612  0.62764331  1
  Fe  Fe84  1  0.50095951  0.50197298  0.49993453  1
  Fe  Fe85  1  0.62671624  0.87499137  0.12169449  1
  Fe  Fe86  1  -0.00203122  0.24945796  -0.00090932  1
  Fe  Fe87  1  0.25041671  0.49816924  0.24912753  1
  Fe  Fe88  1  0.75012933  0.25052473  0.50218148  1
  Fe  Fe89  1  -0.00400117  0.00203996  -0.00200877  1
  Co  Co90  1  0.50040642  0.25147210  0.25160031  1
  Co  Co91  1  0.62626938  0.87465977  0.62590330  1
  Co  Co92  1  0.00395213  0.49892454  0.74639683  1
  Co  Co93  1  -0.00353596  0.25097489  0.50216944  1
  Co  Co94  1  0.25347501  0.25041040  0.50083765  1
  Co  Co95  1  0.74758977  0.50204583  0.75401217  1
  Co  Co96  1  0.74839509  0.74668222  0.75442515  1
  Co  Co97  1  -0.00270929  0.74556711  0.50177638  1
  Co  Co98  1  0.37291831  0.12573841  0.87445429  1
  Co  Co99  1  0.37631170  0.87409216  0.12273831  1
  Co  Co100  1  0.25009473  0.75259587  0.75152200  1
  Co  Co101  1  0.62089488  0.62341623  0.87516967  1
  Co  Co102  1  0.74865949  0.49961646  0.24928889  1
  Co  Co103  1  0.74827640  0.50170353  0.49989294  1
  Co  Co104  1  0.24826570  0.24943400  0.00168834  1
  Co  Co105  1  0.87487160  0.12563839  0.87079502  1
  Co  Co106  1  0.50010745  0.00092386  0.50163694  1
  Co  Co107  1  0.50204395  0.24980573  -0.00376123  1
  Co  Co108  1  0.37734355  0.37497057  0.62457126  1
  Co  Co109  1  0.87570337  0.12293136  0.12674938  1
  Co  Co110  1  0.12640165  0.62605577  0.37471898  1
  Co  Co111  1  0.87466753  0.87577114  0.87412531  1
  Co  Co112  1  0.62385109  0.62180267  0.62838409  1
  Co  Co113  1  0.12505775  0.37401984  0.87501106  1
  Co  Co114  1  0.24677256  0.75042603  0.00086228  1
  Co  Co115  1  0.62412282  0.62472236  0.37303903  1
  Co  Co116  1  0.12071742  0.87655198  0.12338901  1
  Co  Co117  1  0.75087357  0.00242230  -0.00127347  1
  Co  Co118  1  0.25154486  0.49704851  0.75063497  1
  Co  Co119  1  0.87898906  0.61988429  0.87243264  1
  Co  Co120  1  0.37677120  0.37359576  0.12228470  1
  Co  Co121  1  0.12613459  0.12808932  0.62533801  1
  Co  Co122  1  0.50258497  0.75061261  -0.00023167  1
  Co  Co123  1  0.74980356  0.49980375  -0.00270570  1
  Co  Co124  1  0.74980484  0.25150969  0.74948493  1
  Co  Co125  1  0.62431365  0.12647250  0.62660535  1
  Co  Co126  1  0.25320754  0.74945964  0.49972489  1
  Co  Co127  1  0.87566500  0.37808614  0.12452489  1
