# generated using pymatgen
data_Fe45Co19
_symmetry_space_group_name_H-M   'P 1'
_cell_length_a   11.41480387
_cell_length_b   11.41598775
_cell_length_c   11.41471199
_cell_angle_alpha   89.99436849
_cell_angle_beta   90.00540313
_cell_angle_gamma   90.00126305
_symmetry_Int_Tables_number   1
_chemical_formula_structural   Fe45Co19
_chemical_formula_sum   'Fe90 Co38'
_cell_volume   1487.46550113
_cell_formula_units_Z   2
loop_
 _symmetry_equiv_pos_site_id
 _symmetry_equiv_pos_as_xyz
  1  'x, y, z'
loop_
 _atom_site_type_symbol
 _atom_site_label
 _atom_site_symmetry_multiplicity
 _atom_site_fract_x
 _atom_site_fract_y
 _atom_site_fract_z
 _atom_site_occupancy
  Fe  Fe0  1  0.12435216  0.12804708  0.87423217  1
  Fe  Fe1  1  0.37720172  0.62260915  0.37218981  1
  Fe  Fe2  1  0.25091621  0.75021261  0.25046639  1
  Fe  Fe3  1  0.12265945  0.12457351  0.37616280  1
  Fe  Fe4  1  0.74957973  0.50161509  -0.00057531  1
  Fe  Fe5  1  0.87082382  0.87292073  0.12236597  1
  Fe  Fe6  1  0.49946927  0.25070093  0.24876760  1
  Fe  Fe7  1  0.25052843  0.25250086  0.75224431  1
  Fe  Fe8  1  0.87152151  0.37195730  0.37388433  1
  Fe  Fe9  1  0.37494465  0.62133290  0.12886415  1
  Fe  Fe10  1  0.74902349  0.75248120  0.75197377  1
  Fe  Fe11  1  0.24997135  0.74825796  0.49870536  1
  Fe  Fe12  1  0.87540574  0.37509222  0.87732754  1
  Fe  Fe13  1  0.25585620  0.24984809  -0.00033079  1
  Fe  Fe14  1  0.00043504  0.49798778  0.75151590  1
  Fe  Fe15  1  0.62319052  0.62367602  0.87056397  1
  Fe  Fe16  1  0.87846782  0.12641910  0.62301409  1
  Fe  Fe17  1  0.25001154  0.75089356  0.75171426  1
  Fe  Fe18  1  0.87324615  0.87799134  0.87644065  1
  Fe  Fe19  1  0.50219148  0.50284158  0.50451768  1
  Fe  Fe20  1  0.12661365  0.87427895  0.87838112  1
  Fe  Fe21  1  0.12607324  0.37522425  0.37467121  1
  Fe  Fe22  1  0.87612656  0.87534471  0.62425371  1
  Fe  Fe23  1  0.62361865  0.12377574  0.12468899  1
  Fe  Fe24  1  -0.00023600  0.00088252  0.00113267  1
  Fe  Fe25  1  0.87335475  0.62447507  0.62563809  1
  Fe  Fe26  1  0.24805738  -0.00080820  0.75099545  1
  Fe  Fe27  1  0.75052869  0.24964911  0.74914444  1
  Fe  Fe28  1  0.12866608  0.12312741  0.12503892  1
  Fe  Fe29  1  0.62610597  0.87492039  0.62136290  1
  Fe  Fe30  1  0.00036229  0.25191841  0.24924510  1
  Fe  Fe31  1  0.12543200  0.62590552  0.62561189  1
  Fe  Fe32  1  0.12271533  0.62474027  0.37458605  1
  Fe  Fe33  1  0.24970888  0.50059089  0.50008410  1
  Fe  Fe34  1  0.37819503  0.62575263  0.87128883  1
  Fe  Fe35  1  0.62581108  0.12341282  0.87442807  1
  Fe  Fe36  1  0.49817013  0.49940482  0.00147665  1
  Fe  Fe37  1  0.62518095  0.37411746  0.12386750  1
  Fe  Fe38  1  0.49854552  0.75114636  0.00079446  1
  Fe  Fe39  1  0.12320636  0.37197309  0.62608409  1
  Fe  Fe40  1  0.37402397  0.87420513  0.62515344  1
  Fe  Fe41  1  0.50098754  0.25022525  0.74850875  1
  Fe  Fe42  1  0.87417245  0.12291931  0.87447998  1
  Fe  Fe43  1  0.00308180  0.00006573  0.74733697  1
  Fe  Fe44  1  -0.00085945  0.49807935  0.24853962  1
  Fe  Fe45  1  0.50147348  -0.00427041  0.24967676  1
  Fe  Fe46  1  0.62401831  0.62929249  0.37193875  1
  Fe  Fe47  1  0.12863016  0.87577534  0.12253846  1
  Fe  Fe48  1  -0.00086701  0.74895790  0.00017828  1
  Fe  Fe49  1  0.25159794  0.24990487  0.24976120  1
  Fe  Fe50  1  -0.00156110  0.25006392  0.00166710  1
  Fe  Fe51  1  0.62739658  0.87747207  0.87848511  1
  Fe  Fe52  1  0.62483273  0.12472904  0.37500974  1
  Fe  Fe53  1  0.00048577  0.75069985  0.75075547  1
  Fe  Fe54  1  -0.00011032  -0.00062543  0.24890077  1
  Fe  Fe55  1  -0.00267431  0.74972014  0.25000585  1
  Fe  Fe56  1  0.87259893  0.62547396  0.12584909  1
  Fe  Fe57  1  0.74800120  0.49942677  0.24983846  1
  Fe  Fe58  1  0.24658943  0.00065285  0.50159472  1
  Fe  Fe59  1  0.75165794  0.00168429  0.49761146  1
  Fe  Fe60  1  0.12485506  0.62337467  0.87760449  1
  Fe  Fe61  1  0.00026797  0.49835219  0.49984192  1
  Fe  Fe62  1  -0.00151455  0.74896778  0.50005340  1
  Fe  Fe63  1  0.50047400  -0.00298019  0.74992598  1
  Fe  Fe64  1  0.12199802  0.87436590  0.37608043  1
  Fe  Fe65  1  0.12613155  0.62234081  0.12310332  1
  Fe  Fe66  1  0.12823044  0.37784066  0.12053304  1
  Fe  Fe67  1  0.74746000  0.50043227  0.50136386  1
  Fe  Fe68  1  0.74969538  0.24858512  0.00037345  1
  Fe  Fe69  1  0.37644858  0.87605583  0.37769841  1
  Fe  Fe70  1  0.37642137  0.37628108  0.62533547  1
  Fe  Fe71  1  0.37585726  0.12303632  0.37359541  1
  Fe  Fe72  1  0.62292507  0.37670780  0.87245683  1
  Fe  Fe73  1  0.87468638  0.62425772  0.87358363  1
  Fe  Fe74  1  0.62451885  0.12441033  0.62481752  1
  Fe  Fe75  1  0.37364843  0.12383379  0.62701104  1
  Fe  Fe76  1  0.37023271  0.87912834  0.12231790  1
  Fe  Fe77  1  0.25041996  0.49778824  0.75241760  1
  Fe  Fe78  1  0.75313582  0.75006378  0.49586917  1
  Fe  Fe79  1  0.37726376  0.37839219  0.37303954  1
  Fe  Fe80  1  0.25100538  0.25011274  0.49906367  1
  Fe  Fe81  1  0.62489930  0.37280767  0.37669771  1
  Fe  Fe82  1  0.87278033  0.12655611  0.12838162  1
  Fe  Fe83  1  0.62569593  0.63034226  0.12801221  1
  Fe  Fe84  1  0.49883541  0.74683476  0.50343930  1
  Fe  Fe85  1  0.87467622  0.37326558  0.62407512  1
  Fe  Fe86  1  0.49621867  0.24916664  0.00164206  1
  Fe  Fe87  1  0.74788481  -0.00394613  0.25098260  1
  Fe  Fe88  1  0.49971362  0.24860689  0.50101167  1
  Fe  Fe89  1  0.49733091  0.00123218  -0.00133830  1
  Co  Co90  1  0.74955248  0.74644547  -0.00446809  1
  Co  Co91  1  0.50324103  0.75444131  0.74856857  1
  Co  Co92  1  0.62153169  0.87246116  0.37880759  1
  Co  Co93  1  0.00295438  0.00093255  0.50329300  1
  Co  Co94  1  0.74999954  0.00061715  0.74653382  1
  Co  Co95  1  0.62778766  0.87282661  0.12072497  1
  Co  Co96  1  -0.00291335  0.50075088  0.00011085  1
  Co  Co97  1  0.50020791  0.50162284  0.74361296  1
  Co  Co98  1  0.87923770  0.87858551  0.37617944  1
  Co  Co99  1  0.87228852  0.37475206  0.12502077  1
  Co  Co100  1  0.74905081  0.24706358  0.50191169  1
  Co  Co101  1  0.37425179  0.37767701  0.12866827  1
  Co  Co102  1  0.75099452  0.00374215  0.00265792  1
  Co  Co103  1  0.12552782  0.13052001  0.62592784  1
  Co  Co104  1  0.49932141  0.00238398  0.50145405  1
  Co  Co105  1  0.75135965  0.49748882  0.74965557  1
  Co  Co106  1  0.75186096  0.75392716  0.25408502  1
  Co  Co107  1  0.87547487  0.12587861  0.37213278  1
  Co  Co108  1  0.87511118  0.62121215  0.37430758  1
  Co  Co109  1  0.49680756  0.75586085  0.24736923  1
  Co  Co110  1  0.25213269  0.74618618  0.00139482  1
  Co  Co111  1  0.24832229  -0.00122256  0.25456428  1
  Co  Co112  1  0.50531742  0.49863934  0.24999968  1
  Co  Co113  1  0.12580641  0.87086403  0.62436900  1
  Co  Co114  1  0.25053275  0.00481409  -0.00507802  1
  Co  Co115  1  0.62497416  0.37354719  0.62615925  1
  Co  Co116  1  -0.00246692  0.25075337  0.75198410  1
  Co  Co117  1  0.24729639  0.50066109  0.25173311  1
  Co  Co118  1  0.12370557  0.37397918  0.87924166  1
  Co  Co119  1  0.38050696  0.37522006  0.87300129  1
  Co  Co120  1  0.37662449  0.12593378  0.87123775  1
  Co  Co121  1  0.25532369  0.49970413  -0.00404532  1
  Co  Co122  1  0.63002284  0.62758388  0.62776161  1
  Co  Co123  1  0.37366275  0.87351152  0.87582245  1
  Co  Co124  1  0.37434934  0.12143309  0.12833723  1
  Co  Co125  1  0.74642001  0.24946144  0.24873483  1
  Co  Co126  1  0.00035238  0.25095894  0.49679965  1
  Co  Co127  1  0.37176313  0.62632443  0.62778996  1
