# generated using pymatgen
data_Fe45Co19
_symmetry_space_group_name_H-M   'P 1'
_cell_length_a   11.41495901
_cell_length_b   11.41572696
_cell_length_c   11.41487292
_cell_angle_alpha   89.99405706
_cell_angle_beta   90.00146194
_cell_angle_gamma   90.00036176
_symmetry_Int_Tables_number   1
_chemical_formula_structural   Fe45Co19
_chemical_formula_sum   'Fe90 Co38'
_cell_volume   1487.47271383
_cell_formula_units_Z   2
loop_
 _symmetry_equiv_pos_site_id
 _symmetry_equiv_pos_as_xyz
  1  'x, y, z'
loop_
 _atom_site_type_symbol
 _atom_site_label
 _atom_site_symmetry_multiplicity
 _atom_site_fract_x
 _atom_site_fract_y
 _atom_site_fract_z
 _atom_site_occupancy
  Fe  Fe0  1  0.36998161  0.37618466  0.62109577  1
  Fe  Fe1  1  0.37302765  0.87555584  0.37620679  1
  Fe  Fe2  1  -0.00146645  0.75147300  0.24918260  1
  Fe  Fe3  1  0.00506954  -0.00085641  0.00109024  1
  Fe  Fe4  1  0.00414244  0.24880822  0.50524052  1
  Fe  Fe5  1  0.25153535  0.74883802  0.25067797  1
  Fe  Fe6  1  0.62710977  0.37319837  0.12347510  1
  Fe  Fe7  1  0.87474843  0.87583125  0.12440297  1
  Fe  Fe8  1  0.12869960  0.62001592  0.62616512  1
  Fe  Fe9  1  0.37343548  0.12530492  0.87668076  1
  Fe  Fe10  1  0.49888690  0.75163950  0.24998124  1
  Fe  Fe11  1  0.37236885  0.62399098  0.62019288  1
  Fe  Fe12  1  0.00157201  0.49801253  0.00085477  1
  Fe  Fe13  1  0.62250678  0.62686766  0.87565171  1
  Fe  Fe14  1  0.00347928  0.49820357  0.50024376  1
  Fe  Fe15  1  0.62535752  0.37504921  0.62571918  1
  Fe  Fe16  1  0.24635688  0.00160839  0.49880444  1
  Fe  Fe17  1  0.62363877  0.37450418  0.37512403  1
  Fe  Fe18  1  0.87526907  0.12311182  0.12515672  1
  Fe  Fe19  1  0.49687210  0.49917331  0.75005839  1
  Fe  Fe20  1  0.50005175  -0.00085209  0.50045233  1
  Fe  Fe21  1  0.00509750  0.75201124  -0.00122760  1
  Fe  Fe22  1  0.37431895  0.37233288  0.87641957  1
  Fe  Fe23  1  0.62591099  0.87494983  0.37659234  1
  Fe  Fe24  1  0.24806637  0.00360529  0.24750600  1
  Fe  Fe25  1  0.24406578  0.00073270  0.00044742  1
  Fe  Fe26  1  0.87663610  0.37485828  0.37792857  1
  Fe  Fe27  1  0.74906274  0.50145169  -0.00082986  1
  Fe  Fe28  1  0.37185248  0.87585412  0.12337522  1
  Fe  Fe29  1  0.12429657  0.62554298  0.37401959  1
  Fe  Fe30  1  0.74808268  0.00204089  -0.00172491  1
  Fe  Fe31  1  -0.00025273  0.49808792  0.75021640  1
  Fe  Fe32  1  0.62647805  0.12467736  0.37469659  1
  Fe  Fe33  1  0.75190911  -0.00114663  0.50305661  1
  Fe  Fe34  1  0.75360465  0.24985278  0.25069440  1
  Fe  Fe35  1  0.12532430  0.37367418  0.87236615  1
  Fe  Fe36  1  -0.00067934  0.25108626  0.00110819  1
  Fe  Fe37  1  0.49808471  0.24950405  0.74867109  1
  Fe  Fe38  1  0.75007461  0.75099448  0.50610116  1
  Fe  Fe39  1  0.87683957  0.87503215  0.37762009  1
  Fe  Fe40  1  0.12313412  0.12907769  0.37003841  1
  Fe  Fe41  1  0.37456546  0.62519229  0.12196210  1
  Fe  Fe42  1  0.24786226  0.24810622  0.00309072  1
  Fe  Fe43  1  0.49800500  0.75100374  0.74740383  1
  Fe  Fe44  1  0.37125311  0.87468971  0.62348118  1
  Fe  Fe45  1  0.62684123  0.87515762  0.12456086  1
  Fe  Fe46  1  0.00051369  0.00543971  0.74870621  1
  Fe  Fe47  1  0.87697168  0.87493663  0.87327948  1
  Fe  Fe48  1  0.50047542  0.25026090  0.50075881  1
  Fe  Fe49  1  0.87632216  0.12390558  0.37791796  1
  Fe  Fe50  1  0.12589215  0.62501509  0.12624438  1
  Fe  Fe51  1  0.12469540  0.87561927  0.37192704  1
  Fe  Fe52  1  0.37604669  0.37524781  0.12405271  1
  Fe  Fe53  1  0.12431157  0.37241951  0.12998868  1
  Fe  Fe54  1  0.75223336  0.00117170  0.74829670  1
  Fe  Fe55  1  0.75129737  0.74901174  0.74709964  1
  Fe  Fe56  1  0.49756620  0.24813657  0.24820568  1
  Fe  Fe57  1  0.00336067  0.74796740  0.74954773  1
  Fe  Fe58  1  0.50227388  0.00120881  -0.00113579  1
  Fe  Fe59  1  0.75120035  0.50090335  0.25024819  1
  Fe  Fe60  1  0.87736996  0.62554569  0.87578989  1
  Fe  Fe61  1  0.50065420  0.00018430  0.24935716  1
  Fe  Fe62  1  0.37377131  0.12632089  0.37538753  1
  Fe  Fe63  1  0.62547517  0.12450307  0.62587623  1
  Fe  Fe64  1  0.75098174  0.74994880  0.24974733  1
  Fe  Fe65  1  0.87427910  0.37412994  0.87566198  1
  Fe  Fe66  1  0.12667080  0.87890379  0.62866051  1
  Fe  Fe67  1  0.75183645  0.24823225  0.75012220  1
  Fe  Fe68  1  0.62582519  0.87434722  0.87294548  1
  Fe  Fe69  1  0.87704816  0.12657680  0.87480117  1
  Fe  Fe70  1  0.50262861  0.24694862  0.00020994  1
  Fe  Fe71  1  0.25092286  0.49640543  0.25458482  1
  Fe  Fe72  1  0.24903946  0.49949805  -0.00145205  1
  Fe  Fe73  1  0.00403837  0.75152571  0.50308847  1
  Fe  Fe74  1  0.87597905  0.62629565  0.37864129  1
  Fe  Fe75  1  0.75061818  0.50235835  0.74901674  1
  Fe  Fe76  1  0.37655637  0.62501379  0.37947819  1
  Fe  Fe77  1  0.74933688  0.50030337  0.50198482  1
  Fe  Fe78  1  0.49681213  0.00049320  0.75020813  1
  Fe  Fe79  1  0.87607153  0.62528277  0.12296328  1
  Fe  Fe80  1  0.87542301  0.37366946  0.62488225  1
  Fe  Fe81  1  0.62328155  0.62724484  0.12202921  1
  Fe  Fe82  1  0.37185152  0.12541539  0.62249428  1
  Fe  Fe83  1  0.62346282  0.62587692  0.37870531  1
  Fe  Fe84  1  -0.00235160  0.49835962  0.25039115  1
  Fe  Fe85  1  0.49974647  0.50011545  0.24990436  1
  Fe  Fe86  1  0.37464257  0.62699607  0.87834842  1
  Fe  Fe87  1  0.37044269  0.87404034  0.87586254  1
  Fe  Fe88  1  0.62544123  0.37319503  0.87527543  1
  Fe  Fe89  1  0.24780221  0.24807373  0.74864585  1
  Co  Co90  1  0.25400489  0.50040412  0.75372763  1
  Co  Co91  1  0.24635954  0.49632301  0.49297741  1
  Co  Co92  1  0.24516302  0.75018314  -0.00174160  1
  Co  Co93  1  0.24616606  0.75127764  0.49984843  1
  Co  Co94  1  0.62384971  0.87757269  0.62709768  1
  Co  Co95  1  0.37777934  0.37347853  0.37665131  1
  Co  Co96  1  0.75213639  -0.00075977  0.25178741  1
  Co  Co97  1  0.50057876  0.49801393  -0.00171472  1
  Co  Co98  1  0.50041297  0.49685960  0.50123328  1
  Co  Co99  1  0.12429300  0.62164795  0.87443455  1
  Co  Co100  1  0.62626172  0.12495404  0.12792598  1
  Co  Co101  1  0.75153010  0.75057601  -0.00174427  1
  Co  Co102  1  0.62379519  0.12521331  0.87048753  1
  Co  Co103  1  0.12237723  0.12883733  0.12843901  1
  Co  Co104  1  0.62209055  0.62420218  0.62458070  1
  Co  Co105  1  0.87969510  0.87568153  0.62697015  1
  Co  Co106  1  0.87808983  0.62427812  0.62423359  1
  Co  Co107  1  0.75033769  0.24635582  -0.00105039  1
  Co  Co108  1  0.24642432  0.25152650  0.49840044  1
  Co  Co109  1  0.12159142  0.36925778  0.37019760  1
  Co  Co110  1  0.12833746  0.37791579  0.62870577  1
  Co  Co111  1  0.00264405  0.00121240  0.49962234  1
  Co  Co112  1  0.49940416  0.75379954  0.00032448  1
  Co  Co113  1  0.24959744  0.74723045  0.75019909  1
  Co  Co114  1  0.12509249  0.12702649  0.87478738  1
  Co  Co115  1  0.50001276  0.75355524  0.50113955  1
  Co  Co116  1  0.25227119  0.00312872  0.75119820  1
  Co  Co117  1  0.87392479  0.12625524  0.62325844  1
  Co  Co118  1  0.12807257  0.12315643  0.62688358  1
  Co  Co119  1  0.12643634  0.87332432  0.12910233  1
  Co  Co120  1  0.87211211  0.37645066  0.12271028  1
  Co  Co121  1  0.25529421  0.25033239  0.24922748  1
  Co  Co122  1  -0.00765465  0.25060961  0.24820925  1
  Co  Co123  1  0.12578508  0.87745696  0.86922245  1
  Co  Co124  1  0.37527360  0.12233426  0.12242819  1
  Co  Co125  1  0.00054235  0.24934018  0.74776462  1
  Co  Co126  1  0.74889468  0.25069727  0.49963923  1
  Co  Co127  1  -0.00087366  -0.00079060  0.25005493  1
