# generated using pymatgen
data_Fe45Co19
_symmetry_space_group_name_H-M   'P 1'
_cell_length_a   11.41543547
_cell_length_b   11.41497758
_cell_length_c   11.41448657
_cell_angle_alpha   90.00201677
_cell_angle_beta   90.00274606
_cell_angle_gamma   90.00449227
_symmetry_Int_Tables_number   1
_chemical_formula_structural   Fe45Co19
_chemical_formula_sum   'Fe90 Co38'
_cell_volume   1487.38680898
_cell_formula_units_Z   2
loop_
 _symmetry_equiv_pos_site_id
 _symmetry_equiv_pos_as_xyz
  1  'x, y, z'
loop_
 _atom_site_type_symbol
 _atom_site_label
 _atom_site_symmetry_multiplicity
 _atom_site_fract_x
 _atom_site_fract_y
 _atom_site_fract_z
 _atom_site_occupancy
  Fe  Fe0  1  0.12580550  0.12968766  0.62313583  1
  Fe  Fe1  1  0.12345901  0.62352008  0.87304952  1
  Fe  Fe2  1  0.87806357  0.12330248  0.37497134  1
  Fe  Fe3  1  0.87548017  0.87545797  0.37424038  1
  Fe  Fe4  1  0.24845601  0.24953937  0.25432317  1
  Fe  Fe5  1  0.74830136  0.24742200  0.75276045  1
  Fe  Fe6  1  0.49869430  0.00269253  0.00146495  1
  Fe  Fe7  1  0.37505254  0.87303414  0.37982242  1
  Fe  Fe8  1  0.87433773  0.37083401  0.12593951  1
  Fe  Fe9  1  0.74992928  0.49755362  0.24851759  1
  Fe  Fe10  1  0.37676447  0.12566585  0.87118333  1
  Fe  Fe11  1  0.50052857  0.49902480  0.74788345  1
  Fe  Fe12  1  0.25090067  0.50046440  0.24869213  1
  Fe  Fe13  1  0.00178338  0.24854889  0.25320408  1
  Fe  Fe14  1  0.25164568  0.00006805  0.24949733  1
  Fe  Fe15  1  -0.00396232  0.49599816  0.74486217  1
  Fe  Fe16  1  0.87497552  0.87676805  0.62604697  1
  Fe  Fe17  1  -0.00089082  0.75238784  0.75209869  1
  Fe  Fe18  1  0.37646659  0.37310248  0.87154435  1
  Fe  Fe19  1  0.49839496  0.24987002  0.00156321  1
  Fe  Fe20  1  0.87440514  0.62281991  0.87299555  1
  Fe  Fe21  1  0.25103640  0.75294780  0.75099983  1
  Fe  Fe22  1  0.62610087  0.12788781  0.12768035  1
  Fe  Fe23  1  -0.00086010  0.49827654  0.00022318  1
  Fe  Fe24  1  0.62828786  0.62694135  0.62647124  1
  Fe  Fe25  1  0.50001989  0.00187788  0.50347640  1
  Fe  Fe26  1  0.87432245  0.37385243  0.87240616  1
  Fe  Fe27  1  0.87652702  0.12815028  0.62473743  1
  Fe  Fe28  1  0.62850042  0.62636783  0.37586484  1
  Fe  Fe29  1  0.75434887  0.50048845  0.50497127  1
  Fe  Fe30  1  0.24994573  0.75171680  -0.00328159  1
  Fe  Fe31  1  0.37576238  0.37517185  0.37678683  1
  Fe  Fe32  1  0.12883119  0.12542293  0.12327747  1
  Fe  Fe33  1  0.62321605  0.87765701  0.87642692  1
  Fe  Fe34  1  0.25094845  0.49800169  -0.00021532  1
  Fe  Fe35  1  -0.00229486  0.75070632  -0.00041699  1
  Fe  Fe36  1  0.37475460  0.87399692  0.12356140  1
  Fe  Fe37  1  0.12495318  0.87670255  0.12112619  1
  Fe  Fe38  1  -0.00014543  0.24705923  -0.00299337  1
  Fe  Fe39  1  0.00051783  0.00125056  0.24670477  1
  Fe  Fe40  1  0.12537560  0.37451566  0.87285731  1
  Fe  Fe41  1  0.74991282  0.49831464  -0.00016613  1
  Fe  Fe42  1  0.74900531  0.24704864  0.49656332  1
  Fe  Fe43  1  0.62483949  0.37462060  0.37646706  1
  Fe  Fe44  1  0.87631347  0.37535225  0.37665117  1
  Fe  Fe45  1  0.62657569  0.87571236  0.12549357  1
  Fe  Fe46  1  0.50040138  0.50054028  0.24848424  1
  Fe  Fe47  1  0.12289976  0.87733192  0.37564023  1
  Fe  Fe48  1  0.87408124  0.62611430  0.37615618  1
  Fe  Fe49  1  0.62694773  0.62411855  0.12565728  1
  Fe  Fe50  1  0.49982479  0.74867895  0.25160075  1
  Fe  Fe51  1  0.12534079  0.62493164  0.12298776  1
  Fe  Fe52  1  0.12262672  0.62530128  0.62542811  1
  Fe  Fe53  1  0.37394662  0.62687163  0.62219625  1
  Fe  Fe54  1  0.25008308  0.49719996  0.74747974  1
  Fe  Fe55  1  0.75089508  0.24639649  -0.00160165  1
  Fe  Fe56  1  0.49949668  0.49948532  0.00171490  1
  Fe  Fe57  1  0.62605544  0.62439509  0.87334639  1
  Fe  Fe58  1  0.12485215  0.87502012  0.62499199  1
  Fe  Fe59  1  0.12500476  0.37283503  0.12524096  1
  Fe  Fe60  1  0.74708503  0.00285917  0.75208572  1
  Fe  Fe61  1  0.49799829  0.75269553  0.74754990  1
  Fe  Fe62  1  0.37416104  0.37324651  0.12656211  1
  Fe  Fe63  1  0.25183402  -0.00332513  0.75132375  1
  Fe  Fe64  1  0.37505874  0.62512114  0.87490958  1
  Fe  Fe65  1  0.50178521  0.25044521  0.25070877  1
  Fe  Fe66  1  0.37383790  0.62631127  0.37784842  1
  Fe  Fe67  1  0.62598953  0.87493994  0.37566082  1
  Fe  Fe68  1  0.75034240  0.00178636  0.24942094  1
  Fe  Fe69  1  -0.00097917  0.75108495  0.50080362  1
  Fe  Fe70  1  0.24945653  0.75050897  0.25112851  1
  Fe  Fe71  1  0.00193504  0.00306575  0.74981079  1
  Fe  Fe72  1  0.24877207  0.00073583  0.50009664  1
  Fe  Fe73  1  0.62721132  0.37316147  0.62545973  1
  Fe  Fe74  1  0.50119589  0.50096353  0.50186498  1
  Fe  Fe75  1  0.49831650  0.00049835  0.24958262  1
  Fe  Fe76  1  0.75254511  0.75106725  0.00156282  1
  Fe  Fe77  1  0.62529969  0.87632127  0.62448627  1
  Fe  Fe78  1  0.12310805  0.62259010  0.37625558  1
  Fe  Fe79  1  0.37536117  0.12523796  0.37615083  1
  Fe  Fe80  1  0.49903870  0.24745276  0.50412416  1
  Fe  Fe81  1  0.62342795  0.37407881  0.87395640  1
  Fe  Fe82  1  0.24695925  0.49601264  0.50191845  1
  Fe  Fe83  1  0.75128665  0.75212321  0.75148207  1
  Fe  Fe84  1  0.75078135  0.00087546  0.49933704  1
  Fe  Fe85  1  0.49989477  0.74822947  0.00095504  1
  Fe  Fe86  1  -0.00116170  0.50020725  0.24853255  1
  Fe  Fe87  1  -0.00217955  0.74978525  0.24703074  1
  Fe  Fe88  1  0.87617469  0.88166753  0.87779962  1
  Fe  Fe89  1  0.12848548  0.12418873  0.87550455  1
  Co  Co90  1  0.75146064  0.75121027  0.24801455  1
  Co  Co91  1  0.87429705  0.62259722  0.12413812  1
  Co  Co92  1  0.37919117  0.87573450  0.87567078  1
  Co  Co93  1  0.50128714  0.24926100  0.74532217  1
  Co  Co94  1  0.12477405  0.12040924  0.37566000  1
  Co  Co95  1  0.62230190  0.12354457  0.37493722  1
  Co  Co96  1  0.37382924  0.87466447  0.62123745  1
  Co  Co97  1  0.74985779  0.24920792  0.25440859  1
  Co  Co98  1  0.37465450  0.37380091  0.62413968  1
  Co  Co99  1  0.12395460  0.37946849  0.37408981  1
  Co  Co100  1  0.50359239  0.74957549  0.50030729  1
  Co  Co101  1  0.25008486  0.25253616  0.74915820  1
  Co  Co102  1  0.75093980  0.75239064  0.50110176  1
  Co  Co103  1  0.87494987  0.62890771  0.62709195  1
  Co  Co104  1  0.87480107  0.12099752  0.87388075  1
  Co  Co105  1  0.49968809  -0.00043708  0.74699199  1
  Co  Co106  1  0.00045155  0.24739718  0.75465545  1
  Co  Co107  1  0.37347312  0.12708238  0.12691242  1
  Co  Co108  1  0.25140392  0.25129904  -0.00241891  1
  Co  Co109  1  0.87526748  0.36551695  0.62457987  1
  Co  Co110  1  0.00082595  0.00456797  0.00104819  1
  Co  Co111  1  0.24864026  0.25105295  0.49647012  1
  Co  Co112  1  0.12150002  0.36993730  0.62480095  1
  Co  Co113  1  0.74770761  0.00390675  0.00125580  1
  Co  Co114  1  0.62004943  0.12513518  0.87505832  1
  Co  Co115  1  0.25360755  0.00021347  -0.00175848  1
  Co  Co116  1  0.87462493  0.12699149  0.12663836  1
  Co  Co117  1  0.62653000  0.37247654  0.12483374  1
  Co  Co118  1  0.24473650  0.75029444  0.49950860  1
  Co  Co119  1  0.37069765  0.12493795  0.62697992  1
  Co  Co120  1  0.12225978  0.87714387  0.87676190  1
  Co  Co121  1  0.75122133  0.49780103  0.74768575  1
  Co  Co122  1  0.00361234  0.25058617  0.49450759  1
  Co  Co123  1  0.62761785  0.12440332  0.62504525  1
  Co  Co124  1  -0.00038828  -0.00002012  0.50256237  1
  Co  Co125  1  0.37352432  0.62623481  0.12424769  1
  Co  Co126  1  0.87486823  0.87898534  0.12319892  1
  Co  Co127  1  -0.00276034  0.49922717  0.50456993  1
