# generated using pymatgen
data_Fe45Co19
_symmetry_space_group_name_H-M   'P 1'
_cell_length_a   11.41637332
_cell_length_b   11.41404695
_cell_length_c   11.41591727
_cell_angle_alpha   89.99437486
_cell_angle_beta   89.99490635
_cell_angle_gamma   89.99333946
_symmetry_Int_Tables_number   1
_chemical_formula_structural   Fe45Co19
_chemical_formula_sum   'Fe90 Co38'
_cell_volume   1487.57414838
_cell_formula_units_Z   2
loop_
 _symmetry_equiv_pos_site_id
 _symmetry_equiv_pos_as_xyz
  1  'x, y, z'
loop_
 _atom_site_type_symbol
 _atom_site_label
 _atom_site_symmetry_multiplicity
 _atom_site_fract_x
 _atom_site_fract_y
 _atom_site_fract_z
 _atom_site_occupancy
  Fe  Fe0  1  0.37761649  0.37617311  0.87359102  1
  Fe  Fe1  1  0.00030240  0.75067389  0.25066836  1
  Fe  Fe2  1  0.75116990  0.25230986  0.75117319  1
  Fe  Fe3  1  0.24915531  0.50129499  0.24984458  1
  Fe  Fe4  1  0.50068531  0.25047688  0.00089877  1
  Fe  Fe5  1  0.75177839  0.74868639  -0.00127773  1
  Fe  Fe6  1  0.87579752  0.37348065  0.37620715  1
  Fe  Fe7  1  0.75200296  0.74866230  0.75136109  1
  Fe  Fe8  1  0.00023148  0.25070961  0.00124473  1
  Fe  Fe9  1  0.37401264  0.37524670  0.12504314  1
  Fe  Fe10  1  0.24861843  -0.00023951  0.25148507  1
  Fe  Fe11  1  0.87732363  0.87646920  0.87491817  1
  Fe  Fe12  1  0.74902545  0.24772133  0.25077874  1
  Fe  Fe13  1  0.87844326  0.38010743  0.87204346  1
  Fe  Fe14  1  0.62261506  0.12550851  0.87478972  1
  Fe  Fe15  1  0.50074131  -0.00021292  0.50133749  1
  Fe  Fe16  1  0.87207058  0.87848718  0.12407345  1
  Fe  Fe17  1  0.37614463  0.37525494  0.37536478  1
  Fe  Fe18  1  0.37695600  0.87489876  0.37500164  1
  Fe  Fe19  1  0.87320961  0.62023592  0.62651167  1
  Fe  Fe20  1  0.87590478  0.87806488  0.37678039  1
  Fe  Fe21  1  0.37549917  0.12292475  0.12360562  1
  Fe  Fe22  1  0.37122090  0.12793118  0.62765069  1
  Fe  Fe23  1  0.00034392  0.00101529  0.24842550  1
  Fe  Fe24  1  0.24898479  0.74875322  0.25200972  1
  Fe  Fe25  1  0.12443754  0.62454152  0.12603644  1
  Fe  Fe26  1  0.87823613  0.12353753  0.87365069  1
  Fe  Fe27  1  0.49893670  0.25209704  0.50276260  1
  Fe  Fe28  1  0.75011537  0.25334584  -0.00267043  1
  Fe  Fe29  1  0.12567545  0.87235370  0.62334934  1
  Fe  Fe30  1  0.37460365  0.62447332  0.87518836  1
  Fe  Fe31  1  0.50059819  0.49973470  0.50199111  1
  Fe  Fe32  1  0.50040928  0.24942529  0.24810268  1
  Fe  Fe33  1  0.12318751  0.87518456  0.87475275  1
  Fe  Fe34  1  0.50246755  0.49914210  0.00232595  1
  Fe  Fe35  1  0.25109873  0.00140825  -0.00302531  1
  Fe  Fe36  1  0.75033454  0.49901731  0.24594608  1
  Fe  Fe37  1  -0.00009850  0.49900018  0.24809102  1
  Fe  Fe38  1  0.37515828  0.87514656  0.12300486  1
  Fe  Fe39  1  0.12049017  0.62273077  0.87549462  1
  Fe  Fe40  1  0.62621811  0.12444698  0.62640127  1
  Fe  Fe41  1  0.12255412  0.12582524  0.87222179  1
  Fe  Fe42  1  -0.00058660  0.49893676  0.50121755  1
  Fe  Fe43  1  0.50055412  0.74910091  0.75195299  1
  Fe  Fe44  1  0.12368241  0.37207879  0.37625399  1
  Fe  Fe45  1  0.62711132  0.62339184  0.62590034  1
  Fe  Fe46  1  0.24876624  0.74875933  -0.00107148  1
  Fe  Fe47  1  -0.00334309  0.49884270  0.00527915  1
  Fe  Fe48  1  0.37263625  0.62516641  0.62707936  1
  Fe  Fe49  1  0.25098845  0.24978828  0.25123771  1
  Fe  Fe50  1  0.37559925  0.62502591  0.37448160  1
  Fe  Fe51  1  0.87418180  0.87858631  0.62415484  1
  Fe  Fe52  1  0.75203636  0.24982171  0.50124085  1
  Fe  Fe53  1  0.49907503  0.74914389  0.50169907  1
  Fe  Fe54  1  0.62585564  0.62585855  0.37437417  1
  Fe  Fe55  1  0.62685255  0.12199654  0.12213285  1
  Fe  Fe56  1  0.12586387  0.87564604  0.12350752  1
  Fe  Fe57  1  0.24995941  -0.00041374  0.75255416  1
  Fe  Fe58  1  0.74889883  0.75270644  0.24967204  1
  Fe  Fe59  1  0.50191820  0.75034417  0.24659910  1
  Fe  Fe60  1  0.62625063  0.87491983  0.62593241  1
  Fe  Fe61  1  0.75211211  0.74844324  0.50008261  1
  Fe  Fe62  1  0.00029388  0.24882384  0.24923162  1
  Fe  Fe63  1  0.62751390  0.62158476  0.87630698  1
  Fe  Fe64  1  0.75026107  -0.00008533  0.75361927  1
  Fe  Fe65  1  0.00182582  0.00706034  0.50380077  1
  Fe  Fe66  1  0.25034972  0.49981659  0.49876250  1
  Fe  Fe67  1  0.74715638  0.00281297  0.49597563  1
  Fe  Fe68  1  0.62493977  0.37440090  0.37409716  1
  Fe  Fe69  1  0.50090392  0.50104891  0.24679131  1
  Fe  Fe70  1  0.24938458  0.00246033  0.49947490  1
  Fe  Fe71  1  0.50576758  -0.00144422  0.25037720  1
  Fe  Fe72  1  0.12640773  0.62883918  0.62098748  1
  Fe  Fe73  1  0.37243980  0.87213691  0.62754604  1
  Fe  Fe74  1  0.87261464  0.12292943  0.12460188  1
  Fe  Fe75  1  0.62788234  0.37836703  0.62699391  1
  Fe  Fe76  1  0.12808257  0.36955778  0.62295121  1
  Fe  Fe77  1  0.24900679  0.25151745  -0.00307559  1
  Fe  Fe78  1  0.12614101  0.12599626  0.12439072  1
  Fe  Fe79  1  0.49834720  -0.00151593  0.75320694  1
  Fe  Fe80  1  0.24811213  0.49778456  -0.00014019  1
  Fe  Fe81  1  0.37750926  0.12417903  0.37485421  1
  Fe  Fe82  1  0.12287869  0.87421255  0.37883851  1
  Fe  Fe83  1  0.49920917  0.25292271  0.74852554  1
  Fe  Fe84  1  -0.00110194  0.74924287  0.74832638  1
  Fe  Fe85  1  0.50148712  0.75165744  -0.00000426  1
  Fe  Fe86  1  -0.00191021  0.25045560  0.74495680  1
  Fe  Fe87  1  -0.00123184  0.75010558  0.00122940  1
  Fe  Fe88  1  0.87574815  0.62352361  0.37372332  1
  Fe  Fe89  1  0.24738473  0.49836233  0.75094063  1
  Co  Co90  1  0.49945754  0.50086382  0.74854731  1
  Co  Co91  1  -0.00313258  0.24665875  0.50399787  1
  Co  Co92  1  0.62230898  0.12897454  0.37738507  1
  Co  Co93  1  0.62812491  0.87786687  0.12153737  1
  Co  Co94  1  0.25283612  0.75026872  0.49641939  1
  Co  Co95  1  0.12598391  0.37417482  0.12598622  1
  Co  Co96  1  0.74927847  0.50002885  0.49757254  1
  Co  Co97  1  0.87463627  0.62760492  0.12636659  1
  Co  Co98  1  0.62409238  0.87104546  0.37840236  1
  Co  Co99  1  0.87655595  0.12539922  0.37432266  1
  Co  Co100  1  0.25235773  0.24746988  0.49554315  1
  Co  Co101  1  -0.00535564  0.74821297  0.50137014  1
  Co  Co102  1  0.25059707  0.25395242  0.75619972  1
  Co  Co103  1  0.12256176  0.62532515  0.37627884  1
  Co  Co104  1  0.49894755  -0.00169747  -0.00350398  1
  Co  Co105  1  0.00048975  0.00074056  0.00128414  1
  Co  Co106  1  0.74900874  0.49948464  0.75361712  1
  Co  Co107  1  0.87798511  0.62107681  0.87439275  1
  Co  Co108  1  0.24691418  0.74806196  0.75291491  1
  Co  Co109  1  0.74681259  0.00051363  0.25471134  1
  Co  Co110  1  0.87106508  0.12268046  0.62660021  1
  Co  Co111  1  0.62588231  0.37389159  0.12556476  1
  Co  Co112  1  0.87220061  0.37786479  0.62541888  1
  Co  Co113  1  0.37162620  0.37502519  0.62557412  1
  Co  Co114  1  0.11869509  0.37648604  0.87474357  1
  Co  Co115  1  0.75089375  0.00176679  -0.00488669  1
  Co  Co116  1  0.00152763  -0.00057376  0.74730024  1
  Co  Co117  1  0.12366789  0.12675533  0.37360115  1
  Co  Co118  1  0.00463404  0.50083960  0.74285582  1
  Co  Co119  1  0.87444108  0.37080235  0.12650719  1
  Co  Co120  1  0.37384706  0.62540657  0.12327728  1
  Co  Co121  1  0.37393612  0.87162310  0.87493178  1
  Co  Co122  1  0.62329489  0.37642785  0.87405940  1
  Co  Co123  1  0.62721516  0.62517414  0.12341034  1
  Co  Co124  1  0.62622834  0.87416488  0.87419842  1
  Co  Co125  1  0.75286199  0.49711229  0.00166709  1
  Co  Co126  1  0.13024170  0.12950656  0.62872334  1
  Co  Co127  1  0.37718677  0.12807678  0.87438226  1
