# generated using pymatgen
data_Fe45Co19
_symmetry_space_group_name_H-M   'P 1'
_cell_length_a   11.41655069
_cell_length_b   11.41578055
_cell_length_c   11.41452565
_cell_angle_alpha   90.00253085
_cell_angle_beta   89.99782139
_cell_angle_gamma   90.00517843
_symmetry_Int_Tables_number   1
_chemical_formula_structural   Fe45Co19
_chemical_formula_sum   'Fe90 Co38'
_cell_volume   1487.64184787
_cell_formula_units_Z   2
loop_
 _symmetry_equiv_pos_site_id
 _symmetry_equiv_pos_as_xyz
  1  'x, y, z'
loop_
 _atom_site_type_symbol
 _atom_site_label
 _atom_site_symmetry_multiplicity
 _atom_site_fract_x
 _atom_site_fract_y
 _atom_site_fract_z
 _atom_site_occupancy
  Fe  Fe0  1  0.37523261  0.87671771  0.62352687  1
  Fe  Fe1  1  0.12679885  0.87718964  0.12457629  1
  Fe  Fe2  1  0.37288588  0.37578846  0.61955242  1
  Fe  Fe3  1  0.24942599  0.49681990  0.25078788  1
  Fe  Fe4  1  0.12229603  0.62432260  0.37403535  1
  Fe  Fe5  1  0.00137551  0.75007008  0.00124942  1
  Fe  Fe6  1  0.62506135  0.86791995  0.87225389  1
  Fe  Fe7  1  -0.00040468  0.49760304  0.24976622  1
  Fe  Fe8  1  0.50152800  -0.00267089  0.75239973  1
  Fe  Fe9  1  0.37675952  0.12442438  0.62518249  1
  Fe  Fe10  1  0.62595827  0.37321128  0.12583149  1
  Fe  Fe11  1  0.25090860  0.75062432  0.24797912  1
  Fe  Fe12  1  0.87486918  0.62285693  0.12394458  1
  Fe  Fe13  1  0.25096747  0.00045227  0.75317711  1
  Fe  Fe14  1  0.75245140  0.74801145  0.24883278  1
  Fe  Fe15  1  0.62591373  0.37512578  0.87554250  1
  Fe  Fe16  1  0.87453177  0.37319845  0.12224481  1
  Fe  Fe17  1  0.62464222  0.37473759  0.37494698  1
  Fe  Fe18  1  0.25181724  0.24901236  0.75003654  1
  Fe  Fe19  1  0.75037016  0.74845624  0.49846633  1
  Fe  Fe20  1  0.37949313  0.62670851  0.88070445  1
  Fe  Fe21  1  0.24982240  0.24694061  0.00141518  1
  Fe  Fe22  1  0.12467221  0.87730947  0.37244677  1
  Fe  Fe23  1  0.50381315  0.00015172  0.49795877  1
  Fe  Fe24  1  0.12519915  0.62614034  0.62535667  1
  Fe  Fe25  1  0.37575411  0.87434952  0.88327165  1
  Fe  Fe26  1  0.75153402  0.50235609  0.75335426  1
  Fe  Fe27  1  0.24988890  0.74939542  0.49866992  1
  Fe  Fe28  1  0.87230126  0.87473139  0.87713724  1
  Fe  Fe29  1  0.74539092  0.74259545  0.00036914  1
  Fe  Fe30  1  0.00137411  0.24838833  -0.00131503  1
  Fe  Fe31  1  0.12497450  0.87545900  0.62630905  1
  Fe  Fe32  1  0.87343036  0.37614635  0.62271667  1
  Fe  Fe33  1  0.37535481  0.87462375  0.37525310  1
  Fe  Fe34  1  0.12729613  0.37544523  0.62148814  1
  Fe  Fe35  1  0.62438793  0.62422223  0.37148677  1
  Fe  Fe36  1  0.37448942  0.37492174  0.87852500  1
  Fe  Fe37  1  0.25238477  0.25199992  0.25164339  1
  Fe  Fe38  1  0.49801951  0.49591853  0.24933703  1
  Fe  Fe39  1  0.25236580  0.75077242  0.75271147  1
  Fe  Fe40  1  0.87309001  0.12540008  0.87300594  1
  Fe  Fe41  1  0.12274631  0.12548521  0.12821845  1
  Fe  Fe42  1  0.62412631  0.12736345  0.36955692  1
  Fe  Fe43  1  0.62715109  0.87518619  0.37169223  1
  Fe  Fe44  1  0.62640016  0.87300536  0.62686161  1
  Fe  Fe45  1  0.00064347  0.00155310  0.49816830  1
  Fe  Fe46  1  0.75258941  0.49743984  0.25025419  1
  Fe  Fe47  1  0.74283349  0.00547981  -0.00141582  1
  Fe  Fe48  1  0.87546384  0.37554449  0.37861941  1
  Fe  Fe49  1  0.49856517  0.49856025  0.74986981  1
  Fe  Fe50  1  0.37757247  0.62419198  0.37458802  1
  Fe  Fe51  1  0.74898090  0.24885514  0.49945721  1
  Fe  Fe52  1  0.87144420  0.87698503  0.12142531  1
  Fe  Fe53  1  0.62588612  0.12520177  0.62916544  1
  Fe  Fe54  1  0.12604982  0.87658170  0.87598149  1
  Fe  Fe55  1  0.50040007  0.25030549  0.49957240  1
  Fe  Fe56  1  0.87368516  0.87771446  0.37450910  1
  Fe  Fe57  1  0.00178470  0.49778007  0.00089598  1
  Fe  Fe58  1  0.38281766  0.12247168  0.12363038  1
  Fe  Fe59  1  0.49984724  0.75484312  0.24397887  1
  Fe  Fe60  1  0.87468791  0.62377395  0.62364432  1
  Fe  Fe61  1  0.37969672  0.12384706  0.87812431  1
  Fe  Fe62  1  0.50113187  0.75011685  0.49993694  1
  Fe  Fe63  1  0.12336525  0.62405907  0.87526209  1
  Fe  Fe64  1  0.25295006  -0.00001330  0.24786275  1
  Fe  Fe65  1  0.00114471  0.00225495  -0.00079550  1
  Fe  Fe66  1  0.87306996  0.37492066  0.87744826  1
  Fe  Fe67  1  0.87148180  0.12224193  0.62644865  1
  Fe  Fe68  1  0.37519358  0.62459781  0.62351727  1
  Fe  Fe69  1  -0.00219810  0.75226792  0.24794397  1
  Fe  Fe70  1  -0.00305140  0.24860927  0.25225431  1
  Fe  Fe71  1  -0.00194301  0.74997082  0.49792225  1
  Fe  Fe72  1  0.37558385  0.62478684  0.12213288  1
  Fe  Fe73  1  0.12723053  0.37313941  0.87608807  1
  Fe  Fe74  1  0.00179735  0.24690262  0.49902758  1
  Fe  Fe75  1  -0.00317690  0.75179147  0.75154568  1
  Fe  Fe76  1  0.24961565  0.00177239  0.49891032  1
  Fe  Fe77  1  0.62466899  0.62653463  0.62849380  1
  Fe  Fe78  1  0.25127874  0.50073982  0.75170388  1
  Fe  Fe79  1  0.12541442  0.62307430  0.12500547  1
  Fe  Fe80  1  0.37466186  0.37564995  0.12129562  1
  Fe  Fe81  1  -0.00142555  0.25033389  0.74947763  1
  Fe  Fe82  1  0.37697854  0.12545270  0.37420904  1
  Fe  Fe83  1  0.75290124  0.00598524  0.24826599  1
  Fe  Fe84  1  -0.00073546  0.49803874  0.74974800  1
  Fe  Fe85  1  0.74580409  0.24684147  0.00198558  1
  Fe  Fe86  1  0.87240951  0.87834687  0.62509259  1
  Fe  Fe87  1  0.62671935  0.37616336  0.62484499  1
  Fe  Fe88  1  0.12564318  0.12383428  0.62778912  1
  Fe  Fe89  1  0.49902439  0.25298807  0.74992612  1
  Co  Co90  1  0.37444925  0.37649217  0.38118560  1
  Co  Co91  1  0.61918903  0.62683740  0.87095950  1
  Co  Co92  1  0.37224938  0.87629444  0.11887198  1
  Co  Co93  1  0.61932323  0.12746552  0.13073799  1
  Co  Co94  1  0.24856511  0.49983213  0.00018937  1
  Co  Co95  1  0.24764901  0.00541801  0.00088207  1
  Co  Co96  1  0.74576204  0.00123461  0.49888483  1
  Co  Co97  1  0.12474999  0.12696622  0.87237544  1
  Co  Co98  1  0.87554112  0.12589582  0.12111528  1
  Co  Co99  1  0.50235452  0.25205804  0.00017460  1
  Co  Co100  1  0.50613508  0.75183243  0.00829582  1
  Co  Co101  1  -0.00436014  -0.00072070  0.24794387  1
  Co  Co102  1  0.50260053  0.50121088  0.50088787  1
  Co  Co103  1  0.12440171  0.37204726  0.12527159  1
  Co  Co104  1  0.74815369  0.50232141  0.49875107  1
  Co  Co105  1  0.24728617  0.74737401  0.00061667  1
  Co  Co106  1  0.75112986  0.25206078  0.75003938  1
  Co  Co107  1  0.12370823  0.37438355  0.37653560  1
  Co  Co108  1  0.75386335  0.24984501  0.24921279  1
  Co  Co109  1  0.49904118  -0.00534277  0.24938687  1
  Co  Co110  1  0.62178179  0.12929190  0.87075159  1
  Co  Co111  1  0.50890991  -0.00346671  0.00043033  1
  Co  Co112  1  0.87395707  0.12409385  0.37746423  1
  Co  Co113  1  0.50336790  0.49907380  0.00114634  1
  Co  Co114  1  0.75570305  0.74722609  0.75060362  1
  Co  Co115  1  0.49569528  0.25569452  0.25090412  1
  Co  Co116  1  0.63192370  0.87759567  0.12874811  1
  Co  Co117  1  0.12572590  0.12316843  0.37067268  1
  Co  Co118  1  0.00019860  0.50182520  0.50046007  1
  Co  Co119  1  0.87542172  0.62378195  0.37292070  1
  Co  Co120  1  0.24853735  0.50312312  0.49734957  1
  Co  Co121  1  0.24932579  0.24671016  0.49796478  1
  Co  Co122  1  0.49429080  0.75162310  0.74862143  1
  Co  Co123  1  -0.00171518  -0.00056584  0.75230397  1
  Co  Co124  1  0.74781388  -0.00121873  0.75288406  1
  Co  Co125  1  0.62448806  0.62102631  0.13017304  1
  Co  Co126  1  0.87833392  0.62359618  0.87855157  1
  Co  Co127  1  0.74711170  0.50249590  -0.00058805  1
