# generated using pymatgen
data_Fe45Co19
_symmetry_space_group_name_H-M   'P 1'
_cell_length_a   11.41587123
_cell_length_b   11.41523927
_cell_length_c   11.41468290
_cell_angle_alpha   90.00357553
_cell_angle_beta   89.99596720
_cell_angle_gamma   90.00644090
_symmetry_Int_Tables_number   1
_chemical_formula_structural   Fe45Co19
_chemical_formula_sum   'Fe90 Co38'
_cell_volume   1487.50326270
_cell_formula_units_Z   2
loop_
 _symmetry_equiv_pos_site_id
 _symmetry_equiv_pos_as_xyz
  1  'x, y, z'
loop_
 _atom_site_type_symbol
 _atom_site_label
 _atom_site_symmetry_multiplicity
 _atom_site_fract_x
 _atom_site_fract_y
 _atom_site_fract_z
 _atom_site_occupancy
  Fe  Fe0  1  0.00498316  0.75072119  0.24733411  1
  Fe  Fe1  1  0.62688975  0.12494664  0.37335593  1
  Fe  Fe2  1  0.75044760  0.50033265  -0.00137559  1
  Fe  Fe3  1  0.62235763  0.87377100  0.62223810  1
  Fe  Fe4  1  0.62323937  0.37793419  0.12433043  1
  Fe  Fe5  1  0.75361776  0.50231511  0.49918597  1
  Fe  Fe6  1  0.62779103  0.62856715  0.37866491  1
  Fe  Fe7  1  0.62255060  0.62580398  0.87660732  1
  Fe  Fe8  1  0.49796065  -0.00198377  -0.00088190  1
  Fe  Fe9  1  0.37424546  0.87242144  0.12681662  1
  Fe  Fe10  1  0.25246711  0.25302293  0.00378812  1
  Fe  Fe11  1  0.50067357  0.00151121  0.24938877  1
  Fe  Fe12  1  0.00178732  0.49943772  0.75237500  1
  Fe  Fe13  1  0.00207321  -0.00218406  0.75519587  1
  Fe  Fe14  1  0.25002975  -0.00070036  0.25070224  1
  Fe  Fe15  1  0.75074215  -0.00197465  0.25022520  1
  Fe  Fe16  1  0.62481102  0.37486931  0.37472815  1
  Fe  Fe17  1  0.87320299  0.12464773  0.12106459  1
  Fe  Fe18  1  0.24523210  0.74675168  0.00673955  1
  Fe  Fe19  1  0.87689200  0.87403157  0.12182284  1
  Fe  Fe20  1  0.12413548  0.87740766  0.37736125  1
  Fe  Fe21  1  0.75238650  0.49965184  0.25141829  1
  Fe  Fe22  1  0.00000091  0.74866709  0.50080232  1
  Fe  Fe23  1  0.87588266  0.62559282  0.62690700  1
  Fe  Fe24  1  0.37297479  0.12889982  0.37221947  1
  Fe  Fe25  1  0.49630080  0.50408170  0.75012151  1
  Fe  Fe26  1  0.13006226  0.62491385  0.87495923  1
  Fe  Fe27  1  0.12755632  0.12628912  0.87603201  1
  Fe  Fe28  1  0.87599486  0.62867633  0.87522174  1
  Fe  Fe29  1  0.00059644  0.25054086  0.00145733  1
  Fe  Fe30  1  0.12539734  0.12180493  0.12470769  1
  Fe  Fe31  1  0.37293457  0.12414963  0.62428693  1
  Fe  Fe32  1  0.62685060  0.12299437  0.12161303  1
  Fe  Fe33  1  0.74860779  0.74970956  0.24917970  1
  Fe  Fe34  1  0.25066685  0.49476687  0.49856540  1
  Fe  Fe35  1  0.25153596  0.75396331  0.50315516  1
  Fe  Fe36  1  0.24905463  0.25394882  0.74708144  1
  Fe  Fe37  1  0.87540175  0.12315153  0.62722817  1
  Fe  Fe38  1  0.00110168  0.50252722  -0.00198689  1
  Fe  Fe39  1  0.00263304  0.25012083  0.74978701  1
  Fe  Fe40  1  -0.00308863  0.49811812  0.25277810  1
  Fe  Fe41  1  -0.00077799  -0.00309724  -0.00420071  1
  Fe  Fe42  1  0.87356860  0.12831019  0.37421123  1
  Fe  Fe43  1  -0.00069157  0.00144696  0.25092454  1
  Fe  Fe44  1  0.74895680  0.50074574  0.75204356  1
  Fe  Fe45  1  0.12687823  0.12599251  0.37561325  1
  Fe  Fe46  1  0.74874040  0.74970437  0.00067329  1
  Fe  Fe47  1  0.00566626  0.75217794  0.75227552  1
  Fe  Fe48  1  0.74952906  0.00117364  0.75498485  1
  Fe  Fe49  1  0.12653899  0.62572491  0.37419420  1
  Fe  Fe50  1  0.87599389  0.37574410  0.62552831  1
  Fe  Fe51  1  0.25250509  0.49551647  0.75367863  1
  Fe  Fe52  1  0.37189962  0.86914113  0.87490249  1
  Fe  Fe53  1  0.49314525  0.50509705  0.00116635  1
  Fe  Fe54  1  0.37603452  0.37064776  0.37062072  1
  Fe  Fe55  1  0.49810560  0.50251778  0.50005750  1
  Fe  Fe56  1  0.12815164  0.62194372  0.62494112  1
  Fe  Fe57  1  0.62391688  0.87298301  0.87493878  1
  Fe  Fe58  1  0.24856248  -0.00465059  0.74858206  1
  Fe  Fe59  1  0.62465830  0.87553336  0.12478343  1
  Fe  Fe60  1  0.49975487  0.24895085  0.74883987  1
  Fe  Fe61  1  0.50010507  0.50395941  0.25021423  1
  Fe  Fe62  1  0.00155099  0.24952439  0.50124366  1
  Fe  Fe63  1  0.12430703  0.37811840  0.12479245  1
  Fe  Fe64  1  0.62372863  0.37784481  0.62544032  1
  Fe  Fe65  1  0.49751786  0.24857867  0.00365214  1
  Fe  Fe66  1  0.87578332  0.87242715  0.37422560  1
  Fe  Fe67  1  0.49960876  0.24983239  0.50034340  1
  Fe  Fe68  1  0.74912640  0.25040285  0.50233155  1
  Fe  Fe69  1  0.50209709  0.74763047  0.24904241  1
  Fe  Fe70  1  0.37176627  0.62785125  0.37385267  1
  Fe  Fe71  1  0.87695943  0.62527790  0.12585536  1
  Fe  Fe72  1  0.49938302  0.00023541  0.75244366  1
  Fe  Fe73  1  0.37391006  0.12633929  0.87413628  1
  Fe  Fe74  1  0.25255527  -0.00024258  0.00032290  1
  Fe  Fe75  1  -0.00119264  0.50072781  0.49771349  1
  Fe  Fe76  1  0.75095749  -0.00310826  0.49902881  1
  Fe  Fe77  1  0.12442126  0.37099207  0.37279443  1
  Fe  Fe78  1  0.49676666  0.74576037  0.74634396  1
  Fe  Fe79  1  0.61978364  0.37552253  0.87633455  1
  Fe  Fe80  1  0.74821861  0.24923000  0.75436150  1
  Fe  Fe81  1  0.25142302  0.50031662  0.24750553  1
  Fe  Fe82  1  0.87759088  0.87564595  0.62701478  1
  Fe  Fe83  1  0.74815537  0.74873550  0.74850974  1
  Fe  Fe84  1  0.75110825  0.25334196  0.24632804  1
  Fe  Fe85  1  0.87691583  0.37347891  0.87587798  1
  Fe  Fe86  1  0.49883843  0.00085325  0.49779161  1
  Fe  Fe87  1  0.12652191  0.12048484  0.62124606  1
  Fe  Fe88  1  0.62504644  0.12304486  0.62575023  1
  Fe  Fe89  1  0.37709104  0.87311006  0.37335550  1
  Co  Co90  1  0.25444134  -0.00229611  0.49797385  1
  Co  Co91  1  0.12105183  0.87944035  0.62015474  1
  Co  Co92  1  0.12526087  0.37440644  0.87785634  1
  Co  Co93  1  -0.00417039  0.00236862  0.49660570  1
  Co  Co94  1  0.37033559  0.63088775  0.87560150  1
  Co  Co95  1  -0.00071718  0.24873774  0.24724029  1
  Co  Co96  1  0.37749751  0.37621300  0.62518137  1
  Co  Co97  1  0.62614969  0.62350940  0.12460478  1
  Co  Co98  1  0.24993706  0.25270760  0.50211267  1
  Co  Co99  1  0.12304212  0.37842312  0.62464149  1
  Co  Co100  1  0.24725790  0.75433441  0.74333058  1
  Co  Co101  1  0.74944571  -0.00246272  -0.00415000  1
  Co  Co102  1  0.25406573  0.49931961  0.00118285  1
  Co  Co103  1  0.12345405  0.61931696  0.12802120  1
  Co  Co104  1  0.62162484  0.12533668  0.87865813  1
  Co  Co105  1  0.24497225  0.75252011  0.24876565  1
  Co  Co106  1  0.37759619  0.37605190  0.12937576  1
  Co  Co107  1  0.00421702  0.74851300  0.00014856  1
  Co  Co108  1  0.87414622  0.87092797  0.87512208  1
  Co  Co109  1  0.62311543  0.87329109  0.37594629  1
  Co  Co110  1  0.50110405  0.74960832  0.00169658  1
  Co  Co111  1  0.37713051  0.37241163  0.87563816  1
  Co  Co112  1  0.37882528  0.87709198  0.62601675  1
  Co  Co113  1  0.24781344  0.24956274  0.24491035  1
  Co  Co114  1  0.37451392  0.12308552  0.12649103  1
  Co  Co115  1  0.49637446  0.74663446  0.50198442  1
  Co  Co116  1  0.87613084  0.37725043  0.12236084  1
  Co  Co117  1  0.75275741  0.75155012  0.50159896  1
  Co  Co118  1  0.87683594  0.12655259  0.87696238  1
  Co  Co119  1  0.74859461  0.25286224  -0.00203810  1
  Co  Co120  1  0.87557036  0.37123223  0.37725013  1
  Co  Co121  1  0.12962774  0.87360765  0.87891883  1
  Co  Co122  1  0.12438375  0.88039806  0.12396523  1
  Co  Co123  1  0.36831553  0.62156373  0.62462763  1
  Co  Co124  1  0.37367277  0.62879150  0.12755033  1
  Co  Co125  1  0.87568738  0.62895130  0.37219809  1
  Co  Co126  1  0.50344114  0.24765268  0.24744068  1
  Co  Co127  1  0.62633393  0.62390707  0.62223995  1
