# generated using pymatgen
data_Fe45Co19
_symmetry_space_group_name_H-M   'P 1'
_cell_length_a   11.41597822
_cell_length_b   11.41438156
_cell_length_c   11.41525494
_cell_angle_alpha   89.98789349
_cell_angle_beta   89.99507680
_cell_angle_gamma   89.99635061
_symmetry_Int_Tables_number   1
_chemical_formula_structural   Fe45Co19
_chemical_formula_sum   'Fe90 Co38'
_cell_volume   1487.47995034
_cell_formula_units_Z   2
loop_
 _symmetry_equiv_pos_site_id
 _symmetry_equiv_pos_as_xyz
  1  'x, y, z'
loop_
 _atom_site_type_symbol
 _atom_site_label
 _atom_site_symmetry_multiplicity
 _atom_site_fract_x
 _atom_site_fract_y
 _atom_site_fract_z
 _atom_site_occupancy
  Fe  Fe0  1  0.37472812  0.87444847  0.87416035  1
  Fe  Fe1  1  0.62442500  0.62404190  0.87552276  1
  Fe  Fe2  1  0.12588016  0.36985935  0.37667583  1
  Fe  Fe3  1  0.87846864  0.12916759  0.37731199  1
  Fe  Fe4  1  0.37474926  0.87578715  0.12767581  1
  Fe  Fe5  1  0.75248378  0.00033772  0.49843961  1
  Fe  Fe6  1  0.75297696  0.74956326  0.00093086  1
  Fe  Fe7  1  0.00182403  0.49440241  0.50245605  1
  Fe  Fe8  1  0.74978528  0.49767303  -0.00269634  1
  Fe  Fe9  1  0.24929924  0.49906489  0.49803056  1
  Fe  Fe10  1  0.74837429  0.49183140  0.50005752  1
  Fe  Fe11  1  0.37378267  0.12447735  0.62345320  1
  Fe  Fe12  1  0.37677633  0.62343273  0.12666633  1
  Fe  Fe13  1  -0.00091617  0.00234733  0.50076444  1
  Fe  Fe14  1  0.37480948  0.12541954  0.12525426  1
  Fe  Fe15  1  0.50105034  0.00156048  0.74974796  1
  Fe  Fe16  1  0.62608845  0.12689366  0.62194033  1
  Fe  Fe17  1  0.75356609  0.74720096  0.75002140  1
  Fe  Fe18  1  0.37517481  0.62623683  0.87502051  1
  Fe  Fe19  1  0.87628565  0.37370523  0.87081675  1
  Fe  Fe20  1  0.75132290  0.25160579  -0.00066736  1
  Fe  Fe21  1  0.50002160  0.50008661  0.74957351  1
  Fe  Fe22  1  0.12076925  0.87503977  0.37407377  1
  Fe  Fe23  1  0.63005540  0.87503800  0.12981872  1
  Fe  Fe24  1  0.37564419  0.37394140  0.87450827  1
  Fe  Fe25  1  0.49907110  0.25281773  0.49823028  1
  Fe  Fe26  1  0.12432372  0.87616265  0.62589534  1
  Fe  Fe27  1  0.12517652  0.62396235  0.87446958  1
  Fe  Fe28  1  0.37600004  0.62545064  0.37476833  1
  Fe  Fe29  1  0.37630512  0.37585191  0.12870729  1
  Fe  Fe30  1  0.24771577  -0.00009739  -0.00022801  1
  Fe  Fe31  1  0.12353611  0.62328405  0.12561369  1
  Fe  Fe32  1  0.75246178  0.00236361  -0.00272350  1
  Fe  Fe33  1  0.12286560  0.12671764  0.12249106  1
  Fe  Fe34  1  0.24846205  0.25124647  0.00071268  1
  Fe  Fe35  1  0.24876631  0.75053174  0.00032180  1
  Fe  Fe36  1  0.62713603  0.87556274  0.87376178  1
  Fe  Fe37  1  0.74951586  0.50046209  0.25286978  1
  Fe  Fe38  1  0.00082263  0.25272795  0.24605305  1
  Fe  Fe39  1  0.00060329  0.49635165  0.24988089  1
  Fe  Fe40  1  0.37283703  0.87546339  0.62439075  1
  Fe  Fe41  1  0.37425460  0.87494030  0.37347715  1
  Fe  Fe42  1  0.75394102  0.75037015  0.49936152  1
  Fe  Fe43  1  0.37172423  0.37440233  0.62529164  1
  Fe  Fe44  1  0.49930630  0.24819037  0.74917745  1
  Fe  Fe45  1  0.24550154  0.00370341  0.25128407  1
  Fe  Fe46  1  -0.00256797  0.75078137  0.00042042  1
  Fe  Fe47  1  -0.00309081  0.00077090  -0.00112625  1
  Fe  Fe48  1  0.24678097  0.74946796  0.49918592  1
  Fe  Fe49  1  0.62337495  0.62420018  0.12698115  1
  Fe  Fe50  1  0.62637649  0.12889874  0.37689089  1
  Fe  Fe51  1  0.12497189  0.37262975  0.87158588  1
  Fe  Fe52  1  0.37346760  0.62529333  0.62430218  1
  Fe  Fe53  1  0.12232917  0.87532240  0.12660896  1
  Fe  Fe54  1  0.50027564  0.75002129  0.74775185  1
  Fe  Fe55  1  0.24775812  0.00260255  0.49655065  1
  Fe  Fe56  1  0.62299203  0.37396221  0.87350213  1
  Fe  Fe57  1  0.74888199  0.25034213  0.74651462  1
  Fe  Fe58  1  0.50116147  0.75154431  0.49879100  1
  Fe  Fe59  1  0.62796190  0.87591037  0.62527141  1
  Fe  Fe60  1  -0.00259041  0.74716884  0.74960651  1
  Fe  Fe61  1  0.24859636  0.00304892  0.75164801  1
  Fe  Fe62  1  0.87638729  0.62012616  0.37764767  1
  Fe  Fe63  1  -0.00014188  0.49533170  -0.00120745  1
  Fe  Fe64  1  0.50222912  0.00188556  0.25089386  1
  Fe  Fe65  1  0.75118881  0.25019207  0.25104843  1
  Fe  Fe66  1  0.37523476  0.12514568  0.87748765  1
  Fe  Fe67  1  0.50096921  -0.00096723  0.49798618  1
  Fe  Fe68  1  -0.00495199  0.74978224  0.25023593  1
  Fe  Fe69  1  0.62973057  0.87237182  0.37141604  1
  Fe  Fe70  1  0.00302650  0.24738743  0.74365218  1
  Fe  Fe71  1  0.62635800  0.12542831  0.12467246  1
  Fe  Fe72  1  0.25034232  0.49910378  -0.00105487  1
  Fe  Fe73  1  0.24796978  0.74893529  0.25107487  1
  Fe  Fe74  1  -0.00232101  0.00406412  0.74960376  1
  Fe  Fe75  1  0.37302474  0.12897228  0.37310129  1
  Fe  Fe76  1  0.87609458  0.62030551  0.12297233  1
  Fe  Fe77  1  0.24826501  0.49922369  0.25210754  1
  Fe  Fe78  1  0.87407819  0.61859247  0.62517168  1
  Fe  Fe79  1  0.50124621  0.25040722  0.00172762  1
  Fe  Fe80  1  0.87580981  0.12637707  0.12373840  1
  Fe  Fe81  1  0.12290998  0.87525295  0.87317164  1
  Fe  Fe82  1  0.12675640  0.62230600  0.62632305  1
  Fe  Fe83  1  0.50091120  0.49653086  0.49606041  1
  Fe  Fe84  1  0.50061858  0.75149833  0.00228674  1
  Fe  Fe85  1  -0.00178127  0.74972621  0.50127256  1
  Fe  Fe86  1  0.50264460  -0.00054373  0.00015288  1
  Fe  Fe87  1  0.62595629  0.62219608  0.62288161  1
  Fe  Fe88  1  0.75256570  0.00312133  0.75135915  1
  Fe  Fe89  1  0.62403887  0.37597161  0.12796607  1
  Co  Co90  1  0.12126537  0.62417445  0.37449481  1
  Co  Co91  1  0.24902479  0.24862890  0.50199623  1
  Co  Co92  1  0.24976699  0.24713453  0.75031814  1
  Co  Co93  1  0.12035283  0.13026071  0.37529859  1
  Co  Co94  1  0.87697607  0.13052083  0.87440153  1
  Co  Co95  1  0.37193856  0.37203799  0.37245237  1
  Co  Co96  1  0.74820201  0.49900208  0.75112020  1
  Co  Co97  1  0.12715239  0.37689392  0.12488146  1
  Co  Co98  1  0.87136672  0.12532125  0.62260545  1
  Co  Co99  1  0.50128533  0.24827939  0.24934517  1
  Co  Co100  1  0.00078076  0.50093886  0.74991610  1
  Co  Co101  1  0.87252689  0.87774113  0.12599094  1
  Co  Co102  1  -0.00109560  0.25483460  0.00298819  1
  Co  Co103  1  0.62509985  0.12669899  0.87513001  1
  Co  Co104  1  -0.00026357  0.25218076  0.50727529  1
  Co  Co105  1  0.50021017  0.49928446  -0.00024691  1
  Co  Co106  1  0.87567504  0.87678779  0.37415989  1
  Co  Co107  1  0.87527266  0.87491181  0.87371521  1
  Co  Co108  1  0.62252847  0.37368918  0.62588368  1
  Co  Co109  1  0.75639904  0.74494401  0.25047877  1
  Co  Co110  1  0.50078414  0.74968967  0.25108669  1
  Co  Co111  1  0.24865622  0.74968924  0.74965106  1
  Co  Co112  1  0.12269194  0.12737448  0.87827957  1
  Co  Co113  1  0.25159960  0.49988081  0.75183280  1
  Co  Co114  1  0.87744204  0.37308716  0.37412258  1
  Co  Co115  1  0.24671639  0.24866312  0.24681251  1
  Co  Co116  1  -0.00016522  0.00213727  0.24910689  1
  Co  Co117  1  0.62522224  0.37183409  0.37216700  1
  Co  Co118  1  0.87594582  0.37641805  0.62883872  1
  Co  Co119  1  0.75261095  0.25539560  0.50077198  1
  Co  Co120  1  0.87157333  0.37718872  0.12641580  1
  Co  Co121  1  0.87529626  0.62222277  0.87673121  1
  Co  Co122  1  0.12950066  0.37629981  0.62648533  1
  Co  Co123  1  0.50156921  0.49989580  0.25483990  1
  Co  Co124  1  0.12794390  0.12336957  0.62260401  1
  Co  Co125  1  0.87526689  0.87667749  0.62620275  1
  Co  Co126  1  0.62694741  0.62601901  0.37755564  1
  Co  Co127  1  0.75234128  0.00557304  0.25269169  1
