# generated using pymatgen
data_Fe45Co19
_symmetry_space_group_name_H-M   'P 1'
_cell_length_a   11.41440921
_cell_length_b   11.41392870
_cell_length_c   11.41708449
_cell_angle_alpha   90.00536162
_cell_angle_beta   89.99305349
_cell_angle_gamma   90.00465790
_symmetry_Int_Tables_number   1
_chemical_formula_structural   Fe45Co19
_chemical_formula_sum   'Fe90 Co38'
_cell_volume   1487.45488257
_cell_formula_units_Z   2
loop_
 _symmetry_equiv_pos_site_id
 _symmetry_equiv_pos_as_xyz
  1  'x, y, z'
loop_
 _atom_site_type_symbol
 _atom_site_label
 _atom_site_symmetry_multiplicity
 _atom_site_fract_x
 _atom_site_fract_y
 _atom_site_fract_z
 _atom_site_occupancy
  Fe  Fe0  1  0.50270967  0.49999026  0.74608453  1
  Fe  Fe1  1  0.74851180  0.74888910  0.24990598  1
  Fe  Fe2  1  0.74772784  0.50157196  0.74738794  1
  Fe  Fe3  1  0.25121877  0.74956513  0.49790252  1
  Fe  Fe4  1  0.00132883  0.50220313  0.74958817  1
  Fe  Fe5  1  -0.00330142  0.25425251  -0.00254638  1
  Fe  Fe6  1  0.87467427  0.62339887  0.37416393  1
  Fe  Fe7  1  -0.00093384  0.24908975  0.49990466  1
  Fe  Fe8  1  0.74662931  0.49952236  0.49990799  1
  Fe  Fe9  1  0.74855863  0.74849100  0.75352039  1
  Fe  Fe10  1  0.87224929  0.37386495  0.62500257  1
  Fe  Fe11  1  0.74822445  0.00159202  0.24600254  1
  Fe  Fe12  1  0.50172428  0.49737010  0.00174659  1
  Fe  Fe13  1  0.12711594  0.37690050  0.12289754  1
  Fe  Fe14  1  0.12513340  0.37623684  0.37511708  1
  Fe  Fe15  1  0.12480234  0.87493287  0.62388826  1
  Fe  Fe16  1  0.12237357  0.12492588  0.87645684  1
  Fe  Fe17  1  0.62719727  0.87312063  0.12132048  1
  Fe  Fe18  1  0.12648552  0.62336508  0.12380935  1
  Fe  Fe19  1  0.25072604  0.74782925  0.25177718  1
  Fe  Fe20  1  0.00058553  0.50109339  0.50027621  1
  Fe  Fe21  1  0.12368363  0.12385371  0.37439921  1
  Fe  Fe22  1  0.25321689  0.25327938  0.25103547  1
  Fe  Fe23  1  0.62452783  0.87135656  0.62609079  1
  Fe  Fe24  1  0.50104991  -0.00031992  0.24673716  1
  Fe  Fe25  1  0.00020698  -0.00043646  0.74964139  1
  Fe  Fe26  1  0.37521656  0.12550647  0.62558836  1
  Fe  Fe27  1  0.37739516  0.62169533  0.37332125  1
  Fe  Fe28  1  0.12551310  0.38004630  0.87567364  1
  Fe  Fe29  1  0.25055111  0.00085817  0.00154120  1
  Fe  Fe30  1  0.87384992  0.62601596  0.62443659  1
  Fe  Fe31  1  0.62441889  0.87514849  0.37485428  1
  Fe  Fe32  1  0.62604474  0.37461965  0.87149742  1
  Fe  Fe33  1  -0.00147119  0.25316059  0.24958279  1
  Fe  Fe34  1  0.24824025  0.24877491  0.50056784  1
  Fe  Fe35  1  0.50461924  0.49855195  0.50165889  1
  Fe  Fe36  1  0.37735444  0.12483105  0.87650005  1
  Fe  Fe37  1  0.62378072  0.12759215  0.37301679  1
  Fe  Fe38  1  0.25198301  0.74651768  -0.00067540  1
  Fe  Fe39  1  0.74804231  0.49954653  0.00221833  1
  Fe  Fe40  1  0.37474598  0.87416073  0.12417921  1
  Fe  Fe41  1  -0.00121452  0.75116724  0.00176810  1
  Fe  Fe42  1  0.37665544  0.62301692  0.87244584  1
  Fe  Fe43  1  0.62576013  0.87591219  0.87725427  1
  Fe  Fe44  1  0.87350400  0.87498794  0.62504418  1
  Fe  Fe45  1  0.87247989  0.62462007  0.12434879  1
  Fe  Fe46  1  0.87195814  0.87955384  0.87985152  1
  Fe  Fe47  1  0.24786119  0.50271310  0.50053180  1
  Fe  Fe48  1  -0.00281475  0.25114306  0.75282549  1
  Fe  Fe49  1  0.87629882  0.12330223  0.37499536  1
  Fe  Fe50  1  0.87610918  0.12521494  0.12169116  1
  Fe  Fe51  1  0.25031903  0.25005261  0.75063760  1
  Fe  Fe52  1  0.12573456  0.87508574  0.87794218  1
  Fe  Fe53  1  0.12517494  0.87658862  0.37398773  1
  Fe  Fe54  1  0.24839790  0.74739496  0.75081268  1
  Fe  Fe55  1  0.87491733  0.62223545  0.87719518  1
  Fe  Fe56  1  0.74916725  0.74851123  0.49741925  1
  Fe  Fe57  1  0.50105706  0.25192815  0.49944986  1
  Fe  Fe58  1  0.74902765  0.00127812  0.50143909  1
  Fe  Fe59  1  0.12467470  0.12741959  0.12346403  1
  Fe  Fe60  1  0.00026001  -0.00268883  0.24483696  1
  Fe  Fe61  1  0.87448909  0.12523364  0.62711311  1
  Fe  Fe62  1  0.87450473  0.87710150  0.37381566  1
  Fe  Fe63  1  0.50148035  0.74757108  -0.00130726  1
  Fe  Fe64  1  0.50008154  -0.00143513  0.74873776  1
  Fe  Fe65  1  0.75242943  0.25109780  0.25139672  1
  Fe  Fe66  1  0.37691221  0.12506592  0.37475900  1
  Fe  Fe67  1  0.75135716  0.24899327  -0.00446950  1
  Fe  Fe68  1  0.37449606  0.37484955  0.62479055  1
  Fe  Fe69  1  0.24925924  0.00135863  0.74941046  1
  Fe  Fe70  1  0.37593504  0.62668224  0.62674627  1
  Fe  Fe71  1  -0.00072210  0.74885424  0.75218167  1
  Fe  Fe72  1  0.62341351  0.12461991  0.87366195  1
  Fe  Fe73  1  -0.00028117  0.74949846  0.49845448  1
  Fe  Fe74  1  0.74800975  0.49783939  0.25064168  1
  Fe  Fe75  1  0.50156779  0.49220340  0.25033834  1
  Fe  Fe76  1  -0.00054180  0.75155664  0.24773070  1
  Fe  Fe77  1  0.25156257  0.25203372  -0.00153702  1
  Fe  Fe78  1  0.50138232  0.75056180  0.24949739  1
  Fe  Fe79  1  0.62639750  0.12949093  0.62787713  1
  Fe  Fe80  1  0.37508569  0.37654055  0.87375049  1
  Fe  Fe81  1  0.49837751  0.75084617  0.49888696  1
  Fe  Fe82  1  0.37722967  0.62116748  0.12690923  1
  Fe  Fe83  1  0.38034058  0.12984199  0.12297114  1
  Fe  Fe84  1  0.49984864  -0.00168272  0.50146834  1
  Fe  Fe85  1  0.25201559  0.00165207  0.24767336  1
  Fe  Fe86  1  0.37620248  0.87536866  0.87415334  1
  Fe  Fe87  1  -0.00063093  0.49874842  0.24869499  1
  Fe  Fe88  1  0.25060244  -0.00023168  0.50111280  1
  Fe  Fe89  1  0.12532535  0.37494981  0.62690121  1
  Co  Co90  1  0.87777308  0.11900766  0.87653726  1
  Co  Co91  1  0.75431077  0.24885903  0.75484650  1
  Co  Co92  1  0.62802045  0.37189768  0.37562766  1
  Co  Co93  1  0.49605939  0.25599592  0.25338919  1
  Co  Co94  1  0.62783870  0.36964438  0.62676398  1
  Co  Co95  1  0.24931515  0.50180281  0.74926942  1
  Co  Co96  1  0.12311369  0.62353057  0.87777530  1
  Co  Co97  1  0.49747298  0.25053656  0.75057761  1
  Co  Co98  1  0.62696072  0.36948336  0.12545132  1
  Co  Co99  1  -0.00124726  0.49985240  0.00268984  1
  Co  Co100  1  0.74875468  0.74590861  -0.00174116  1
  Co  Co101  1  0.62290591  0.62449616  0.37376392  1
  Co  Co102  1  0.87212728  0.37445509  0.12386689  1
  Co  Co103  1  0.37448619  0.37363930  0.12200825  1
  Co  Co104  1  0.62507113  0.62914039  0.62461636  1
  Co  Co105  1  0.87357372  0.38108280  0.87421670  1
  Co  Co106  1  0.87504127  0.37615591  0.37642789  1
  Co  Co107  1  0.50253235  0.74938269  0.75300925  1
  Co  Co108  1  0.62452208  0.62131044  0.87531008  1
  Co  Co109  1  0.12368529  0.62437751  0.37342448  1
  Co  Co110  1  0.25092366  0.49779107  0.25002721  1
  Co  Co111  1  0.50083736  -0.00060842  0.00184018  1
  Co  Co112  1  0.12404005  0.62763142  0.62515106  1
  Co  Co113  1  0.62375706  0.62338129  0.12616700  1
  Co  Co114  1  0.75211055  0.24803617  0.49860976  1
  Co  Co115  1  0.62199014  0.13238619  0.12617318  1
  Co  Co116  1  0.25279817  0.50159256  -0.00066778  1
  Co  Co117  1  0.00239593  -0.00273966  0.00447416  1
  Co  Co118  1  0.37324755  0.37654474  0.38052118  1
  Co  Co119  1  0.50184084  0.25326632  -0.00394963  1
  Co  Co120  1  0.37483303  0.87352286  0.62807662  1
  Co  Co121  1  0.12998485  0.87295047  0.12507113  1
  Co  Co122  1  0.37531700  0.87660587  0.37266322  1
  Co  Co123  1  0.12352888  0.12563002  0.62675699  1
  Co  Co124  1  0.74840779  -0.00035999  0.74861771  1
  Co  Co125  1  0.74596369  0.00533375  0.00304963  1
  Co  Co126  1  0.86921640  0.87493728  0.12222257  1
  Co  Co127  1  -0.00167973  0.00075913  0.50108338  1
