# generated using pymatgen
data_Fe45Co19
_symmetry_space_group_name_H-M   'P 1'
_cell_length_a   11.41576021
_cell_length_b   11.41472429
_cell_length_c   11.41589921
_cell_angle_alpha   90.00081447
_cell_angle_beta   89.99471362
_cell_angle_gamma   90.00307569
_symmetry_Int_Tables_number   1
_chemical_formula_structural   Fe45Co19
_chemical_formula_sum   'Fe90 Co38'
_cell_volume   1487.58019295
_cell_formula_units_Z   2
loop_
 _symmetry_equiv_pos_site_id
 _symmetry_equiv_pos_as_xyz
  1  'x, y, z'
loop_
 _atom_site_type_symbol
 _atom_site_label
 _atom_site_symmetry_multiplicity
 _atom_site_fract_x
 _atom_site_fract_y
 _atom_site_fract_z
 _atom_site_occupancy
  Fe  Fe0  1  0.24858965  0.74738693  0.49896220  1
  Fe  Fe1  1  0.87520563  0.37342793  0.62627021  1
  Fe  Fe2  1  0.00044172  0.25158923  0.24846863  1
  Fe  Fe3  1  0.37722362  0.87619726  0.12435770  1
  Fe  Fe4  1  0.50040638  -0.00195569  0.75054548  1
  Fe  Fe5  1  0.37450063  0.87456642  0.62417585  1
  Fe  Fe6  1  0.62557700  0.37729815  0.62450100  1
  Fe  Fe7  1  0.12616012  0.87584592  0.62325347  1
  Fe  Fe8  1  0.87514505  0.87284634  0.87441042  1
  Fe  Fe9  1  0.50017544  0.25072094  0.24844617  1
  Fe  Fe10  1  0.12246715  0.62305603  0.37348914  1
  Fe  Fe11  1  -0.00019258  0.00147705  0.49905332  1
  Fe  Fe12  1  0.62657402  0.62712003  0.37439506  1
  Fe  Fe13  1  0.24663104  0.24642029  0.75255178  1
  Fe  Fe14  1  -0.00266514  0.74848306  0.50058361  1
  Fe  Fe15  1  0.24865061  0.00153609  0.49888477  1
  Fe  Fe16  1  0.50301124  0.75341622  0.25120323  1
  Fe  Fe17  1  -0.00108231  0.50228992  -0.00356017  1
  Fe  Fe18  1  0.24755544  0.24863081  0.49890174  1
  Fe  Fe19  1  0.12620126  0.87578739  0.12335890  1
  Fe  Fe20  1  0.74857913  -0.00181717  0.75050334  1
  Fe  Fe21  1  0.00099547  0.24778615  0.50058541  1
  Fe  Fe22  1  0.25036501  0.50134112  0.75303341  1
  Fe  Fe23  1  0.50128821  0.74715834  0.00127716  1
  Fe  Fe24  1  0.87241422  0.87411613  0.62432389  1
  Fe  Fe25  1  0.87503512  0.12608009  0.62716017  1
  Fe  Fe26  1  0.74954750  0.74755524  -0.00189546  1
  Fe  Fe27  1  0.50104822  0.25209564  0.74947444  1
  Fe  Fe28  1  0.25453486  0.00264905  -0.00225118  1
  Fe  Fe29  1  0.62296238  0.37883381  0.87486147  1
  Fe  Fe30  1  0.50016564  0.24886854  0.50099543  1
  Fe  Fe31  1  -0.00220250  0.74976803  0.24824065  1
  Fe  Fe32  1  0.62776524  0.62476709  0.12766522  1
  Fe  Fe33  1  0.25269763  0.24709016  -0.00047346  1
  Fe  Fe34  1  0.00209991  -0.00073995  0.75038358  1
  Fe  Fe35  1  0.62216747  0.12524381  0.87624708  1
  Fe  Fe36  1  0.49880717  0.50261485  0.50007589  1
  Fe  Fe37  1  0.74631794  0.24968710  0.00037140  1
  Fe  Fe38  1  0.87512760  0.62369558  0.37147423  1
  Fe  Fe39  1  -0.00060645  0.74875783  0.00002408  1
  Fe  Fe40  1  0.87244314  0.87230847  0.12498291  1
  Fe  Fe41  1  0.12558117  0.87553529  0.87767319  1
  Fe  Fe42  1  0.37555588  0.87173456  0.37763030  1
  Fe  Fe43  1  0.62492377  0.37842494  0.12464931  1
  Fe  Fe44  1  0.87489205  0.62719202  0.63210074  1
  Fe  Fe45  1  -0.00133552  0.49699349  0.75454997  1
  Fe  Fe46  1  0.37664288  0.37604285  0.87634619  1
  Fe  Fe47  1  0.62753091  0.62532460  0.62820510  1
  Fe  Fe48  1  0.87318618  0.37780894  0.12259455  1
  Fe  Fe49  1  0.75041274  -0.00035390  0.00052023  1
  Fe  Fe50  1  0.37463791  0.62659588  0.62454700  1
  Fe  Fe51  1  0.12400386  0.37510521  0.62611501  1
  Fe  Fe52  1  0.12199404  0.37759636  0.37578802  1
  Fe  Fe53  1  0.61984789  0.12004532  0.12453718  1
  Fe  Fe54  1  0.24983779  0.50186206  0.49824561  1
  Fe  Fe55  1  -0.00193155  -0.00132735  0.24797489  1
  Fe  Fe56  1  0.24761233  0.75089071  0.75038009  1
  Fe  Fe57  1  0.37512903  0.62237623  0.12900149  1
  Fe  Fe58  1  0.37400008  0.12394569  0.62701687  1
  Fe  Fe59  1  0.75025929  0.24896402  0.50016640  1
  Fe  Fe60  1  0.74964625  0.25039440  0.24781846  1
  Fe  Fe61  1  0.62392130  0.87378072  0.87747163  1
  Fe  Fe62  1  0.24900834  0.24987899  0.24928044  1
  Fe  Fe63  1  0.12299961  0.62438303  0.62810531  1
  Fe  Fe64  1  0.37571118  0.37868733  0.12499359  1
  Fe  Fe65  1  0.87639859  0.12599333  0.87569786  1
  Fe  Fe66  1  0.62564063  0.37519379  0.37593835  1
  Fe  Fe67  1  0.12677927  0.37823017  0.12191944  1
  Fe  Fe68  1  0.74962022  0.25159847  0.75147096  1
  Fe  Fe69  1  0.00136771  0.25114430  -0.00263373  1
  Fe  Fe70  1  0.37716195  0.62468942  0.87455874  1
  Fe  Fe71  1  0.37525573  0.12542911  0.37327629  1
  Fe  Fe72  1  0.62689244  0.12281640  0.37323278  1
  Fe  Fe73  1  0.37588984  0.37683772  0.37457090  1
  Fe  Fe74  1  0.87528940  0.12593146  0.12335600  1
  Fe  Fe75  1  0.12561273  0.62307334  0.12441237  1
  Fe  Fe76  1  0.37361976  0.37457658  0.62500039  1
  Fe  Fe77  1  0.12259574  0.87443536  0.37456098  1
  Fe  Fe78  1  0.37536856  0.87277121  0.87438428  1
  Fe  Fe79  1  0.75258327  0.50135067  0.50104912  1
  Fe  Fe80  1  0.50221998  0.75007011  0.74809976  1
  Fe  Fe81  1  0.87590212  0.37655682  0.37471203  1
  Fe  Fe82  1  0.12470073  0.12305071  0.12326325  1
  Fe  Fe83  1  0.50252464  -0.00150202  0.49888590  1
  Fe  Fe84  1  0.62543064  0.12459494  0.62580595  1
  Fe  Fe85  1  0.25081702  0.74759696  0.00032520  1
  Fe  Fe86  1  0.25104362  -0.00010852  0.25000645  1
  Fe  Fe87  1  0.24932486  0.74970749  0.25032104  1
  Fe  Fe88  1  0.87348744  0.12347097  0.37303938  1
  Fe  Fe89  1  0.75072363  0.50399697  -0.00443465  1
  Co  Co90  1  0.37881025  0.12330706  0.12668748  1
  Co  Co91  1  0.87582758  0.62977909  0.87020012  1
  Co  Co92  1  0.49779542  0.50040820  0.74761295  1
  Co  Co93  1  0.87311249  0.87633944  0.37588959  1
  Co  Co94  1  0.62451164  0.87608212  0.12170019  1
  Co  Co95  1  -0.00300007  -0.00307274  0.00138296  1
  Co  Co96  1  0.87242730  0.37225716  0.87799783  1
  Co  Co97  1  0.37851009  0.12769791  0.87226499  1
  Co  Co98  1  0.75000265  -0.00190157  0.24614626  1
  Co  Co99  1  0.50043748  -0.00510173  0.25372031  1
  Co  Co100  1  0.37584706  0.62690402  0.37289161  1
  Co  Co101  1  -0.00021235  0.49871087  0.24623804  1
  Co  Co102  1  0.74655902  0.75378594  0.75107082  1
  Co  Co103  1  0.75059579  0.49825592  0.25146398  1
  Co  Co104  1  0.12143441  0.12210344  0.87824969  1
  Co  Co105  1  0.63101117  0.87356988  0.37807442  1
  Co  Co106  1  0.12403426  0.12415352  0.37250733  1
  Co  Co107  1  0.62435351  0.62376295  0.87111821  1
  Co  Co108  1  0.24920834  -0.00059454  0.75241828  1
  Co  Co109  1  0.50177137  0.49999144  0.25152222  1
  Co  Co110  1  0.49997145  0.25188883  0.00140486  1
  Co  Co111  1  0.87319559  0.62350951  0.12483063  1
  Co  Co112  1  0.75107417  0.75214685  0.24971511  1
  Co  Co113  1  0.49674421  -0.00094467  -0.00316305  1
  Co  Co114  1  0.00368454  0.75519950  0.74985117  1
  Co  Co115  1  0.25163797  0.50315630  -0.00204664  1
  Co  Co116  1  0.50057326  0.50281841  0.00152858  1
  Co  Co117  1  0.75271217  0.49753772  0.75194621  1
  Co  Co118  1  0.12533823  0.12493176  0.62581689  1
  Co  Co119  1  0.12392080  0.62716570  0.87478924  1
  Co  Co120  1  0.62616019  0.87403184  0.62208535  1
  Co  Co121  1  0.74972269  0.00164903  0.50212381  1
  Co  Co122  1  0.12798280  0.37518931  0.87609816  1
  Co  Co123  1  0.50167247  0.74870176  0.50091976  1
  Co  Co124  1  0.75326647  0.74713001  0.50134290  1
  Co  Co125  1  0.00067570  0.25065693  0.75243417  1
  Co  Co126  1  -0.00245916  0.50191088  0.50348160  1
  Co  Co127  1  0.24864219  0.49949460  0.25184118  1
