# generated using pymatgen
data_Fe45Co19
_symmetry_space_group_name_H-M   'P 1'
_cell_length_a   11.41459880
_cell_length_b   11.41580889
_cell_length_c   11.41584963
_cell_angle_alpha   89.99028109
_cell_angle_beta   90.01364191
_cell_angle_gamma   90.00819450
_symmetry_Int_Tables_number   1
_chemical_formula_structural   Fe45Co19
_chemical_formula_sum   'Fe90 Co38'
_cell_volume   1487.56365213
_cell_formula_units_Z   2
loop_
 _symmetry_equiv_pos_site_id
 _symmetry_equiv_pos_as_xyz
  1  'x, y, z'
loop_
 _atom_site_type_symbol
 _atom_site_label
 _atom_site_symmetry_multiplicity
 _atom_site_fract_x
 _atom_site_fract_y
 _atom_site_fract_z
 _atom_site_occupancy
  Fe  Fe0  1  0.24979699  0.25045509  0.25012429  1
  Fe  Fe1  1  0.12493768  0.12523314  0.12275460  1
  Fe  Fe2  1  0.12292902  0.37207441  0.62606578  1
  Fe  Fe3  1  0.37188811  0.12229971  0.37617055  1
  Fe  Fe4  1  0.49795905  0.25056244  0.25198974  1
  Fe  Fe5  1  0.24803221  0.00234911  0.74696773  1
  Fe  Fe6  1  0.62765478  0.62834234  0.12391601  1
  Fe  Fe7  1  0.62654021  0.87242347  0.37636501  1
  Fe  Fe8  1  0.87747944  0.12635872  0.87769747  1
  Fe  Fe9  1  0.12783144  0.12728064  0.38046134  1
  Fe  Fe10  1  0.62742717  0.37521265  0.87588807  1
  Fe  Fe11  1  0.75421109  0.49972809  0.75308729  1
  Fe  Fe12  1  0.00350484  -0.00162988  0.50131954  1
  Fe  Fe13  1  0.50172515  -0.00190364  0.24772668  1
  Fe  Fe14  1  0.12654376  0.62439469  0.37518567  1
  Fe  Fe15  1  0.00192734  0.50231901  0.24882728  1
  Fe  Fe16  1  0.12551642  0.37460742  0.37472395  1
  Fe  Fe17  1  0.37532353  0.38048426  0.62478615  1
  Fe  Fe18  1  0.75233019  0.25008011  0.74965365  1
  Fe  Fe19  1  0.62264630  0.12390537  0.87694437  1
  Fe  Fe20  1  0.12355425  0.37566659  0.12539853  1
  Fe  Fe21  1  0.75110448  0.24931836  0.00357382  1
  Fe  Fe22  1  0.74759626  0.49975150  0.49696314  1
  Fe  Fe23  1  0.87567057  0.87603433  0.87374881  1
  Fe  Fe24  1  -0.00213875  0.74785253  0.75148016  1
  Fe  Fe25  1  0.12355208  0.62260094  0.87522323  1
  Fe  Fe26  1  0.25324130  -0.00091703  -0.00083210  1
  Fe  Fe27  1  -0.00014453  0.75060008  -0.00056661  1
  Fe  Fe28  1  0.11984535  0.37455007  0.87233769  1
  Fe  Fe29  1  0.12649708  0.87424301  0.37364588  1
  Fe  Fe30  1  0.50001238  0.25023279  0.74960673  1
  Fe  Fe31  1  0.87472084  0.62407612  0.62328886  1
  Fe  Fe32  1  0.49776399  0.74870454  0.25108863  1
  Fe  Fe33  1  0.24909142  0.24873750  0.75132245  1
  Fe  Fe34  1  0.24970567  0.25059427  -0.00140129  1
  Fe  Fe35  1  0.87630129  0.12542825  0.37301494  1
  Fe  Fe36  1  0.49847433  0.24989960  -0.00115596  1
  Fe  Fe37  1  0.62624976  0.62542170  0.62311540  1
  Fe  Fe38  1  0.62382815  0.87354207  0.62367131  1
  Fe  Fe39  1  0.87720890  0.87529111  0.12731240  1
  Fe  Fe40  1  0.74886756  0.00119633  0.24814563  1
  Fe  Fe41  1  -0.00345815  0.50002418  -0.00079087  1
  Fe  Fe42  1  0.50170733  0.49946992  0.00064470  1
  Fe  Fe43  1  0.49828524  0.25223580  0.49985716  1
  Fe  Fe44  1  0.75095337  0.75043637  0.75059255  1
  Fe  Fe45  1  0.37483094  0.37691819  0.12640756  1
  Fe  Fe46  1  0.62439491  0.37268046  0.12742804  1
  Fe  Fe47  1  0.75092888  0.25112113  0.49867310  1
  Fe  Fe48  1  0.12584996  0.87395118  0.12604191  1
  Fe  Fe49  1  0.37324226  0.62271385  0.12481550  1
  Fe  Fe50  1  0.62456098  0.12695373  0.37455800  1
  Fe  Fe51  1  0.87518170  0.62719081  0.12397196  1
  Fe  Fe52  1  0.00353037  0.00388992  0.74759939  1
  Fe  Fe53  1  0.00286333  0.00129505  0.25088407  1
  Fe  Fe54  1  0.87555627  0.37408036  0.37262325  1
  Fe  Fe55  1  0.24949575  0.49888306  -0.00094984  1
  Fe  Fe56  1  0.37617592  0.12370518  0.12483982  1
  Fe  Fe57  1  0.12579490  0.62587447  0.62563574  1
  Fe  Fe58  1  0.74816507  0.49960462  0.24980930  1
  Fe  Fe59  1  0.87673766  0.87524023  0.62488630  1
  Fe  Fe60  1  0.87741654  0.37189462  0.12728925  1
  Fe  Fe61  1  0.49688395  0.75411311  0.00042935  1
  Fe  Fe62  1  0.74993051  0.00052790  0.74906108  1
  Fe  Fe63  1  0.25242586  0.74572517  0.75121228  1
  Fe  Fe64  1  0.37506143  0.37641483  0.87365269  1
  Fe  Fe65  1  0.49857237  -0.00113087  0.49964100  1
  Fe  Fe66  1  0.12613024  0.87580240  0.87253199  1
  Fe  Fe67  1  0.49627501  0.74524765  0.49754774  1
  Fe  Fe68  1  0.37317515  0.12569821  0.62335852  1
  Fe  Fe69  1  0.87635620  0.12612427  0.62262588  1
  Fe  Fe70  1  0.37417414  0.38180689  0.37528969  1
  Fe  Fe71  1  0.00048327  0.75205690  0.49879267  1
  Fe  Fe72  1  0.49973841  0.50262737  0.75120668  1
  Fe  Fe73  1  0.24783951  0.74583454  0.24853735  1
  Fe  Fe74  1  0.62449799  0.12551223  0.62381018  1
  Fe  Fe75  1  0.75015817  -0.00157510  0.50004358  1
  Fe  Fe76  1  0.62807186  0.62543954  0.87921088  1
  Fe  Fe77  1  0.75322812  0.75232176  0.25154483  1
  Fe  Fe78  1  0.37412123  0.87222193  0.62566192  1
  Fe  Fe79  1  0.62559356  0.37670795  0.62379569  1
  Fe  Fe80  1  0.74902404  0.00056381  0.00385099  1
  Fe  Fe81  1  0.37063559  0.87579683  0.37238014  1
  Fe  Fe82  1  0.00076570  -0.00053250  0.00012505  1
  Fe  Fe83  1  0.25100045  0.75002430  -0.00038928  1
  Fe  Fe84  1  0.49822020  0.74630078  0.75141825  1
  Fe  Fe85  1  0.62423247  0.87601173  0.87596931  1
  Fe  Fe86  1  0.49857996  0.00074885  0.75038681  1
  Fe  Fe87  1  0.50311025  0.50260618  0.25266934  1
  Fe  Fe88  1  0.87545358  0.62607948  0.37549861  1
  Fe  Fe89  1  0.00142585  0.49858536  0.50115117  1
  Co  Co90  1  0.24597836  0.49890146  0.50270937  1
  Co  Co91  1  0.25013670  0.75118120  0.49860624  1
  Co  Co92  1  0.36954396  0.62033744  0.37480696  1
  Co  Co93  1  0.37507547  0.62250197  0.87808949  1
  Co  Co94  1  0.75191348  0.49672158  0.00250144  1
  Co  Co95  1  0.62563421  0.87220298  0.12550971  1
  Co  Co96  1  0.75253191  0.75378476  -0.00087491  1
  Co  Co97  1  0.62847115  0.62969934  0.37406624  1
  Co  Co98  1  0.25462184  0.25425797  0.49875683  1
  Co  Co99  1  0.49748139  -0.00394879  0.00137253  1
  Co  Co100  1  0.00452539  0.24829212  0.25079396  1
  Co  Co101  1  0.12500839  0.87066799  0.62856222  1
  Co  Co102  1  0.87674144  0.37189384  0.87596265  1
  Co  Co103  1  0.87414524  0.37624114  0.62349177  1
  Co  Co104  1  -0.00311575  0.25224730  0.49896520  1
  Co  Co105  1  0.61988473  0.12648512  0.12497725  1
  Co  Co106  1  0.37341278  0.87582276  0.87134460  1
  Co  Co107  1  0.12434186  0.62443378  0.12159920  1
  Co  Co108  1  0.24844785  -0.00396090  0.50370956  1
  Co  Co109  1  0.50349466  0.50315283  0.49724517  1
  Co  Co110  1  0.12617121  0.13064586  0.61999474  1
  Co  Co111  1  0.12422241  0.12455466  0.87643441  1
  Co  Co112  1  -0.00194632  0.24763124  0.74848357  1
  Co  Co113  1  0.87398060  0.62530124  0.87724686  1
  Co  Co114  1  0.37141160  0.87534570  0.12948933  1
  Co  Co115  1  0.37529778  0.12450626  0.87479177  1
  Co  Co116  1  0.00142490  0.74873373  0.25032071  1
  Co  Co117  1  -0.00297277  0.50035484  0.74910042  1
  Co  Co118  1  0.00141516  0.25010216  0.00142326  1
  Co  Co119  1  0.24655537  0.49988926  0.24748419  1
  Co  Co120  1  0.62489087  0.37195285  0.37445233  1
  Co  Co121  1  0.75261772  0.75185707  0.50122717  1
  Co  Co122  1  0.75021168  0.24817883  0.24823209  1
  Co  Co123  1  0.87638526  0.87657738  0.37435716  1
  Co  Co124  1  0.24856274  0.50012897  0.75074592  1
  Co  Co125  1  0.37285307  0.62187104  0.62262017  1
  Co  Co126  1  0.24690610  0.00308813  0.24934924  1
  Co  Co127  1  0.87915214  0.12513847  0.12658309  1
