# generated using pymatgen
data_Fe45Co19
_symmetry_space_group_name_H-M   'P 1'
_cell_length_a   11.41481437
_cell_length_b   11.41558981
_cell_length_c   11.41422227
_cell_angle_alpha   89.99601816
_cell_angle_beta   89.98757152
_cell_angle_gamma   90.00104373
_symmetry_Int_Tables_number   1
_chemical_formula_structural   Fe45Co19
_chemical_formula_sum   'Fe90 Co38'
_cell_volume   1487.35117980
_cell_formula_units_Z   2
loop_
 _symmetry_equiv_pos_site_id
 _symmetry_equiv_pos_as_xyz
  1  'x, y, z'
loop_
 _atom_site_type_symbol
 _atom_site_label
 _atom_site_symmetry_multiplicity
 _atom_site_fract_x
 _atom_site_fract_y
 _atom_site_fract_z
 _atom_site_occupancy
  Fe  Fe0  1  0.75356779  0.74896540  0.49942372  1
  Fe  Fe1  1  0.00051811  0.24894523  0.24985252  1
  Fe  Fe2  1  0.00486318  0.50082586  0.24721932  1
  Fe  Fe3  1  0.24927683  0.24765865  0.74773011  1
  Fe  Fe4  1  0.74820803  0.50192755  -0.00005384  1
  Fe  Fe5  1  0.74994927  -0.00008262  0.49827543  1
  Fe  Fe6  1  0.00182706  0.75103623  0.24750593  1
  Fe  Fe7  1  0.75066189  0.50104313  0.49742544  1
  Fe  Fe8  1  0.49807700  0.49995207  0.75238223  1
  Fe  Fe9  1  0.25120635  0.75152021  0.74939827  1
  Fe  Fe10  1  0.49924272  0.25083641  0.74915678  1
  Fe  Fe11  1  0.00005240  0.50310876  0.50120652  1
  Fe  Fe12  1  0.62241459  0.87273870  0.37843514  1
  Fe  Fe13  1  0.74724172  0.74922750  0.00163256  1
  Fe  Fe14  1  0.37399489  0.12429561  0.37777880  1
  Fe  Fe15  1  0.00085068  0.00097888  0.00208209  1
  Fe  Fe16  1  0.50016156  -0.00300166  0.74543852  1
  Fe  Fe17  1  0.62468230  0.37299501  0.87522099  1
  Fe  Fe18  1  0.12338692  0.37351005  0.87431559  1
  Fe  Fe19  1  0.00029879  0.00082632  0.75030075  1
  Fe  Fe20  1  0.12795310  0.12527321  0.12634258  1
  Fe  Fe21  1  0.37543661  0.87597513  0.87672941  1
  Fe  Fe22  1  0.87587917  0.37794230  0.62840784  1
  Fe  Fe23  1  0.49912332  0.75174686  0.24640949  1
  Fe  Fe24  1  0.87259350  0.87821733  0.12608694  1
  Fe  Fe25  1  0.62797558  0.12731059  0.37207519  1
  Fe  Fe26  1  0.25221041  0.24946461  -0.00016827  1
  Fe  Fe27  1  0.25255161  0.75228265  0.00066265  1
  Fe  Fe28  1  0.12455682  0.12473982  0.87424990  1
  Fe  Fe29  1  0.87815942  0.37606780  0.37397671  1
  Fe  Fe30  1  0.25126723  0.75031402  0.24914259  1
  Fe  Fe31  1  0.49835894  0.25099402  0.00063045  1
  Fe  Fe32  1  -0.00177206  0.24674036  -0.00013911  1
  Fe  Fe33  1  0.12654202  0.62620445  0.87656184  1
  Fe  Fe34  1  0.12496707  0.87489098  0.62360064  1
  Fe  Fe35  1  -0.00106285  0.74629054  0.74845419  1
  Fe  Fe36  1  0.62389559  0.37415360  0.37489970  1
  Fe  Fe37  1  0.62437046  0.37390232  0.12457732  1
  Fe  Fe38  1  0.37644172  0.62233985  0.12223377  1
  Fe  Fe39  1  0.24864853  0.25027100  0.49994988  1
  Fe  Fe40  1  0.12200269  0.37603102  0.62706857  1
  Fe  Fe41  1  0.87050368  0.12246730  0.13038419  1
  Fe  Fe42  1  0.62678568  0.37578435  0.62599498  1
  Fe  Fe43  1  0.37476927  0.62298031  0.37372410  1
  Fe  Fe44  1  0.87809903  0.87641939  0.37282925  1
  Fe  Fe45  1  0.87470082  0.62486454  0.12566806  1
  Fe  Fe46  1  0.61958588  0.62815632  0.87870809  1
  Fe  Fe47  1  0.49741823  0.25046633  0.24954077  1
  Fe  Fe48  1  0.49914623  0.49801077  0.24931044  1
  Fe  Fe49  1  0.00154010  0.50141606  0.00013085  1
  Fe  Fe50  1  0.87436306  0.87559351  0.87577970  1
  Fe  Fe51  1  0.49812537  0.75228263  0.74801877  1
  Fe  Fe52  1  0.12498612  0.87601859  0.87532895  1
  Fe  Fe53  1  0.74809478  -0.00151761  0.75042555  1
  Fe  Fe54  1  -0.00071525  0.24951598  0.50043194  1
  Fe  Fe55  1  0.87645094  0.12353971  0.62520250  1
  Fe  Fe56  1  0.75122993  0.75123144  0.74951043  1
  Fe  Fe57  1  0.62515717  0.12535636  0.62613040  1
  Fe  Fe58  1  0.74952294  0.24663160  -0.00092585  1
  Fe  Fe59  1  0.50266111  -0.00233170  0.00263814  1
  Fe  Fe60  1  0.25080651  0.75115718  0.49929675  1
  Fe  Fe61  1  0.50259776  -0.00122153  0.24988919  1
  Fe  Fe62  1  0.00039405  0.75105440  0.00124737  1
  Fe  Fe63  1  0.87700937  0.37574487  0.87454450  1
  Fe  Fe64  1  0.75247284  0.25081984  0.49863070  1
  Fe  Fe65  1  0.37522552  0.37379467  0.62386621  1
  Fe  Fe66  1  0.74952707  0.75020677  0.24996159  1
  Fe  Fe67  1  0.62439904  0.62591955  0.37326991  1
  Fe  Fe68  1  0.87601716  0.37494855  0.12416787  1
  Fe  Fe69  1  0.75051778  0.50317866  0.75375886  1
  Fe  Fe70  1  0.37332497  0.62550306  0.62532052  1
  Fe  Fe71  1  0.25011389  0.50089680  0.75156331  1
  Fe  Fe72  1  0.25138822  0.00041513  0.74615607  1
  Fe  Fe73  1  0.12532262  0.62584352  0.37431367  1
  Fe  Fe74  1  0.12465518  0.12477996  0.37568286  1
  Fe  Fe75  1  0.25000762  0.49848134  0.49791273  1
  Fe  Fe76  1  0.00089760  -0.00022472  0.49810314  1
  Fe  Fe77  1  0.74969092  0.49883579  0.24995082  1
  Fe  Fe78  1  -0.00165775  0.74806858  0.50210254  1
  Fe  Fe79  1  0.37666376  0.87674027  0.37893595  1
  Fe  Fe80  1  0.25118015  0.49743246  0.00030383  1
  Fe  Fe81  1  0.62609178  0.62647076  0.62463986  1
  Fe  Fe82  1  0.37715816  0.12358940  0.87384138  1
  Fe  Fe83  1  0.75228961  0.24748857  0.75225390  1
  Fe  Fe84  1  0.12800006  0.87619946  0.12504649  1
  Fe  Fe85  1  0.24807935  -0.00145375  0.25292840  1
  Fe  Fe86  1  0.50106567  0.24950055  0.50004735  1
  Fe  Fe87  1  0.74540849  0.00227273  -0.00094871  1
  Fe  Fe88  1  0.50029175  0.50102561  0.50064518  1
  Fe  Fe89  1  0.37347645  0.12240049  0.12608266  1
  Co  Co90  1  0.24821988  -0.00018630  0.50105065  1
  Co  Co91  1  -0.00135706  0.24838055  0.75107548  1
  Co  Co92  1  0.12819097  0.62528960  0.62378419  1
  Co  Co93  1  0.37261063  0.37271595  0.87269404  1
  Co  Co94  1  0.24864511  0.00063756  -0.00203060  1
  Co  Co95  1  0.00077177  0.50516737  0.75198153  1
  Co  Co96  1  0.49856022  0.74560923  0.50059255  1
  Co  Co97  1  0.87534390  0.62737829  0.87771596  1
  Co  Co98  1  0.87513712  0.12161624  0.87462664  1
  Co  Co99  1  0.75178675  0.25471322  0.25125912  1
  Co  Co100  1  0.49871163  0.75490512  0.00412518  1
  Co  Co101  1  0.12610076  0.37111956  0.12399490  1
  Co  Co102  1  0.49836211  0.49535568  -0.00268998  1
  Co  Co103  1  0.12403090  0.37519765  0.37446397  1
  Co  Co104  1  0.00399394  -0.00021293  0.24882725  1
  Co  Co105  1  0.25052554  0.25015640  0.25254306  1
  Co  Co106  1  0.87592639  0.87681219  0.62528162  1
  Co  Co107  1  0.12441956  0.87271883  0.37566075  1
  Co  Co108  1  0.87229381  0.62266281  0.62577008  1
  Co  Co109  1  0.74635865  -0.00326564  0.25385992  1
  Co  Co110  1  0.37602406  0.62749206  0.87769648  1
  Co  Co111  1  0.62045877  0.12449779  0.87363941  1
  Co  Co112  1  0.62435173  0.87403032  0.87476903  1
  Co  Co113  1  0.62211357  0.62376348  0.12485156  1
  Co  Co114  1  0.37589097  0.12594240  0.62282533  1
  Co  Co115  1  0.37167797  0.87896364  0.12509305  1
  Co  Co116  1  0.62748838  0.87533536  0.12562246  1
  Co  Co117  1  0.87502855  0.12387037  0.37193721  1
  Co  Co118  1  0.37526662  0.37502607  0.37570863  1
  Co  Co119  1  0.62518015  0.87298842  0.62092351  1
  Co  Co120  1  0.62586638  0.12687786  0.12804291  1
  Co  Co121  1  0.12753226  0.62689781  0.12313277  1
  Co  Co122  1  0.37249554  0.37547447  0.12748670  1
  Co  Co123  1  0.50294406  0.00333047  0.50044540  1
  Co  Co124  1  0.87751160  0.62465801  0.37133824  1
  Co  Co125  1  0.37582667  0.87530484  0.61925961  1
  Co  Co126  1  0.12269735  0.12404497  0.62432090  1
  Co  Co127  1  0.24759121  0.49951567  0.24949519  1
