# generated using pymatgen
data_Fe45Co19
_symmetry_space_group_name_H-M   'P 1'
_cell_length_a   11.41615397
_cell_length_b   11.41386844
_cell_length_c   11.41550292
_cell_angle_alpha   89.99110397
_cell_angle_beta   90.00777212
_cell_angle_gamma   90.00176338
_symmetry_Int_Tables_number   1
_chemical_formula_structural   Fe45Co19
_chemical_formula_sum   'Fe90 Co38'
_cell_volume   1487.46830220
_cell_formula_units_Z   2
loop_
 _symmetry_equiv_pos_site_id
 _symmetry_equiv_pos_as_xyz
  1  'x, y, z'
loop_
 _atom_site_type_symbol
 _atom_site_label
 _atom_site_symmetry_multiplicity
 _atom_site_fract_x
 _atom_site_fract_y
 _atom_site_fract_z
 _atom_site_occupancy
  Fe  Fe0  1  0.50162550  0.25254469  0.49868397  1
  Fe  Fe1  1  0.49957854  0.49797798  0.00030466  1
  Fe  Fe2  1  0.49903328  0.74885200  0.49972481  1
  Fe  Fe3  1  0.12459337  0.87439176  0.37448628  1
  Fe  Fe4  1  0.62540995  0.37460980  0.62722877  1
  Fe  Fe5  1  0.00295384  0.24866044  0.75257185  1
  Fe  Fe6  1  0.24789725  0.24870899  -0.00317837  1
  Fe  Fe7  1  0.87328486  0.12572875  0.37454385  1
  Fe  Fe8  1  0.37487777  0.12468162  0.37713781  1
  Fe  Fe9  1  0.87302176  0.37346430  0.12594937  1
  Fe  Fe10  1  0.50021907  0.24700368  0.75014358  1
  Fe  Fe11  1  0.75119553  0.49953952  0.75132819  1
  Fe  Fe12  1  0.62481864  0.62544705  0.87590981  1
  Fe  Fe13  1  0.37451829  0.62114791  0.37483237  1
  Fe  Fe14  1  0.12258569  0.62233219  0.87452001  1
  Fe  Fe15  1  0.24878822  0.00114129  0.50139824  1
  Fe  Fe16  1  0.37590724  0.62159207  0.62499968  1
  Fe  Fe17  1  0.24909023  0.74783367  0.50182352  1
  Fe  Fe18  1  0.74857542  0.25038987  0.49997689  1
  Fe  Fe19  1  0.87654224  0.87499244  0.12726155  1
  Fe  Fe20  1  0.87901841  0.62733501  0.62683070  1
  Fe  Fe21  1  -0.00105643  0.49812322  0.00110779  1
  Fe  Fe22  1  0.62397202  0.87563650  0.62574812  1
  Fe  Fe23  1  0.74803495  -0.00178929  0.24990984  1
  Fe  Fe24  1  0.87301203  0.37420435  0.37200201  1
  Fe  Fe25  1  0.25125232  0.00482416  0.74639457  1
  Fe  Fe26  1  0.87645299  0.12276063  0.12526364  1
  Fe  Fe27  1  0.75129060  0.49981851  -0.00001936  1
  Fe  Fe28  1  0.62582188  0.62613481  0.12508935  1
  Fe  Fe29  1  0.12401290  0.87899420  0.12457851  1
  Fe  Fe30  1  0.00238448  0.24746015  -0.00073721  1
  Fe  Fe31  1  -0.00030293  -0.00002739  0.75060545  1
  Fe  Fe32  1  0.87532727  0.12723018  0.62567530  1
  Fe  Fe33  1  0.75059968  0.75054848  0.75111311  1
  Fe  Fe34  1  -0.00073650  0.00057147  0.49875253  1
  Fe  Fe35  1  0.50031647  0.25174762  0.25056300  1
  Fe  Fe36  1  0.50011013  -0.00162306  0.24982067  1
  Fe  Fe37  1  0.37629793  0.62574281  0.12503423  1
  Fe  Fe38  1  0.00065330  0.24792338  0.25021635  1
  Fe  Fe39  1  0.12586452  0.12635094  0.37479698  1
  Fe  Fe40  1  0.74928882  0.00155477  0.74899443  1
  Fe  Fe41  1  0.62364888  0.12114336  0.87761096  1
  Fe  Fe42  1  0.37465446  0.87568294  0.37634935  1
  Fe  Fe43  1  0.62388733  0.37461303  0.87479038  1
  Fe  Fe44  1  0.50215397  0.75213920  0.25131495  1
  Fe  Fe45  1  0.12586293  0.62269043  0.37615392  1
  Fe  Fe46  1  0.49956426  0.75177271  0.75242393  1
  Fe  Fe47  1  0.75014718  0.49949448  0.49975023  1
  Fe  Fe48  1  0.00042511  0.49895385  0.50107044  1
  Fe  Fe49  1  0.87383283  0.37225971  0.62771111  1
  Fe  Fe50  1  0.37569708  0.62412286  0.87575675  1
  Fe  Fe51  1  0.37453023  0.87410225  0.12526039  1
  Fe  Fe52  1  0.12796748  0.87981508  0.87589068  1
  Fe  Fe53  1  0.74937392  0.75013629  0.49877160  1
  Fe  Fe54  1  0.87611500  0.87228657  0.37262554  1
  Fe  Fe55  1  0.12474315  0.37453960  0.62741354  1
  Fe  Fe56  1  0.12430211  0.62552169  0.12218705  1
  Fe  Fe57  1  0.37276140  0.37926400  0.37355175  1
  Fe  Fe58  1  0.24845240  0.74868984  0.24941447  1
  Fe  Fe59  1  0.24781498  0.74833245  0.74952366  1
  Fe  Fe60  1  -0.00028791  0.50145626  0.24739244  1
  Fe  Fe61  1  0.49924538  0.75538337  -0.00376790  1
  Fe  Fe62  1  0.37528546  0.12462582  0.87616426  1
  Fe  Fe63  1  0.75105792  0.75361881  -0.00032528  1
  Fe  Fe64  1  0.12665276  0.37242224  0.12661553  1
  Fe  Fe65  1  0.62425254  0.62217584  0.37337208  1
  Fe  Fe66  1  0.00085020  0.25086654  0.49925061  1
  Fe  Fe67  1  0.74897839  0.24807500  0.00033513  1
  Fe  Fe68  1  0.87489627  0.12420106  0.87555287  1
  Fe  Fe69  1  0.87753232  0.62535444  0.87491989  1
  Fe  Fe70  1  0.87598536  0.62749749  0.37233827  1
  Fe  Fe71  1  0.25027044  0.49886858  0.75157665  1
  Fe  Fe72  1  0.25040485  0.75175252  -0.00165539  1
  Fe  Fe73  1  0.50068516  0.00157988  0.50331506  1
  Fe  Fe74  1  0.87720822  0.87239266  0.62530821  1
  Fe  Fe75  1  0.62364121  0.62337459  0.62582162  1
  Fe  Fe76  1  0.37568985  0.37483849  0.62743345  1
  Fe  Fe77  1  0.37553447  0.87549620  0.62562907  1
  Fe  Fe78  1  0.62755579  0.37521194  0.12768657  1
  Fe  Fe79  1  0.87566343  0.37356519  0.87522363  1
  Fe  Fe80  1  0.12319471  0.87448659  0.62418577  1
  Fe  Fe81  1  0.37293842  0.37390241  0.12479001  1
  Fe  Fe82  1  0.62507945  0.12518838  0.37589851  1
  Fe  Fe83  1  -0.00050109  0.75396902  -0.00227231  1
  Fe  Fe84  1  0.24884638  0.25207361  0.49979194  1
  Fe  Fe85  1  0.24995070  0.00248792  0.24885543  1
  Fe  Fe86  1  0.25081599  0.49829703  -0.00079277  1
  Fe  Fe87  1  0.75070710  -0.00026144  0.50120643  1
  Fe  Fe88  1  0.62265215  0.12218927  0.12250946  1
  Fe  Fe89  1  0.37580235  0.12695103  0.12368643  1
  Co  Co90  1  0.25320199  0.00182707  0.00359229  1
  Co  Co91  1  0.74682043  0.75174379  0.25031548  1
  Co  Co92  1  0.75270232  0.50260353  0.24890716  1
  Co  Co93  1  0.24918185  0.24830213  0.75180797  1
  Co  Co94  1  0.12228328  0.62390306  0.62690549  1
  Co  Co95  1  0.50141378  0.25191004  0.00086694  1
  Co  Co96  1  0.62889627  0.37529902  0.37136252  1
  Co  Co97  1  0.49858008  0.00216019  0.74895310  1
  Co  Co98  1  0.74861840  0.24882544  0.75315734  1
  Co  Co99  1  0.00326443  0.74854965  0.24865852  1
  Co  Co100  1  0.00185357  0.74938166  0.49919316  1
  Co  Co101  1  0.75215563  -0.00039044  0.00165404  1
  Co  Co102  1  0.62359492  0.87640461  0.37832787  1
  Co  Co103  1  0.37392689  0.12776997  0.62183544  1
  Co  Co104  1  0.62449883  0.87567193  0.12242532  1
  Co  Co105  1  0.49586055  -0.00498823  -0.00149920  1
  Co  Co106  1  0.62632209  0.12629528  0.62403090  1
  Co  Co107  1  0.00115304  0.00190800  0.25240099  1
  Co  Co108  1  0.50067381  0.50030038  0.75185722  1
  Co  Co109  1  0.24840944  0.49881807  0.50246731  1
  Co  Co110  1  -0.00133364  0.00034528  -0.00114447  1
  Co  Co111  1  0.12531606  0.12513124  0.12519474  1
  Co  Co112  1  0.49934970  0.49802531  0.24765991  1
  Co  Co113  1  0.74940501  0.24575456  0.24769838  1
  Co  Co114  1  0.12623037  0.12103266  0.87598478  1
  Co  Co115  1  0.37073360  0.87709583  0.87173097  1
  Co  Co116  1  0.50189809  0.49752526  0.49988652  1
  Co  Co117  1  0.00228187  0.75273029  0.75349441  1
  Co  Co118  1  0.37611174  0.37339397  0.87463430  1
  Co  Co119  1  0.12440428  0.37612893  0.37198561  1
  Co  Co120  1  0.25125310  0.24846481  0.25192021  1
  Co  Co121  1  0.12440155  0.37624580  0.87469467  1
  Co  Co122  1  0.87402766  0.62811578  0.12323956  1
  Co  Co123  1  0.24917435  0.50206454  0.24665726  1
  Co  Co124  1  0.87272865  0.87654938  0.87379258  1
  Co  Co125  1  0.62672051  0.87823130  0.87385453  1
  Co  Co126  1  -0.00211771  0.49807872  0.74914932  1
  Co  Co127  1  0.12334870  0.12662866  0.62334363  1
