# generated using pymatgen
data_Fe45Co19
_symmetry_space_group_name_H-M   'P 1'
_cell_length_a   11.41481778
_cell_length_b   11.41601408
_cell_length_c   11.41500061
_cell_angle_alpha   89.99606091
_cell_angle_beta   90.01283547
_cell_angle_gamma   90.01448638
_symmetry_Int_Tables_number   1
_chemical_formula_structural   Fe45Co19
_chemical_formula_sum   'Fe90 Co38'
_cell_volume   1487.50828047
_cell_formula_units_Z   2
loop_
 _symmetry_equiv_pos_site_id
 _symmetry_equiv_pos_as_xyz
  1  'x, y, z'
loop_
 _atom_site_type_symbol
 _atom_site_label
 _atom_site_symmetry_multiplicity
 _atom_site_fract_x
 _atom_site_fract_y
 _atom_site_fract_z
 _atom_site_occupancy
  Fe  Fe0  1  0.12699274  0.12590994  0.62522992  1
  Fe  Fe1  1  0.25072636  0.75032644  0.75137508  1
  Fe  Fe2  1  0.74802390  0.24872220  0.50036504  1
  Fe  Fe3  1  0.62294090  0.87458812  0.62569985  1
  Fe  Fe4  1  0.00147545  0.75082058  0.00601829  1
  Fe  Fe5  1  0.25170474  0.00086322  -0.00180230  1
  Fe  Fe6  1  0.37683604  0.62370048  0.37141218  1
  Fe  Fe7  1  0.75042677  0.49744182  0.00388003  1
  Fe  Fe8  1  0.24989507  0.00246602  0.25158330  1
  Fe  Fe9  1  0.37618477  0.62513708  0.87517845  1
  Fe  Fe10  1  0.37518371  0.37107472  0.12986298  1
  Fe  Fe11  1  0.12772756  0.12582300  0.87419447  1
  Fe  Fe12  1  0.87775936  0.87265214  0.62798302  1
  Fe  Fe13  1  0.87730823  0.87480911  0.87502805  1
  Fe  Fe14  1  0.75346924  0.25098792  -0.00237667  1
  Fe  Fe15  1  0.00107992  0.25066613  0.49842360  1
  Fe  Fe16  1  0.74922029  0.74915359  0.50025062  1
  Fe  Fe17  1  0.62392115  0.87558954  0.87597371  1
  Fe  Fe18  1  0.74938574  0.49988026  0.75012270  1
  Fe  Fe19  1  0.49968915  0.75086146  0.00259091  1
  Fe  Fe20  1  0.87536557  0.62467247  0.87753247  1
  Fe  Fe21  1  0.49785607  0.00210236  -0.00069964  1
  Fe  Fe22  1  0.87702887  0.62602016  0.37156954  1
  Fe  Fe23  1  0.37500151  0.62511692  0.12816388  1
  Fe  Fe24  1  0.25138708  0.49866149  0.75218950  1
  Fe  Fe25  1  0.49860974  0.49907505  0.00480595  1
  Fe  Fe26  1  0.62094216  0.37368510  0.37389602  1
  Fe  Fe27  1  0.74769128  0.75152619  0.24550992  1
  Fe  Fe28  1  0.25340572  0.25023482  -0.00034729  1
  Fe  Fe29  1  0.37423857  0.12842219  0.62499122  1
  Fe  Fe30  1  -0.00242195  0.49795506  0.00433826  1
  Fe  Fe31  1  0.00090360  -0.00051825  0.24811085  1
  Fe  Fe32  1  0.62354920  0.37347324  0.87526156  1
  Fe  Fe33  1  0.87570683  0.12550866  0.37406361  1
  Fe  Fe34  1  0.12580301  0.37651889  0.62267762  1
  Fe  Fe35  1  0.49849760  0.00195028  0.50109283  1
  Fe  Fe36  1  0.87550857  0.37535276  0.37399722  1
  Fe  Fe37  1  0.87477998  0.12605488  0.12515610  1
  Fe  Fe38  1  0.12461504  0.87695932  0.37606670  1
  Fe  Fe39  1  0.24942051  0.25204998  0.49423893  1
  Fe  Fe40  1  0.49639781  0.24791630  -0.00017019  1
  Fe  Fe41  1  0.00501781  0.25173408  0.24972292  1
  Fe  Fe42  1  0.24951164  0.74955350  0.49962496  1
  Fe  Fe43  1  0.74920115  0.50061178  0.49937193  1
  Fe  Fe44  1  0.12456528  0.87520190  0.87475669  1
  Fe  Fe45  1  0.24963991  0.74930216  0.00219930  1
  Fe  Fe46  1  -0.00053460  0.00027790  0.50139902  1
  Fe  Fe47  1  0.62529135  0.12409672  0.37677768  1
  Fe  Fe48  1  0.50034652  0.74861419  0.49929510  1
  Fe  Fe49  1  0.74808610  0.74764591  0.75091267  1
  Fe  Fe50  1  0.24827759  0.49617425  0.24995129  1
  Fe  Fe51  1  0.62330158  0.62524018  0.37178329  1
  Fe  Fe52  1  0.87627064  0.87325559  0.37222656  1
  Fe  Fe53  1  0.12715179  0.12653812  0.12395111  1
  Fe  Fe54  1  0.74948696  0.75168794  0.00313582  1
  Fe  Fe55  1  0.00003532  0.00177679  -0.00029096  1
  Fe  Fe56  1  0.50009416  0.00148181  0.24853021  1
  Fe  Fe57  1  0.37638635  0.62590999  0.62654326  1
  Fe  Fe58  1  0.25293966  0.25483656  0.75267702  1
  Fe  Fe59  1  0.62450755  0.12698434  0.87193713  1
  Fe  Fe60  1  0.87445151  0.12633667  0.62617716  1
  Fe  Fe61  1  0.62358336  0.37198502  0.62596848  1
  Fe  Fe62  1  0.87484640  0.37471886  0.62570725  1
  Fe  Fe63  1  0.75081579  -0.00043186  0.50136809  1
  Fe  Fe64  1  0.62650387  0.12488679  0.12204672  1
  Fe  Fe65  1  0.87547366  0.12524387  0.87297135  1
  Fe  Fe66  1  0.25272594  -0.00318185  0.74910773  1
  Fe  Fe67  1  0.74881351  -0.00026025  0.24837725  1
  Fe  Fe68  1  0.74718989  0.25023951  0.25005531  1
  Fe  Fe69  1  0.87603564  0.62612744  0.62437862  1
  Fe  Fe70  1  0.25221003  0.49880159  0.49775359  1
  Fe  Fe71  1  0.49610421  -0.00077486  0.75042479  1
  Fe  Fe72  1  0.37429196  0.87720355  0.12515141  1
  Fe  Fe73  1  0.12381910  0.87484890  0.62532898  1
  Fe  Fe74  1  0.12534742  0.37654270  0.88016233  1
  Fe  Fe75  1  0.62384084  0.87509172  0.37360323  1
  Fe  Fe76  1  0.24745630  0.75051168  0.24921646  1
  Fe  Fe77  1  0.00147961  0.49782162  0.24636392  1
  Fe  Fe78  1  0.00086801  0.25154103  0.75245764  1
  Fe  Fe79  1  0.49878364  0.49815581  0.74927012  1
  Fe  Fe80  1  0.49867710  0.49890040  0.49958073  1
  Fe  Fe81  1  0.75054811  0.00053660  0.75035677  1
  Fe  Fe82  1  0.74609030  0.49816094  0.24595114  1
  Fe  Fe83  1  0.00088981  0.50056155  0.75044859  1
  Fe  Fe84  1  0.12556665  0.62282880  0.87961592  1
  Fe  Fe85  1  0.37481803  0.12847377  0.37328905  1
  Fe  Fe86  1  0.37443172  0.87514628  0.37606738  1
  Fe  Fe87  1  0.12166471  0.62416643  0.37482979  1
  Fe  Fe88  1  0.12359808  0.62494695  0.62373037  1
  Fe  Fe89  1  0.62361559  0.62357226  0.87674101  1
  Co  Co90  1  0.12274510  0.37872609  0.37772302  1
  Co  Co91  1  0.49642225  0.25133888  0.75076106  1
  Co  Co92  1  0.37893091  0.37344821  0.37107861  1
  Co  Co93  1  0.12337856  0.12165425  0.37592612  1
  Co  Co94  1  0.00116060  0.00235543  0.75068916  1
  Co  Co95  1  -0.00200164  0.24850140  -0.00159375  1
  Co  Co96  1  0.62423378  0.12484927  0.62797894  1
  Co  Co97  1  0.62380703  0.87827183  0.12359182  1
  Co  Co98  1  0.25134432  0.00124050  0.50098875  1
  Co  Co99  1  0.37365521  0.37400873  0.62202261  1
  Co  Co100  1  0.75137474  0.25077231  0.75109095  1
  Co  Co101  1  0.12707393  0.37327190  0.11933385  1
  Co  Co102  1  0.00005039  0.75064491  0.49887573  1
  Co  Co103  1  0.87426883  0.62493076  0.12675573  1
  Co  Co104  1  0.50306728  0.24602553  0.24876560  1
  Co  Co105  1  0.50088606  0.74991816  0.75172170  1
  Co  Co106  1  0.50306986  0.49901070  0.24642258  1
  Co  Co107  1  0.87467813  0.37204487  0.12697811  1
  Co  Co108  1  0.49942770  0.75233140  0.24828994  1
  Co  Co109  1  0.37187595  0.12541197  0.12696130  1
  Co  Co110  1  -0.00259403  0.50058620  0.50104144  1
  Co  Co111  1  0.50089277  0.24890289  0.49970154  1
  Co  Co112  1  0.24471910  0.25153914  0.25330772  1
  Co  Co113  1  0.62427133  0.37027892  0.12228037  1
  Co  Co114  1  0.37303297  0.12462631  0.87255157  1
  Co  Co115  1  0.00160292  0.74667871  0.75207390  1
  Co  Co116  1  0.37455760  0.87310337  0.87760847  1
  Co  Co117  1  0.75100288  0.00141557  -0.00247901  1
  Co  Co118  1  0.37705463  0.37687349  0.87686220  1
  Co  Co119  1  0.87580864  0.37736873  0.87432084  1
  Co  Co120  1  0.12638344  0.62145910  0.12450088  1
  Co  Co121  1  0.12820969  0.87916001  0.12463248  1
  Co  Co122  1  0.62447395  0.62670040  0.12448148  1
  Co  Co123  1  0.87381873  0.87753473  0.12447494  1
  Co  Co124  1  0.25557715  0.49938366  0.00199598  1
  Co  Co125  1  0.62328115  0.62427455  0.62493809  1
  Co  Co126  1  0.37636669  0.87192858  0.62289699  1
  Co  Co127  1  0.00373598  0.75159133  0.24600380  1
