# generated using pymatgen
data_Fe45Co19
_symmetry_space_group_name_H-M   'P 1'
_cell_length_a   11.41619162
_cell_length_b   11.41458755
_cell_length_c   11.41477755
_cell_angle_alpha   90.00316314
_cell_angle_beta   89.99730560
_cell_angle_gamma   90.00806492
_symmetry_Int_Tables_number   1
_chemical_formula_structural   Fe45Co19
_chemical_formula_sum   'Fe90 Co38'
_cell_volume   1487.47241493
_cell_formula_units_Z   2
loop_
 _symmetry_equiv_pos_site_id
 _symmetry_equiv_pos_as_xyz
  1  'x, y, z'
loop_
 _atom_site_type_symbol
 _atom_site_label
 _atom_site_symmetry_multiplicity
 _atom_site_fract_x
 _atom_site_fract_y
 _atom_site_fract_z
 _atom_site_occupancy
  Fe  Fe0  1  0.24715458  0.74966517  0.49912078  1
  Fe  Fe1  1  0.37576790  0.12845393  0.37792951  1
  Fe  Fe2  1  0.50111664  0.75066797  0.50007194  1
  Fe  Fe3  1  0.12368588  0.87941619  0.12768729  1
  Fe  Fe4  1  0.00313078  0.74838859  0.49862763  1
  Fe  Fe5  1  0.62330459  0.12595448  0.12350060  1
  Fe  Fe6  1  0.00227309  0.50046908  0.49960830  1
  Fe  Fe7  1  0.37449846  0.87441406  0.12113368  1
  Fe  Fe8  1  0.87607258  0.87222642  0.62404655  1
  Fe  Fe9  1  0.37465127  0.87612210  0.37574365  1
  Fe  Fe10  1  0.62454791  0.62390408  0.12547862  1
  Fe  Fe11  1  0.74678053  0.24963431  0.50274424  1
  Fe  Fe12  1  0.62638884  0.37757358  0.87136887  1
  Fe  Fe13  1  0.74794300  0.74923582  0.49862211  1
  Fe  Fe14  1  0.62590784  0.12477324  0.37319371  1
  Fe  Fe15  1  0.74899339  0.50078462  0.49863056  1
  Fe  Fe16  1  0.50211444  0.24891375  0.75014399  1
  Fe  Fe17  1  0.24961613  0.00258810  0.74899581  1
  Fe  Fe18  1  0.62489659  0.37429887  0.12744742  1
  Fe  Fe19  1  0.50120864  0.49859026  0.50021635  1
  Fe  Fe20  1  0.75197994  0.74762058  0.75293326  1
  Fe  Fe21  1  0.87497846  0.37350400  0.37528923  1
  Fe  Fe22  1  0.49991273  -0.00161433  0.75186539  1
  Fe  Fe23  1  0.12476746  0.37799246  0.87189896  1
  Fe  Fe24  1  0.37434198  0.62554154  0.37558531  1
  Fe  Fe25  1  0.37379375  0.37082169  0.62251385  1
  Fe  Fe26  1  0.74721856  0.74937077  0.00039595  1
  Fe  Fe27  1  0.24896450  0.00152794  0.00078177  1
  Fe  Fe28  1  0.00292703  0.25315021  0.00054341  1
  Fe  Fe29  1  0.12425033  0.87564152  0.62697664  1
  Fe  Fe30  1  0.12543306  0.62164234  0.62810934  1
  Fe  Fe31  1  0.24751059  0.24911039  0.74681499  1
  Fe  Fe32  1  0.37804466  0.13045963  0.11885501  1
  Fe  Fe33  1  -0.00116483  0.49739819  0.24833114  1
  Fe  Fe34  1  0.62881664  0.12080482  0.87357969  1
  Fe  Fe35  1  0.00374854  0.25030328  0.50153243  1
  Fe  Fe36  1  0.74821536  0.25205484  -0.00085336  1
  Fe  Fe37  1  0.12603597  0.87864217  0.37123568  1
  Fe  Fe38  1  0.62400138  0.37281843  0.37325199  1
  Fe  Fe39  1  0.50174229  0.00295792  0.50236125  1
  Fe  Fe40  1  0.37458014  0.62493826  0.62359790  1
  Fe  Fe41  1  0.24622302  0.49758016  0.49810230  1
  Fe  Fe42  1  0.87374994  0.12373536  0.87813085  1
  Fe  Fe43  1  0.50087208  0.75270906  -0.00614338  1
  Fe  Fe44  1  -0.00151314  0.25201814  0.74984042  1
  Fe  Fe45  1  0.75631459  0.00181014  0.24548346  1
  Fe  Fe46  1  0.25095918  0.75132783  0.24973787  1
  Fe  Fe47  1  0.37463151  0.87531909  0.62609025  1
  Fe  Fe48  1  -0.00227757  0.74616176  0.75191840  1
  Fe  Fe49  1  0.50143079  0.49700334  -0.00097643  1
  Fe  Fe50  1  0.87424885  0.62506194  0.37373451  1
  Fe  Fe51  1  0.62418863  0.62561059  0.62890817  1
  Fe  Fe52  1  0.25160472  0.25050373  0.24713217  1
  Fe  Fe53  1  0.37329371  0.37132081  0.87822073  1
  Fe  Fe54  1  -0.00284840  -0.00131704  0.75209940  1
  Fe  Fe55  1  0.87530473  0.37622929  0.62446285  1
  Fe  Fe56  1  0.49955759  0.75036989  0.25029608  1
  Fe  Fe57  1  0.87222447  0.62156032  0.12265672  1
  Fe  Fe58  1  0.75573967  0.50389545  0.75216406  1
  Fe  Fe59  1  0.12711037  0.87517756  0.87440741  1
  Fe  Fe60  1  0.49641755  0.00216377  0.24760864  1
  Fe  Fe61  1  0.25339997  0.74752640  0.75224317  1
  Fe  Fe62  1  0.37508355  0.12645696  0.87678393  1
  Fe  Fe63  1  -0.00052770  0.00075154  0.49851479  1
  Fe  Fe64  1  0.24921906  0.00366180  0.50207622  1
  Fe  Fe65  1  0.12350837  0.12519248  0.87432375  1
  Fe  Fe66  1  0.12197186  0.12341492  0.12590945  1
  Fe  Fe67  1  -0.00350854  0.24945215  0.24770660  1
  Fe  Fe68  1  0.37501789  0.37062841  0.37774094  1
  Fe  Fe69  1  0.62502464  0.87351357  0.62893856  1
  Fe  Fe70  1  0.87366197  0.87422318  0.37369950  1
  Fe  Fe71  1  0.87329824  0.87476103  0.87972174  1
  Fe  Fe72  1  0.24860515  0.49686698  0.00115787  1
  Fe  Fe73  1  0.37512654  0.62549178  0.12139583  1
  Fe  Fe74  1  0.49481307  0.50145998  0.75106766  1
  Fe  Fe75  1  -0.00153812  0.75073650  0.24895850  1
  Fe  Fe76  1  0.62578601  0.87733106  0.37160226  1
  Fe  Fe77  1  0.12623638  0.62167223  0.87376329  1
  Fe  Fe78  1  0.62434058  0.87627181  0.12508887  1
  Fe  Fe79  1  0.12519679  0.12460965  0.37200589  1
  Fe  Fe80  1  0.87453148  0.12593757  0.62587672  1
  Fe  Fe81  1  0.25221762  0.49671158  0.24933769  1
  Fe  Fe82  1  0.75015693  0.00098763  0.50239843  1
  Fe  Fe83  1  0.49791907  0.49799868  0.24967452  1
  Fe  Fe84  1  0.00377074  0.74909674  0.00098782  1
  Fe  Fe85  1  0.75366504  0.24900091  0.24761453  1
  Fe  Fe86  1  0.87637287  0.37947454  0.87988363  1
  Fe  Fe87  1  0.62671888  0.37604493  0.62881098  1
  Fe  Fe88  1  0.12722063  0.62337636  0.12730808  1
  Fe  Fe89  1  0.62493388  0.62513221  0.37230013  1
  Co  Co90  1  0.50659758  0.25166222  -0.00447058  1
  Co  Co91  1  0.37098525  0.87751756  0.87595924  1
  Co  Co92  1  0.62766959  0.12469022  0.63041801  1
  Co  Co93  1  0.49973275  -0.00051422  -0.00153528  1
  Co  Co94  1  0.25498958  0.49838769  0.75131157  1
  Co  Co95  1  0.24440369  0.24952964  0.00010299  1
  Co  Co96  1  0.24636159  0.75074426  0.00032826  1
  Co  Co97  1  0.87474772  0.62627625  0.62109876  1
  Co  Co98  1  -0.00550711  0.50251937  0.75016795  1
  Co  Co99  1  0.12507894  0.37367732  0.12743284  1
  Co  Co100  1  0.87326519  0.12769288  0.37853369  1
  Co  Co101  1  0.11994851  0.12286811  0.62739951  1
  Co  Co102  1  0.49596479  0.75053984  0.75387240  1
  Co  Co103  1  0.74960799  0.49852581  0.25115590  1
  Co  Co104  1  0.74996837  0.00014206  0.00422073  1
  Co  Co105  1  -0.00707670  0.00233724  0.25132226  1
  Co  Co106  1  0.62301107  0.62392812  0.87268279  1
  Co  Co107  1  0.37647619  0.37156246  0.12079577  1
  Co  Co108  1  0.25580480  0.00307237  0.24718832  1
  Co  Co109  1  0.49878276  0.25005512  0.25010511  1
  Co  Co110  1  0.74497450  0.49857351  -0.00072300  1
  Co  Co111  1  0.87584716  0.62374877  0.88295566  1
  Co  Co112  1  0.87351086  0.37670006  0.12188606  1
  Co  Co113  1  0.75338367  0.25199880  0.75257090  1
  Co  Co114  1  0.62867190  0.87754671  0.87400496  1
  Co  Co115  1  0.75050441  0.75063429  0.24768557  1
  Co  Co116  1  0.00210522  -0.00145117  -0.00244584  1
  Co  Co117  1  0.87842812  0.12664933  0.11738635  1
  Co  Co118  1  0.24478520  0.24783706  0.50361577  1
  Co  Co119  1  0.75491088  -0.00229321  0.74849343  1
  Co  Co120  1  0.37731951  0.12672949  0.62622689  1
  Co  Co121  1  0.12383417  0.37854078  0.62880107  1
  Co  Co122  1  0.12434834  0.37183670  0.37203975  1
  Co  Co123  1  0.87727224  0.87431188  0.12151362  1
  Co  Co124  1  0.00482818  0.49997713  0.00291293  1
  Co  Co125  1  0.37415390  0.62380133  0.88048743  1
  Co  Co126  1  0.12517367  0.62405969  0.37107048  1
  Co  Co127  1  0.50552875  0.24879848  0.50275047  1
