# generated using pymatgen
data_Fe45Co19
_symmetry_space_group_name_H-M   'P 1'
_cell_length_a   11.41567542
_cell_length_b   11.41465367
_cell_length_c   11.41502649
_cell_angle_alpha   89.99735978
_cell_angle_beta   89.99680004
_cell_angle_gamma   90.00021621
_symmetry_Int_Tables_number   1
_chemical_formula_structural   Fe45Co19
_chemical_formula_sum   'Fe90 Co38'
_cell_volume   1487.44622483
_cell_formula_units_Z   2
loop_
 _symmetry_equiv_pos_site_id
 _symmetry_equiv_pos_as_xyz
  1  'x, y, z'
loop_
 _atom_site_type_symbol
 _atom_site_label
 _atom_site_symmetry_multiplicity
 _atom_site_fract_x
 _atom_site_fract_y
 _atom_site_fract_z
 _atom_site_occupancy
  Fe  Fe0  1  -0.00143594  0.25080941  0.49947558  1
  Fe  Fe1  1  0.50128171  0.49936695  0.24958917  1
  Fe  Fe2  1  0.37664913  0.87707994  0.12521951  1
  Fe  Fe3  1  0.62298094  0.12293327  0.12918533  1
  Fe  Fe4  1  0.50260295  0.49878952  -0.00257221  1
  Fe  Fe5  1  0.37536514  0.87260320  0.37797294  1
  Fe  Fe6  1  0.49984280  0.25013121  0.74914387  1
  Fe  Fe7  1  0.37464728  0.37737257  0.12379106  1
  Fe  Fe8  1  0.25080305  0.24881671  0.50027602  1
  Fe  Fe9  1  0.62453562  0.37123484  0.37406045  1
  Fe  Fe10  1  0.25042085  -0.00236727  0.00058664  1
  Fe  Fe11  1  0.74791649  0.75144050  0.75247503  1
  Fe  Fe12  1  -0.00482932  0.50707791  0.00274442  1
  Fe  Fe13  1  0.50482503  0.74865164  0.50381179  1
  Fe  Fe14  1  0.62612592  0.87628049  0.37325806  1
  Fe  Fe15  1  0.62808052  0.87526095  0.62669280  1
  Fe  Fe16  1  0.37445826  0.37736642  0.62542754  1
  Fe  Fe17  1  0.25269994  -0.00013968  0.25136399  1
  Fe  Fe18  1  -0.00234481  0.24910335  0.75095934  1
  Fe  Fe19  1  0.37598882  0.12238201  0.62184621  1
  Fe  Fe20  1  0.12486774  0.87283486  0.37494652  1
  Fe  Fe21  1  0.25093813  0.74871117  0.24702686  1
  Fe  Fe22  1  0.50056112  -0.00157586  0.74910235  1
  Fe  Fe23  1  0.86954553  0.87103515  0.12676612  1
  Fe  Fe24  1  0.50354960  0.50142089  0.50159971  1
  Fe  Fe25  1  0.87446342  0.12450162  0.12409888  1
  Fe  Fe26  1  0.87329989  0.37497373  0.37433764  1
  Fe  Fe27  1  0.37701122  0.87346231  0.87473948  1
  Fe  Fe28  1  0.87424480  0.37734347  0.62305051  1
  Fe  Fe29  1  0.12304023  0.12372743  0.87678938  1
  Fe  Fe30  1  -0.00080199  -0.00365128  0.00136307  1
  Fe  Fe31  1  0.87237737  0.62622326  0.62540600  1
  Fe  Fe32  1  0.87443808  0.12323667  0.62330934  1
  Fe  Fe33  1  0.37437537  0.87346746  0.62186753  1
  Fe  Fe34  1  0.12541236  0.12270795  0.12574034  1
  Fe  Fe35  1  -0.00164885  0.25214746  0.24835846  1
  Fe  Fe36  1  -0.00151362  -0.00266951  0.49794860  1
  Fe  Fe37  1  0.12441840  0.62902443  0.87970632  1
  Fe  Fe38  1  0.25317032  0.25023424  0.24898558  1
  Fe  Fe39  1  0.62737675  0.37666509  0.12552995  1
  Fe  Fe40  1  0.87272770  0.87216398  0.62087566  1
  Fe  Fe41  1  0.24988508  0.50236283  0.75227182  1
  Fe  Fe42  1  0.37690249  0.37578213  0.37623626  1
  Fe  Fe43  1  0.87479399  0.37482993  0.87717514  1
  Fe  Fe44  1  0.50029719  0.50006282  0.75132061  1
  Fe  Fe45  1  -0.00021147  0.50261372  0.75101578  1
  Fe  Fe46  1  0.12595673  0.38184726  0.12759904  1
  Fe  Fe47  1  0.37947298  0.62636664  0.37611928  1
  Fe  Fe48  1  0.87230555  0.62938176  0.37142182  1
  Fe  Fe49  1  0.74727348  0.50379965  0.49683902  1
  Fe  Fe50  1  -0.00008864  0.74978976  0.74887862  1
  Fe  Fe51  1  0.12325005  0.37642979  0.87622982  1
  Fe  Fe52  1  0.25008349  0.25178440  0.00075630  1
  Fe  Fe53  1  0.50273720  0.75131549  0.24722457  1
  Fe  Fe54  1  0.12378246  0.37687499  0.62381471  1
  Fe  Fe55  1  0.62398499  0.12612824  0.37381484  1
  Fe  Fe56  1  0.24986761  0.24986622  0.75030333  1
  Fe  Fe57  1  0.63034690  0.62517533  0.12605369  1
  Fe  Fe58  1  0.00006177  0.25110242  0.00244931  1
  Fe  Fe59  1  0.87133923  0.38025787  0.12679171  1
  Fe  Fe60  1  0.12511160  0.37644410  0.37368006  1
  Fe  Fe61  1  0.37958221  0.12452984  0.37654728  1
  Fe  Fe62  1  0.12416192  0.87148549  0.87808828  1
  Fe  Fe63  1  0.62514541  0.62697932  0.87329983  1
  Fe  Fe64  1  0.37618317  0.62734193  0.87624928  1
  Fe  Fe65  1  0.50113814  -0.00118384  0.00050517  1
  Fe  Fe66  1  0.12511490  0.62600038  0.37206912  1
  Fe  Fe67  1  0.74822755  -0.00191304  -0.00031994  1
  Fe  Fe68  1  0.87376632  0.87353611  0.87644511  1
  Fe  Fe69  1  0.75047464  0.49960229  0.75422052  1
  Fe  Fe70  1  0.50355485  0.75179491  0.00028469  1
  Fe  Fe71  1  0.62677013  0.12318522  0.62338598  1
  Fe  Fe72  1  0.75266650  0.24863515  0.75082497  1
  Fe  Fe73  1  -0.00068694  0.50430545  0.49814867  1
  Fe  Fe74  1  -0.00313661  -0.00242018  0.24935328  1
  Fe  Fe75  1  0.12377357  0.12486045  0.37355406  1
  Fe  Fe76  1  0.37467697  0.62313779  0.12349685  1
  Fe  Fe77  1  0.37479395  0.12497710  0.87605046  1
  Fe  Fe78  1  0.87305190  0.12483191  0.37426655  1
  Fe  Fe79  1  0.12335840  0.12384042  0.62386495  1
  Fe  Fe80  1  0.62647989  0.12348435  0.87336194  1
  Fe  Fe81  1  0.25154693  0.74849106  0.74802993  1
  Fe  Fe82  1  0.62738669  0.37528525  0.62568282  1
  Fe  Fe83  1  0.74921596  0.25035543  0.00041017  1
  Fe  Fe84  1  0.24997139  0.50473090  0.49982176  1
  Fe  Fe85  1  0.00088297  0.74820001  0.24435144  1
  Fe  Fe86  1  0.24915948  -0.00172554  0.74922786  1
  Fe  Fe87  1  0.50023611  0.25067962  0.00035034  1
  Fe  Fe88  1  0.12533372  0.87249220  0.62079685  1
  Fe  Fe89  1  -0.00198186  -0.00124091  0.75064964  1
  Co  Co90  1  0.62752473  0.62425784  0.62885122  1
  Co  Co91  1  0.25174248  0.75190081  0.00343977  1
  Co  Co92  1  0.50276494  -0.00284260  0.49999181  1
  Co  Co93  1  0.74551035  0.75201253  0.25260596  1
  Co  Co94  1  0.12322907  0.62502126  0.62584724  1
  Co  Co95  1  0.49788086  0.25192862  0.24804683  1
  Co  Co96  1  0.75259943  -0.00044842  0.74991963  1
  Co  Co97  1  -0.00021139  0.74707776  0.49931628  1
  Co  Co98  1  0.24924642  0.74565343  0.50034076  1
  Co  Co99  1  0.74604552  0.74795314  0.49817283  1
  Co  Co100  1  0.87491934  0.62874395  0.87229634  1
  Co  Co101  1  -0.00223024  0.50323625  0.24990879  1
  Co  Co102  1  0.75073512  0.24960728  0.24865593  1
  Co  Co103  1  0.87540201  0.87065516  0.37488401  1
  Co  Co104  1  0.74993057  0.24921233  0.50020342  1
  Co  Co105  1  0.75024577  0.50239083  -0.00428318  1
  Co  Co106  1  0.75109919  0.00015595  0.25112587  1
  Co  Co107  1  0.75010368  -0.00079653  0.49732773  1
  Co  Co108  1  0.74712290  0.49934237  0.25506959  1
  Co  Co109  1  0.62439470  0.87610981  0.87391881  1
  Co  Co110  1  0.50034192  0.75074742  0.74850212  1
  Co  Co111  1  0.62597553  0.37266497  0.87407297  1
  Co  Co112  1  0.25179997  0.49977167  -0.00350466  1
  Co  Co113  1  0.49896943  -0.00233451  0.25139503  1
  Co  Co114  1  0.25366439  0.50215677  0.25269257  1
  Co  Co115  1  0.37674000  0.37346642  0.87442058  1
  Co  Co116  1  0.86576437  0.62592835  0.12965002  1
  Co  Co117  1  0.12592162  0.87650591  0.12601110  1
  Co  Co118  1  0.24917768  0.00012820  0.49805282  1
  Co  Co119  1  0.37609252  0.12319573  0.12355700  1
  Co  Co120  1  0.62134686  0.62631745  0.37240188  1
  Co  Co121  1  0.12910448  0.62205676  0.12333813  1
  Co  Co122  1  0.50091724  0.25149531  0.50279429  1
  Co  Co123  1  0.62665899  0.87564110  0.12530671  1
  Co  Co124  1  0.37819855  0.62442817  0.62422032  1
  Co  Co125  1  -0.00298328  0.74714171  0.00608328  1
  Co  Co126  1  0.87517416  0.12387822  0.87856854  1
  Co  Co127  1  0.74861123  0.74896566  -0.00307176  1
