# generated using pymatgen
data_Fe45Co19
_symmetry_space_group_name_H-M   'P 1'
_cell_length_a   11.41414190
_cell_length_b   11.41497419
_cell_length_c   11.41594397
_cell_angle_alpha   89.99742690
_cell_angle_beta   89.99877471
_cell_angle_gamma   90.00475551
_symmetry_Int_Tables_number   1
_chemical_formula_structural   Fe45Co19
_chemical_formula_sum   'Fe90 Co38'
_cell_volume   1487.40770743
_cell_formula_units_Z   2
loop_
 _symmetry_equiv_pos_site_id
 _symmetry_equiv_pos_as_xyz
  1  'x, y, z'
loop_
 _atom_site_type_symbol
 _atom_site_label
 _atom_site_symmetry_multiplicity
 _atom_site_fract_x
 _atom_site_fract_y
 _atom_site_fract_z
 _atom_site_occupancy
  Fe  Fe0  1  0.49999743  0.49941547  0.74884639  1
  Fe  Fe1  1  0.62521827  0.62398273  0.87435604  1
  Fe  Fe2  1  0.63138163  0.62355212  0.62499534  1
  Fe  Fe3  1  0.37467055  0.62535504  0.62597221  1
  Fe  Fe4  1  0.12608931  0.37556577  0.87317505  1
  Fe  Fe5  1  0.49989088  0.49774888  0.49894518  1
  Fe  Fe6  1  0.62210990  0.62357401  0.37265542  1
  Fe  Fe7  1  0.37651920  0.62669403  0.87284330  1
  Fe  Fe8  1  0.00186577  0.50234216  0.24979462  1
  Fe  Fe9  1  0.74977460  0.25125973  0.75194666  1
  Fe  Fe10  1  0.75069655  0.24891284  0.49793616  1
  Fe  Fe11  1  0.00219032  0.25012841  0.74462034  1
  Fe  Fe12  1  0.63004577  0.12088111  0.62617689  1
  Fe  Fe13  1  0.62386840  0.12602274  0.87557999  1
  Fe  Fe14  1  0.49768326  -0.00131178  0.00017588  1
  Fe  Fe15  1  0.25076768  0.50156812  0.50010461  1
  Fe  Fe16  1  0.37407279  0.37267286  0.37602783  1
  Fe  Fe17  1  0.24626339  0.24575009  0.24984459  1
  Fe  Fe18  1  0.00206003  0.25020610  0.00137030  1
  Fe  Fe19  1  0.25076142  -0.00236438  0.75218079  1
  Fe  Fe20  1  0.62456579  0.12142926  0.12538376  1
  Fe  Fe21  1  0.49805362  0.50140841  0.00191270  1
  Fe  Fe22  1  -0.00272029  0.74943681  0.50405396  1
  Fe  Fe23  1  0.37240240  0.37476045  0.62888586  1
  Fe  Fe24  1  0.62752312  0.37623535  0.62396878  1
  Fe  Fe25  1  0.49469064  -0.00603902  0.24860929  1
  Fe  Fe26  1  0.62352600  0.37616823  0.12636471  1
  Fe  Fe27  1  0.00265765  0.75046623  0.24705243  1
  Fe  Fe28  1  0.25000476  0.75062442  0.50194651  1
  Fe  Fe29  1  0.62267843  0.12326956  0.37334584  1
  Fe  Fe30  1  0.87568685  0.62798867  0.37510633  1
  Fe  Fe31  1  0.12766400  0.87687047  0.12137952  1
  Fe  Fe32  1  0.37461423  0.12958678  0.87297284  1
  Fe  Fe33  1  0.75133684  -0.00156229  0.25283246  1
  Fe  Fe34  1  0.87447822  0.87525836  0.12541412  1
  Fe  Fe35  1  0.87678078  0.62825529  0.87310733  1
  Fe  Fe36  1  -0.00121402  0.50229283  0.50031803  1
  Fe  Fe37  1  0.37005536  0.12272351  0.12301377  1
  Fe  Fe38  1  0.12520167  0.87780049  0.37874917  1
  Fe  Fe39  1  0.50445154  0.75205809  0.50138659  1
  Fe  Fe40  1  -0.00187074  0.50181820  0.74894790  1
  Fe  Fe41  1  0.62460388  0.87536383  0.87509054  1
  Fe  Fe42  1  0.62152878  0.37450458  0.87527809  1
  Fe  Fe43  1  0.87642858  0.12463037  0.12424744  1
  Fe  Fe44  1  0.87366362  0.37733441  0.62445012  1
  Fe  Fe45  1  0.12509095  0.62659904  0.37597032  1
  Fe  Fe46  1  0.74779292  0.74941159  0.00077431  1
  Fe  Fe47  1  0.75056831  0.25085377  0.00074899  1
  Fe  Fe48  1  0.37676830  0.87183953  0.87539265  1
  Fe  Fe49  1  0.87742375  0.37360879  0.37556827  1
  Fe  Fe50  1  0.86549080  0.87523682  0.62382018  1
  Fe  Fe51  1  0.50129291  -0.00000490  0.75020249  1
  Fe  Fe52  1  0.12601187  0.37672224  0.12459821  1
  Fe  Fe53  1  0.37688430  0.62976235  0.12678757  1
  Fe  Fe54  1  0.87349964  0.62505797  0.12574138  1
  Fe  Fe55  1  0.00377910  0.00143630  0.24898775  1
  Fe  Fe56  1  0.49785354  0.25002533  0.00165969  1
  Fe  Fe57  1  0.12505512  0.12386031  0.87421231  1
  Fe  Fe58  1  0.37787781  0.62877253  0.37429892  1
  Fe  Fe59  1  0.12448379  0.37444840  0.37760788  1
  Fe  Fe60  1  0.00402107  0.24734596  0.24958846  1
  Fe  Fe61  1  0.24981574  0.75381204  0.25218375  1
  Fe  Fe62  1  0.74974440  0.24923957  0.24952822  1
  Fe  Fe63  1  0.12184722  0.63131855  0.87066648  1
  Fe  Fe64  1  0.87623776  0.87057981  0.87589839  1
  Fe  Fe65  1  0.25063031  0.50145958  -0.00317703  1
  Fe  Fe66  1  0.00033746  -0.00172718  -0.00165301  1
  Fe  Fe67  1  0.75190861  0.00096047  -0.00232203  1
  Fe  Fe68  1  -0.00362507  -0.00273162  0.74983259  1
  Fe  Fe69  1  0.50343600  0.75032521  0.74838961  1
  Fe  Fe70  1  0.75163027  0.49847301  -0.00230470  1
  Fe  Fe71  1  0.24782981  0.75001255  -0.00342029  1
  Fe  Fe72  1  0.87708045  0.37568587  0.12465818  1
  Fe  Fe73  1  0.24525301  0.24774396  0.50465767  1
  Fe  Fe74  1  0.37281866  0.37498046  0.12534817  1
  Fe  Fe75  1  0.12640668  0.87579185  0.62712902  1
  Fe  Fe76  1  0.74689207  0.75364170  0.25189577  1
  Fe  Fe77  1  0.37089031  0.12188722  0.37666641  1
  Fe  Fe78  1  0.37676440  0.87418346  0.62479280  1
  Fe  Fe79  1  0.87890377  0.12533734  0.37593274  1
  Fe  Fe80  1  0.00093619  0.50336208  -0.00001342  1
  Fe  Fe81  1  0.25115052  0.50188174  0.25166337  1
  Fe  Fe82  1  0.49992323  -0.00021687  0.50168604  1
  Fe  Fe83  1  0.49791265  0.24933859  0.24966234  1
  Fe  Fe84  1  0.74906934  0.49795600  0.25227855  1
  Fe  Fe85  1  0.12583307  0.62516084  0.62717206  1
  Fe  Fe86  1  0.50026770  0.24828974  0.50214924  1
  Fe  Fe87  1  0.87678016  0.12822236  0.87383712  1
  Fe  Fe88  1  -0.00349900  0.00096517  0.50329855  1
  Fe  Fe89  1  0.37344658  0.12506945  0.62796988  1
  Co  Co90  1  0.00026264  0.74926825  0.00495100  1
  Co  Co91  1  0.75132154  0.49812143  0.75465259  1
  Co  Co92  1  0.12880506  0.62534256  0.12547219  1
  Co  Co93  1  0.12435362  0.11959984  0.62634381  1
  Co  Co94  1  0.74884257  0.75029047  0.75146590  1
  Co  Co95  1  0.62940893  0.87874619  0.62525125  1
  Co  Co96  1  0.86905984  0.62311273  0.62477022  1
  Co  Co97  1  0.50265477  0.75571252  0.24872083  1
  Co  Co98  1  0.12690251  0.12267415  0.12004075  1
  Co  Co99  1  0.62624528  0.87812536  0.12241164  1
  Co  Co100  1  0.25080170  -0.00099737  -0.00566154  1
  Co  Co101  1  0.62215551  0.37227746  0.37449815  1
  Co  Co102  1  0.37487553  0.87405724  0.37948311  1
  Co  Co103  1  0.12490615  0.12156155  0.38056633  1
  Co  Co104  1  0.50291101  0.24952491  0.74668619  1
  Co  Co105  1  0.25012115  0.50235872  0.75201556  1
  Co  Co106  1  0.62559197  0.62359213  0.12723922  1
  Co  Co107  1  0.74793626  0.75065089  0.49509151  1
  Co  Co108  1  0.87920386  0.37277622  0.87440098  1
  Co  Co109  1  0.62191924  0.87868051  0.37729331  1
  Co  Co110  1  0.74994985  0.50001832  0.49455641  1
  Co  Co111  1  0.24619272  0.24960913  0.74850254  1
  Co  Co112  1  0.75150475  -0.00012104  0.75633709  1
  Co  Co113  1  0.50406898  0.74926896  0.00008905  1
  Co  Co114  1  0.24986754  -0.00185773  0.24991141  1
  Co  Co115  1  0.25220807  0.75132428  0.74864723  1
  Co  Co116  1  0.25178575  -0.00098960  0.50363872  1
  Co  Co117  1  0.00065438  0.24919661  0.50457772  1
  Co  Co118  1  0.37687035  0.37350674  0.87157320  1
  Co  Co119  1  0.87095441  0.12424756  0.62674377  1
  Co  Co120  1  0.37256893  0.87131059  0.12048980  1
  Co  Co121  1  0.87998662  0.87385354  0.37437634  1
  Co  Co122  1  -0.00466547  0.75192070  0.74297042  1
  Co  Co123  1  0.12540145  0.38017693  0.62452148  1
  Co  Co124  1  0.75181422  0.00091395  0.49373193  1
  Co  Co125  1  0.25017657  0.25159855  -0.00167662  1
  Co  Co126  1  0.12188458  0.87135427  0.87313933  1
  Co  Co127  1  0.49726186  0.49857419  0.25044560  1
