# generated using pymatgen
data_Fe45Co19
_symmetry_space_group_name_H-M   'P 1'
_cell_length_a   11.41455701
_cell_length_b   11.41498649
_cell_length_c   11.41552777
_cell_angle_alpha   90.00771917
_cell_angle_beta   90.00250485
_cell_angle_gamma   90.00204541
_symmetry_Int_Tables_number   1
_chemical_formula_structural   Fe45Co19
_chemical_formula_sum   'Fe90 Co38'
_cell_volume   1487.40916633
_cell_formula_units_Z   2
loop_
 _symmetry_equiv_pos_site_id
 _symmetry_equiv_pos_as_xyz
  1  'x, y, z'
loop_
 _atom_site_type_symbol
 _atom_site_label
 _atom_site_symmetry_multiplicity
 _atom_site_fract_x
 _atom_site_fract_y
 _atom_site_fract_z
 _atom_site_occupancy
  Fe  Fe0  1  0.24890498  0.24914753  0.24928672  1
  Fe  Fe1  1  0.50227884  -0.00291304  0.49839864  1
  Fe  Fe2  1  -0.00392645  0.74930337  0.74788336  1
  Fe  Fe3  1  0.75163952  0.74807277  0.24908021  1
  Fe  Fe4  1  0.25038475  0.50282267  0.25368614  1
  Fe  Fe5  1  0.62621028  0.62582861  0.37634576  1
  Fe  Fe6  1  0.87371326  0.12410799  0.37783609  1
  Fe  Fe7  1  0.25110753  0.24976891  0.74962556  1
  Fe  Fe8  1  0.87650834  0.12470669  0.12258101  1
  Fe  Fe9  1  0.62495929  0.62588648  0.62622812  1
  Fe  Fe10  1  0.49804771  0.00129379  0.75079660  1
  Fe  Fe11  1  0.37821004  0.62237163  0.62353493  1
  Fe  Fe12  1  0.00237431  0.00039760  0.49940373  1
  Fe  Fe13  1  0.50230359  0.49818392  -0.00365369  1
  Fe  Fe14  1  0.37323213  0.87516058  0.62620284  1
  Fe  Fe15  1  0.12415788  0.62366251  0.62499862  1
  Fe  Fe16  1  -0.00136595  0.49704398  0.50124322  1
  Fe  Fe17  1  0.37421147  0.12460978  0.37555099  1
  Fe  Fe18  1  0.50065872  0.74987600  0.24850473  1
  Fe  Fe19  1  0.12577088  0.37381163  0.87428101  1
  Fe  Fe20  1  0.37560897  0.62404407  0.12433829  1
  Fe  Fe21  1  0.50040429  0.25268455  -0.00047908  1
  Fe  Fe22  1  0.50106689  0.25048131  0.25263829  1
  Fe  Fe23  1  0.74831099  0.00268229  -0.00145227  1
  Fe  Fe24  1  0.62435860  0.12576205  0.12296276  1
  Fe  Fe25  1  0.87439616  0.37277932  0.63052891  1
  Fe  Fe26  1  0.62879228  0.37562949  0.12644537  1
  Fe  Fe27  1  0.12528322  0.37492168  0.37559534  1
  Fe  Fe28  1  0.12724220  0.87452072  0.62711327  1
  Fe  Fe29  1  0.87685607  0.12488450  0.62555666  1
  Fe  Fe30  1  0.62787794  0.37241696  0.87234087  1
  Fe  Fe31  1  0.37529978  0.37629936  0.12628194  1
  Fe  Fe32  1  0.87533641  0.87619900  0.12337072  1
  Fe  Fe33  1  0.37152970  0.12580288  0.87878669  1
  Fe  Fe34  1  0.25065831  0.75080596  0.00087820  1
  Fe  Fe35  1  0.49928530  -0.00201376  -0.00054765  1
  Fe  Fe36  1  -0.00122128  0.24851643  0.25268789  1
  Fe  Fe37  1  0.24945381  0.74805512  0.49905689  1
  Fe  Fe38  1  0.87455487  0.62194334  0.87565256  1
  Fe  Fe39  1  0.37804973  0.37811895  0.62432161  1
  Fe  Fe40  1  0.74906360  0.00122280  0.24995801  1
  Fe  Fe41  1  0.74586270  -0.00345498  0.50146735  1
  Fe  Fe42  1  0.25010662  0.25033037  0.49926156  1
  Fe  Fe43  1  0.74768442  0.00253433  0.75001753  1
  Fe  Fe44  1  0.12482714  0.62543260  0.12481960  1
  Fe  Fe45  1  0.87484527  0.87757374  0.87387575  1
  Fe  Fe46  1  -0.00174287  0.74879950  0.24936570  1
  Fe  Fe47  1  0.00411082  0.00344958  0.75135573  1
  Fe  Fe48  1  0.87229368  0.37556103  0.37338132  1
  Fe  Fe49  1  0.74950141  0.74917366  -0.00099936  1
  Fe  Fe50  1  0.50302979  0.25450796  0.49696359  1
  Fe  Fe51  1  -0.00316914  0.74999285  0.50410101  1
  Fe  Fe52  1  0.49829049  0.74820943  0.75185461  1
  Fe  Fe53  1  0.12520216  0.87298111  0.37381370  1
  Fe  Fe54  1  0.37167756  0.87550759  0.87350618  1
  Fe  Fe55  1  0.37584013  0.62374272  0.87667360  1
  Fe  Fe56  1  0.25159226  0.50233826  0.49675872  1
  Fe  Fe57  1  0.75060184  0.24831914  0.24857307  1
  Fe  Fe58  1  0.12834003  0.87391221  0.87222327  1
  Fe  Fe59  1  0.62395252  0.62377320  0.12236718  1
  Fe  Fe60  1  0.12483126  0.37426551  0.62500046  1
  Fe  Fe61  1  -0.00531812  0.25259801  -0.00469531  1
  Fe  Fe62  1  0.00430561  0.00024388  -0.00055611  1
  Fe  Fe63  1  0.74900285  0.25147242  0.50234732  1
  Fe  Fe64  1  0.37590281  0.12464220  0.62226037  1
  Fe  Fe65  1  0.12511251  0.62508595  0.87422583  1
  Fe  Fe66  1  0.37353483  0.87449847  0.37318674  1
  Fe  Fe67  1  0.37337817  0.87426795  0.12668038  1
  Fe  Fe68  1  -0.00165942  0.50041938  0.24947212  1
  Fe  Fe69  1  0.00219659  0.00161018  0.24929232  1
  Fe  Fe70  1  -0.00006842  0.74983895  -0.00124650  1
  Fe  Fe71  1  0.25216348  0.50037611  0.75056607  1
  Fe  Fe72  1  0.12257963  0.37398011  0.12485368  1
  Fe  Fe73  1  0.87316538  0.87468484  0.37636720  1
  Fe  Fe74  1  0.87553848  0.62199400  0.12097862  1
  Fe  Fe75  1  0.74684853  0.50219818  0.75093990  1
  Fe  Fe76  1  0.24936812  0.49752432  -0.00042098  1
  Fe  Fe77  1  0.87452321  0.62488769  0.37890595  1
  Fe  Fe78  1  0.50307271  0.75269879  0.49975747  1
  Fe  Fe79  1  0.50000022  0.49881143  0.25469837  1
  Fe  Fe80  1  0.62582059  0.87505747  0.12485471  1
  Fe  Fe81  1  0.49901461  0.25037819  0.75085119  1
  Fe  Fe82  1  0.74783102  0.49812420  0.50139885  1
  Fe  Fe83  1  0.24521300  0.00232676  0.24718244  1
  Fe  Fe84  1  0.62263474  0.12592326  0.62480351  1
  Fe  Fe85  1  0.62529413  0.87291125  0.87269489  1
  Fe  Fe86  1  0.00016487  0.49883175  0.75054393  1
  Fe  Fe87  1  0.50223737  0.00130471  0.25108484  1
  Fe  Fe88  1  0.12479934  0.12741254  0.62295194  1
  Fe  Fe89  1  0.37398047  0.12624760  0.12220772  1
  Co  Co90  1  0.87379918  0.62059333  0.62516469  1
  Co  Co91  1  0.24782686  -0.00303099  0.00330210  1
  Co  Co92  1  0.37327939  0.37372057  0.37517939  1
  Co  Co93  1  0.87495503  0.12208850  0.87357045  1
  Co  Co94  1  0.62401551  0.37469558  0.62922219  1
  Co  Co95  1  0.62426253  0.87365519  0.63105849  1
  Co  Co96  1  0.25175287  0.74591293  0.74824073  1
  Co  Co97  1  0.87411323  0.37537312  0.12562958  1
  Co  Co98  1  0.37907770  0.62727655  0.37597305  1
  Co  Co99  1  0.37528287  0.37511111  0.87340977  1
  Co  Co100  1  0.74857867  0.49828254  -0.00046392  1
  Co  Co101  1  0.00084859  0.49779898  -0.00079753  1
  Co  Co102  1  0.25025454  0.00449633  0.74825658  1
  Co  Co103  1  0.25176589  0.25537297  0.00113318  1
  Co  Co104  1  0.00098997  0.24825097  0.75255841  1
  Co  Co105  1  0.75218075  0.24925723  -0.00092889  1
  Co  Co106  1  0.75158300  0.50379688  0.24860606  1
  Co  Co107  1  0.24968368  0.74655961  0.25129429  1
  Co  Co108  1  0.62584579  0.12559982  0.37632309  1
  Co  Co109  1  0.12291883  0.13003280  0.12018157  1
  Co  Co110  1  0.62152013  0.12570686  0.87602541  1
  Co  Co111  1  0.87553427  0.88075213  0.62650592  1
  Co  Co112  1  0.75024442  0.24491497  0.75111468  1
  Co  Co113  1  0.50129452  0.50096952  0.75305224  1
  Co  Co114  1  0.87177806  0.37773492  0.87089137  1
  Co  Co115  1  0.75087409  0.75230836  0.50381885  1
  Co  Co116  1  0.62604553  0.62832532  0.87453914  1
  Co  Co117  1  -0.00214087  0.25210431  0.49946618  1
  Co  Co118  1  0.13007211  0.12759274  0.87926142  1
  Co  Co119  1  0.62926236  0.37539317  0.37163057  1
  Co  Co120  1  0.49865855  0.75206312  -0.00014299  1
  Co  Co121  1  0.12331526  0.87085743  0.12627228  1
  Co  Co122  1  0.24956415  -0.00096978  0.50040099  1
  Co  Co123  1  0.12573478  0.12623767  0.37712268  1
  Co  Co124  1  0.12021257  0.62518663  0.37657354  1
  Co  Co125  1  0.50285213  0.49675834  0.49754977  1
  Co  Co126  1  0.62690427  0.87314383  0.37189542  1
  Co  Co127  1  0.75535444  0.74987558  0.74869133  1
