# generated using pymatgen
data_Fe45Co19
_symmetry_space_group_name_H-M   'P 1'
_cell_length_a   11.41531366
_cell_length_b   11.41570734
_cell_length_c   11.41416547
_cell_angle_alpha   89.99531829
_cell_angle_beta   89.99055914
_cell_angle_gamma   90.00211319
_symmetry_Int_Tables_number   1
_chemical_formula_structural   Fe45Co19
_chemical_formula_sum   'Fe90 Co38'
_cell_volume   1487.42416238
_cell_formula_units_Z   2
loop_
 _symmetry_equiv_pos_site_id
 _symmetry_equiv_pos_as_xyz
  1  'x, y, z'
loop_
 _atom_site_type_symbol
 _atom_site_label
 _atom_site_symmetry_multiplicity
 _atom_site_fract_x
 _atom_site_fract_y
 _atom_site_fract_z
 _atom_site_occupancy
  Fe  Fe0  1  0.25220651  0.25187796  -0.00041001  1
  Fe  Fe1  1  0.49928184  0.00179148  -0.00113962  1
  Fe  Fe2  1  0.37396920  0.12500661  0.62328662  1
  Fe  Fe3  1  0.00080446  0.50065431  0.75213544  1
  Fe  Fe4  1  0.87566279  0.37464852  0.62329375  1
  Fe  Fe5  1  0.74840983  0.75251461  0.00358171  1
  Fe  Fe6  1  0.37631762  0.62875868  0.37347069  1
  Fe  Fe7  1  0.25170985  0.49880027  0.00014508  1
  Fe  Fe8  1  0.49988923  0.00441486  0.24992448  1
  Fe  Fe9  1  0.25310289  0.49870515  0.49756640  1
  Fe  Fe10  1  0.12351177  0.12268002  0.62275365  1
  Fe  Fe11  1  0.38023031  0.37033470  0.12691338  1
  Fe  Fe12  1  0.50012570  0.49937102  0.00102382  1
  Fe  Fe13  1  0.62327765  0.62569449  0.37677449  1
  Fe  Fe14  1  0.00055154  0.24968444  0.00211190  1
  Fe  Fe15  1  0.74709414  0.75204745  0.50157949  1
  Fe  Fe16  1  0.37520625  0.12667205  0.12850691  1
  Fe  Fe17  1  0.50265601  0.50067443  0.24976512  1
  Fe  Fe18  1  0.25134795  -0.00081541  0.49669061  1
  Fe  Fe19  1  0.49725078  -0.00243456  0.49919324  1
  Fe  Fe20  1  0.24990315  0.49916091  0.24973725  1
  Fe  Fe21  1  0.74787273  0.24943546  0.00124043  1
  Fe  Fe22  1  0.87381554  0.87415596  0.62806369  1
  Fe  Fe23  1  0.24966041  -0.00120598  0.74933959  1
  Fe  Fe24  1  0.62522970  0.62633249  0.87741725  1
  Fe  Fe25  1  0.74903571  0.49891413  0.50003007  1
  Fe  Fe26  1  0.50017983  0.50049511  0.75024000  1
  Fe  Fe27  1  0.12596485  0.87437414  0.87760914  1
  Fe  Fe28  1  0.37301076  0.87337242  0.87556384  1
  Fe  Fe29  1  0.00152900  0.24966843  0.75024227  1
  Fe  Fe30  1  0.12666783  0.62526325  0.62232431  1
  Fe  Fe31  1  0.25218997  0.75261110  0.50088272  1
  Fe  Fe32  1  0.37425216  0.62852446  0.87579374  1
  Fe  Fe33  1  0.00103161  0.74918876  0.75008547  1
  Fe  Fe34  1  0.87490370  0.12670327  0.37682113  1
  Fe  Fe35  1  0.87728381  0.12563465  0.62155712  1
  Fe  Fe36  1  0.00066951  0.75308528  0.00514420  1
  Fe  Fe37  1  0.50210548  0.75367784  0.00423502  1
  Fe  Fe38  1  -0.00196417  0.49900345  -0.00043496  1
  Fe  Fe39  1  -0.00182441  -0.00082693  0.24969118  1
  Fe  Fe40  1  0.62486311  0.12199558  0.62380468  1
  Fe  Fe41  1  0.00154905  0.24975857  0.25048286  1
  Fe  Fe42  1  0.00015300  0.50420338  0.25400878  1
  Fe  Fe43  1  0.74543504  0.75122991  0.24627778  1
  Fe  Fe44  1  0.49895427  0.00123765  0.75133355  1
  Fe  Fe45  1  0.87321826  0.12330928  0.12568922  1
  Fe  Fe46  1  0.24781333  0.24945901  0.49660960  1
  Fe  Fe47  1  0.87475889  0.62625003  0.12694664  1
  Fe  Fe48  1  0.37757736  0.37091966  0.37160336  1
  Fe  Fe49  1  0.87373584  0.37446615  0.12784204  1
  Fe  Fe50  1  0.87405104  0.62832659  0.87575068  1
  Fe  Fe51  1  0.12327407  0.87609666  0.62385445  1
  Fe  Fe52  1  -0.00079287  0.74871188  0.49744412  1
  Fe  Fe53  1  0.12450848  0.87365223  0.37225260  1
  Fe  Fe54  1  -0.00326260  0.00016893  0.75435582  1
  Fe  Fe55  1  0.49808057  0.24642194  0.75517004  1
  Fe  Fe56  1  0.87514763  0.37225913  0.87475885  1
  Fe  Fe57  1  0.74712872  0.50031747  0.24885069  1
  Fe  Fe58  1  0.37609811  0.87298212  0.36960943  1
  Fe  Fe59  1  0.37658683  0.62693322  0.12482546  1
  Fe  Fe60  1  0.24750303  0.75167835  0.24268648  1
  Fe  Fe61  1  0.75527098  -0.00062452  -0.00265394  1
  Fe  Fe62  1  0.12734495  0.62762859  0.87839099  1
  Fe  Fe63  1  0.24998803  0.49994106  0.75192537  1
  Fe  Fe64  1  0.87529104  0.87124606  0.37118934  1
  Fe  Fe65  1  0.62295048  0.37308514  0.87750587  1
  Fe  Fe66  1  0.74271120  0.24704781  0.25169101  1
  Fe  Fe67  1  0.62339672  0.87663283  0.37295665  1
  Fe  Fe68  1  0.12550371  0.12212272  0.12536807  1
  Fe  Fe69  1  0.74956799  0.24772090  0.74886861  1
  Fe  Fe70  1  0.12600741  0.12392143  0.87745062  1
  Fe  Fe71  1  0.25012303  0.25055350  0.75228383  1
  Fe  Fe72  1  0.37556262  0.87471103  0.62645045  1
  Fe  Fe73  1  0.12422702  0.37704314  0.12617862  1
  Fe  Fe74  1  0.12440066  0.37608816  0.62319770  1
  Fe  Fe75  1  0.25166296  -0.00277290  0.00423750  1
  Fe  Fe76  1  0.62922019  0.87718695  0.87148674  1
  Fe  Fe77  1  0.87269855  0.37306082  0.37535771  1
  Fe  Fe78  1  0.75211943  -0.00140723  0.49988600  1
  Fe  Fe79  1  0.37588751  0.62687882  0.62493511  1
  Fe  Fe80  1  0.75082490  0.49893618  0.00087717  1
  Fe  Fe81  1  0.50216315  0.75130539  0.74875616  1
  Fe  Fe82  1  0.12436677  0.12364404  0.37487724  1
  Fe  Fe83  1  0.87462179  0.62456837  0.62393957  1
  Fe  Fe84  1  -0.00022809  0.50189704  0.49478723  1
  Fe  Fe85  1  0.50298451  0.24928662  0.49605288  1
  Fe  Fe86  1  0.74883607  0.50125324  0.75101756  1
  Fe  Fe87  1  0.62323098  0.37423884  0.62383816  1
  Fe  Fe88  1  0.37622168  0.37307919  0.62548831  1
  Fe  Fe89  1  0.62197374  0.62541511  0.62151883  1
  Co  Co90  1  0.00239018  0.74721692  0.24861376  1
  Co  Co91  1  0.25052559  0.00039163  0.25116840  1
  Co  Co92  1  0.87438839  0.87580902  0.12783764  1
  Co  Co93  1  0.62559070  0.11911141  0.37883203  1
  Co  Co94  1  0.37045402  0.12163484  0.87534591  1
  Co  Co95  1  0.62717378  0.12313807  0.87512191  1
  Co  Co96  1  0.12405784  0.62101749  0.12372017  1
  Co  Co97  1  0.37507956  0.12777088  0.37375339  1
  Co  Co98  1  0.74772058  0.24909732  0.49923425  1
  Co  Co99  1  0.62267569  0.37359663  0.12292904  1
  Co  Co100  1  0.87561675  0.12990172  0.87680242  1
  Co  Co101  1  0.12451175  0.37588542  0.37387424  1
  Co  Co102  1  0.50833894  0.24576012  0.25119361  1
  Co  Co103  1  0.24684782  0.24982933  0.25024001  1
  Co  Co104  1  0.74785427  0.74578252  0.74744848  1
  Co  Co105  1  0.13012471  0.62773319  0.37543201  1
  Co  Co106  1  0.75224294  0.00141515  0.25316258  1
  Co  Co107  1  0.37699357  0.37658103  0.87528502  1
  Co  Co108  1  0.87280133  0.86990188  0.87328689  1
  Co  Co109  1  0.12430295  0.37438080  0.87670208  1
  Co  Co110  1  0.62741922  0.12009994  0.12212003  1
  Co  Co111  1  0.62594228  0.88299990  0.12630224  1
  Co  Co112  1  0.62640659  0.87904583  0.62802634  1
  Co  Co113  1  0.00166441  0.25156595  0.49829156  1
  Co  Co114  1  0.49967906  0.75375120  0.50043291  1
  Co  Co115  1  0.75530898  0.00430322  0.75057129  1
  Co  Co116  1  0.24918282  0.75103976  0.74869953  1
  Co  Co117  1  0.49882466  0.24490549  -0.00155186  1
  Co  Co118  1  0.49671939  0.49921298  0.49818953  1
  Co  Co119  1  0.62538061  0.62308781  0.12319567  1
  Co  Co120  1  -0.00409642  -0.00056364  -0.00158054  1
  Co  Co121  1  0.25058495  0.75239415  0.00630320  1
  Co  Co122  1  0.37878795  0.87720043  0.12770954  1
  Co  Co123  1  0.62528818  0.37794781  0.37521975  1
  Co  Co124  1  0.86946663  0.62784304  0.37395939  1
  Co  Co125  1  -0.00213883  -0.00276146  0.49705091  1
  Co  Co126  1  0.50456871  0.74923110  0.24580293  1
  Co  Co127  1  0.12188487  0.88002579  0.12650665  1
