# generated using pymatgen
data_Fe45Co19
_symmetry_space_group_name_H-M   'P 1'
_cell_length_a   11.41376144
_cell_length_b   11.41353628
_cell_length_c   11.41410357
_cell_angle_alpha   90.00620334
_cell_angle_beta   90.01092699
_cell_angle_gamma   90.01502527
_symmetry_Int_Tables_number   1
_chemical_formula_structural   Fe45Co19
_chemical_formula_sum   'Fe90 Co38'
_cell_volume   1486.93093887
_cell_formula_units_Z   2
loop_
 _symmetry_equiv_pos_site_id
 _symmetry_equiv_pos_as_xyz
  1  'x, y, z'
loop_
 _atom_site_type_symbol
 _atom_site_label
 _atom_site_symmetry_multiplicity
 _atom_site_fract_x
 _atom_site_fract_y
 _atom_site_fract_z
 _atom_site_occupancy
  Fe  Fe0  1  0.12484450  0.88113284  0.87487746  1
  Fe  Fe1  1  0.87090310  0.12414199  0.37465668  1
  Fe  Fe2  1  0.74852108  -0.00126894  0.25035267  1
  Fe  Fe3  1  0.87479275  0.37436729  0.37392787  1
  Fe  Fe4  1  -0.00170237  0.49853757  -0.00112504  1
  Fe  Fe5  1  0.62780955  0.62791776  0.87258162  1
  Fe  Fe6  1  0.38082482  0.37536902  0.12116249  1
  Fe  Fe7  1  0.37354267  0.62379444  0.87553849  1
  Fe  Fe8  1  -0.00037102  0.50293943  0.24860087  1
  Fe  Fe9  1  0.49966877  0.50015671  0.25068308  1
  Fe  Fe10  1  0.87471376  0.87656811  0.37708895  1
  Fe  Fe11  1  0.50149346  0.49923356  0.75337417  1
  Fe  Fe12  1  0.75073781  0.49913706  0.50134264  1
  Fe  Fe13  1  0.00207306  0.00450679  0.49902283  1
  Fe  Fe14  1  0.87480429  0.62633572  0.87771556  1
  Fe  Fe15  1  -0.00012408  0.75070596  0.75368997  1
  Fe  Fe16  1  0.87735848  0.87553452  0.62412889  1
  Fe  Fe17  1  0.12059904  0.37073112  0.62454772  1
  Fe  Fe18  1  0.00008350  0.00276112  0.24979550  1
  Fe  Fe19  1  0.87011273  0.37092649  0.87353636  1
  Fe  Fe20  1  0.37562825  0.37501355  0.62415868  1
  Fe  Fe21  1  0.49958829  0.24996121  0.25176097  1
  Fe  Fe22  1  0.12127879  0.37167382  0.12351906  1
  Fe  Fe23  1  0.62603784  0.62935480  0.12903548  1
  Fe  Fe24  1  0.74699793  -0.00199453  0.00153941  1
  Fe  Fe25  1  0.62561622  0.12688630  0.12750509  1
  Fe  Fe26  1  0.12309830  0.62589123  0.12217674  1
  Fe  Fe27  1  -0.00048666  0.49892184  0.49922940  1
  Fe  Fe28  1  0.87889822  0.12873207  0.62635598  1
  Fe  Fe29  1  0.74674797  0.49734782  0.00193262  1
  Fe  Fe30  1  0.37566279  0.12491462  0.62500675  1
  Fe  Fe31  1  0.12437038  0.62357082  0.62752987  1
  Fe  Fe32  1  0.75115445  0.25006954  0.50036623  1
  Fe  Fe33  1  0.37287353  0.12259165  0.87536935  1
  Fe  Fe34  1  -0.00232375  0.74870693  0.24882464  1
  Fe  Fe35  1  0.74928314  0.75349792  0.00193545  1
  Fe  Fe36  1  0.37741848  0.87480435  0.12458421  1
  Fe  Fe37  1  0.62951195  0.12647995  0.87511667  1
  Fe  Fe38  1  0.37351588  0.87608402  0.37499615  1
  Fe  Fe39  1  0.50216116  -0.00033644  0.49828973  1
  Fe  Fe40  1  0.62435868  0.12447099  0.62306747  1
  Fe  Fe41  1  0.24915966  0.75153168  0.75164155  1
  Fe  Fe42  1  0.12501884  0.37181986  0.87860138  1
  Fe  Fe43  1  0.87617213  0.87667008  0.12362494  1
  Fe  Fe44  1  0.75116306  0.25285554  0.00624812  1
  Fe  Fe45  1  0.12448768  0.87587325  0.37455863  1
  Fe  Fe46  1  0.24871001  0.74964306  0.24953517  1
  Fe  Fe47  1  0.37924514  0.37490353  0.87882652  1
  Fe  Fe48  1  0.37415573  0.62303181  0.62576482  1
  Fe  Fe49  1  0.50218179  0.49976554  0.49845714  1
  Fe  Fe50  1  0.12466326  0.37404456  0.37129716  1
  Fe  Fe51  1  -0.00187750  0.49679364  0.75192308  1
  Fe  Fe52  1  0.50270594  0.00102895  0.00040601  1
  Fe  Fe53  1  0.50114738  0.24872062  0.75186973  1
  Fe  Fe54  1  0.24744904  0.00256059  0.50168178  1
  Fe  Fe55  1  0.37475320  0.12467709  0.37509912  1
  Fe  Fe56  1  0.50079949  0.74734135  0.49753193  1
  Fe  Fe57  1  0.62641779  0.87313947  0.37371914  1
  Fe  Fe58  1  0.24927888  0.24977981  0.75057011  1
  Fe  Fe59  1  0.24923660  0.00163804  0.24664871  1
  Fe  Fe60  1  0.62326837  0.87360188  0.62864065  1
  Fe  Fe61  1  0.50233344  0.75088215  -0.00130012  1
  Fe  Fe62  1  0.12270314  0.87707248  0.12293037  1
  Fe  Fe63  1  -0.00378912  0.24626353  0.24776066  1
  Fe  Fe64  1  0.62650567  0.37371052  0.37331921  1
  Fe  Fe65  1  0.25191082  0.24610219  0.00268567  1
  Fe  Fe66  1  0.24762046  0.24854849  0.49863124  1
  Fe  Fe67  1  0.24682278  0.49747291  0.49879300  1
  Fe  Fe68  1  0.87288555  0.62521987  0.37435221  1
  Fe  Fe69  1  0.12254815  0.87779868  0.62683243  1
  Fe  Fe70  1  -0.00117868  0.00763713  -0.00213646  1
  Fe  Fe71  1  0.62726280  0.37611389  0.62871054  1
  Fe  Fe72  1  0.00183372  0.74796398  0.49814864  1
  Fe  Fe73  1  0.25303862  0.25072937  0.24714838  1
  Fe  Fe74  1  0.74924534  0.75022142  0.50031650  1
  Fe  Fe75  1  0.37812345  0.87574179  0.62694739  1
  Fe  Fe76  1  0.50088291  0.25154532  0.49858658  1
  Fe  Fe77  1  0.37134791  0.62193009  0.37439052  1
  Fe  Fe78  1  0.24816717  0.75002108  0.50048376  1
  Fe  Fe79  1  0.75119267  -0.00014049  0.74799172  1
  Fe  Fe80  1  0.37552434  0.62599219  0.12374435  1
  Fe  Fe81  1  0.24757145  0.75223164  -0.00239367  1
  Fe  Fe82  1  0.87523695  0.62461693  0.62652831  1
  Fe  Fe83  1  0.87426714  0.87651670  0.87617259  1
  Fe  Fe84  1  0.24951357  0.49965487  0.00179508  1
  Fe  Fe85  1  0.24862530  0.49684089  0.75165168  1
  Fe  Fe86  1  0.62664179  0.62547181  0.62842828  1
  Fe  Fe87  1  0.37791740  0.87846834  0.87344407  1
  Fe  Fe88  1  0.75046623  0.49747995  0.24634897  1
  Fe  Fe89  1  0.50144610  0.00003757  0.25082925  1
  Co  Co90  1  -0.00410687  0.24508779  -0.00194988  1
  Co  Co91  1  0.87147057  0.12200272  0.12511307  1
  Co  Co92  1  0.62452174  0.87534062  0.87098949  1
  Co  Co93  1  0.75203170  0.50034045  0.75172454  1
  Co  Co94  1  0.87650925  0.37195505  0.62611777  1
  Co  Co95  1  0.25090351  -0.00019948  0.74625336  1
  Co  Co96  1  0.62558663  0.37180888  0.87527333  1
  Co  Co97  1  0.50066012  0.24484100  -0.00176570  1
  Co  Co98  1  0.87853273  0.37630129  0.12499385  1
  Co  Co99  1  0.87393643  0.62516903  0.12103873  1
  Co  Co100  1  0.25182955  0.00019245  0.00354483  1
  Co  Co101  1  0.12203956  0.12706688  0.62839117  1
  Co  Co102  1  0.00136115  0.24937264  0.75689661  1
  Co  Co103  1  0.62688613  0.12642661  0.37469716  1
  Co  Co104  1  0.12968362  0.12359781  0.87543865  1
  Co  Co105  1  0.37826106  0.12363412  0.12612634  1
  Co  Co106  1  0.74783769  0.24856960  0.74606670  1
  Co  Co107  1  0.50521962  0.50423633  -0.00113839  1
  Co  Co108  1  0.75414934  0.75212164  0.74988235  1
  Co  Co109  1  0.00113136  0.75175533  -0.00108991  1
  Co  Co110  1  -0.00364711  0.00291483  0.75317428  1
  Co  Co111  1  0.12705587  0.12602907  0.37107745  1
  Co  Co112  1  0.50222865  0.00481384  0.75128175  1
  Co  Co113  1  -0.00061128  0.24842538  0.49553628  1
  Co  Co114  1  0.62324789  0.87294137  0.12840253  1
  Co  Co115  1  0.12450383  0.12634962  0.12335597  1
  Co  Co116  1  0.75579030  0.75311946  0.24951101  1
  Co  Co117  1  0.62824492  0.62486694  0.37149496  1
  Co  Co118  1  0.74931015  -0.00013643  0.50276776  1
  Co  Co119  1  0.49692212  0.74948610  0.25336808  1
  Co  Co120  1  0.12440975  0.62291220  0.87502417  1
  Co  Co121  1  0.75159384  0.25182917  0.24753682  1
  Co  Co122  1  0.86771153  0.12746620  0.87498849  1
  Co  Co123  1  0.37416656  0.37599156  0.37590826  1
  Co  Co124  1  0.61964627  0.37255095  0.12484598  1
  Co  Co125  1  0.12620153  0.62391665  0.37365396  1
  Co  Co126  1  0.24997940  0.49779826  0.24464862  1
  Co  Co127  1  0.49791957  0.74736735  0.75123402  1
