# generated using pymatgen
data_Fe45Co19
_symmetry_space_group_name_H-M   'P 1'
_cell_length_a   11.41461190
_cell_length_b   11.41402031
_cell_length_c   11.41434142
_cell_angle_alpha   90.00154938
_cell_angle_beta   90.00837082
_cell_angle_gamma   89.99349826
_symmetry_Int_Tables_number   1
_chemical_formula_structural   Fe45Co19
_chemical_formula_sum   'Fe90 Co38'
_cell_volume   1487.13584662
_cell_formula_units_Z   2
loop_
 _symmetry_equiv_pos_site_id
 _symmetry_equiv_pos_as_xyz
  1  'x, y, z'
loop_
 _atom_site_type_symbol
 _atom_site_label
 _atom_site_symmetry_multiplicity
 _atom_site_fract_x
 _atom_site_fract_y
 _atom_site_fract_z
 _atom_site_occupancy
  Fe  Fe0  1  0.25136306  0.00376229  0.00267396  1
  Fe  Fe1  1  0.62585036  0.37418083  0.37368917  1
  Fe  Fe2  1  0.25307396  0.00165831  0.74960401  1
  Fe  Fe3  1  0.12559497  0.63008361  0.87337639  1
  Fe  Fe4  1  0.50063587  0.25047969  0.25150173  1
  Fe  Fe5  1  0.74529641  0.49773708  -0.00038475  1
  Fe  Fe6  1  0.37154557  0.37313525  0.37592458  1
  Fe  Fe7  1  0.74654605  0.75026669  0.00241981  1
  Fe  Fe8  1  0.25371296  0.24887295  0.74860709  1
  Fe  Fe9  1  0.87400764  0.37424410  0.62611231  1
  Fe  Fe10  1  0.24929653  0.24531914  0.24812588  1
  Fe  Fe11  1  0.74979877  0.00091462  0.75250231  1
  Fe  Fe12  1  0.62759440  0.87262966  0.37327350  1
  Fe  Fe13  1  0.24966824  0.50120635  0.75211683  1
  Fe  Fe14  1  0.12454144  0.62830125  0.62597406  1
  Fe  Fe15  1  0.12233578  0.12281533  0.37332635  1
  Fe  Fe16  1  0.62390621  0.87568502  0.62612046  1
  Fe  Fe17  1  0.49740291  0.25000340  0.74801663  1
  Fe  Fe18  1  0.12531380  0.37340606  0.12684967  1
  Fe  Fe19  1  0.49839075  0.74838417  0.25061723  1
  Fe  Fe20  1  0.75057366  0.49985453  0.75170005  1
  Fe  Fe21  1  0.12569964  0.87784190  0.37105040  1
  Fe  Fe22  1  0.87627264  0.12492737  0.12236733  1
  Fe  Fe23  1  0.75073724  0.00071450  0.24849916  1
  Fe  Fe24  1  0.49972717  0.75037708  0.00039609  1
  Fe  Fe25  1  0.62278502  0.62599430  0.87473803  1
  Fe  Fe26  1  0.87455825  0.62725046  0.37646279  1
  Fe  Fe27  1  0.00102996  -0.00094407  0.00062574  1
  Fe  Fe28  1  0.87528093  0.37706751  0.12456886  1
  Fe  Fe29  1  0.00221229  0.50021551  0.25218894  1
  Fe  Fe30  1  0.37492084  0.37803230  0.12573586  1
  Fe  Fe31  1  0.74937889  -0.00040694  0.49810297  1
  Fe  Fe32  1  0.62479342  0.62522718  0.62341990  1
  Fe  Fe33  1  0.50087194  0.00183421  0.25237525  1
  Fe  Fe34  1  0.75163704  0.24916745  0.25019292  1
  Fe  Fe35  1  0.37211016  0.62381411  0.37364221  1
  Fe  Fe36  1  0.12847124  0.87663309  0.12705104  1
  Fe  Fe37  1  0.49803319  0.50036862  0.75092625  1
  Fe  Fe38  1  0.12606571  0.12622160  0.87555439  1
  Fe  Fe39  1  -0.00165855  0.75063909  0.24805416  1
  Fe  Fe40  1  0.37514771  0.87583079  0.87477601  1
  Fe  Fe41  1  0.49756314  0.74995717  0.75033124  1
  Fe  Fe42  1  0.50048929  0.74988246  0.49843902  1
  Fe  Fe43  1  0.12718441  0.62585816  0.12799999  1
  Fe  Fe44  1  0.50134345  0.25336820  0.00038450  1
  Fe  Fe45  1  -0.00052311  0.75311061  0.49935603  1
  Fe  Fe46  1  0.12564306  0.87455318  0.62711753  1
  Fe  Fe47  1  0.87636461  0.62582096  0.87888449  1
  Fe  Fe48  1  0.75162028  0.74911256  0.74984078  1
  Fe  Fe49  1  0.62439092  0.12547244  0.12554199  1
  Fe  Fe50  1  0.87796353  0.12236876  0.37466244  1
  Fe  Fe51  1  0.37602929  0.87791648  0.12690233  1
  Fe  Fe52  1  0.24939559  0.75179878  0.49946151  1
  Fe  Fe53  1  0.25200740  0.74891546  0.00092578  1
  Fe  Fe54  1  0.74889225  0.50019322  0.49918900  1
  Fe  Fe55  1  0.87346745  0.87479669  0.12287312  1
  Fe  Fe56  1  0.87629761  0.37418115  0.37519772  1
  Fe  Fe57  1  0.00114310  0.24983380  0.49953091  1
  Fe  Fe58  1  0.74919065  0.50097518  0.25040131  1
  Fe  Fe59  1  0.37571530  0.12512637  0.37907409  1
  Fe  Fe60  1  0.37810842  0.12294810  0.61920045  1
  Fe  Fe61  1  0.37391301  0.37708316  0.87687316  1
  Fe  Fe62  1  -0.00121192  0.25169276  -0.00220461  1
  Fe  Fe63  1  0.62414915  0.12545523  0.87421197  1
  Fe  Fe64  1  0.00388679  0.49987748  -0.00117407  1
  Fe  Fe65  1  0.00065897  0.49975059  0.75189066  1
  Fe  Fe66  1  0.12652978  0.87346647  0.87449702  1
  Fe  Fe67  1  0.75090085  0.74804710  0.24771317  1
  Fe  Fe68  1  0.12628512  0.37349188  0.62593890  1
  Fe  Fe69  1  0.87597363  0.62495726  0.62325683  1
  Fe  Fe70  1  0.37186134  0.87741393  0.37366513  1
  Fe  Fe71  1  0.87424561  0.87541619  0.62397881  1
  Fe  Fe72  1  0.24613762  0.49876486  0.49738067  1
  Fe  Fe73  1  0.62188522  0.62257883  0.12754043  1
  Fe  Fe74  1  0.12416917  0.12420712  0.62536828  1
  Fe  Fe75  1  -0.00094384  -0.00099545  0.75140243  1
  Fe  Fe76  1  0.75026460  0.25173019  -0.00326699  1
  Fe  Fe77  1  0.37311971  0.62427614  0.62399618  1
  Fe  Fe78  1  0.37631918  0.87741529  0.62380065  1
  Fe  Fe79  1  0.50282157  -0.00107239  -0.00121235  1
  Fe  Fe80  1  0.00322718  0.49898286  0.49774342  1
  Fe  Fe81  1  0.37451999  0.62006757  0.12528762  1
  Fe  Fe82  1  0.25118823  0.24845847  0.00234746  1
  Fe  Fe83  1  0.87520968  0.12485240  0.62513360  1
  Fe  Fe84  1  0.50041338  0.49858236  0.49741912  1
  Fe  Fe85  1  0.62280099  0.12421504  0.62349893  1
  Fe  Fe86  1  0.74874670  0.24896906  0.49983129  1
  Fe  Fe87  1  0.62539899  0.37435458  0.62703582  1
  Fe  Fe88  1  -0.00290293  0.25070784  0.75298332  1
  Fe  Fe89  1  0.87377970  0.87419775  0.87833164  1
  Co  Co90  1  0.50026120  0.49839720  0.25257426  1
  Co  Co91  1  0.37550428  0.62364315  0.87721920  1
  Co  Co92  1  0.74937329  0.75088021  0.50193479  1
  Co  Co93  1  0.49856182  0.00102432  0.75168676  1
  Co  Co94  1  0.25396991  0.75059571  0.74990050  1
  Co  Co95  1  0.87375266  0.87443342  0.37385063  1
  Co  Co96  1  0.62265462  0.87572541  0.12806378  1
  Co  Co97  1  0.74715431  -0.00029958  0.00041275  1
  Co  Co98  1  0.25238602  0.75012281  0.24849353  1
  Co  Co99  1  0.24736818  0.24793192  0.50106896  1
  Co  Co100  1  0.24639621  0.50123624  -0.00047897  1
  Co  Co101  1  0.87463618  0.37778886  0.87513610  1
  Co  Co102  1  0.62538149  0.12541164  0.37486486  1
  Co  Co103  1  -0.00374333  0.75140749  0.75033321  1
  Co  Co104  1  0.50223747  0.25340632  0.49976909  1
  Co  Co105  1  -0.00136065  0.25024289  0.24952747  1
  Co  Co106  1  0.24726287  0.49862525  0.25177466  1
  Co  Co107  1  0.87590209  0.12255332  0.87652322  1
  Co  Co108  1  0.62616346  0.62635785  0.37496371  1
  Co  Co109  1  0.75109184  0.24812628  0.75140819  1
  Co  Co110  1  0.62374653  0.37362114  0.87074772  1
  Co  Co111  1  0.12088540  0.12601240  0.12388375  1
  Co  Co112  1  0.12497081  0.62975466  0.37421675  1
  Co  Co113  1  -0.00186871  -0.00170720  0.24578546  1
  Co  Co114  1  0.50266023  -0.00310926  0.49600079  1
  Co  Co115  1  0.87503770  0.62200827  0.12311254  1
  Co  Co116  1  0.00024093  -0.00179772  0.50120821  1
  Co  Co117  1  0.00241585  0.75065641  0.00329970  1
  Co  Co118  1  0.37604896  0.12553962  0.87762187  1
  Co  Co119  1  0.50305440  0.49798117  0.00008527  1
  Co  Co120  1  0.24771524  -0.00003235  0.50027649  1
  Co  Co121  1  0.62495920  0.87398366  0.87327006  1
  Co  Co122  1  0.12756252  0.37147415  0.87386533  1
  Co  Co123  1  0.62590810  0.37353181  0.12833938  1
  Co  Co124  1  0.38105031  0.12437407  0.12384604  1
  Co  Co125  1  0.12570416  0.37005752  0.37354524  1
  Co  Co126  1  0.37304272  0.37678955  0.62280099  1
  Co  Co127  1  0.25175359  0.00637066  0.24760933  1
