# generated using pymatgen
data_Fe45Co19
_symmetry_space_group_name_H-M   'P 1'
_cell_length_a   11.41480922
_cell_length_b   11.41567362
_cell_length_c   11.41670916
_cell_angle_alpha   90.00164535
_cell_angle_beta   90.00685346
_cell_angle_gamma   90.01004248
_symmetry_Int_Tables_number   1
_chemical_formula_structural   Fe45Co19
_chemical_formula_sum   'Fe90 Co38'
_cell_volume   1487.68549459
_cell_formula_units_Z   2
loop_
 _symmetry_equiv_pos_site_id
 _symmetry_equiv_pos_as_xyz
  1  'x, y, z'
loop_
 _atom_site_type_symbol
 _atom_site_label
 _atom_site_symmetry_multiplicity
 _atom_site_fract_x
 _atom_site_fract_y
 _atom_site_fract_z
 _atom_site_occupancy
  Fe  Fe0  1  0.50035120  0.00168915  -0.00016657  1
  Fe  Fe1  1  0.24885733  0.50066159  0.75079105  1
  Fe  Fe2  1  0.74926797  0.74670727  0.24520149  1
  Fe  Fe3  1  0.12423413  0.37476960  0.62395178  1
  Fe  Fe4  1  0.50301117  0.50289249  0.25161116  1
  Fe  Fe5  1  0.37890624  0.87375413  0.37291052  1
  Fe  Fe6  1  0.87231751  0.87355446  0.37543242  1
  Fe  Fe7  1  0.75039462  0.50044584  0.00021898  1
  Fe  Fe8  1  0.87102526  0.37710624  0.62509631  1
  Fe  Fe9  1  0.62273210  0.87478179  0.12616331  1
  Fe  Fe10  1  0.50163744  0.74851816  0.74703483  1
  Fe  Fe11  1  0.25229948  0.75010207  0.00108294  1
  Fe  Fe12  1  0.25457156  0.25293011  0.00235089  1
  Fe  Fe13  1  0.37645570  0.62391781  0.87318989  1
  Fe  Fe14  1  0.25230691  0.74940078  0.50219656  1
  Fe  Fe15  1  -0.00170662  0.50067927  0.25117639  1
  Fe  Fe16  1  0.74968794  0.74933439  0.00294819  1
  Fe  Fe17  1  0.50321413  0.49978698  0.49973833  1
  Fe  Fe18  1  0.87176482  0.62686616  0.37640237  1
  Fe  Fe19  1  0.87194477  0.62759535  0.87351275  1
  Fe  Fe20  1  -0.00080455  0.75107841  0.24856730  1
  Fe  Fe21  1  -0.00168980  0.24983496  0.74962577  1
  Fe  Fe22  1  -0.00063575  0.75273574  -0.00056404  1
  Fe  Fe23  1  0.37581056  0.87372540  0.87350160  1
  Fe  Fe24  1  0.24863272  0.25122638  0.49759064  1
  Fe  Fe25  1  -0.00184957  0.24897844  0.00153764  1
  Fe  Fe26  1  0.00257926  -0.00192940  0.25082087  1
  Fe  Fe27  1  0.37789788  0.12938865  0.87600575  1
  Fe  Fe28  1  0.24816928  0.00032646  0.75256615  1
  Fe  Fe29  1  -0.00076909  0.25111553  0.49848827  1
  Fe  Fe30  1  0.87546697  0.12203969  0.62324374  1
  Fe  Fe31  1  0.37796752  0.62200578  0.12560530  1
  Fe  Fe32  1  0.00261935  -0.00267063  0.75507280  1
  Fe  Fe33  1  -0.00004554  0.25036745  0.25113360  1
  Fe  Fe34  1  0.74890831  -0.00034984  0.75101010  1
  Fe  Fe35  1  0.50074480  0.25196074  0.50052270  1
  Fe  Fe36  1  0.62462309  0.87225836  0.37366446  1
  Fe  Fe37  1  0.37471302  0.37671624  0.62590066  1
  Fe  Fe38  1  0.74918640  0.00223591  0.00076794  1
  Fe  Fe39  1  -0.00505076  0.75352381  0.74811478  1
  Fe  Fe40  1  0.12285555  0.62507550  0.12447953  1
  Fe  Fe41  1  0.62706450  0.37454469  0.12643301  1
  Fe  Fe42  1  0.63003233  0.37437612  0.62561651  1
  Fe  Fe43  1  0.87476559  0.12462713  0.37440128  1
  Fe  Fe44  1  0.25041812  0.24991448  0.74931015  1
  Fe  Fe45  1  0.87614339  0.87753734  0.12309275  1
  Fe  Fe46  1  0.86974982  0.37465871  0.37365553  1
  Fe  Fe47  1  0.12515465  0.62848744  0.87390288  1
  Fe  Fe48  1  0.37448974  0.12466755  0.62350637  1
  Fe  Fe49  1  0.49938535  0.49577252  -0.00202175  1
  Fe  Fe50  1  0.25121455  0.49911663  -0.00068201  1
  Fe  Fe51  1  -0.00243522  0.50061058  0.50033363  1
  Fe  Fe52  1  0.87391274  0.37330455  0.87511765  1
  Fe  Fe53  1  0.50141603  0.74788989  0.50337635  1
  Fe  Fe54  1  0.62490440  0.12797593  0.37557936  1
  Fe  Fe55  1  0.37506805  0.12420703  0.37446489  1
  Fe  Fe56  1  0.74779706  -0.00080246  0.49883006  1
  Fe  Fe57  1  0.50251811  0.49850873  0.75019565  1
  Fe  Fe58  1  -0.00137915  0.50021810  0.75064273  1
  Fe  Fe59  1  0.24788662  -0.00208888  0.49804562  1
  Fe  Fe60  1  0.24931927  0.25105242  0.25024333  1
  Fe  Fe61  1  0.12411044  0.12435732  0.62417732  1
  Fe  Fe62  1  0.25177517  0.74843163  0.24956632  1
  Fe  Fe63  1  0.62571751  0.36683408  0.87552820  1
  Fe  Fe64  1  0.12538812  0.37296731  0.87556555  1
  Fe  Fe65  1  0.62746925  0.62674242  0.37662169  1
  Fe  Fe66  1  -0.00334521  0.75120728  0.50350954  1
  Fe  Fe67  1  0.37601145  0.87602643  0.62579676  1
  Fe  Fe68  1  0.12439868  0.62682466  0.62645333  1
  Fe  Fe69  1  0.24752656  -0.00114916  -0.00281232  1
  Fe  Fe70  1  0.62464153  0.12743778  0.12257242  1
  Fe  Fe71  1  0.12505668  0.37726516  0.12599071  1
  Fe  Fe72  1  0.50097403  0.00000754  0.49852652  1
  Fe  Fe73  1  0.49921224  0.75081626  0.00135710  1
  Fe  Fe74  1  0.62594017  0.87431846  0.87464289  1
  Fe  Fe75  1  0.50074719  0.00197274  0.75138635  1
  Fe  Fe76  1  0.37708918  0.87774196  0.12788970  1
  Fe  Fe77  1  0.74830303  0.00172263  0.24935658  1
  Fe  Fe78  1  0.24950339  0.50126868  0.49875374  1
  Fe  Fe79  1  0.37509515  0.37765231  0.37245106  1
  Fe  Fe80  1  0.24740229  -0.00183877  0.25281921  1
  Fe  Fe81  1  0.87493934  0.12376644  0.87748087  1
  Fe  Fe82  1  0.87221954  0.37565690  0.12645441  1
  Fe  Fe83  1  0.62690514  0.62691202  0.87447009  1
  Fe  Fe84  1  0.00353716  -0.00319571  0.49734745  1
  Fe  Fe85  1  -0.00081587  0.50041997  -0.00206192  1
  Fe  Fe86  1  0.62561845  0.12567016  0.62572713  1
  Fe  Fe87  1  0.12435466  0.12341720  0.12371290  1
  Fe  Fe88  1  0.12411587  0.62602144  0.37535263  1
  Fe  Fe89  1  0.49862087  0.24790761  0.24761609  1
  Co  Co90  1  0.62189441  0.62271137  0.12128616  1
  Co  Co91  1  0.75287549  0.24829539  0.00133473  1
  Co  Co92  1  0.87803540  0.12239760  0.12624761  1
  Co  Co93  1  0.37575295  0.37980390  0.13056933  1
  Co  Co94  1  0.25361109  0.74943893  0.74824260  1
  Co  Co95  1  0.37656159  0.62400071  0.37556763  1
  Co  Co96  1  0.50087482  0.74711840  0.24871235  1
  Co  Co97  1  0.75024125  0.24642671  0.24927750  1
  Co  Co98  1  0.37674298  0.62161223  0.62606462  1
  Co  Co99  1  0.74937255  0.49782349  0.75520329  1
  Co  Co100  1  0.62634234  0.37347522  0.37132541  1
  Co  Co101  1  0.86984154  0.62139188  0.62687337  1
  Co  Co102  1  0.12456722  0.37721900  0.37498966  1
  Co  Co103  1  0.37559675  0.37393888  0.87118157  1
  Co  Co104  1  0.87507627  0.88045945  0.62320220  1
  Co  Co105  1  0.74907612  0.49899532  0.49637731  1
  Co  Co106  1  0.87094154  0.87518575  0.87813560  1
  Co  Co107  1  0.12527449  0.13048583  0.87653361  1
  Co  Co108  1  0.87748713  0.62418902  0.12273981  1
  Co  Co109  1  0.49556030  0.25156783  0.00469280  1
  Co  Co110  1  0.74941975  0.75216611  0.50556728  1
  Co  Co111  1  0.12497298  0.87483543  0.12407249  1
  Co  Co112  1  0.37231200  0.12018446  0.12553138  1
  Co  Co113  1  0.12495449  0.86966432  0.37582214  1
  Co  Co114  1  0.24752388  0.50363545  0.25059665  1
  Co  Co115  1  0.12566308  0.87510948  0.62663240  1
  Co  Co116  1  0.00328304  -0.00095749  -0.00324913  1
  Co  Co117  1  0.75053566  0.24867218  0.50056886  1
  Co  Co118  1  0.12691994  0.86968852  0.87387506  1
  Co  Co119  1  0.12398051  0.12637781  0.37533502  1
  Co  Co120  1  0.62286632  0.87808284  0.62531271  1
  Co  Co121  1  0.49992147  0.24968757  0.74637814  1
  Co  Co122  1  0.75286439  0.24707497  0.74920801  1
  Co  Co123  1  0.63010196  0.62137860  0.62644773  1
  Co  Co124  1  0.75025542  0.75463431  0.74546987  1
  Co  Co125  1  0.50309757  0.00300057  0.25032353  1
  Co  Co126  1  0.74991101  0.50471048  0.24867397  1
  Co  Co127  1  0.62314907  0.12861898  0.87608133  1
