# generated using pymatgen
data_Fe45Co19
_symmetry_space_group_name_H-M   'P 1'
_cell_length_a   11.41375318
_cell_length_b   11.41461468
_cell_length_c   11.41654385
_cell_angle_alpha   90.00372827
_cell_angle_beta   89.98893680
_cell_angle_gamma   89.99691761
_symmetry_Int_Tables_number   1
_chemical_formula_structural   Fe45Co19
_chemical_formula_sum   'Fe90 Co38'
_cell_volume   1487.38833685
_cell_formula_units_Z   2
loop_
 _symmetry_equiv_pos_site_id
 _symmetry_equiv_pos_as_xyz
  1  'x, y, z'
loop_
 _atom_site_type_symbol
 _atom_site_label
 _atom_site_symmetry_multiplicity
 _atom_site_fract_x
 _atom_site_fract_y
 _atom_site_fract_z
 _atom_site_occupancy
  Fe  Fe0  1  0.37500271  0.37411150  0.87462609  1
  Fe  Fe1  1  0.62995573  0.62877503  0.37527478  1
  Fe  Fe2  1  0.12615607  0.37371758  0.37215908  1
  Fe  Fe3  1  0.24993521  0.50129055  0.00031175  1
  Fe  Fe4  1  0.12505915  0.12560651  0.62373371  1
  Fe  Fe5  1  0.00103719  0.74938426  -0.00104839  1
  Fe  Fe6  1  0.24916015  0.49978199  0.49713050  1
  Fe  Fe7  1  0.50189559  0.74865726  0.00100995  1
  Fe  Fe8  1  0.49999994  0.50127316  0.25149810  1
  Fe  Fe9  1  0.25103167  0.75171574  0.50184009  1
  Fe  Fe10  1  0.12514677  0.62539335  0.37642887  1
  Fe  Fe11  1  0.74884057  0.74783193  0.74952803  1
  Fe  Fe12  1  0.37631675  0.87238155  0.87208910  1
  Fe  Fe13  1  0.62514966  0.62026510  0.62513162  1
  Fe  Fe14  1  0.37369415  0.12444871  0.37844546  1
  Fe  Fe15  1  0.62365740  0.61947706  0.87643437  1
  Fe  Fe16  1  0.24808208  0.75020783  -0.00055167  1
  Fe  Fe17  1  0.37578656  0.87643599  0.37511288  1
  Fe  Fe18  1  -0.00172700  0.74897273  0.24995833  1
  Fe  Fe19  1  -0.00251648  0.00318939  0.75169456  1
  Fe  Fe20  1  0.12551039  0.87568407  0.37590462  1
  Fe  Fe21  1  0.37375344  0.37584908  0.12880667  1
  Fe  Fe22  1  0.12418658  0.87571807  0.87334474  1
  Fe  Fe23  1  -0.00199195  0.50275638  0.25346894  1
  Fe  Fe24  1  0.50035473  0.25060810  0.74898715  1
  Fe  Fe25  1  0.62527252  0.12474272  0.62469967  1
  Fe  Fe26  1  0.87350514  0.62452898  0.87803474  1
  Fe  Fe27  1  0.62894192  0.37651367  0.62852204  1
  Fe  Fe28  1  0.62588247  0.12496620  0.12341461  1
  Fe  Fe29  1  0.37311933  0.12816104  0.87453282  1
  Fe  Fe30  1  0.37611700  0.37699726  0.62218810  1
  Fe  Fe31  1  0.62492594  0.87527234  0.87427562  1
  Fe  Fe32  1  0.87354573  0.62444405  0.12425412  1
  Fe  Fe33  1  0.24697327  0.24912958  0.00196158  1
  Fe  Fe34  1  0.24972894  0.00213719  0.75075848  1
  Fe  Fe35  1  0.12392457  0.37591116  0.62569211  1
  Fe  Fe36  1  0.75199492  0.49914764  0.24978497  1
  Fe  Fe37  1  0.37535842  0.87644344  0.12515089  1
  Fe  Fe38  1  0.87307009  0.12665464  0.37471730  1
  Fe  Fe39  1  0.37657116  0.62442804  0.12533320  1
  Fe  Fe40  1  0.49708849  0.24858180  0.25072197  1
  Fe  Fe41  1  0.12602416  0.37579493  0.12850630  1
  Fe  Fe42  1  -0.00275375  0.24952989  0.74936308  1
  Fe  Fe43  1  0.12413587  0.62358822  0.62486934  1
  Fe  Fe44  1  0.75451284  0.49632778  0.49700204  1
  Fe  Fe45  1  0.25081524  0.50003706  0.75047734  1
  Fe  Fe46  1  0.37628316  0.12357564  0.62369404  1
  Fe  Fe47  1  -0.00306781  0.49929823  0.75139118  1
  Fe  Fe48  1  0.25038721  0.25106432  0.49932517  1
  Fe  Fe49  1  0.37630305  0.62451075  0.37642130  1
  Fe  Fe50  1  0.62712057  0.12496329  0.37404801  1
  Fe  Fe51  1  0.62268982  0.87825118  0.62647692  1
  Fe  Fe52  1  0.62735695  0.12933546  0.87757149  1
  Fe  Fe53  1  0.62517201  0.37341703  0.37301442  1
  Fe  Fe54  1  0.37333063  0.12412165  0.12344325  1
  Fe  Fe55  1  0.24962227  0.74908150  0.24949852  1
  Fe  Fe56  1  0.87658625  0.62288117  0.62217914  1
  Fe  Fe57  1  0.00139332  0.24473754  0.24769884  1
  Fe  Fe58  1  -0.00294011  0.25330530  0.49979857  1
  Fe  Fe59  1  0.87263302  0.12726094  0.62222022  1
  Fe  Fe60  1  0.87241737  0.12925658  0.87857664  1
  Fe  Fe61  1  0.50264881  0.25134891  0.49933795  1
  Fe  Fe62  1  0.50256981  0.75108619  0.50063683  1
  Fe  Fe63  1  0.87525143  0.87485054  0.62754156  1
  Fe  Fe64  1  0.50275128  0.25409036  0.00122533  1
  Fe  Fe65  1  0.75063460  0.00206165  0.75174983  1
  Fe  Fe66  1  0.00095819  0.49857092  -0.00102924  1
  Fe  Fe67  1  0.12499597  0.62425332  0.12526959  1
  Fe  Fe68  1  0.75210162  -0.00227423  0.00122933  1
  Fe  Fe69  1  0.74864619  0.75212074  0.00361177  1
  Fe  Fe70  1  0.75040959  -0.00457547  0.24704262  1
  Fe  Fe71  1  -0.00092070  0.25008225  0.00257162  1
  Fe  Fe72  1  0.12323464  0.87875940  0.12546351  1
  Fe  Fe73  1  0.50198305  0.00003591  0.25138433  1
  Fe  Fe74  1  -0.00140055  0.74912233  0.49941256  1
  Fe  Fe75  1  0.37860886  0.87651880  0.62753667  1
  Fe  Fe76  1  0.87071331  0.87033565  0.37418003  1
  Fe  Fe77  1  0.12483792  0.37322948  0.87298585  1
  Fe  Fe78  1  0.74826293  0.49138861  0.00140707  1
  Fe  Fe79  1  -0.00054066  0.74751145  0.75223259  1
  Fe  Fe80  1  0.24667894  0.00365723  0.25117882  1
  Fe  Fe81  1  0.37604837  0.62583923  0.87352216  1
  Fe  Fe82  1  0.75199316  0.25140966  0.24523829  1
  Fe  Fe83  1  0.74947202  -0.00092213  0.49965773  1
  Fe  Fe84  1  0.50517078  0.75067704  0.24856981  1
  Fe  Fe85  1  -0.00114962  0.00115245  -0.00166687  1
  Fe  Fe86  1  0.37655704  0.62487141  0.62485869  1
  Fe  Fe87  1  0.12347461  0.87534547  0.62570770  1
  Fe  Fe88  1  0.49840479  0.00087172  -0.00304292  1
  Fe  Fe89  1  -0.00153163  -0.00023974  0.49755096  1
  Co  Co90  1  0.62050067  0.87870438  0.12159101  1
  Co  Co91  1  0.87043211  0.63019953  0.37496413  1
  Co  Co92  1  0.87920304  0.37641790  0.12750910  1
  Co  Co93  1  0.74759117  0.75301542  0.24152066  1
  Co  Co94  1  0.37477128  0.37581213  0.37454294  1
  Co  Co95  1  0.25122963  0.25031982  0.74803178  1
  Co  Co96  1  -0.00203397  0.49778298  0.49657573  1
  Co  Co97  1  0.24844422  0.75017867  0.74906842  1
  Co  Co98  1  0.50232951  0.00021440  0.49736775  1
  Co  Co99  1  0.12551394  0.62354154  0.87336247  1
  Co  Co100  1  0.87483797  0.37270174  0.87432578  1
  Co  Co101  1  0.25004875  0.24570024  0.24984340  1
  Co  Co102  1  0.87312524  0.12318118  0.12449898  1
  Co  Co103  1  0.62108649  0.37508857  0.12979586  1
  Co  Co104  1  0.50060245  0.00378469  0.75440348  1
  Co  Co105  1  0.12493032  0.12096857  0.12233676  1
  Co  Co106  1  0.25145171  -0.00076693  -0.00352281  1
  Co  Co107  1  0.87263393  0.37486878  0.62628446  1
  Co  Co108  1  0.49871184  0.49600399  -0.00007981  1
  Co  Co109  1  0.49731186  0.49891577  0.74999201  1
  Co  Co110  1  0.25052941  0.50255229  0.25085639  1
  Co  Co111  1  -0.00070486  0.00156960  0.25468630  1
  Co  Co112  1  0.12473076  0.12683853  0.37989320  1
  Co  Co113  1  0.62519181  0.37529137  0.86980614  1
  Co  Co114  1  0.88006596  0.87502877  0.12451048  1
  Co  Co115  1  0.24947708  -0.00136638  0.50194913  1
  Co  Co116  1  0.75451382  0.50199278  0.75136294  1
  Co  Co117  1  0.12487500  0.12741178  0.87438778  1
  Co  Co118  1  0.87620054  0.37117453  0.37190863  1
  Co  Co119  1  0.62770573  0.87270844  0.37672881  1
  Co  Co120  1  0.74848302  0.25199756  0.49945302  1
  Co  Co121  1  0.50485282  0.74710686  0.74921892  1
  Co  Co122  1  0.74884962  0.75094987  0.50722653  1
  Co  Co123  1  0.50379198  0.49891579  0.49782221  1
  Co  Co124  1  0.62545592  0.62020341  0.12316200  1
  Co  Co125  1  0.75154069  0.24789945  0.74999933  1
  Co  Co126  1  0.87398702  0.87283858  0.87372285  1
  Co  Co127  1  0.74934782  0.25714306  0.00459168  1
