# generated using pymatgen
data_Fe45Co19
_symmetry_space_group_name_H-M   'P 1'
_cell_length_a   11.42282119
_cell_length_b   11.42249941
_cell_length_c   11.42227893
_cell_angle_alpha   89.99973777
_cell_angle_beta   89.99447846
_cell_angle_gamma   90.00212053
_symmetry_Int_Tables_number   1
_chemical_formula_structural   Fe45Co19
_chemical_formula_sum   'Fe90 Co38'
_cell_volume   1490.34660345
_cell_formula_units_Z   2
loop_
 _symmetry_equiv_pos_site_id
 _symmetry_equiv_pos_as_xyz
  1  'x, y, z'
loop_
 _atom_site_type_symbol
 _atom_site_label
 _atom_site_symmetry_multiplicity
 _atom_site_fract_x
 _atom_site_fract_y
 _atom_site_fract_z
 _atom_site_occupancy
  Fe  Fe0  1  0.62452056  0.62763699  0.87908989  1
  Fe  Fe1  1  -0.00165073  0.00115827  0.50125831  1
  Fe  Fe2  1  0.50184948  -0.00072730  0.24844382  1
  Fe  Fe3  1  0.37364560  0.12567908  0.87521900  1
  Fe  Fe4  1  0.62685980  0.87361063  0.37397029  1
  Fe  Fe5  1  0.62527567  0.37732873  0.12183013  1
  Fe  Fe6  1  0.75001548  0.50003467  0.24890967  1
  Fe  Fe7  1  0.24998696  0.75017915  0.74966503  1
  Fe  Fe8  1  -0.00344689  0.74645191  0.50226238  1
  Fe  Fe9  1  0.37475009  0.62646338  0.37420155  1
  Fe  Fe10  1  0.50193125  -0.00281670  -0.00072981  1
  Fe  Fe11  1  0.62687483  0.62673134  0.37309697  1
  Fe  Fe12  1  0.12080122  0.37673384  0.12393339  1
  Fe  Fe13  1  0.50074059  0.74699717  0.74852079  1
  Fe  Fe14  1  0.62422452  0.37584059  0.37546027  1
  Fe  Fe15  1  0.75109734  -0.00047401  0.24860539  1
  Fe  Fe16  1  0.37521453  0.62386629  0.12371699  1
  Fe  Fe17  1  0.37615575  0.87306158  0.87539652  1
  Fe  Fe18  1  0.37487147  0.87295656  0.37419063  1
  Fe  Fe19  1  0.87427947  0.12427539  0.12272784  1
  Fe  Fe20  1  0.87335917  0.12542692  0.37532849  1
  Fe  Fe21  1  0.25106602  0.75151021  0.00161703  1
  Fe  Fe22  1  -0.00256109  0.50156706  0.49899557  1
  Fe  Fe23  1  0.25022087  0.25315908  0.25000026  1
  Fe  Fe24  1  0.25000367  0.49826062  -0.00231781  1
  Fe  Fe25  1  0.87438688  0.12728857  0.87410943  1
  Fe  Fe26  1  0.12365820  0.37609423  0.62472135  1
  Fe  Fe27  1  0.12517257  0.12652623  0.37524455  1
  Fe  Fe28  1  0.87431661  0.87260525  0.37489248  1
  Fe  Fe29  1  0.50119306  0.24816613  0.50063369  1
  Fe  Fe30  1  0.75165539  0.50107375  0.49910953  1
  Fe  Fe31  1  0.12335733  0.37185639  0.87527694  1
  Fe  Fe32  1  0.24875688  0.75058461  0.50140683  1
  Fe  Fe33  1  0.00210709  0.50254315  0.75235105  1
  Fe  Fe34  1  0.11932791  0.87497391  0.62929112  1
  Fe  Fe35  1  -0.00163328  0.74831819  0.24799442  1
  Fe  Fe36  1  0.62787260  0.12488159  0.12220457  1
  Fe  Fe37  1  0.12456233  0.62520364  0.37412095  1
  Fe  Fe38  1  0.49719069  0.49839138  -0.00412898  1
  Fe  Fe39  1  -0.00045203  0.74886585  -0.00077710  1
  Fe  Fe40  1  0.00272064  0.00267704  -0.00274228  1
  Fe  Fe41  1  0.24752842  -0.00024882  -0.00138444  1
  Fe  Fe42  1  0.87377072  0.62478202  0.87565300  1
  Fe  Fe43  1  0.87503562  0.62038531  0.12191773  1
  Fe  Fe44  1  0.37518295  0.12599923  0.37423782  1
  Fe  Fe45  1  0.12314659  0.87307250  0.37487678  1
  Fe  Fe46  1  0.74775141  0.49733072  0.75539128  1
  Fe  Fe47  1  0.12386714  0.87482864  0.12483416  1
  Fe  Fe48  1  0.50043696  0.50317437  0.50111724  1
  Fe  Fe49  1  0.24966990  -0.00050606  0.50222054  1
  Fe  Fe50  1  0.62646198  0.12461564  0.62591004  1
  Fe  Fe51  1  0.37447817  0.12395888  0.12418650  1
  Fe  Fe52  1  0.12479774  0.62514964  0.62623418  1
  Fe  Fe53  1  0.50060216  0.00043143  0.49943282  1
  Fe  Fe54  1  0.00004678  0.24678479  0.74813744  1
  Fe  Fe55  1  0.25014287  0.49889598  0.49866949  1
  Fe  Fe56  1  0.75359963  0.25610673  -0.00241842  1
  Fe  Fe57  1  0.75134419  0.74904061  0.50425306  1
  Fe  Fe58  1  0.87511854  0.87456461  0.87602046  1
  Fe  Fe59  1  0.50125280  0.25074845  0.24883980  1
  Fe  Fe60  1  -0.00102724  0.24991544  0.24845139  1
  Fe  Fe61  1  -0.00178754  0.24987595  0.50126061  1
  Fe  Fe62  1  0.75096431  0.75055736  0.74847850  1
  Fe  Fe63  1  0.49950478  0.49903132  0.24983543  1
  Fe  Fe64  1  0.75048422  -0.00080975  0.74991986  1
  Fe  Fe65  1  -0.00085680  0.00011546  0.24982613  1
  Fe  Fe66  1  0.62456859  0.37785792  0.62746853  1
  Fe  Fe67  1  0.87379967  0.37600445  0.62882109  1
  Fe  Fe68  1  0.12665047  0.62734695  0.87587554  1
  Fe  Fe69  1  0.50184450  0.25005928  0.75147545  1
  Fe  Fe70  1  0.25116837  0.25057312  0.50160902  1
  Fe  Fe71  1  0.25004965  0.49784029  0.25162864  1
  Fe  Fe72  1  0.50105609  0.75130524  0.24433289  1
  Fe  Fe73  1  0.74933220  0.25124536  0.24885269  1
  Fe  Fe74  1  0.62735842  0.12561985  0.87670012  1
  Fe  Fe75  1  0.87564114  0.37576179  0.37288818  1
  Fe  Fe76  1  0.24852082  0.25030275  0.00177354  1
  Fe  Fe77  1  0.75083580  0.74952272  0.24331814  1
  Fe  Fe78  1  0.25170101  0.50087344  0.75243118  1
  Fe  Fe79  1  0.12527990  0.62345709  0.12421057  1
  Fe  Fe80  1  0.74998310  -0.00094708  0.50138575  1
  Fe  Fe81  1  0.37755642  0.37714223  0.62733886  1
  Fe  Fe82  1  0.37674397  0.87508796  0.62596201  1
  Fe  Fe83  1  0.50184667  -0.00023678  0.75234296  1
  Fe  Fe84  1  0.24901579  -0.00137236  0.25010883  1
  Fe  Fe85  1  0.50174101  0.74806737  0.50229837  1
  Fe  Fe86  1  0.49904428  0.25065793  -0.00016581  1
  Fe  Fe87  1  0.74923656  0.25059508  0.50045735  1
  Fe  Fe88  1  0.24769608  0.00049470  0.75080691  1
  Fe  Fe89  1  0.24965683  0.24875127  0.74741453  1
  Co  Co90  1  0.62719902  0.87161813  0.87431973  1
  Co  Co91  1  0.37785688  0.37445905  0.37719779  1
  Co  Co92  1  -0.00012379  0.50211461  0.25183940  1
  Co  Co93  1  0.62183576  0.37463818  0.87648247  1
  Co  Co94  1  0.37254701  0.87734380  0.12414614  1
  Co  Co95  1  0.75053217  -0.00045294  -0.00235079  1
  Co  Co96  1  0.75051631  0.74949667  0.00331533  1
  Co  Co97  1  0.62825580  0.62214003  0.62702326  1
  Co  Co98  1  0.00014982  0.50066065  -0.00399746  1
  Co  Co99  1  0.12419373  0.87244854  0.87418522  1
  Co  Co100  1  0.37671473  0.12395067  0.62701642  1
  Co  Co101  1  0.37255159  0.62421831  0.62498968  1
  Co  Co102  1  0.12550571  0.12516023  0.12654403  1
  Co  Co103  1  0.24963798  0.74935171  0.24848451  1
  Co  Co104  1  0.75207254  0.49655612  -0.00386603  1
  Co  Co105  1  0.88060625  0.37416159  0.87148585  1
  Co  Co106  1  0.12234115  0.37405881  0.37571580  1
  Co  Co107  1  0.62893609  0.87800927  0.12262578  1
  Co  Co108  1  -0.00181901  0.24873932  0.00108350  1
  Co  Co109  1  0.62612994  0.12430051  0.37399395  1
  Co  Co110  1  0.37523621  0.62895512  0.87754224  1
  Co  Co111  1  0.37313838  0.37157813  0.87327506  1
  Co  Co112  1  0.87829829  0.87557104  0.62707893  1
  Co  Co113  1  0.37512779  0.37579416  0.12358628  1
  Co  Co114  1  0.87212574  0.62667851  0.37294764  1
  Co  Co115  1  0.87375922  0.62109524  0.62937818  1
  Co  Co116  1  0.87724215  0.37834461  0.12551261  1
  Co  Co117  1  0.87765925  0.87750589  0.12134348  1
  Co  Co118  1  0.74821973  0.25128116  0.75204065  1
  Co  Co119  1  -0.00237771  0.74704391  0.75253596  1
  Co  Co120  1  0.12592081  0.12908990  0.87455073  1
  Co  Co121  1  0.50107387  0.75365843  0.00420715  1
  Co  Co122  1  -0.00044629  0.00351586  0.75340914  1
  Co  Co123  1  0.62420314  0.62003111  0.12088622  1
  Co  Co124  1  0.87253212  0.12567303  0.62591227  1
  Co  Co125  1  0.49859296  0.50313462  0.75370399  1
  Co  Co126  1  0.62399533  0.87542643  0.62568017  1
  Co  Co127  1  0.12393721  0.12387718  0.62383684  1
