# generated using pymatgen
data_Fe45Co19
_symmetry_space_group_name_H-M   'P 1'
_cell_length_a   11.41486866
_cell_length_b   11.41443661
_cell_length_c   11.41550153
_cell_angle_alpha   90.00691155
_cell_angle_beta   90.00404730
_cell_angle_gamma   90.01465343
_symmetry_Int_Tables_number   1
_chemical_formula_structural   Fe45Co19
_chemical_formula_sum   'Fe90 Co38'
_cell_volume   1487.37465907
_cell_formula_units_Z   2
loop_
 _symmetry_equiv_pos_site_id
 _symmetry_equiv_pos_as_xyz
  1  'x, y, z'
loop_
 _atom_site_type_symbol
 _atom_site_label
 _atom_site_symmetry_multiplicity
 _atom_site_fract_x
 _atom_site_fract_y
 _atom_site_fract_z
 _atom_site_occupancy
  Fe  Fe0  1  0.50072414  -0.00073427  -0.00071790  1
  Fe  Fe1  1  0.87550902  0.87335378  0.62574506  1
  Fe  Fe2  1  0.87490326  0.87260693  0.12663708  1
  Fe  Fe3  1  0.62559668  0.62457657  0.12568294  1
  Fe  Fe4  1  0.87233262  0.62681209  0.37768282  1
  Fe  Fe5  1  0.50084536  0.49700944  -0.00417876  1
  Fe  Fe6  1  0.24919115  0.00286020  0.24791211  1
  Fe  Fe7  1  0.62470086  0.87451310  0.37121464  1
  Fe  Fe8  1  0.37758431  0.37457216  0.12447189  1
  Fe  Fe9  1  0.49898889  0.49995311  0.49918990  1
  Fe  Fe10  1  0.12351038  0.87535548  0.62670974  1
  Fe  Fe11  1  -0.00193151  0.74738187  -0.00094592  1
  Fe  Fe12  1  0.87237710  0.12850805  0.87263359  1
  Fe  Fe13  1  0.25054879  -0.00212590  -0.00201630  1
  Fe  Fe14  1  0.49922855  0.24950778  0.50134088  1
  Fe  Fe15  1  0.25134074  0.24991216  0.50077281  1
  Fe  Fe16  1  0.37659681  0.12534417  0.87499865  1
  Fe  Fe17  1  0.37788187  0.87436623  0.12562440  1
  Fe  Fe18  1  0.37250926  0.62975417  0.87671242  1
  Fe  Fe19  1  0.37357904  0.62509030  0.37590949  1
  Fe  Fe20  1  0.37325813  0.12347196  0.37591284  1
  Fe  Fe21  1  0.62691393  0.87481895  0.87458229  1
  Fe  Fe22  1  0.75116045  0.00050437  0.00258843  1
  Fe  Fe23  1  -0.00002536  0.00107519  0.49863307  1
  Fe  Fe24  1  0.12627012  0.87786347  0.37449633  1
  Fe  Fe25  1  -0.00263437  0.74711144  0.75183187  1
  Fe  Fe26  1  0.87139103  0.37252503  0.86952108  1
  Fe  Fe27  1  0.62539797  0.87542628  0.62583935  1
  Fe  Fe28  1  0.12392090  0.37647474  0.62562858  1
  Fe  Fe29  1  -0.00251220  0.50195781  0.74968398  1
  Fe  Fe30  1  0.25187328  0.49813705  0.25065247  1
  Fe  Fe31  1  0.49943546  0.75287185  0.49740984  1
  Fe  Fe32  1  0.12504758  0.37533773  0.12387012  1
  Fe  Fe33  1  0.49995660  0.00208479  0.24915905  1
  Fe  Fe34  1  -0.00159708  0.49920209  0.25005004  1
  Fe  Fe35  1  0.12633788  0.37560875  0.37631294  1
  Fe  Fe36  1  0.24968373  -0.00335080  0.75465681  1
  Fe  Fe37  1  0.50471987  0.25398187  -0.00221780  1
  Fe  Fe38  1  0.12625090  0.62291866  0.37579354  1
  Fe  Fe39  1  0.50143000  0.74918402  0.75070422  1
  Fe  Fe40  1  0.49976701  0.50017592  0.25118781  1
  Fe  Fe41  1  0.62650098  0.12660392  0.12435562  1
  Fe  Fe42  1  0.37543017  0.62516520  0.62459007  1
  Fe  Fe43  1  0.12558322  0.62491358  0.62448641  1
  Fe  Fe44  1  0.62494651  0.37546783  0.37638446  1
  Fe  Fe45  1  0.87373446  0.37320978  0.37521244  1
  Fe  Fe46  1  0.24940457  0.24864246  0.24954400  1
  Fe  Fe47  1  0.75007308  0.49728502  0.00150628  1
  Fe  Fe48  1  0.25158248  0.49930999  -0.00165896  1
  Fe  Fe49  1  0.12485974  0.37395874  0.87514475  1
  Fe  Fe50  1  0.62924341  0.62316407  0.87286346  1
  Fe  Fe51  1  -0.00183296  0.00268725  -0.00016661  1
  Fe  Fe52  1  0.74955939  0.49938601  0.25101939  1
  Fe  Fe53  1  0.87555327  0.12689635  0.62635058  1
  Fe  Fe54  1  0.75168768  -0.00091259  0.49987213  1
  Fe  Fe55  1  0.87681247  0.12724324  0.37168231  1
  Fe  Fe56  1  0.50070827  0.24929393  0.25024499  1
  Fe  Fe57  1  0.62674093  0.12455384  0.87402654  1
  Fe  Fe58  1  0.37691364  0.12187325  0.62766227  1
  Fe  Fe59  1  0.50379798  0.75069814  0.00135618  1
  Fe  Fe60  1  0.62764116  0.62642731  0.37771683  1
  Fe  Fe61  1  -0.00208915  0.24913046  -0.00054732  1
  Fe  Fe62  1  0.62516296  0.12396267  0.37785422  1
  Fe  Fe63  1  0.74789757  0.25121304  0.50382640  1
  Fe  Fe64  1  0.37578832  0.62480644  0.12348663  1
  Fe  Fe65  1  0.00162677  0.24911072  0.50014516  1
  Fe  Fe66  1  0.37705887  0.37718188  0.62673205  1
  Fe  Fe67  1  0.25034354  0.24832299  0.00075953  1
  Fe  Fe68  1  0.50438573  0.25093341  0.75038770  1
  Fe  Fe69  1  0.75101323  0.00118904  0.24846344  1
  Fe  Fe70  1  0.75205504  0.50282013  0.74078643  1
  Fe  Fe71  1  0.49829318  -0.00163840  0.49941766  1
  Fe  Fe72  1  0.12186534  0.87489908  0.12445869  1
  Fe  Fe73  1  0.87318740  0.87310060  0.87482215  1
  Fe  Fe74  1  0.87178697  0.36995091  0.12764338  1
  Fe  Fe75  1  -0.00286386  0.49843103  -0.00142026  1
  Fe  Fe76  1  0.25073864  0.75249385  0.50097108  1
  Fe  Fe77  1  0.74875841  0.00116503  0.74799799  1
  Fe  Fe78  1  -0.00246927  0.49955178  0.50115621  1
  Fe  Fe79  1  0.12635566  0.62734311  0.87605140  1
  Fe  Fe80  1  0.00099040  0.75082055  0.49795276  1
  Fe  Fe81  1  0.87556240  0.87354572  0.37203190  1
  Fe  Fe82  1  0.25061422  0.74961834  0.24885427  1
  Fe  Fe83  1  0.87403124  0.62650642  0.12520332  1
  Fe  Fe84  1  0.37593771  0.87633980  0.62732351  1
  Fe  Fe85  1  0.12565741  0.12297510  0.62548214  1
  Fe  Fe86  1  0.00107813  0.00181248  0.75291285  1
  Fe  Fe87  1  0.24872127  0.24998152  0.75045791  1
  Fe  Fe88  1  0.12432286  0.62333209  0.12459703  1
  Fe  Fe89  1  0.25188590  0.50093188  0.75140395  1
  Co  Co90  1  0.74815032  0.75111037  0.00073658  1
  Co  Co91  1  0.25067145  -0.00057789  0.50227787  1
  Co  Co92  1  0.87796432  0.37134228  0.62669758  1
  Co  Co93  1  0.25045211  0.75175247  0.74846659  1
  Co  Co94  1  0.62441155  0.37586769  0.12709982  1
  Co  Co95  1  0.74848179  0.75454028  0.50017377  1
  Co  Co96  1  0.62255634  0.62575750  0.62237198  1
  Co  Co97  1  0.00126904  0.74794461  0.25110060  1
  Co  Co98  1  0.24910403  0.75267487  0.00322318  1
  Co  Co99  1  0.74768220  0.25099692  -0.00108271  1
  Co  Co100  1  0.75024827  0.74942608  0.74845074  1
  Co  Co101  1  0.25175866  0.49815705  0.50101404  1
  Co  Co102  1  0.75145686  0.49723962  0.50346200  1
  Co  Co103  1  0.74440363  0.24825059  0.74415320  1
  Co  Co104  1  0.37757780  0.87218710  0.87654159  1
  Co  Co105  1  0.50131590  -0.00081304  0.75234741  1
  Co  Co106  1  0.49943695  0.74813683  0.25032808  1
  Co  Co107  1  0.37593695  0.37430523  0.37456862  1
  Co  Co108  1  0.37712108  0.12594281  0.12244337  1
  Co  Co109  1  0.87046674  0.62351997  0.87639303  1
  Co  Co110  1  0.62284823  0.12084704  0.62222238  1
  Co  Co111  1  0.62439233  0.87563255  0.12752703  1
  Co  Co112  1  0.12307823  0.12412426  0.12297240  1
  Co  Co113  1  0.49667964  0.50238635  0.75354459  1
  Co  Co114  1  0.87510140  0.62961844  0.61953607  1
  Co  Co115  1  0.87457845  0.12901255  0.12809281  1
  Co  Co116  1  0.00438966  0.25113008  0.24993099  1
  Co  Co117  1  0.12577604  0.12382651  0.37633808  1
  Co  Co118  1  0.63072791  0.37957520  0.86936029  1
  Co  Co119  1  0.37372597  0.87736150  0.37196224  1
  Co  Co120  1  0.74562801  0.24914389  0.25216851  1
  Co  Co121  1  0.37390316  0.37257196  0.87473826  1
  Co  Co122  1  0.74897514  0.74911176  0.24873429  1
  Co  Co123  1  -0.00001604  0.00103831  0.24976329  1
  Co  Co124  1  0.62075039  0.37956061  0.62518778  1
  Co  Co125  1  0.00305679  0.24871244  0.75103416  1
  Co  Co126  1  0.12554449  0.12490264  0.87698459  1
  Co  Co127  1  0.12169368  0.87198494  0.87605321  1
