# generated using pymatgen
data_Fe45Co19
_symmetry_space_group_name_H-M   'P 1'
_cell_length_a   11.41581208
_cell_length_b   11.41520976
_cell_length_c   11.41490986
_cell_angle_alpha   89.99520616
_cell_angle_beta   89.99780745
_cell_angle_gamma   89.99816560
_symmetry_Int_Tables_number   1
_chemical_formula_structural   Fe45Co19
_chemical_formula_sum   'Fe90 Co38'
_cell_volume   1487.52129543
_cell_formula_units_Z   2
loop_
 _symmetry_equiv_pos_site_id
 _symmetry_equiv_pos_as_xyz
  1  'x, y, z'
loop_
 _atom_site_type_symbol
 _atom_site_label
 _atom_site_symmetry_multiplicity
 _atom_site_fract_x
 _atom_site_fract_y
 _atom_site_fract_z
 _atom_site_occupancy
  Fe  Fe0  1  0.24925530  0.74972887  0.74911582  1
  Fe  Fe1  1  0.25091938  0.49986118  -0.00058835  1
  Fe  Fe2  1  0.75322345  0.24823025  -0.00079406  1
  Fe  Fe3  1  -0.00450106  0.50275120  0.00149466  1
  Fe  Fe4  1  0.24929407  0.49878812  0.75091529  1
  Fe  Fe5  1  0.37565687  0.62286844  0.62754698  1
  Fe  Fe6  1  0.87640524  0.62628234  0.62696415  1
  Fe  Fe7  1  0.25243157  0.24698453  0.49772175  1
  Fe  Fe8  1  0.74897646  -0.00234044  0.25075626  1
  Fe  Fe9  1  0.62298214  0.62559357  0.87188086  1
  Fe  Fe10  1  0.12392534  0.62514213  0.87597986  1
  Fe  Fe11  1  0.62385652  0.87492613  0.37726986  1
  Fe  Fe12  1  0.62301098  0.12493869  0.37545875  1
  Fe  Fe13  1  0.49797737  0.24970015  0.24708860  1
  Fe  Fe14  1  0.87790202  0.87208900  0.37433284  1
  Fe  Fe15  1  0.24924391  0.50248429  0.49832437  1
  Fe  Fe16  1  0.49694448  0.00145556  0.49962118  1
  Fe  Fe17  1  0.37520476  0.37320631  0.87553912  1
  Fe  Fe18  1  0.00319690  0.75193163  0.74626556  1
  Fe  Fe19  1  0.37198827  0.87579997  0.62477502  1
  Fe  Fe20  1  0.87591083  0.12453268  0.12651122  1
  Fe  Fe21  1  0.62313885  0.37383152  0.37617554  1
  Fe  Fe22  1  -0.00189959  0.24682303  0.49947304  1
  Fe  Fe23  1  0.75123385  0.24904766  0.25065951  1
  Fe  Fe24  1  0.87793836  0.63022900  0.37227915  1
  Fe  Fe25  1  0.12317560  0.37213210  0.37541197  1
  Fe  Fe26  1  0.62369868  0.87416562  0.87658907  1
  Fe  Fe27  1  0.49844821  0.75035688  0.50241261  1
  Fe  Fe28  1  0.12286889  0.12989250  0.87767811  1
  Fe  Fe29  1  0.24811644  0.25076168  0.75052758  1
  Fe  Fe30  1  0.75041009  0.49852003  0.75185509  1
  Fe  Fe31  1  0.00189097  0.00005774  0.75179134  1
  Fe  Fe32  1  0.12745252  0.87252072  0.87767637  1
  Fe  Fe33  1  0.75195058  0.50151656  0.49840506  1
  Fe  Fe34  1  0.74856515  0.50045155  0.25089211  1
  Fe  Fe35  1  0.87602054  0.37343768  0.37309694  1
  Fe  Fe36  1  0.49974901  0.50064754  0.00052590  1
  Fe  Fe37  1  0.12395899  0.37350338  0.12327201  1
  Fe  Fe38  1  0.62623188  0.62666727  0.12605352  1
  Fe  Fe39  1  0.12771565  0.87639871  0.12149887  1
  Fe  Fe40  1  0.87464148  0.37342437  0.62613982  1
  Fe  Fe41  1  0.62575679  0.12327847  0.62646439  1
  Fe  Fe42  1  0.62574991  0.37516480  0.12352575  1
  Fe  Fe43  1  0.75050195  0.75134656  0.50198875  1
  Fe  Fe44  1  0.12368850  0.62996765  0.37520035  1
  Fe  Fe45  1  0.49918685  -0.00353669  0.75278630  1
  Fe  Fe46  1  0.62407995  0.12633162  0.87298184  1
  Fe  Fe47  1  -0.00040644  0.74672602  0.00346306  1
  Fe  Fe48  1  0.75339569  0.50179371  -0.00124991  1
  Fe  Fe49  1  -0.00007052  0.50085987  0.24814847  1
  Fe  Fe50  1  0.75071060  0.00108897  -0.00239563  1
  Fe  Fe51  1  0.24994891  0.00094517  0.75417887  1
  Fe  Fe52  1  0.74840245  0.75433007  0.74704380  1
  Fe  Fe53  1  0.12571340  0.12713614  0.12439067  1
  Fe  Fe54  1  0.87624078  0.87416387  0.87380564  1
  Fe  Fe55  1  0.37623984  0.62529073  0.37365706  1
  Fe  Fe56  1  0.12555993  0.37511852  0.62249044  1
  Fe  Fe57  1  0.24904502  0.75056630  0.24687350  1
  Fe  Fe58  1  0.62249853  0.62597772  0.37499851  1
  Fe  Fe59  1  0.00249294  -0.00118662  0.49763713  1
  Fe  Fe60  1  0.62340040  0.62358187  0.62732518  1
  Fe  Fe61  1  0.74995879  0.24852636  0.50025845  1
  Fe  Fe62  1  0.49558671  0.24745884  0.00337737  1
  Fe  Fe63  1  0.75136397  0.74924515  -0.00010608  1
  Fe  Fe64  1  0.87430950  0.87331186  0.12680052  1
  Fe  Fe65  1  0.49989471  0.49679308  0.50307187  1
  Fe  Fe66  1  0.50055657  -0.00226123  0.24922343  1
  Fe  Fe67  1  0.62414736  0.37464618  0.87600164  1
  Fe  Fe68  1  -0.00021802  0.50189345  0.49996394  1
  Fe  Fe69  1  0.87344525  0.12215209  0.62889957  1
  Fe  Fe70  1  0.50145298  0.25566455  0.74501373  1
  Fe  Fe71  1  0.00278384  0.00004565  0.25305598  1
  Fe  Fe72  1  0.75062027  -0.00180042  0.50034938  1
  Fe  Fe73  1  0.37464248  0.62233636  0.12613269  1
  Fe  Fe74  1  -0.00050534  0.00159682  -0.00087689  1
  Fe  Fe75  1  0.00082953  0.49856075  0.75019135  1
  Fe  Fe76  1  0.37214326  0.88038451  0.11883832  1
  Fe  Fe77  1  0.37672020  0.62604817  0.87321471  1
  Fe  Fe78  1  0.25225146  0.24966447  0.24888158  1
  Fe  Fe79  1  0.12333260  0.37263093  0.87796261  1
  Fe  Fe80  1  0.24805460  0.00141745  0.25362820  1
  Fe  Fe81  1  0.37064853  0.87456025  0.37745243  1
  Fe  Fe82  1  0.87701104  0.37119219  0.87386438  1
  Fe  Fe83  1  0.49980671  0.75329298  0.24773953  1
  Fe  Fe84  1  0.62402412  0.12234632  0.12459689  1
  Fe  Fe85  1  0.49801493  0.75130268  0.00099027  1
  Fe  Fe86  1  0.24940103  0.49927838  0.25139119  1
  Fe  Fe87  1  0.37542874  0.12578987  0.62634754  1
  Fe  Fe88  1  0.12603153  0.12343197  0.62362832  1
  Fe  Fe89  1  0.37780240  0.37438251  0.37502261  1
  Co  Co90  1  0.00173836  0.24881123  0.74767290  1
  Co  Co91  1  0.24878144  0.00595999  -0.00648834  1
  Co  Co92  1  0.36926249  0.37542285  0.62287695  1
  Co  Co93  1  0.37360147  0.11853099  0.12553300  1
  Co  Co94  1  0.12689223  0.62157652  0.12400034  1
  Co  Co95  1  0.37758022  0.12835863  0.87170292  1
  Co  Co96  1  0.87446699  0.37499645  0.12684608  1
  Co  Co97  1  0.37800602  0.12572176  0.37299908  1
  Co  Co98  1  -0.00098726  0.24761661  0.25067152  1
  Co  Co99  1  0.24935793  0.74624609  0.50386629  1
  Co  Co100  1  0.87378096  0.12286313  0.37464417  1
  Co  Co101  1  0.25372684  0.24855338  0.00157616  1
  Co  Co102  1  0.63036748  0.37747036  0.62379216  1
  Co  Co103  1  0.62228605  0.87739125  0.62273857  1
  Co  Co104  1  -0.00351852  0.24886972  0.00120513  1
  Co  Co105  1  0.74541244  0.75238003  0.25248352  1
  Co  Co106  1  0.12767776  0.87136207  0.37846018  1
  Co  Co107  1  0.87677957  0.87813382  0.62628178  1
  Co  Co108  1  0.87133659  0.62720234  0.12952507  1
  Co  Co109  1  0.12574671  0.12714024  0.37532413  1
  Co  Co110  1  0.74937646  0.25056996  0.75090426  1
  Co  Co111  1  0.62582303  0.87609269  0.12147681  1
  Co  Co112  1  0.37198229  0.87367750  0.87788030  1
  Co  Co113  1  0.49937652  0.75407513  0.74942165  1
  Co  Co114  1  0.37453499  0.37842721  0.12571933  1
  Co  Co115  1  0.50246938  0.49957534  0.24899330  1
  Co  Co116  1  0.74812534  -0.00316479  0.75273778  1
  Co  Co117  1  0.87587813  0.62830958  0.87040953  1
  Co  Co118  1  0.50101215  0.25099738  0.50356571  1
  Co  Co119  1  0.25047170  0.74672480  0.00142279  1
  Co  Co120  1  0.12459936  0.62136976  0.62620074  1
  Co  Co121  1  0.00535649  0.75162874  0.24568354  1
  Co  Co122  1  0.25150796  0.00384383  0.49775862  1
  Co  Co123  1  0.49914288  0.49500946  0.74877748  1
  Co  Co124  1  0.50046229  0.00115130  -0.00358923  1
  Co  Co125  1  0.87520840  0.12449194  0.87188760  1
  Co  Co126  1  0.00212144  0.75139997  0.50484658  1
  Co  Co127  1  0.12946929  0.87903567  0.62336851  1
