# generated using pymatgen
data_Fe45Co19
_symmetry_space_group_name_H-M   'P 1'
_cell_length_a   11.41422078
_cell_length_b   11.41472702
_cell_length_c   11.41563805
_cell_angle_alpha   90.00563208
_cell_angle_beta   89.99498931
_cell_angle_gamma   90.00745622
_symmetry_Int_Tables_number   1
_chemical_formula_structural   Fe45Co19
_chemical_formula_sum   'Fe90 Co38'
_cell_volume   1487.34590180
_cell_formula_units_Z   2
loop_
 _symmetry_equiv_pos_site_id
 _symmetry_equiv_pos_as_xyz
  1  'x, y, z'
loop_
 _atom_site_type_symbol
 _atom_site_label
 _atom_site_symmetry_multiplicity
 _atom_site_fract_x
 _atom_site_fract_y
 _atom_site_fract_z
 _atom_site_occupancy
  Fe  Fe0  1  0.49930057  -0.00191873  0.25076432  1
  Fe  Fe1  1  -0.00111050  0.74783949  0.74966242  1
  Fe  Fe2  1  0.50319602  0.00508659  -0.00110018  1
  Fe  Fe3  1  0.87096119  0.62106876  0.62464537  1
  Fe  Fe4  1  0.87353871  0.87639956  0.37723747  1
  Fe  Fe5  1  0.87512440  0.87813609  0.12081741  1
  Fe  Fe6  1  0.62489820  0.12592970  0.62768687  1
  Fe  Fe7  1  0.37518759  0.87594193  0.62225785  1
  Fe  Fe8  1  0.62551796  0.37386296  0.87703931  1
  Fe  Fe9  1  0.37601107  0.37579301  0.12467346  1
  Fe  Fe10  1  0.24548688  0.00379858  0.00001729  1
  Fe  Fe11  1  0.12697620  0.62427243  0.87286924  1
  Fe  Fe12  1  0.12630058  0.87282190  0.87555056  1
  Fe  Fe13  1  0.87046275  0.12033021  0.37558329  1
  Fe  Fe14  1  0.12575687  0.87325968  0.12372374  1
  Fe  Fe15  1  0.00044988  0.00121758  0.50114663  1
  Fe  Fe16  1  -0.00365446  0.24998134  0.25155625  1
  Fe  Fe17  1  -0.00077745  0.74606620  0.50171503  1
  Fe  Fe18  1  0.12476822  0.87347013  0.62404073  1
  Fe  Fe19  1  0.49951215  0.00023218  0.75170914  1
  Fe  Fe20  1  0.49529291  0.74740038  0.00381355  1
  Fe  Fe21  1  0.75036927  0.74775987  -0.00004799  1
  Fe  Fe22  1  0.00065078  0.49973665  0.25159261  1
  Fe  Fe23  1  0.87642857  0.12250660  0.12069032  1
  Fe  Fe24  1  0.24879340  0.49724463  0.25202029  1
  Fe  Fe25  1  0.37464780  0.62321261  0.87544081  1
  Fe  Fe26  1  0.62476543  0.87402639  0.62814273  1
  Fe  Fe27  1  0.25161154  0.74707900  0.50060745  1
  Fe  Fe28  1  0.74789208  0.00162902  0.75429836  1
  Fe  Fe29  1  0.25032725  0.00053805  0.74861348  1
  Fe  Fe30  1  0.87436169  0.87847778  0.87797996  1
  Fe  Fe31  1  0.24935203  0.49998067  0.00171882  1
  Fe  Fe32  1  0.50131659  0.24755377  0.49742117  1
  Fe  Fe33  1  0.12578558  0.87308533  0.37668966  1
  Fe  Fe34  1  0.50640208  0.50252297  0.49626877  1
  Fe  Fe35  1  0.37874815  0.62623842  0.37085277  1
  Fe  Fe36  1  0.62576404  0.87523046  0.37376082  1
  Fe  Fe37  1  0.00036565  0.49861569  0.74671368  1
  Fe  Fe38  1  0.25248353  0.25212693  0.25313076  1
  Fe  Fe39  1  0.00149956  0.49953934  0.00108059  1
  Fe  Fe40  1  0.37757310  0.62211209  0.62506795  1
  Fe  Fe41  1  0.12606964  0.62628666  0.12615027  1
  Fe  Fe42  1  0.37504393  0.87597315  0.87860505  1
  Fe  Fe43  1  0.87059397  0.62247391  0.37405911  1
  Fe  Fe44  1  0.75123853  0.25079247  0.00186294  1
  Fe  Fe45  1  0.75123803  0.25102693  0.75110967  1
  Fe  Fe46  1  0.00026044  0.00200654  0.75182817  1
  Fe  Fe47  1  0.87322352  0.87609862  0.62527622  1
  Fe  Fe48  1  0.49693506  0.25376982  0.75020454  1
  Fe  Fe49  1  0.12461307  0.37441291  0.61579567  1
  Fe  Fe50  1  0.62506265  0.87596525  0.12377129  1
  Fe  Fe51  1  0.87390852  0.37848791  0.37688727  1
  Fe  Fe52  1  0.37737254  0.37692742  0.37781567  1
  Fe  Fe53  1  0.50542035  0.49669876  0.24993374  1
  Fe  Fe54  1  0.87317523  0.12386783  0.62594035  1
  Fe  Fe55  1  0.49864188  0.24943928  0.00077831  1
  Fe  Fe56  1  0.00013449  -0.00128802  0.24909976  1
  Fe  Fe57  1  0.74904264  0.74721095  0.75192188  1
  Fe  Fe58  1  0.12530267  0.12734168  0.37563086  1
  Fe  Fe59  1  -0.00016698  0.25055754  0.75031259  1
  Fe  Fe60  1  0.62554023  0.62449663  0.12732967  1
  Fe  Fe61  1  -0.00211365  0.75024168  0.24994257  1
  Fe  Fe62  1  0.50325590  0.00113481  0.49958760  1
  Fe  Fe63  1  0.62225351  0.87164360  0.87600438  1
  Fe  Fe64  1  0.12695455  0.12921470  0.62360188  1
  Fe  Fe65  1  0.87528052  0.37547168  0.87691976  1
  Fe  Fe66  1  0.37518710  0.12219096  0.37647500  1
  Fe  Fe67  1  0.74787968  0.74875364  0.50103002  1
  Fe  Fe68  1  0.50220510  0.49939333  0.00066764  1
  Fe  Fe69  1  0.25287553  0.74998628  0.74958202  1
  Fe  Fe70  1  0.62561489  0.12943261  0.13111130  1
  Fe  Fe71  1  0.50194442  0.49914618  0.75255522  1
  Fe  Fe72  1  0.62496677  0.37593002  0.62367394  1
  Fe  Fe73  1  0.74906231  0.24825176  0.49825862  1
  Fe  Fe74  1  0.25028810  -0.00186364  0.25151626  1
  Fe  Fe75  1  0.37401621  0.12706205  0.62488164  1
  Fe  Fe76  1  0.12610405  0.37402881  0.87473356  1
  Fe  Fe77  1  0.24829811  0.24971065  0.00071694  1
  Fe  Fe78  1  0.00024545  0.74852838  -0.00094565  1
  Fe  Fe79  1  0.12264729  0.37216779  0.12776536  1
  Fe  Fe80  1  0.87367416  0.62148366  0.12586032  1
  Fe  Fe81  1  0.87321942  0.62045242  0.87551494  1
  Fe  Fe82  1  0.75080594  0.75215266  0.24841083  1
  Fe  Fe83  1  0.87283587  0.37717570  0.62142220  1
  Fe  Fe84  1  0.25255189  0.49488742  0.74622436  1
  Fe  Fe85  1  0.50228735  0.74891085  0.50012293  1
  Fe  Fe86  1  0.12591116  0.62529100  0.37461191  1
  Fe  Fe87  1  0.37406250  0.12441256  0.12630015  1
  Fe  Fe88  1  0.25629185  0.75244871  0.24653924  1
  Fe  Fe89  1  0.37288297  0.12858287  0.87256693  1
  Co  Co90  1  0.37503304  0.37459295  0.87868612  1
  Co  Co91  1  0.75077080  -0.00158128  0.24729179  1
  Co  Co92  1  0.00599587  0.00118348  -0.00093481  1
  Co  Co93  1  0.62600105  0.62940737  0.36919218  1
  Co  Co94  1  0.62269412  0.36951143  0.12641375  1
  Co  Co95  1  0.12684023  0.12845751  0.87014811  1
  Co  Co96  1  0.00283949  0.24968930  -0.00088455  1
  Co  Co97  1  0.74613151  0.00068290  0.50194444  1
  Co  Co98  1  0.25321715  0.74692406  0.00227113  1
  Co  Co99  1  0.12700178  0.62367789  0.62647252  1
  Co  Co100  1  -0.00497581  0.24723319  0.49787669  1
  Co  Co101  1  0.74355513  0.50053587  0.49738847  1
  Co  Co102  1  0.37580526  0.87466551  0.37883219  1
  Co  Co103  1  0.74714765  0.49895704  0.75173969  1
  Co  Co104  1  0.62675833  0.12583653  0.36989690  1
  Co  Co105  1  0.25153359  0.25648925  0.74620711  1
  Co  Co106  1  0.37474820  0.88135878  0.12050342  1
  Co  Co107  1  0.62623142  0.36825041  0.37291995  1
  Co  Co108  1  0.74669781  0.49537516  0.24885361  1
  Co  Co109  1  0.74772962  0.49781264  0.00218386  1
  Co  Co110  1  0.62397452  0.62655670  0.87642005  1
  Co  Co111  1  0.25431822  0.25190144  0.49760900  1
  Co  Co112  1  0.62402656  0.13077149  0.87208105  1
  Co  Co113  1  0.49658089  0.74998453  0.75002217  1
  Co  Co114  1  0.62432833  0.62460223  0.62812790  1
  Co  Co115  1  0.87853173  0.37690349  0.12380999  1
  Co  Co116  1  0.38003894  0.37739385  0.61906049  1
  Co  Co117  1  0.12448043  0.12815007  0.13027501  1
  Co  Co118  1  0.74367759  0.00339132  -0.00168302  1
  Co  Co119  1  0.75655409  0.25226416  0.24923471  1
  Co  Co120  1  0.24814607  0.00150173  0.50040824  1
  Co  Co121  1  0.49754525  0.75472900  0.24584104  1
  Co  Co122  1  0.12201734  0.37332568  0.37816891  1
  Co  Co123  1  0.49415431  0.25046690  0.25227678  1
  Co  Co124  1  0.25139304  0.50179516  0.49753105  1
  Co  Co125  1  0.37607660  0.61894910  0.12873748  1
  Co  Co126  1  0.87590849  0.12479470  0.87813348  1
  Co  Co127  1  0.00001414  0.50448284  0.49952544  1
