# generated using pymatgen
data_Fe45Co19
_symmetry_space_group_name_H-M   'P 1'
_cell_length_a   11.41593010
_cell_length_b   11.41427981
_cell_length_c   11.41576911
_cell_angle_alpha   90.00548163
_cell_angle_beta   89.99882666
_cell_angle_gamma   90.00484104
_symmetry_Int_Tables_number   1
_chemical_formula_structural   Fe45Co19
_chemical_formula_sum   'Fe90 Co38'
_cell_volume   1487.52744845
_cell_formula_units_Z   2
loop_
 _symmetry_equiv_pos_site_id
 _symmetry_equiv_pos_as_xyz
  1  'x, y, z'
loop_
 _atom_site_type_symbol
 _atom_site_label
 _atom_site_symmetry_multiplicity
 _atom_site_fract_x
 _atom_site_fract_y
 _atom_site_fract_z
 _atom_site_occupancy
  Fe  Fe0  1  0.62556918  0.37374038  0.37629951  1
  Fe  Fe1  1  0.00054850  0.49822349  0.00079116  1
  Fe  Fe2  1  0.00077355  -0.00072966  0.75060551  1
  Fe  Fe3  1  0.37607712  0.37631177  0.62356111  1
  Fe  Fe4  1  0.00076853  0.75075404  0.00066750  1
  Fe  Fe5  1  0.87225594  0.87536457  0.12244753  1
  Fe  Fe6  1  0.62570949  0.87781387  0.12408653  1
  Fe  Fe7  1  0.24869946  0.75152535  0.24865306  1
  Fe  Fe8  1  0.62432349  0.37707711  0.87784939  1
  Fe  Fe9  1  0.12467786  0.12530733  0.62561814  1
  Fe  Fe10  1  0.37369660  0.87139624  0.62711805  1
  Fe  Fe11  1  0.62190767  0.87589481  0.87519389  1
  Fe  Fe12  1  0.87595998  0.37803678  0.62753539  1
  Fe  Fe13  1  0.74597462  0.50405845  0.75109579  1
  Fe  Fe14  1  0.37460613  0.88210332  0.12538130  1
  Fe  Fe15  1  0.25255511  0.50108402  0.75103683  1
  Fe  Fe16  1  0.87830058  0.62235013  0.37249612  1
  Fe  Fe17  1  0.12399134  0.62305398  0.62750451  1
  Fe  Fe18  1  0.74745166  0.74821033  -0.00167086  1
  Fe  Fe19  1  0.62331997  0.37589427  0.62284627  1
  Fe  Fe20  1  0.37338253  0.37177235  0.87488972  1
  Fe  Fe21  1  0.74901995  0.74832062  0.24843563  1
  Fe  Fe22  1  0.87647111  0.12625603  0.62789282  1
  Fe  Fe23  1  0.24969080  0.50119123  0.24824827  1
  Fe  Fe24  1  0.87527372  0.87527720  0.37462284  1
  Fe  Fe25  1  0.87477091  0.87489320  0.87435645  1
  Fe  Fe26  1  0.37861266  0.87656337  0.87364269  1
  Fe  Fe27  1  0.87490000  0.62533552  0.87460742  1
  Fe  Fe28  1  0.75206040  0.25016046  0.50044630  1
  Fe  Fe29  1  0.37635662  0.62728314  0.37480831  1
  Fe  Fe30  1  0.25182017  0.75323811  -0.00187215  1
  Fe  Fe31  1  0.12591123  0.62480105  0.87705516  1
  Fe  Fe32  1  0.12373360  0.87775265  0.37397833  1
  Fe  Fe33  1  0.12731645  0.87876327  0.12334944  1
  Fe  Fe34  1  0.62394624  0.12519571  0.62499127  1
  Fe  Fe35  1  0.75168701  0.74696711  0.50208858  1
  Fe  Fe36  1  0.87476010  0.37796728  0.37155290  1
  Fe  Fe37  1  0.24924531  0.24508683  0.24912452  1
  Fe  Fe38  1  0.62227205  0.62722982  0.37700267  1
  Fe  Fe39  1  0.24914837  -0.00047876  0.49948286  1
  Fe  Fe40  1  0.74455568  0.74552124  0.75110530  1
  Fe  Fe41  1  0.62515771  0.12412430  0.37723274  1
  Fe  Fe42  1  0.49980289  0.24748973  -0.00019488  1
  Fe  Fe43  1  -0.00053287  0.25045078  0.24718143  1
  Fe  Fe44  1  0.50080411  0.75574712  0.25037260  1
  Fe  Fe45  1  0.87756454  0.12372099  0.37593853  1
  Fe  Fe46  1  0.00130524  0.75117457  0.24661660  1
  Fe  Fe47  1  0.62572300  0.87414981  0.62406698  1
  Fe  Fe48  1  0.87453946  0.12759140  0.12126876  1
  Fe  Fe49  1  0.37660040  0.12331193  0.37395605  1
  Fe  Fe50  1  0.37403749  0.37200252  0.12676886  1
  Fe  Fe51  1  0.87422392  0.87326863  0.62787252  1
  Fe  Fe52  1  0.87021126  0.37419493  0.12515479  1
  Fe  Fe53  1  0.50057382  0.49868614  0.24940808  1
  Fe  Fe54  1  0.00235339  0.25341992  0.75321070  1
  Fe  Fe55  1  0.74824802  0.00385888  -0.00435242  1
  Fe  Fe56  1  0.12760685  0.37401790  0.12297841  1
  Fe  Fe57  1  0.37650329  0.62704495  0.12559984  1
  Fe  Fe58  1  0.12496246  0.37635513  0.37405356  1
  Fe  Fe59  1  0.37516532  0.12461098  0.62639480  1
  Fe  Fe60  1  0.24996195  -0.00066176  0.75313178  1
  Fe  Fe61  1  0.74931546  0.00186080  0.75199826  1
  Fe  Fe62  1  0.74865468  0.24881998  0.75283595  1
  Fe  Fe63  1  0.62411318  0.12450092  0.12528025  1
  Fe  Fe64  1  0.00087908  0.00080426  -0.00107642  1
  Fe  Fe65  1  0.87507149  0.62335558  0.12561955  1
  Fe  Fe66  1  0.24962777  0.74792847  0.50103917  1
  Fe  Fe67  1  0.38098633  0.62727407  0.87463664  1
  Fe  Fe68  1  -0.00027996  0.74975127  0.50182482  1
  Fe  Fe69  1  0.12627309  0.87367853  0.62738915  1
  Fe  Fe70  1  -0.00040260  0.25211089  0.50090644  1
  Fe  Fe71  1  0.75298141  0.00031680  0.50152490  1
  Fe  Fe72  1  0.75111104  0.00147231  0.25045329  1
  Fe  Fe73  1  0.37453704  0.37361433  0.37432265  1
  Fe  Fe74  1  0.75119221  0.50181792  0.50038980  1
  Fe  Fe75  1  0.12289581  0.62316062  0.37270268  1
  Fe  Fe76  1  0.87343713  0.37464916  0.87645210  1
  Fe  Fe77  1  0.25156477  0.50126913  0.49993036  1
  Fe  Fe78  1  0.49903152  -0.00440164  0.49861764  1
  Fe  Fe79  1  0.00144565  0.74937659  0.75096672  1
  Fe  Fe80  1  0.12570560  0.12736753  0.87515767  1
  Fe  Fe81  1  0.12529128  0.37731469  0.62609554  1
  Fe  Fe82  1  0.50178539  0.24892050  0.25057312  1
  Fe  Fe83  1  0.49915265  0.25069204  0.74918608  1
  Fe  Fe84  1  0.24991219  0.24906501  0.50021984  1
  Fe  Fe85  1  0.25370862  0.50117124  0.00096719  1
  Fe  Fe86  1  0.62158076  0.62331967  0.12090584  1
  Fe  Fe87  1  0.25175698  0.24351543  0.00162546  1
  Fe  Fe88  1  0.62784868  0.37498757  0.12309365  1
  Fe  Fe89  1  0.12079168  0.12219583  0.37451725  1
  Co  Co90  1  0.24880684  0.00314033  0.25115376  1
  Co  Co91  1  0.61898765  0.62263991  0.88076498  1
  Co  Co92  1  0.49992388  0.49858097  0.75169054  1
  Co  Co93  1  0.37053905  0.87409816  0.37422806  1
  Co  Co94  1  0.61973992  0.62297601  0.62118403  1
  Co  Co95  1  0.87626063  0.62371234  0.62818442  1
  Co  Co96  1  0.12788029  0.62605322  0.12198987  1
  Co  Co97  1  -0.00056640  0.49945802  0.50068379  1
  Co  Co98  1  0.37828297  0.12108152  0.12729509  1
  Co  Co99  1  0.49790419  0.49907678  0.49717044  1
  Co  Co100  1  0.49506225  0.49587975  0.00186819  1
  Co  Co101  1  0.00129229  0.49876471  0.75457069  1
  Co  Co102  1  0.63082127  0.87400800  0.37635413  1
  Co  Co103  1  0.49963017  -0.00137247  0.74733505  1
  Co  Co104  1  0.37615316  0.12567895  0.87197053  1
  Co  Co105  1  0.12339257  0.12355088  0.12470891  1
  Co  Co106  1  -0.00302040  -0.00152680  0.24592820  1
  Co  Co107  1  0.00257419  0.49843672  0.24455528  1
  Co  Co108  1  0.00058643  0.25285440  -0.00061392  1
  Co  Co109  1  0.49849811  0.24912881  0.50026136  1
  Co  Co110  1  0.62096799  0.12506262  0.87146009  1
  Co  Co111  1  0.25033783  0.00232995  -0.00376845  1
  Co  Co112  1  0.50382829  0.74892677  0.74892971  1
  Co  Co113  1  0.37820830  0.62598436  0.62516362  1
  Co  Co114  1  0.50025231  0.00292330  -0.00156876  1
  Co  Co115  1  0.49809007  0.75444322  0.49959243  1
  Co  Co116  1  0.25020012  0.25052586  0.74719318  1
  Co  Co117  1  0.74768378  0.24698986  -0.00404538  1
  Co  Co118  1  0.25073324  0.74860982  0.75304774  1
  Co  Co119  1  0.50227946  -0.00296425  0.25405989  1
  Co  Co120  1  0.12353866  0.87455708  0.87553529  1
  Co  Co121  1  0.75164064  0.50214530  -0.00006613  1
  Co  Co122  1  0.74588358  0.50224075  0.24992649  1
  Co  Co123  1  0.13075798  0.37509448  0.87769358  1
  Co  Co124  1  0.74972678  0.24797115  0.25146297  1
  Co  Co125  1  0.49915665  0.75451857  0.00230144  1
  Co  Co126  1  0.87783039  0.12556933  0.87418465  1
  Co  Co127  1  -0.00074802  -0.00218474  0.50387279  1
