# generated using pymatgen
data_Fe45Co19
_symmetry_space_group_name_H-M   'P 1'
_cell_length_a   11.41599636
_cell_length_b   11.41514007
_cell_length_c   11.41420096
_cell_angle_alpha   89.99740444
_cell_angle_beta   90.00781242
_cell_angle_gamma   89.99513976
_symmetry_Int_Tables_number   1
_chemical_formula_structural   Fe45Co19
_chemical_formula_sum   'Fe90 Co38'
_cell_volume   1487.44383069
_cell_formula_units_Z   2
loop_
 _symmetry_equiv_pos_site_id
 _symmetry_equiv_pos_as_xyz
  1  'x, y, z'
loop_
 _atom_site_type_symbol
 _atom_site_label
 _atom_site_symmetry_multiplicity
 _atom_site_fract_x
 _atom_site_fract_y
 _atom_site_fract_z
 _atom_site_occupancy
  Fe  Fe0  1  -0.00239338  0.50061150  0.75172459  1
  Fe  Fe1  1  0.00546334  0.00208158  0.00140155  1
  Fe  Fe2  1  0.24970380  0.24820772  0.25423614  1
  Fe  Fe3  1  0.62012636  0.37895173  0.87518535  1
  Fe  Fe4  1  0.50253028  0.74306899  0.74731856  1
  Fe  Fe5  1  0.12439392  0.62662354  0.37347124  1
  Fe  Fe6  1  0.87597641  0.12574015  0.87419104  1
  Fe  Fe7  1  0.12512989  0.87539936  0.62749505  1
  Fe  Fe8  1  0.74993596  0.49671053  0.25120032  1
  Fe  Fe9  1  0.62366141  0.12628525  0.37532359  1
  Fe  Fe10  1  -0.00034878  0.49958106  0.49989453  1
  Fe  Fe11  1  0.12719383  0.62392083  0.62462965  1
  Fe  Fe12  1  0.87278029  0.62390403  0.62500512  1
  Fe  Fe13  1  0.75115732  0.75093689  0.49714971  1
  Fe  Fe14  1  0.87667002  0.37245033  0.12651534  1
  Fe  Fe15  1  0.37376713  0.62182699  0.37720276  1
  Fe  Fe16  1  0.87646840  0.12514632  0.37533296  1
  Fe  Fe17  1  0.37674450  0.12698140  0.86952453  1
  Fe  Fe18  1  0.87176044  0.62523992  0.12368193  1
  Fe  Fe19  1  0.37706674  0.87641047  0.37509432  1
  Fe  Fe20  1  0.87359316  0.87519908  0.62623454  1
  Fe  Fe21  1  0.25001175  0.49802446  -0.00153360  1
  Fe  Fe22  1  0.24991155  0.75324657  -0.00313032  1
  Fe  Fe23  1  0.12656172  0.62851567  0.12674830  1
  Fe  Fe24  1  0.12099818  0.37293322  0.37364328  1
  Fe  Fe25  1  0.74953358  0.75298795  0.25089028  1
  Fe  Fe26  1  0.62207696  0.87420562  0.87435075  1
  Fe  Fe27  1  0.87437117  0.87876809  0.12612066  1
  Fe  Fe28  1  0.12285707  0.62488320  0.87625221  1
  Fe  Fe29  1  0.00008436  0.00063132  0.50372091  1
  Fe  Fe30  1  0.62601710  0.12705534  0.62665724  1
  Fe  Fe31  1  0.12708881  0.12447313  0.62763015  1
  Fe  Fe32  1  -0.00070808  0.24938940  0.74802851  1
  Fe  Fe33  1  0.74908968  -0.00008296  0.49921126  1
  Fe  Fe34  1  0.37850791  0.62239278  0.87583775  1
  Fe  Fe35  1  0.37214937  0.37275484  0.12523700  1
  Fe  Fe36  1  0.24941384  0.75103305  0.49923778  1
  Fe  Fe37  1  0.62890609  0.37618984  0.62628838  1
  Fe  Fe38  1  0.62570361  0.37493779  0.12352232  1
  Fe  Fe39  1  0.62421842  0.62417980  0.37642571  1
  Fe  Fe40  1  0.49981876  0.74923280  0.24943433  1
  Fe  Fe41  1  0.87683619  0.87821110  0.37237595  1
  Fe  Fe42  1  0.75270521  0.49683969  0.49657371  1
  Fe  Fe43  1  0.49991294  0.49952669  0.50348019  1
  Fe  Fe44  1  -0.00262503  0.25048013  0.50328813  1
  Fe  Fe45  1  0.75206155  0.50109605  0.75639598  1
  Fe  Fe46  1  0.00339691  0.00624137  0.24601269  1
  Fe  Fe47  1  0.50017843  0.49845515  0.24816397  1
  Fe  Fe48  1  0.24992110  0.25088570  -0.00760041  1
  Fe  Fe49  1  0.62586671  0.87651261  0.12500011  1
  Fe  Fe50  1  0.49951241  0.00155506  0.50300234  1
  Fe  Fe51  1  -0.00025006  0.74992603  0.50062615  1
  Fe  Fe52  1  0.50080737  0.74953961  0.00153110  1
  Fe  Fe53  1  0.37586196  0.87463184  0.62823904  1
  Fe  Fe54  1  0.24985830  -0.00183705  0.75466182  1
  Fe  Fe55  1  0.24970758  0.74933548  0.75211870  1
  Fe  Fe56  1  0.75117872  0.24917621  0.25104728  1
  Fe  Fe57  1  -0.00135098  0.49985017  0.00144277  1
  Fe  Fe58  1  0.37166066  0.87681169  0.12364048  1
  Fe  Fe59  1  0.74954098  0.25163107  -0.00284672  1
  Fe  Fe60  1  0.12473099  0.37583265  0.62586903  1
  Fe  Fe61  1  0.74900465  0.74661739  0.75407533  1
  Fe  Fe62  1  0.25195567  0.24855572  0.49947132  1
  Fe  Fe63  1  0.75324310  0.25223900  0.49961669  1
  Fe  Fe64  1  0.74940201  -0.00012203  -0.00191804  1
  Fe  Fe65  1  0.00017137  0.75190169  0.00302250  1
  Fe  Fe66  1  0.49965598  0.74763180  0.50297075  1
  Fe  Fe67  1  0.49860678  0.25074453  -0.00066578  1
  Fe  Fe68  1  0.37161346  0.12473010  0.12373009  1
  Fe  Fe69  1  0.75007783  0.00141663  0.75025244  1
  Fe  Fe70  1  0.25074636  0.00134289  0.50004866  1
  Fe  Fe71  1  0.49857513  0.25065999  0.25068205  1
  Fe  Fe72  1  0.62608654  0.12501756  0.12391836  1
  Fe  Fe73  1  0.49677274  0.24954839  0.50147134  1
  Fe  Fe74  1  0.50142219  0.00095812  0.24966703  1
  Fe  Fe75  1  0.87683068  0.62357528  0.37259418  1
  Fe  Fe76  1  0.87822092  0.87530740  0.87444767  1
  Fe  Fe77  1  0.24795471  0.49921134  0.25122143  1
  Fe  Fe78  1  0.12512480  0.37189014  0.12505725  1
  Fe  Fe79  1  0.62327955  0.12604101  0.87357734  1
  Fe  Fe80  1  -0.00013401  0.74912412  0.74858194  1
  Fe  Fe81  1  0.12286487  0.87433440  0.37209134  1
  Fe  Fe82  1  0.62876324  0.62345959  0.12065456  1
  Fe  Fe83  1  0.37285379  0.37520218  0.62696291  1
  Fe  Fe84  1  0.00173521  0.24784863  0.00069476  1
  Fe  Fe85  1  0.24789011  0.00184169  0.25100689  1
  Fe  Fe86  1  0.49724865  0.00088015  -0.00196255  1
  Fe  Fe87  1  0.62606133  0.87337361  0.62488235  1
  Fe  Fe88  1  0.37261517  0.62519474  0.12488829  1
  Fe  Fe89  1  0.24993142  0.49807491  0.75269157  1
  Co  Co90  1  0.37646603  0.12347775  0.37426909  1
  Co  Co91  1  0.12080090  0.37622059  0.87551720  1
  Co  Co92  1  -0.00150893  0.00103642  0.74764256  1
  Co  Co93  1  0.87271318  0.12546227  0.62603710  1
  Co  Co94  1  0.62309816  0.62118644  0.88138745  1
  Co  Co95  1  0.74901534  0.25089276  0.75263376  1
  Co  Co96  1  0.25030401  -0.00094649  -0.00692654  1
  Co  Co97  1  0.24658838  0.49715943  0.49813961  1
  Co  Co98  1  0.62285463  0.37374589  0.37635972  1
  Co  Co99  1  0.13213181  0.12735259  0.12099634  1
  Co  Co100  1  0.87984186  0.37376900  0.37153620  1
  Co  Co101  1  0.50189862  0.25243456  0.74786038  1
  Co  Co102  1  0.12315401  0.12593773  0.37871127  1
  Co  Co103  1  0.63197358  0.62282994  0.62253576  1
  Co  Co104  1  0.87684519  0.62845562  0.87901913  1
  Co  Co105  1  0.12884804  0.87432022  0.12563268  1
  Co  Co106  1  0.36879840  0.62346515  0.62379294  1
  Co  Co107  1  0.74979944  0.75445192  -0.00111515  1
  Co  Co108  1  0.87146947  0.12499750  0.12216675  1
  Co  Co109  1  0.37921715  0.37717943  0.87355625  1
  Co  Co110  1  0.75469208  0.49555487  -0.00287551  1
  Co  Co111  1  0.74797489  0.00140215  0.25122242  1
  Co  Co112  1  0.87908200  0.37109998  0.87493624  1
  Co  Co113  1  0.37578919  0.37713858  0.37502605  1
  Co  Co114  1  0.50211790  0.00076831  0.74869690  1
  Co  Co115  1  0.25280243  0.75021473  0.25265264  1
  Co  Co116  1  0.37984746  0.87186169  0.87271436  1
  Co  Co117  1  0.00078873  0.24415271  0.24680786  1
  Co  Co118  1  0.49680254  0.49820990  0.00555928  1
  Co  Co119  1  0.87299125  0.37715941  0.62790339  1
  Co  Co120  1  0.62225586  0.87465272  0.37638095  1
  Co  Co121  1  0.00175005  0.50119616  0.24704072  1
  Co  Co122  1  0.24806164  0.25389298  0.75226280  1
  Co  Co123  1  0.12338295  0.12505658  0.87124768  1
  Co  Co124  1  0.50025284  0.50307775  0.74513310  1
  Co  Co125  1  0.12093000  0.87417236  0.87410099  1
  Co  Co126  1  0.37257526  0.12487263  0.63027521  1
  Co  Co127  1  -0.00248539  0.74975607  0.24802168  1
