# generated using pymatgen
data_Fe45Co19
_symmetry_space_group_name_H-M   'P 1'
_cell_length_a   11.41471125
_cell_length_b   11.41505126
_cell_length_c   11.41452268
_cell_angle_alpha   89.99473855
_cell_angle_beta   89.99401419
_cell_angle_gamma   90.01151994
_symmetry_Int_Tables_number   1
_chemical_formula_structural   Fe45Co19
_chemical_formula_sum   'Fe90 Co38'
_cell_volume   1487.30671396
_cell_formula_units_Z   2
loop_
 _symmetry_equiv_pos_site_id
 _symmetry_equiv_pos_as_xyz
  1  'x, y, z'
loop_
 _atom_site_type_symbol
 _atom_site_label
 _atom_site_symmetry_multiplicity
 _atom_site_fract_x
 _atom_site_fract_y
 _atom_site_fract_z
 _atom_site_occupancy
  Fe  Fe0  1  -0.00165391  0.74866927  0.25110244  1
  Fe  Fe1  1  0.74738068  0.00026292  0.49896915  1
  Fe  Fe2  1  0.12464663  0.37355836  0.37289950  1
  Fe  Fe3  1  0.24691124  0.50175727  0.00047061  1
  Fe  Fe4  1  0.49805075  0.24953259  0.50166941  1
  Fe  Fe5  1  0.50090220  0.00030818  0.25043669  1
  Fe  Fe6  1  0.87958677  0.12711351  0.12155941  1
  Fe  Fe7  1  0.62607020  0.87584294  0.62538156  1
  Fe  Fe8  1  0.24959030  0.00055411  0.49684735  1
  Fe  Fe9  1  0.24728987  0.25104399  -0.00032453  1
  Fe  Fe10  1  0.50127192  0.75010372  0.50121066  1
  Fe  Fe11  1  0.62764406  0.87665543  0.12679822  1
  Fe  Fe12  1  0.00284933  0.24865024  0.74991100  1
  Fe  Fe13  1  0.25006731  0.75246772  -0.00194096  1
  Fe  Fe14  1  0.87717844  0.12612467  0.37544118  1
  Fe  Fe15  1  0.37571582  0.87459652  0.37477058  1
  Fe  Fe16  1  0.12336427  0.62975348  0.87198069  1
  Fe  Fe17  1  0.24956443  0.75042736  0.50179554  1
  Fe  Fe18  1  0.12766611  0.12511851  0.62421744  1
  Fe  Fe19  1  0.25252860  0.74692378  0.24945945  1
  Fe  Fe20  1  0.12805550  0.37606666  0.62716508  1
  Fe  Fe21  1  0.74864816  0.74993354  0.00042704  1
  Fe  Fe22  1  0.37518689  0.37750050  0.12410862  1
  Fe  Fe23  1  0.25244887  0.50444034  0.24881138  1
  Fe  Fe24  1  0.87415646  0.62441745  0.87650197  1
  Fe  Fe25  1  -0.00039403  0.74980694  0.49919509  1
  Fe  Fe26  1  0.49926495  0.74783627  0.24993704  1
  Fe  Fe27  1  0.74824624  0.49707141  0.24953078  1
  Fe  Fe28  1  -0.00095222  -0.00072910  0.75054120  1
  Fe  Fe29  1  0.87581281  0.37574372  0.37501406  1
  Fe  Fe30  1  0.37494475  0.87759518  0.62634426  1
  Fe  Fe31  1  0.37472495  0.12555661  0.12382315  1
  Fe  Fe32  1  0.87297032  0.87518848  0.62406584  1
  Fe  Fe33  1  0.00023896  0.25090694  0.50146676  1
  Fe  Fe34  1  0.50237909  0.75105789  -0.00008973  1
  Fe  Fe35  1  0.62492120  0.12707868  0.37496516  1
  Fe  Fe36  1  0.74952626  0.74917171  0.74807784  1
  Fe  Fe37  1  0.00260955  -0.00074644  0.49937039  1
  Fe  Fe38  1  0.12554064  0.62536906  0.37617272  1
  Fe  Fe39  1  0.12526709  0.37692640  0.87359393  1
  Fe  Fe40  1  0.49879895  -0.00103344  0.00055971  1
  Fe  Fe41  1  0.12422500  0.87426262  0.12612899  1
  Fe  Fe42  1  0.49800609  0.49891586  0.75082049  1
  Fe  Fe43  1  0.00252269  0.00218788  0.25083537  1
  Fe  Fe44  1  0.62421288  0.62353427  0.37677246  1
  Fe  Fe45  1  0.49832834  0.74857158  0.74894770  1
  Fe  Fe46  1  0.50149787  0.49716519  -0.00174905  1
  Fe  Fe47  1  0.24812318  0.00231301  0.25182442  1
  Fe  Fe48  1  0.74895365  0.49672069  -0.00058804  1
  Fe  Fe49  1  0.37564656  0.87341445  0.12521852  1
  Fe  Fe50  1  0.12254182  0.12175093  0.87861788  1
  Fe  Fe51  1  0.87349595  0.87640185  0.37461680  1
  Fe  Fe52  1  0.87360911  0.87578816  0.12714980  1
  Fe  Fe53  1  0.62485336  0.87730659  0.87358946  1
  Fe  Fe54  1  0.50130400  0.25292112  -0.00293964  1
  Fe  Fe55  1  0.25040540  -0.00362735  -0.00110661  1
  Fe  Fe56  1  0.49992262  0.00268563  0.49965288  1
  Fe  Fe57  1  0.75261769  0.00295103  -0.00131405  1
  Fe  Fe58  1  0.12495402  0.87200683  0.62884972  1
  Fe  Fe59  1  0.74925759  0.49997806  0.50205970  1
  Fe  Fe60  1  0.37001156  0.37353303  0.62984170  1
  Fe  Fe61  1  0.49804795  0.24748151  0.75239186  1
  Fe  Fe62  1  0.37507758  0.62539125  0.87715630  1
  Fe  Fe63  1  0.62353308  0.62194445  0.12548126  1
  Fe  Fe64  1  0.75058806  0.25148455  0.24819858  1
  Fe  Fe65  1  0.00161181  0.50045156  0.24787340  1
  Fe  Fe66  1  0.50139716  0.25254250  0.24952572  1
  Fe  Fe67  1  0.37174496  0.62203854  0.62332505  1
  Fe  Fe68  1  0.87531408  0.37363889  0.87503505  1
  Fe  Fe69  1  0.87385842  0.37403697  0.62759158  1
  Fe  Fe70  1  0.75047641  0.25000411  0.50061349  1
  Fe  Fe71  1  0.87558545  0.62339573  0.12371949  1
  Fe  Fe72  1  0.25147118  -0.00017205  0.75326971  1
  Fe  Fe73  1  0.87877521  0.37418942  0.12174039  1
  Fe  Fe74  1  0.62610238  0.37445570  0.62837667  1
  Fe  Fe75  1  0.49917727  0.00431402  0.74994280  1
  Fe  Fe76  1  0.24729009  0.24723622  0.24824203  1
  Fe  Fe77  1  0.49898110  0.49684960  0.50000630  1
  Fe  Fe78  1  0.37443645  0.37521523  0.37309455  1
  Fe  Fe79  1  -0.00103980  0.75190529  0.00022609  1
  Fe  Fe80  1  0.87472644  0.62593201  0.62315308  1
  Fe  Fe81  1  0.25108298  0.24943484  0.49895268  1
  Fe  Fe82  1  0.74862753  0.24532663  0.75344643  1
  Fe  Fe83  1  0.62661275  0.62237627  0.87218933  1
  Fe  Fe84  1  -0.00050505  0.50212034  0.74954072  1
  Fe  Fe85  1  0.74960673  0.74875982  0.25241905  1
  Fe  Fe86  1  0.87412048  0.12378550  0.62635026  1
  Fe  Fe87  1  0.62610658  0.12653364  0.12277729  1
  Fe  Fe88  1  0.87405823  0.87517276  0.87309740  1
  Fe  Fe89  1  0.00177409  0.49982340  0.50175609  1
  Co  Co90  1  0.12585142  0.37630396  0.12673683  1
  Co  Co91  1  0.62465639  0.87488095  0.37410956  1
  Co  Co92  1  0.62732179  0.37531048  0.87095083  1
  Co  Co93  1  0.62343483  0.12326976  0.87750625  1
  Co  Co94  1  0.75297922  0.50139686  0.74873734  1
  Co  Co95  1  0.74967024  0.25053271  -0.00108640  1
  Co  Co96  1  0.75067923  0.00417137  0.24967915  1
  Co  Co97  1  -0.00175161  -0.00529317  -0.00019450  1
  Co  Co98  1  0.12537815  0.87224202  0.37360498  1
  Co  Co99  1  0.12312384  0.12276749  0.12119780  1
  Co  Co100  1  0.62447789  0.62334787  0.62559072  1
  Co  Co101  1  -0.00473236  0.74885145  0.74898130  1
  Co  Co102  1  0.24777003  0.24710691  0.75430444  1
  Co  Co103  1  0.25515467  0.74951066  0.74973257  1
  Co  Co104  1  0.24924822  0.50306400  0.75187523  1
  Co  Co105  1  0.12559339  0.62632487  0.62570975  1
  Co  Co106  1  0.37748829  0.62462916  0.11967486  1
  Co  Co107  1  0.12320644  0.87246119  0.87146103  1
  Co  Co108  1  0.62304924  0.37557678  0.12420221  1
  Co  Co109  1  0.62585865  0.12618812  0.62507256  1
  Co  Co110  1  0.87928982  0.12682945  0.87520020  1
  Co  Co111  1  0.37610082  0.12588638  0.37389628  1
  Co  Co112  1  0.37521362  0.62583788  0.37968616  1
  Co  Co113  1  0.75026641  0.00116680  0.75126837  1
  Co  Co114  1  0.37479932  0.12520536  0.87780386  1
  Co  Co115  1  0.37867870  0.87491447  0.87436646  1
  Co  Co116  1  0.00421764  0.25339021  -0.00092392  1
  Co  Co117  1  0.74997836  0.74926184  0.49896907  1
  Co  Co118  1  0.12350685  0.12827843  0.37712973  1
  Co  Co119  1  0.37194198  0.37518687  0.87506412  1
  Co  Co120  1  0.87475243  0.62153046  0.37499193  1
  Co  Co121  1  0.49829267  0.50077447  0.25205684  1
  Co  Co122  1  0.00256192  0.50073509  -0.00132290  1
  Co  Co123  1  0.24893048  0.49742868  0.49882060  1
  Co  Co124  1  0.00054273  0.24984098  0.24879940  1
  Co  Co125  1  0.37093823  0.12557483  0.62592023  1
  Co  Co126  1  0.62584501  0.37455816  0.37715262  1
  Co  Co127  1  0.12353566  0.62788272  0.12431561  1
