# generated using pymatgen
data_Fe45Co19
_symmetry_space_group_name_H-M   'P 1'
_cell_length_a   11.41617106
_cell_length_b   11.41541832
_cell_length_c   11.41593852
_cell_angle_alpha   89.99275188
_cell_angle_beta   89.99968350
_cell_angle_gamma   89.99874913
_symmetry_Int_Tables_number   1
_chemical_formula_structural   Fe45Co19
_chemical_formula_sum   'Fe90 Co38'
_cell_volume   1487.72929979
_cell_formula_units_Z   2
loop_
 _symmetry_equiv_pos_site_id
 _symmetry_equiv_pos_as_xyz
  1  'x, y, z'
loop_
 _atom_site_type_symbol
 _atom_site_label
 _atom_site_symmetry_multiplicity
 _atom_site_fract_x
 _atom_site_fract_y
 _atom_site_fract_z
 _atom_site_occupancy
  Fe  Fe0  1  0.25180130  0.25202489  0.00257668  1
  Fe  Fe1  1  0.87418541  0.37706206  0.62334610  1
  Fe  Fe2  1  0.12243460  0.37258252  0.62130933  1
  Fe  Fe3  1  0.74871212  0.49945802  0.25003212  1
  Fe  Fe4  1  0.87572559  0.62395661  0.87597304  1
  Fe  Fe5  1  0.62519264  0.62670217  0.12539387  1
  Fe  Fe6  1  0.25469137  0.74728042  0.00135619  1
  Fe  Fe7  1  0.87623866  0.62274210  0.37435243  1
  Fe  Fe8  1  0.75229368  0.24911406  0.75133321  1
  Fe  Fe9  1  0.75085046  0.49844882  0.00104639  1
  Fe  Fe10  1  0.00312880  0.49889223  0.24926541  1
  Fe  Fe11  1  0.00041954  0.74922556  0.49761940  1
  Fe  Fe12  1  0.12660256  0.87134750  0.12804262  1
  Fe  Fe13  1  0.49694290  0.24908633  0.25172039  1
  Fe  Fe14  1  0.62467382  0.37252629  0.12655383  1
  Fe  Fe15  1  0.50110560  0.50054834  0.25177703  1
  Fe  Fe16  1  0.37815118  0.37457593  0.62349501  1
  Fe  Fe17  1  0.62377546  0.87430079  0.62583011  1
  Fe  Fe18  1  0.50118207  -0.00176238  0.00102249  1
  Fe  Fe19  1  0.62236688  0.12803526  0.62579277  1
  Fe  Fe20  1  0.50212660  0.50013385  0.74954360  1
  Fe  Fe21  1  0.25061740  -0.00131918  0.74878645  1
  Fe  Fe22  1  0.87636201  0.12259395  0.12343277  1
  Fe  Fe23  1  0.87867454  0.11841471  0.87763063  1
  Fe  Fe24  1  0.87451437  0.62382370  0.62364689  1
  Fe  Fe25  1  0.12499487  0.62723930  0.62379618  1
  Fe  Fe26  1  0.62389798  0.12577792  0.37520473  1
  Fe  Fe27  1  0.74933249  0.74925288  0.49935361  1
  Fe  Fe28  1  0.37825933  0.12602738  0.62521372  1
  Fe  Fe29  1  -0.00182344  0.24964550  0.75007602  1
  Fe  Fe30  1  0.74503380  0.50029756  0.49849273  1
  Fe  Fe31  1  0.12296385  0.12979718  0.12406864  1
  Fe  Fe32  1  0.75230621  0.24998378  0.25165401  1
  Fe  Fe33  1  0.24645572  0.49918650  0.24869464  1
  Fe  Fe34  1  0.12342999  0.87439545  0.87513126  1
  Fe  Fe35  1  0.12365573  0.37363658  0.87624401  1
  Fe  Fe36  1  0.00274464  -0.00067193  0.25114990  1
  Fe  Fe37  1  0.74813481  0.00146571  0.24982653  1
  Fe  Fe38  1  0.49797101  0.74963454  0.74958246  1
  Fe  Fe39  1  0.62558927  0.87412357  0.12488637  1
  Fe  Fe40  1  0.87499854  0.12165388  0.37726951  1
  Fe  Fe41  1  0.37431839  0.12434115  0.87449632  1
  Fe  Fe42  1  0.37278538  0.87547139  0.37552813  1
  Fe  Fe43  1  0.62622206  0.37414478  0.87348203  1
  Fe  Fe44  1  0.25164730  0.74971951  0.74941988  1
  Fe  Fe45  1  0.49972923  0.74821030  0.49823583  1
  Fe  Fe46  1  0.25244674  0.74466944  0.25073649  1
  Fe  Fe47  1  0.75321166  0.75364779  0.00021476  1
  Fe  Fe48  1  0.25085558  0.50081962  0.00270082  1
  Fe  Fe49  1  0.75388552  0.74997345  0.24868396  1
  Fe  Fe50  1  -0.00130620  0.75042172  0.75016709  1
  Fe  Fe51  1  0.37669178  0.87535850  0.87552082  1
  Fe  Fe52  1  0.49945857  -0.00023927  0.25034716  1
  Fe  Fe53  1  0.37513216  0.12391101  0.12535371  1
  Fe  Fe54  1  0.87661555  0.12073538  0.62177816  1
  Fe  Fe55  1  0.62543769  0.12663183  0.12423411  1
  Fe  Fe56  1  0.12449068  0.62579530  0.87758783  1
  Fe  Fe57  1  0.62608388  0.87403440  0.37413074  1
  Fe  Fe58  1  0.37434975  0.37681775  0.87468047  1
  Fe  Fe59  1  0.75384734  0.25124350  -0.00108959  1
  Fe  Fe60  1  0.62431055  0.62869583  0.87559322  1
  Fe  Fe61  1  0.12662345  0.87137331  0.37401845  1
  Fe  Fe62  1  0.87673884  0.87862953  0.62284858  1
  Fe  Fe63  1  0.50489101  0.49946151  0.49757577  1
  Fe  Fe64  1  0.00141109  0.50096397  0.74906952  1
  Fe  Fe65  1  -0.00158199  0.49700582  0.00262934  1
  Fe  Fe66  1  0.74846703  -0.00190377  0.75091726  1
  Fe  Fe67  1  0.49869125  0.25145490  -0.00088398  1
  Fe  Fe68  1  0.74794329  0.50143061  0.74920297  1
  Fe  Fe69  1  0.24693807  0.50162674  0.49915040  1
  Fe  Fe70  1  0.62398072  0.12378631  0.87448367  1
  Fe  Fe71  1  0.25098368  0.25160069  0.74852485  1
  Fe  Fe72  1  0.24986724  0.00064026  0.50049905  1
  Fe  Fe73  1  -0.00107010  0.25343889  0.25282970  1
  Fe  Fe74  1  0.24786368  -0.00075472  0.00195401  1
  Fe  Fe75  1  0.12823335  0.13060574  0.37668447  1
  Fe  Fe76  1  0.49946768  0.50181088  0.00013116  1
  Fe  Fe77  1  0.12500195  0.87432856  0.62380990  1
  Fe  Fe78  1  0.50048034  0.00027841  0.49918254  1
  Fe  Fe79  1  0.74995218  0.25109729  0.49818168  1
  Fe  Fe80  1  0.75208655  0.75186577  0.75117308  1
  Fe  Fe81  1  0.12380655  0.12557151  0.87596800  1
  Fe  Fe82  1  0.37510719  0.62460546  0.62356491  1
  Fe  Fe83  1  0.12345468  0.12613304  0.62378788  1
  Fe  Fe84  1  0.49725579  0.74960383  0.24908395  1
  Fe  Fe85  1  0.37169723  0.37366029  0.37487364  1
  Fe  Fe86  1  -0.00379913  0.75265288  0.00461129  1
  Fe  Fe87  1  0.87454400  0.87805670  0.37535765  1
  Fe  Fe88  1  0.24959437  0.00275891  0.24949696  1
  Fe  Fe89  1  0.24809879  0.50002529  0.74941945  1
  Co  Co90  1  0.49854728  0.25164854  0.75315737  1
  Co  Co91  1  0.37561109  0.87430073  0.62251270  1
  Co  Co92  1  0.00260908  -0.00006708  0.74836665  1
  Co  Co93  1  0.25166075  0.25105202  0.24693163  1
  Co  Co94  1  0.12363729  0.62609932  0.37366337  1
  Co  Co95  1  0.87414552  0.37451770  0.12782119  1
  Co  Co96  1  0.00486984  -0.00061592  0.49659837  1
  Co  Co97  1  0.37467010  0.62369471  0.87246639  1
  Co  Co98  1  0.62559462  0.37154624  0.62611233  1
  Co  Co99  1  0.62456812  0.62719606  0.62584400  1
  Co  Co100  1  0.37550114  0.62195281  0.12766948  1
  Co  Co101  1  0.37716582  0.37598678  0.12637655  1
  Co  Co102  1  0.37289082  0.87650631  0.12699298  1
  Co  Co103  1  -0.00400418  0.75016749  0.24932742  1
  Co  Co104  1  0.62212482  0.87285195  0.87488528  1
  Co  Co105  1  0.00284459  0.50158953  0.50005897  1
  Co  Co106  1  0.74530694  0.00015305  0.50023149  1
  Co  Co107  1  0.24947341  0.74812630  0.49987114  1
  Co  Co108  1  0.87534557  0.37790480  0.87144269  1
  Co  Co109  1  0.25254762  0.24951641  0.50309613  1
  Co  Co110  1  0.87398138  0.88152860  0.12765505  1
  Co  Co111  1  0.87834492  0.87947282  0.87472014  1
  Co  Co112  1  0.49929191  -0.00042746  0.75013884  1
  Co  Co113  1  0.12702645  0.37202890  0.37770388  1
  Co  Co114  1  -0.00446146  0.25241771  -0.00162421  1
  Co  Co115  1  0.62592563  0.37227509  0.37226314  1
  Co  Co116  1  0.74704440  -0.00180480  -0.00051188  1
  Co  Co117  1  0.87480089  0.62178580  0.12542599  1
  Co  Co118  1  0.62623856  0.62805060  0.37230464  1
  Co  Co119  1  0.50020728  0.25116837  0.49648294  1
  Co  Co120  1  0.12399973  0.37200657  0.12334117  1
  Co  Co121  1  0.37313408  0.12449851  0.37507511  1
  Co  Co122  1  0.12420483  0.62708227  0.12361732  1
  Co  Co123  1  0.37458295  0.62298429  0.37597494  1
  Co  Co124  1  0.49679544  0.74917646  0.00278571  1
  Co  Co125  1  0.00485044  -0.00335860  0.00440378  1
  Co  Co126  1  -0.00389923  0.24984545  0.49867594  1
  Co  Co127  1  0.87516485  0.37968938  0.37667024  1
