# generated using pymatgen
data_Fe45Co19
_symmetry_space_group_name_H-M   'P 1'
_cell_length_a   11.41575720
_cell_length_b   11.41503731
_cell_length_c   11.41532468
_cell_angle_alpha   89.99181897
_cell_angle_beta   89.99937684
_cell_angle_gamma   90.00885073
_symmetry_Int_Tables_number   1
_chemical_formula_structural   Fe45Co19
_chemical_formula_sum   'Fe90 Co38'
_cell_volume   1487.54570172
_cell_formula_units_Z   2
loop_
 _symmetry_equiv_pos_site_id
 _symmetry_equiv_pos_as_xyz
  1  'x, y, z'
loop_
 _atom_site_type_symbol
 _atom_site_label
 _atom_site_symmetry_multiplicity
 _atom_site_fract_x
 _atom_site_fract_y
 _atom_site_fract_z
 _atom_site_occupancy
  Fe  Fe0  1  0.12613275  0.12326631  0.87269387  1
  Fe  Fe1  1  0.49832371  -0.00256357  0.74813473  1
  Fe  Fe2  1  0.37474993  0.37436922  0.12502276  1
  Fe  Fe3  1  0.87626518  0.12356548  0.62199512  1
  Fe  Fe4  1  0.62665491  0.37623595  0.62558856  1
  Fe  Fe5  1  0.24893591  -0.00278592  0.00125841  1
  Fe  Fe6  1  0.12056043  0.62996378  0.87424530  1
  Fe  Fe7  1  0.12478588  0.87280943  0.12980867  1
  Fe  Fe8  1  0.62461401  0.12514546  0.87445962  1
  Fe  Fe9  1  0.75080761  0.00147302  0.74834942  1
  Fe  Fe10  1  0.24922659  -0.00112044  0.50196538  1
  Fe  Fe11  1  0.00078936  0.50185664  0.74886660  1
  Fe  Fe12  1  0.75059695  0.00005680  0.00138555  1
  Fe  Fe13  1  0.00014877  0.49987943  0.25000811  1
  Fe  Fe14  1  0.37772542  0.62639460  0.87539916  1
  Fe  Fe15  1  0.75000035  0.75034832  0.00195094  1
  Fe  Fe16  1  0.74998854  0.49933512  0.24950965  1
  Fe  Fe17  1  -0.00018796  0.25015368  0.25053677  1
  Fe  Fe18  1  0.37469013  0.12786856  0.62362783  1
  Fe  Fe19  1  0.12720954  0.87151599  0.62943598  1
  Fe  Fe20  1  0.24510061  0.49998286  -0.00122007  1
  Fe  Fe21  1  0.00224012  0.25212854  -0.00008335  1
  Fe  Fe22  1  0.37830436  0.62489174  0.62315550  1
  Fe  Fe23  1  0.00137619  0.49886091  0.49927818  1
  Fe  Fe24  1  0.49732006  0.74950259  0.25113149  1
  Fe  Fe25  1  0.62310515  0.37355864  0.12746268  1
  Fe  Fe26  1  0.50356893  0.74950514  0.49751537  1
  Fe  Fe27  1  0.75208011  0.75250678  0.25370612  1
  Fe  Fe28  1  0.49875806  -0.00112656  0.00101032  1
  Fe  Fe29  1  0.50217092  0.50181237  0.75118183  1
  Fe  Fe30  1  0.87576956  0.62610420  0.87877300  1
  Fe  Fe31  1  0.74948134  0.50383020  0.75087197  1
  Fe  Fe32  1  0.37494396  0.87511662  0.37433142  1
  Fe  Fe33  1  0.75134263  0.24591369  0.25131211  1
  Fe  Fe34  1  0.12652299  0.12612629  0.62625933  1
  Fe  Fe35  1  0.50419952  0.50036978  0.49569502  1
  Fe  Fe36  1  0.87467819  0.37698244  0.87556595  1
  Fe  Fe37  1  0.75248552  0.00222458  0.25425154  1
  Fe  Fe38  1  0.00049706  -0.00557567  -0.00300712  1
  Fe  Fe39  1  -0.00090854  -0.00435011  0.75062484  1
  Fe  Fe40  1  0.37395576  0.87102212  0.62683547  1
  Fe  Fe41  1  0.61930429  0.12222860  0.37672631  1
  Fe  Fe42  1  0.37335018  0.37628860  0.87503791  1
  Fe  Fe43  1  0.87475976  0.12366174  0.87615587  1
  Fe  Fe44  1  0.25364736  -0.00094904  0.24878862  1
  Fe  Fe45  1  0.24961638  0.24997228  0.25249753  1
  Fe  Fe46  1  0.87480215  0.62585278  0.37574944  1
  Fe  Fe47  1  0.62677742  0.87457286  0.87395814  1
  Fe  Fe48  1  0.37690028  0.37471590  0.37536356  1
  Fe  Fe49  1  0.12763095  0.37457271  0.62600515  1
  Fe  Fe50  1  0.87655967  0.37538209  0.12357018  1
  Fe  Fe51  1  -0.00306162  -0.00211547  0.25457641  1
  Fe  Fe52  1  0.87210222  0.87541019  0.61995027  1
  Fe  Fe53  1  0.37251715  0.87367568  0.87333601  1
  Fe  Fe54  1  -0.00127382  0.25062636  0.74992635  1
  Fe  Fe55  1  0.75087172  0.24934520  0.00123408  1
  Fe  Fe56  1  0.87704644  0.62482857  0.12284672  1
  Fe  Fe57  1  0.37360532  0.37559020  0.62373891  1
  Fe  Fe58  1  0.37749462  0.12401655  0.37814608  1
  Fe  Fe59  1  0.37497515  0.62427828  0.12463545  1
  Fe  Fe60  1  0.00161131  0.75313415  0.49705264  1
  Fe  Fe61  1  0.74785346  0.50263518  0.49839491  1
  Fe  Fe62  1  0.25088094  0.50062250  0.25114075  1
  Fe  Fe63  1  0.74963786  0.74730329  0.74791216  1
  Fe  Fe64  1  0.00284383  0.25128905  0.49996217  1
  Fe  Fe65  1  0.62272439  0.12464026  0.12519190  1
  Fe  Fe66  1  0.62697347  0.37422615  0.87496298  1
  Fe  Fe67  1  0.24817438  0.50073754  0.49903278  1
  Fe  Fe68  1  0.37460950  0.12413878  0.87470969  1
  Fe  Fe69  1  0.50096445  0.75158538  0.00010302  1
  Fe  Fe70  1  0.24887746  0.74875907  0.49838835  1
  Fe  Fe71  1  0.62374713  0.87688991  0.12874873  1
  Fe  Fe72  1  0.12572163  0.62633776  0.37357952  1
  Fe  Fe73  1  0.62719033  0.87437026  0.62201586  1
  Fe  Fe74  1  0.87533093  0.87670097  0.12637584  1
  Fe  Fe75  1  0.24858224  0.75119449  0.00154833  1
  Fe  Fe76  1  0.24735974  0.25158558  -0.00149285  1
  Fe  Fe77  1  0.62287625  0.12472387  0.62481166  1
  Fe  Fe78  1  0.50278988  0.49961637  0.00105455  1
  Fe  Fe79  1  0.49928931  0.25184259  0.74970013  1
  Fe  Fe80  1  0.12295541  0.12408664  0.12591487  1
  Fe  Fe81  1  0.87303537  0.37509834  0.62464983  1
  Fe  Fe82  1  0.62470831  0.62495269  0.12720856  1
  Fe  Fe83  1  0.87641146  0.62625241  0.62221806  1
  Fe  Fe84  1  0.37631410  0.12696463  0.12360156  1
  Fe  Fe85  1  0.74768833  0.24825040  0.49973968  1
  Fe  Fe86  1  0.12463674  0.12281459  0.37612650  1
  Fe  Fe87  1  0.24806909  0.50481294  0.74901115  1
  Fe  Fe88  1  0.12272888  0.62758349  0.12680526  1
  Fe  Fe89  1  0.87399222  0.37330713  0.37606866  1
  Co  Co90  1  0.62506616  0.62709609  0.87644531  1
  Co  Co91  1  0.49908044  0.24899766  0.25124728  1
  Co  Co92  1  0.24925095  0.25012287  0.49771154  1
  Co  Co93  1  0.87816270  0.12332712  0.12317998  1
  Co  Co94  1  0.00501308  -0.00361997  0.50142505  1
  Co  Co95  1  0.49837125  0.50070977  0.25045944  1
  Co  Co96  1  0.62607971  0.62544527  0.37046368  1
  Co  Co97  1  0.50143332  0.25277599  0.50071594  1
  Co  Co98  1  -0.00348052  0.75076462  0.25294112  1
  Co  Co99  1  0.74884145  0.00389639  0.49730948  1
  Co  Co100  1  0.86933105  0.87404705  0.87422944  1
  Co  Co101  1  0.12403197  0.37593853  0.37446312  1
  Co  Co102  1  0.25169613  0.00088487  0.74743848  1
  Co  Co103  1  0.62380662  0.87727259  0.37432957  1
  Co  Co104  1  0.12498511  0.37521513  0.87076086  1
  Co  Co105  1  0.25216108  0.74344736  0.74902829  1
  Co  Co106  1  0.25330694  0.74888778  0.24993727  1
  Co  Co107  1  0.87233539  0.87592283  0.38112484  1
  Co  Co108  1  0.12829486  0.87519222  0.37113219  1
  Co  Co109  1  0.74697132  0.74640240  0.49794376  1
  Co  Co110  1  0.37548684  0.87328627  0.12449889  1
  Co  Co111  1  -0.00094492  0.75538938  0.00032524  1
  Co  Co112  1  0.74770518  0.49984989  0.00133116  1
  Co  Co113  1  0.75094482  0.24839758  0.74925138  1
  Co  Co114  1  0.87915071  0.12576844  0.38023665  1
  Co  Co115  1  0.62245702  0.62448854  0.62483347  1
  Co  Co116  1  0.50150589  0.75090419  0.74970882  1
  Co  Co117  1  0.49662181  -0.00007076  0.24816820  1
  Co  Co118  1  0.00326025  0.49880652  0.00061629  1
  Co  Co119  1  0.12256345  0.62736173  0.62273279  1
  Co  Co120  1  0.37480348  0.62482756  0.37696031  1
  Co  Co121  1  -0.00469871  0.75275116  0.74911388  1
  Co  Co122  1  0.49976162  0.25081074  -0.00128583  1
  Co  Co123  1  0.12948485  0.87236998  0.87051932  1
  Co  Co124  1  0.49723028  -0.00324468  0.50362378  1
  Co  Co125  1  0.62640747  0.37474016  0.37251218  1
  Co  Co126  1  0.12617725  0.37502542  0.12802055  1
  Co  Co127  1  0.25212918  0.25024580  0.75087202  1
