# generated using pymatgen
data_Fe45Co19
_symmetry_space_group_name_H-M   'P 1'
_cell_length_a   11.41489609
_cell_length_b   11.41530475
_cell_length_c   11.41516497
_cell_angle_alpha   90.00051464
_cell_angle_beta   90.00007626
_cell_angle_gamma   90.01034961
_symmetry_Int_Tables_number   1
_chemical_formula_structural   Fe45Co19
_chemical_formula_sum   'Fe90 Co38'
_cell_volume   1487.44753908
_cell_formula_units_Z   2
loop_
 _symmetry_equiv_pos_site_id
 _symmetry_equiv_pos_as_xyz
  1  'x, y, z'
loop_
 _atom_site_type_symbol
 _atom_site_label
 _atom_site_symmetry_multiplicity
 _atom_site_fract_x
 _atom_site_fract_y
 _atom_site_fract_z
 _atom_site_occupancy
  Fe  Fe0  1  0.49987456  0.49951628  0.50225911  1
  Fe  Fe1  1  0.50575875  0.25036944  0.49681764  1
  Fe  Fe2  1  0.24849258  0.74939902  0.49809873  1
  Fe  Fe3  1  0.12503124  0.62388660  0.87350296  1
  Fe  Fe4  1  0.37465798  0.12666856  0.12295088  1
  Fe  Fe5  1  0.62337264  0.87768469  0.37733844  1
  Fe  Fe6  1  0.87308508  0.62787696  0.12439421  1
  Fe  Fe7  1  -0.00222982  0.00269808  0.25173163  1
  Fe  Fe8  1  0.37292903  0.87283233  0.12462890  1
  Fe  Fe9  1  0.87336290  0.12723713  0.62420790  1
  Fe  Fe10  1  0.75033554  0.49665662  0.74836196  1
  Fe  Fe11  1  0.37341783  0.62433297  0.37274360  1
  Fe  Fe12  1  0.87561890  0.12635277  0.87512209  1
  Fe  Fe13  1  0.87365000  0.13038597  0.12720352  1
  Fe  Fe14  1  0.24681282  0.24907880  0.49881931  1
  Fe  Fe15  1  0.50228324  0.25161849  0.24887103  1
  Fe  Fe16  1  0.87647702  0.62524123  0.87438575  1
  Fe  Fe17  1  0.62543990  0.12542998  0.62574142  1
  Fe  Fe18  1  0.12490797  0.12226324  0.87384181  1
  Fe  Fe19  1  0.75007671  0.50017271  -0.00090409  1
  Fe  Fe20  1  0.00109231  0.74934235  0.50057487  1
  Fe  Fe21  1  0.62269283  0.37657540  0.87526238  1
  Fe  Fe22  1  0.74923619  0.75178179  0.75053117  1
  Fe  Fe23  1  0.25115807  0.49870385  0.74788370  1
  Fe  Fe24  1  0.62137937  0.12083844  0.87603651  1
  Fe  Fe25  1  0.49793993  0.24685178  0.75250574  1
  Fe  Fe26  1  0.25439574  0.50115936  0.00241555  1
  Fe  Fe27  1  0.37650134  0.62693841  0.87602598  1
  Fe  Fe28  1  0.87512775  0.87420479  0.37600660  1
  Fe  Fe29  1  0.25049610  0.75204876  0.74990288  1
  Fe  Fe30  1  0.12341570  0.87880139  0.37468518  1
  Fe  Fe31  1  0.25042603  0.24689540  -0.00300828  1
  Fe  Fe32  1  0.87502775  0.87372091  0.87840791  1
  Fe  Fe33  1  0.62441851  0.87890229  0.87607686  1
  Fe  Fe34  1  0.49712205  0.49927019  0.74864026  1
  Fe  Fe35  1  0.24766121  0.49937542  0.50140899  1
  Fe  Fe36  1  0.37380776  0.62776824  0.62464718  1
  Fe  Fe37  1  0.25179071  0.00226826  0.49999363  1
  Fe  Fe38  1  0.62437736  0.62044582  0.37255343  1
  Fe  Fe39  1  0.12870906  0.62635216  0.12851754  1
  Fe  Fe40  1  0.25683388  0.00365690  0.74834103  1
  Fe  Fe41  1  0.87601907  0.37463148  0.87570388  1
  Fe  Fe42  1  0.87474837  0.36993372  0.62122555  1
  Fe  Fe43  1  0.00023021  0.75115751  0.74960232  1
  Fe  Fe44  1  0.87442537  0.62517880  0.62442524  1
  Fe  Fe45  1  0.00107805  0.49848341  0.74550091  1
  Fe  Fe46  1  0.50192293  0.74980445  0.00144130  1
  Fe  Fe47  1  0.12654795  0.37598462  0.87408470  1
  Fe  Fe48  1  0.12474912  0.12369651  0.62647136  1
  Fe  Fe49  1  0.00222818  0.24967410  0.00025883  1
  Fe  Fe50  1  0.12416957  0.87840337  0.62484311  1
  Fe  Fe51  1  0.74739128  0.25012874  -0.00188861  1
  Fe  Fe52  1  0.50056443  0.74977075  0.25152509  1
  Fe  Fe53  1  0.37558775  0.37364451  0.87709963  1
  Fe  Fe54  1  -0.00014995  0.50116466  0.00229793  1
  Fe  Fe55  1  0.12413170  0.87875794  0.87474500  1
  Fe  Fe56  1  0.62269922  0.62358328  0.87366910  1
  Fe  Fe57  1  0.75022856  0.00346053  0.49755776  1
  Fe  Fe58  1  -0.00240068  0.49578187  0.24883174  1
  Fe  Fe59  1  0.62667453  0.62389334  0.12578038  1
  Fe  Fe60  1  0.24687269  0.75262611  0.00036923  1
  Fe  Fe61  1  0.12600265  0.12300224  0.12698915  1
  Fe  Fe62  1  0.62976831  0.87453647  0.12493926  1
  Fe  Fe63  1  0.00129654  0.25024805  0.74936547  1
  Fe  Fe64  1  0.24857378  0.25113221  0.25224391  1
  Fe  Fe65  1  0.75198707  0.00044900  0.25103216  1
  Fe  Fe66  1  0.49413717  0.49788808  0.24338583  1
  Fe  Fe67  1  0.62538028  0.62440769  0.62601113  1
  Fe  Fe68  1  0.12064983  0.37532171  0.37677536  1
  Fe  Fe69  1  0.75097387  0.00057625  0.75102174  1
  Fe  Fe70  1  0.37701493  0.87968017  0.87661574  1
  Fe  Fe71  1  0.25234141  -0.00070610  0.25043959  1
  Fe  Fe72  1  0.74857134  0.49422032  0.49982613  1
  Fe  Fe73  1  0.62681664  0.12518932  0.12615593  1
  Fe  Fe74  1  0.87407500  0.13366747  0.37425470  1
  Fe  Fe75  1  0.87482688  0.87716478  0.62317512  1
  Fe  Fe76  1  0.87387315  0.87216605  0.12330625  1
  Fe  Fe77  1  0.37859100  0.87560446  0.37892036  1
  Fe  Fe78  1  0.87498729  0.62290575  0.37581655  1
  Fe  Fe79  1  0.74727392  0.74832839  0.49774262  1
  Fe  Fe80  1  0.12489467  0.62287241  0.37332907  1
  Fe  Fe81  1  0.37748210  0.12518216  0.37570594  1
  Fe  Fe82  1  0.00011169  0.75013688  0.24990778  1
  Fe  Fe83  1  0.37448602  0.37054091  0.62467554  1
  Fe  Fe84  1  0.49886723  -0.00064660  0.24794626  1
  Fe  Fe85  1  -0.00069323  0.00026714  0.00143431  1
  Fe  Fe86  1  0.12669466  0.37458569  0.12367617  1
  Fe  Fe87  1  0.50074215  0.75493108  0.74592949  1
  Fe  Fe88  1  0.37592791  0.37460615  0.37514658  1
  Fe  Fe89  1  0.75445937  0.49310940  0.24984515  1
  Co  Co90  1  0.62307998  0.12128492  0.37144866  1
  Co  Co91  1  0.62150562  0.38027804  0.37093154  1
  Co  Co92  1  0.37289733  0.36931994  0.12314432  1
  Co  Co93  1  0.87451512  0.37030821  0.12223320  1
  Co  Co94  1  0.49990207  0.00218409  0.50402524  1
  Co  Co95  1  0.37409350  0.87247820  0.62055771  1
  Co  Co96  1  -0.00324434  0.00054332  0.75100625  1
  Co  Co97  1  0.74265363  0.25209147  0.49643681  1
  Co  Co98  1  0.00313346  0.74908051  0.00074596  1
  Co  Co99  1  0.37098468  0.63034205  0.12665291  1
  Co  Co100  1  0.74837082  0.74754107  -0.00294211  1
  Co  Co101  1  0.24938152  -0.00012072  0.00171248  1
  Co  Co102  1  0.00447453  0.24475159  0.50145195  1
  Co  Co103  1  0.12623273  0.62698927  0.62689104  1
  Co  Co104  1  0.49652873  0.50135036  0.00352604  1
  Co  Co105  1  0.25126212  0.49524620  0.25011538  1
  Co  Co106  1  0.50197639  0.25025302  0.00058769  1
  Co  Co107  1  0.24973788  0.75451060  0.25394664  1
  Co  Co108  1  0.12299622  0.87749559  0.12810536  1
  Co  Co109  1  0.62833055  0.87679523  0.62124056  1
  Co  Co110  1  0.00067284  0.50126513  0.50293091  1
  Co  Co111  1  0.75225657  0.00229470  0.00059196  1
  Co  Co112  1  0.87914456  0.36989957  0.37944854  1
  Co  Co113  1  0.12616169  0.12289867  0.37291246  1
  Co  Co114  1  0.50061618  -0.00162527  0.00586631  1
  Co  Co115  1  0.62594835  0.37626114  0.12279602  1
  Co  Co116  1  0.50226034  0.74634389  0.49920216  1
  Co  Co117  1  0.74921196  0.24935671  0.75264224  1
  Co  Co118  1  0.49708988  -0.00032751  0.74418041  1
  Co  Co119  1  0.74902596  0.75020648  0.25344749  1
  Co  Co120  1  0.74587731  0.25500263  0.25272380  1
  Co  Co121  1  0.37665121  0.13116372  0.62024511  1
  Co  Co122  1  0.12662706  0.37254395  0.62623530  1
  Co  Co123  1  0.62226780  0.37298494  0.62902739  1
  Co  Co124  1  0.25171239  0.24621750  0.75298180  1
  Co  Co125  1  -0.00211837  0.00392877  0.49729217  1
  Co  Co126  1  0.00368009  0.25146852  0.24887200  1
  Co  Co127  1  0.37930523  0.12066253  0.88010264  1
