# generated using pymatgen
data_Fe45Co19
_symmetry_space_group_name_H-M   'P 1'
_cell_length_a   11.41494791
_cell_length_b   11.41642602
_cell_length_c   11.41351662
_cell_angle_alpha   90.00799224
_cell_angle_beta   89.98675338
_cell_angle_gamma   89.99918776
_symmetry_Int_Tables_number   1
_chemical_formula_structural   Fe45Co19
_chemical_formula_sum   'Fe90 Co38'
_cell_volume   1487.38555797
_cell_formula_units_Z   2
loop_
 _symmetry_equiv_pos_site_id
 _symmetry_equiv_pos_as_xyz
  1  'x, y, z'
loop_
 _atom_site_type_symbol
 _atom_site_label
 _atom_site_symmetry_multiplicity
 _atom_site_fract_x
 _atom_site_fract_y
 _atom_site_fract_z
 _atom_site_occupancy
  Fe  Fe0  1  0.50028984  0.74923007  0.25004926  1
  Fe  Fe1  1  0.37362788  0.37633428  0.87430364  1
  Fe  Fe2  1  0.00002665  0.00190236  0.24781635  1
  Fe  Fe3  1  -0.00089373  0.24756122  0.24882858  1
  Fe  Fe4  1  0.87276819  0.87328344  0.87477780  1
  Fe  Fe5  1  0.62684480  0.12629095  0.62528236  1
  Fe  Fe6  1  0.62466740  0.12428755  0.12141478  1
  Fe  Fe7  1  0.49982294  0.00428879  0.25105477  1
  Fe  Fe8  1  0.12710841  0.87450475  0.62963548  1
  Fe  Fe9  1  0.50042773  -0.00360114  -0.00333253  1
  Fe  Fe10  1  0.25205406  0.24416106  0.24639107  1
  Fe  Fe11  1  0.62554033  0.37663282  0.62565287  1
  Fe  Fe12  1  0.62542281  0.37596852  0.87457743  1
  Fe  Fe13  1  0.62641903  0.62305694  0.37607115  1
  Fe  Fe14  1  0.24919328  -0.00010647  0.50040651  1
  Fe  Fe15  1  0.37511888  0.87745915  0.37352314  1
  Fe  Fe16  1  0.12511292  0.87487205  0.12481752  1
  Fe  Fe17  1  0.12426559  0.87698525  0.37297853  1
  Fe  Fe18  1  0.50065982  0.00027438  0.75190252  1
  Fe  Fe19  1  0.24821171  0.25171979  0.49907190  1
  Fe  Fe20  1  0.12388219  0.37424797  0.37164832  1
  Fe  Fe21  1  0.12304607  0.37559056  0.87633453  1
  Fe  Fe22  1  -0.00179734  -0.00078575  -0.00113999  1
  Fe  Fe23  1  0.50147897  0.24999199  0.75116021  1
  Fe  Fe24  1  0.37669469  0.37298709  0.37044824  1
  Fe  Fe25  1  0.37017085  0.62594723  0.62307413  1
  Fe  Fe26  1  0.00209130  0.74737017  0.75142163  1
  Fe  Fe27  1  0.12657002  0.62341314  0.37618665  1
  Fe  Fe28  1  0.75081688  0.25250636  0.49939035  1
  Fe  Fe29  1  0.74820275  0.00154273  0.75364266  1
  Fe  Fe30  1  0.87577745  0.62339657  0.62460920  1
  Fe  Fe31  1  0.12368948  0.37691573  0.62712218  1
  Fe  Fe32  1  0.37338871  0.62441413  0.37526484  1
  Fe  Fe33  1  0.62519955  0.37673320  0.37312009  1
  Fe  Fe34  1  0.75346669  0.49983263  0.24574800  1
  Fe  Fe35  1  0.62447105  0.62432922  0.12334694  1
  Fe  Fe36  1  0.87415534  0.87483278  0.62784827  1
  Fe  Fe37  1  0.62412730  0.87591381  0.12341997  1
  Fe  Fe38  1  -0.00168808  0.50161980  0.24260061  1
  Fe  Fe39  1  0.49874715  0.25259358  0.00057104  1
  Fe  Fe40  1  0.37625592  0.12575428  0.87604141  1
  Fe  Fe41  1  -0.00017960  0.25076777  0.49994139  1
  Fe  Fe42  1  0.49703055  0.74834998  0.75435104  1
  Fe  Fe43  1  0.87447961  0.12528243  0.62751542  1
  Fe  Fe44  1  0.25187284  0.00126754  0.00096086  1
  Fe  Fe45  1  0.87532458  0.37626169  0.62673775  1
  Fe  Fe46  1  0.12316093  0.62279094  0.87947480  1
  Fe  Fe47  1  0.25097310  0.49849462  0.00404624  1
  Fe  Fe48  1  0.49911395  0.75124988  0.49959648  1
  Fe  Fe49  1  0.12333851  0.12520433  0.87556558  1
  Fe  Fe50  1  0.87480897  0.62322817  0.37500932  1
  Fe  Fe51  1  0.00067898  0.49869720  0.49922104  1
  Fe  Fe52  1  0.74969088  0.25059522  0.24935731  1
  Fe  Fe53  1  0.25056027  0.00417012  0.24742051  1
  Fe  Fe54  1  0.12517468  0.37040842  0.12371831  1
  Fe  Fe55  1  0.37465751  0.37390807  0.62607380  1
  Fe  Fe56  1  0.87462293  0.87268735  0.12346067  1
  Fe  Fe57  1  0.87339213  0.12904317  0.87569716  1
  Fe  Fe58  1  0.49725858  0.75104578  -0.00258518  1
  Fe  Fe59  1  0.37543274  0.12692654  0.62383016  1
  Fe  Fe60  1  0.49853354  0.49998915  0.00161928  1
  Fe  Fe61  1  0.12792138  0.87701884  0.87275122  1
  Fe  Fe62  1  0.87380305  0.12397800  0.37648633  1
  Fe  Fe63  1  0.24873625  0.24904811  0.75181601  1
  Fe  Fe64  1  0.87477032  0.87569225  0.37515117  1
  Fe  Fe65  1  0.75057566  -0.00040777  0.24812200  1
  Fe  Fe66  1  0.25084234  0.50103391  0.24648678  1
  Fe  Fe67  1  0.50131435  0.00015793  0.50060319  1
  Fe  Fe68  1  0.49846428  0.49980816  0.49925429  1
  Fe  Fe69  1  0.87679850  0.62336852  0.88134159  1
  Fe  Fe70  1  0.62285521  0.37544084  0.12670341  1
  Fe  Fe71  1  0.00224128  0.75054366  0.50028817  1
  Fe  Fe72  1  0.62670170  0.87737899  0.37564782  1
  Fe  Fe73  1  0.87431847  0.12658166  0.12136942  1
  Fe  Fe74  1  0.37122688  0.87382560  0.62907673  1
  Fe  Fe75  1  0.25309066  0.75083386  -0.00036304  1
  Fe  Fe76  1  0.62628790  0.62503649  0.62664244  1
  Fe  Fe77  1  0.74709414  0.75032675  -0.00141626  1
  Fe  Fe78  1  0.25127148  0.75002472  0.24915282  1
  Fe  Fe79  1  0.12282406  0.12504448  0.62698271  1
  Fe  Fe80  1  0.74960669  0.74966059  0.24958490  1
  Fe  Fe81  1  0.49872832  0.50147963  0.74963555  1
  Fe  Fe82  1  0.62707177  0.87261431  0.62928047  1
  Fe  Fe83  1  0.75000404  0.75025123  0.50076062  1
  Fe  Fe84  1  0.50176266  0.24930013  0.49686999  1
  Fe  Fe85  1  0.87615677  0.37426671  0.87874563  1
  Fe  Fe86  1  0.00024552  -0.00055577  0.50104115  1
  Fe  Fe87  1  0.24800756  0.50226429  0.74939975  1
  Fe  Fe88  1  0.75131648  0.50097969  0.75327735  1
  Fe  Fe89  1  -0.00020990  0.74793968  0.24794176  1
  Co  Co90  1  0.75018717  0.49894155  0.50009210  1
  Co  Co91  1  0.37628107  0.37361595  0.12733131  1
  Co  Co92  1  0.50172500  0.24503096  0.25068732  1
  Co  Co93  1  0.62385400  0.62378120  0.87578076  1
  Co  Co94  1  0.74934459  0.49775273  0.00172124  1
  Co  Co95  1  0.00075476  0.49765802  0.00690593  1
  Co  Co96  1  0.12662257  0.62372630  0.62116442  1
  Co  Co97  1  0.37616789  0.87564536  0.12635791  1
  Co  Co98  1  0.74875090  0.25199206  0.75113598  1
  Co  Co99  1  0.24787790  0.74447713  0.75353539  1
  Co  Co100  1  0.74665087  0.25159443  0.00100899  1
  Co  Co101  1  0.62651003  0.87268494  0.87304299  1
  Co  Co102  1  0.12347015  0.12449004  0.12151848  1
  Co  Co103  1  0.87700896  0.37632621  0.37302807  1
  Co  Co104  1  0.62381449  0.12700944  0.87712359  1
  Co  Co105  1  0.37430868  0.62122048  0.87684975  1
  Co  Co106  1  0.75011569  -0.00200134  0.50269033  1
  Co  Co107  1  0.62958166  0.12381214  0.37620872  1
  Co  Co108  1  0.37157139  0.87650251  0.87183330  1
  Co  Co109  1  0.75282490  0.74549942  0.75240455  1
  Co  Co110  1  -0.00051923  0.50168619  0.75165489  1
  Co  Co111  1  0.75072731  -0.00017216  -0.00201728  1
  Co  Co112  1  0.49956875  0.50261329  0.24989710  1
  Co  Co113  1  0.37600019  0.62610146  0.12454911  1
  Co  Co114  1  0.12419853  0.12494138  0.37561859  1
  Co  Co115  1  0.25129500  0.00575126  0.74989742  1
  Co  Co116  1  -0.00195156  -0.00047124  0.75275399  1
  Co  Co117  1  0.87431752  0.62899872  0.11996235  1
  Co  Co118  1  0.00179472  0.24906904  -0.00088824  1
  Co  Co119  1  0.25167170  0.49509720  0.49845693  1
  Co  Co120  1  0.37821956  0.12495976  0.12103115  1
  Co  Co121  1  0.24893143  0.75389958  0.49759011  1
  Co  Co122  1  0.00207387  0.75405160  -0.00124846  1
  Co  Co123  1  0.00033608  0.25125018  0.75101732  1
  Co  Co124  1  0.37353754  0.12546989  0.37736135  1
  Co  Co125  1  0.12605599  0.62862813  0.12250788  1
  Co  Co126  1  0.25109330  0.25003827  -0.00119853  1
  Co  Co127  1  0.87603761  0.37077111  0.12190486  1
