# generated using pymatgen
data_Fe45Co19
_symmetry_space_group_name_H-M   'P 1'
_cell_length_a   11.42334547
_cell_length_b   11.42304845
_cell_length_c   11.42356885
_cell_angle_alpha   90.00053166
_cell_angle_beta   89.99736789
_cell_angle_gamma   89.99953348
_symmetry_Int_Tables_number   1
_chemical_formula_structural   Fe45Co19
_chemical_formula_sum   'Fe90 Co38'
_cell_volume   1490.65497167
_cell_formula_units_Z   2
loop_
 _symmetry_equiv_pos_site_id
 _symmetry_equiv_pos_as_xyz
  1  'x, y, z'
loop_
 _atom_site_type_symbol
 _atom_site_label
 _atom_site_symmetry_multiplicity
 _atom_site_fract_x
 _atom_site_fract_y
 _atom_site_fract_z
 _atom_site_occupancy
  Fe  Fe0  1  0.12379267  0.12284566  0.12320415  1
  Fe  Fe1  1  0.62575851  0.87501431  0.12669820  1
  Fe  Fe2  1  -0.00105512  -0.00226751  0.25261203  1
  Fe  Fe3  1  0.37397328  0.12385945  0.37588751  1
  Fe  Fe4  1  0.49991853  0.50204474  0.50073014  1
  Fe  Fe5  1  0.50078784  0.75123048  0.25141562  1
  Fe  Fe6  1  0.75048685  0.25087387  0.74932053  1
  Fe  Fe7  1  0.24878668  0.50028285  -0.00068958  1
  Fe  Fe8  1  0.75104028  0.50274603  -0.00230068  1
  Fe  Fe9  1  0.00051121  0.25134499  0.50112913  1
  Fe  Fe10  1  0.62650949  0.37946910  0.62501241  1
  Fe  Fe11  1  0.00084743  0.25056082  0.74717904  1
  Fe  Fe12  1  0.24788264  0.24949909  0.74815466  1
  Fe  Fe13  1  0.62726310  0.12371597  0.12836071  1
  Fe  Fe14  1  0.37311444  0.62667612  0.12567976  1
  Fe  Fe15  1  0.87511719  0.12439948  0.12635446  1
  Fe  Fe16  1  0.37548491  0.37419301  0.87469295  1
  Fe  Fe17  1  0.12671025  0.87534721  0.37856893  1
  Fe  Fe18  1  0.74960031  0.25004408  0.50062427  1
  Fe  Fe19  1  0.50281101  0.24775300  -0.00065585  1
  Fe  Fe20  1  0.87724910  0.37647759  0.87355940  1
  Fe  Fe21  1  0.74623560  0.74533713  0.50210519  1
  Fe  Fe22  1  0.37510949  0.12388324  0.62410655  1
  Fe  Fe23  1  0.37412932  0.12362148  0.12652074  1
  Fe  Fe24  1  0.50057485  0.50160242  -0.00008973  1
  Fe  Fe25  1  0.50073422  0.25008780  0.25146923  1
  Fe  Fe26  1  0.37165321  0.87538416  0.62693716  1
  Fe  Fe27  1  -0.00030456  0.75044956  0.25025296  1
  Fe  Fe28  1  0.37435728  0.37405125  0.12435364  1
  Fe  Fe29  1  0.37373424  0.87573150  0.12637513  1
  Fe  Fe30  1  0.62476689  0.62470266  0.86980888  1
  Fe  Fe31  1  -0.00044460  0.50255955  0.00224737  1
  Fe  Fe32  1  0.75135741  -0.00029248  -0.00034459  1
  Fe  Fe33  1  0.50075126  0.00080682  -0.00066865  1
  Fe  Fe34  1  0.87408642  0.12346463  0.37771638  1
  Fe  Fe35  1  0.12861812  0.62525730  0.62675032  1
  Fe  Fe36  1  0.62708808  0.37573913  0.12642777  1
  Fe  Fe37  1  0.50087814  0.75022166  -0.00101380  1
  Fe  Fe38  1  0.75237107  -0.00141317  0.74511226  1
  Fe  Fe39  1  0.37224373  0.62447829  0.62631553  1
  Fe  Fe40  1  0.50081365  0.75002228  0.50131111  1
  Fe  Fe41  1  0.00100467  0.50233770  0.24897467  1
  Fe  Fe42  1  0.37366594  0.62624043  0.37457866  1
  Fe  Fe43  1  0.87555422  0.12347951  0.87216988  1
  Fe  Fe44  1  0.87710575  0.37615013  0.37658664  1
  Fe  Fe45  1  0.12485624  0.12337219  0.62176470  1
  Fe  Fe46  1  0.00225649  0.50104441  0.50244302  1
  Fe  Fe47  1  0.24862745  0.24919589  -0.00089094  1
  Fe  Fe48  1  0.12470691  0.12384563  0.37853976  1
  Fe  Fe49  1  0.00055977  0.25020086  0.25082951  1
  Fe  Fe50  1  0.24982510  0.75124687  -0.00193400  1
  Fe  Fe51  1  0.37291173  0.87467023  0.37410890  1
  Fe  Fe52  1  -0.00192326  0.24932868  -0.00004486  1
  Fe  Fe53  1  0.37530713  0.12358056  0.87290407  1
  Fe  Fe54  1  0.75131812  0.74882736  0.25351493  1
  Fe  Fe55  1  0.12540060  0.62676713  0.37515556  1
  Fe  Fe56  1  0.24717895  0.25044050  0.25141874  1
  Fe  Fe57  1  0.12337751  0.62503068  0.87382916  1
  Fe  Fe58  1  0.87289080  0.87422223  0.38153556  1
  Fe  Fe59  1  0.62630441  0.62587922  0.12702969  1
  Fe  Fe60  1  0.24679786  0.49960585  0.25059286  1
  Fe  Fe61  1  0.00249763  0.75018930  0.50354405  1
  Fe  Fe62  1  0.37469160  0.87671181  0.87244866  1
  Fe  Fe63  1  0.37194188  0.37576375  0.62361613  1
  Fe  Fe64  1  0.87558329  0.87424035  0.87299693  1
  Fe  Fe65  1  0.75035701  0.24891740  -0.00170448  1
  Fe  Fe66  1  -0.00044149  0.74943452  0.00029554  1
  Fe  Fe67  1  -0.00214584  0.74901279  0.74642093  1
  Fe  Fe68  1  0.62536076  0.37590958  0.37571620  1
  Fe  Fe69  1  0.50096999  0.25011085  0.49975900  1
  Fe  Fe70  1  0.12257534  0.12202767  0.87553905  1
  Fe  Fe71  1  0.74958061  0.74900390  -0.00299992  1
  Fe  Fe72  1  0.87451651  0.37591382  0.12617419  1
  Fe  Fe73  1  0.87482939  0.37715026  0.62423852  1
  Fe  Fe74  1  0.50102219  -0.00281919  0.49984617  1
  Fe  Fe75  1  0.62377028  0.12380364  0.62596624  1
  Fe  Fe76  1  0.12594701  0.87582989  0.12408845  1
  Fe  Fe77  1  0.37514743  0.62520183  0.87325584  1
  Fe  Fe78  1  0.75239899  0.50328731  0.25474205  1
  Fe  Fe79  1  0.37290205  0.37512802  0.37692871  1
  Fe  Fe80  1  0.87499814  0.87257506  0.12427585  1
  Fe  Fe81  1  0.50039582  0.75022527  0.74793082  1
  Fe  Fe82  1  0.49945887  0.50016420  0.25061351  1
  Fe  Fe83  1  -0.00122190  -0.00205444  0.74434570  1
  Fe  Fe84  1  0.62443494  0.37647515  0.87316490  1
  Fe  Fe85  1  0.62524074  0.87653154  0.87082011  1
  Fe  Fe86  1  0.12285667  0.37587171  0.87419563  1
  Fe  Fe87  1  0.50076210  0.25082327  0.74930912  1
  Fe  Fe88  1  0.62736232  0.12186640  0.37380775  1
  Fe  Fe89  1  0.12351345  0.87662287  0.87283900  1
  Co  Co90  1  0.25121164  -0.00184257  0.50046658  1
  Co  Co91  1  0.75409591  -0.00328135  0.25030207  1
  Co  Co92  1  0.00026442  0.50146258  0.74688003  1
  Co  Co93  1  0.49916664  -0.00069727  0.74826718  1
  Co  Co94  1  0.24911092  0.75011233  0.75175844  1
  Co  Co95  1  0.74991850  0.50215658  0.49672139  1
  Co  Co96  1  0.87385693  0.62715800  0.12514337  1
  Co  Co97  1  0.25088335  0.74980583  0.50067952  1
  Co  Co98  1  0.12694164  0.37588313  0.62417457  1
  Co  Co99  1  0.87979003  0.62721231  0.37868871  1
  Co  Co100  1  0.12382590  0.37403405  0.12376698  1
  Co  Co101  1  0.24837928  0.75097843  0.25092845  1
  Co  Co102  1  0.12371723  0.37519654  0.37711311  1
  Co  Co103  1  0.62815630  0.87530087  0.37668083  1
  Co  Co104  1  0.87617360  0.12711302  0.62390332  1
  Co  Co105  1  0.62544794  0.62200524  0.62823393  1
  Co  Co106  1  0.87307005  0.87180196  0.62054637  1
  Co  Co107  1  0.87742732  0.62621560  0.87453939  1
  Co  Co108  1  0.62163940  0.62580278  0.37504300  1
  Co  Co109  1  -0.00265680  -0.00142571  0.00049534  1
  Co  Co110  1  0.74932928  0.00234019  0.50408498  1
  Co  Co111  1  0.24842182  0.50196232  0.49848991  1
  Co  Co112  1  0.62619396  0.87416155  0.62546421  1
  Co  Co113  1  0.24954518  0.49897709  0.75166410  1
  Co  Co114  1  0.75144263  0.25104695  0.25250570  1
  Co  Co115  1  0.12742398  0.87423690  0.62516233  1
  Co  Co116  1  -0.00079734  -0.00163688  0.50191825  1
  Co  Co117  1  0.87334798  0.62366135  0.62321591  1
  Co  Co118  1  0.49992385  -0.00154002  0.25190629  1
  Co  Co119  1  0.75441427  0.50151476  0.75110156  1
  Co  Co120  1  0.24730547  0.00043216  0.25136561  1
  Co  Co121  1  0.24736660  0.00160851  0.74914662  1
  Co  Co122  1  0.62693378  0.12237839  0.87157595  1
  Co  Co123  1  0.12622959  0.62759214  0.12489573  1
  Co  Co124  1  0.24979898  0.24947574  0.50029475  1
  Co  Co125  1  0.25110607  -0.00141377  -0.00135812  1
  Co  Co126  1  0.75239107  0.75016918  0.74871225  1
  Co  Co127  1  0.49682606  0.49885098  0.74900893  1
