# generated using pymatgen
data_Fe45Co19
_symmetry_space_group_name_H-M   'P 1'
_cell_length_a   11.41459645
_cell_length_b   11.41569982
_cell_length_c   11.41662468
_cell_angle_alpha   90.00354064
_cell_angle_beta   90.01059972
_cell_angle_gamma   90.01259847
_symmetry_Int_Tables_number   1
_chemical_formula_structural   Fe45Co19
_chemical_formula_sum   'Fe90 Co38'
_cell_volume   1487.65013978
_cell_formula_units_Z   2
loop_
 _symmetry_equiv_pos_site_id
 _symmetry_equiv_pos_as_xyz
  1  'x, y, z'
loop_
 _atom_site_type_symbol
 _atom_site_label
 _atom_site_symmetry_multiplicity
 _atom_site_fract_x
 _atom_site_fract_y
 _atom_site_fract_z
 _atom_site_occupancy
  Fe  Fe0  1  0.49873338  0.25065102  0.74695133  1
  Fe  Fe1  1  0.75032090  0.74918376  0.24802564  1
  Fe  Fe2  1  0.75203152  0.00242932  -0.00297546  1
  Fe  Fe3  1  0.37440755  0.12014495  0.62132349  1
  Fe  Fe4  1  0.50371186  0.49634425  0.00224586  1
  Fe  Fe5  1  0.87182165  0.87752699  0.12432262  1
  Fe  Fe6  1  0.12263989  0.37628896  0.37550561  1
  Fe  Fe7  1  0.87679588  0.87381117  0.37594049  1
  Fe  Fe8  1  0.12557637  0.12495821  0.12457641  1
  Fe  Fe9  1  0.87707986  0.37530833  0.37428690  1
  Fe  Fe10  1  0.75308028  0.50274308  0.49761894  1
  Fe  Fe11  1  -0.00086626  0.00009608  0.00018307  1
  Fe  Fe12  1  -0.00227525  0.74835150  0.74999608  1
  Fe  Fe13  1  -0.00119417  0.50039373  0.74900790  1
  Fe  Fe14  1  0.37291031  0.37875850  0.62239438  1
  Fe  Fe15  1  -0.00122768  -0.00033857  0.24871949  1
  Fe  Fe16  1  0.25231546  0.50467338  0.75155376  1
  Fe  Fe17  1  0.37681461  0.62458798  0.37516865  1
  Fe  Fe18  1  0.12743976  0.37716694  0.62391766  1
  Fe  Fe19  1  0.37573325  0.62539576  0.12535394  1
  Fe  Fe20  1  0.12393646  0.12618057  0.87502462  1
  Fe  Fe21  1  0.12357848  0.62678473  0.12799171  1
  Fe  Fe22  1  0.50156786  0.75153823  0.24641269  1
  Fe  Fe23  1  0.49862024  -0.00188606  0.00349322  1
  Fe  Fe24  1  0.12175225  0.87362803  0.37474909  1
  Fe  Fe25  1  0.49952231  -0.00190259  0.74904354  1
  Fe  Fe26  1  -0.00082328  0.24883045  0.50347807  1
  Fe  Fe27  1  0.62615317  0.62731003  0.87708438  1
  Fe  Fe28  1  0.24931021  0.74930505  0.49983861  1
  Fe  Fe29  1  0.25147148  0.25018748  0.00052368  1
  Fe  Fe30  1  0.12814549  0.87375968  0.12685611  1
  Fe  Fe31  1  0.49718001  0.74896811  0.74806037  1
  Fe  Fe32  1  0.74995571  0.00102292  0.75231562  1
  Fe  Fe33  1  0.12434112  0.62302113  0.62294707  1
  Fe  Fe34  1  0.87569215  0.37597441  0.87393087  1
  Fe  Fe35  1  0.87250293  0.87427340  0.62642590  1
  Fe  Fe36  1  0.62281182  0.37475357  0.37378338  1
  Fe  Fe37  1  0.62524507  0.12455669  0.62261568  1
  Fe  Fe38  1  0.37419124  0.37553539  0.12761204  1
  Fe  Fe39  1  0.62375449  0.62570537  0.37365896  1
  Fe  Fe40  1  0.62685325  0.87425838  0.62548942  1
  Fe  Fe41  1  0.00131634  0.49755575  0.00310753  1
  Fe  Fe42  1  -0.00299746  0.75156162  0.00014386  1
  Fe  Fe43  1  0.50241756  0.75262724  0.00447621  1
  Fe  Fe44  1  0.62195029  0.12788116  0.87664281  1
  Fe  Fe45  1  0.49949409  0.49775658  0.49790865  1
  Fe  Fe46  1  0.13042124  0.87666464  0.62698311  1
  Fe  Fe47  1  0.75137355  0.00422806  0.25217733  1
  Fe  Fe48  1  0.87157292  0.37129886  0.12683774  1
  Fe  Fe49  1  0.25106378  0.25003503  0.49893638  1
  Fe  Fe50  1  0.11673626  0.62569391  0.37362865  1
  Fe  Fe51  1  0.62760036  0.12887498  0.12317452  1
  Fe  Fe52  1  0.24823220  0.50002471  0.00123704  1
  Fe  Fe53  1  0.62754456  0.87241957  0.87598521  1
  Fe  Fe54  1  0.24925542  0.24879414  0.25133695  1
  Fe  Fe55  1  0.87425153  0.62388821  0.12541569  1
  Fe  Fe56  1  0.00075629  0.24835293  0.74687627  1
  Fe  Fe57  1  -0.00075469  0.24920925  0.24858814  1
  Fe  Fe58  1  -0.00133312  0.25042674  0.00070923  1
  Fe  Fe59  1  0.37562635  0.37668103  0.87470165  1
  Fe  Fe60  1  -0.00005277  0.00313162  0.74677116  1
  Fe  Fe61  1  0.75228060  0.74715997  0.49931015  1
  Fe  Fe62  1  0.37592712  0.87503964  0.37361269  1
  Fe  Fe63  1  0.50023242  -0.00091698  0.24664874  1
  Fe  Fe64  1  0.62587235  0.37646016  0.62518594  1
  Fe  Fe65  1  0.62591714  0.87513068  0.37332077  1
  Fe  Fe66  1  0.37746656  0.12567507  0.87728537  1
  Fe  Fe67  1  0.49972862  0.75352687  0.50148070  1
  Fe  Fe68  1  0.12095651  0.12279365  0.37796630  1
  Fe  Fe69  1  0.24798324  0.50053880  0.25214088  1
  Fe  Fe70  1  0.49897994  0.50291047  0.75065581  1
  Fe  Fe71  1  0.25059487  0.00053577  0.25084238  1
  Fe  Fe72  1  0.74995859  0.24910991  0.75302744  1
  Fe  Fe73  1  0.74982268  0.24940319  0.49736668  1
  Fe  Fe74  1  0.50018606  0.25060776  0.24941572  1
  Fe  Fe75  1  0.12605710  0.87434351  0.87179001  1
  Fe  Fe76  1  0.87284172  0.37522204  0.62521546  1
  Fe  Fe77  1  0.37771381  0.12438018  0.37690174  1
  Fe  Fe78  1  0.74927176  0.50044970  0.25103836  1
  Fe  Fe79  1  0.37305026  0.87241054  0.87367177  1
  Fe  Fe80  1  0.25128223  0.24775110  0.74923697  1
  Fe  Fe81  1  0.62176066  0.12497538  0.37712519  1
  Fe  Fe82  1  0.25090054  0.00001296  -0.00047940  1
  Fe  Fe83  1  0.62475944  0.62513136  0.62357311  1
  Fe  Fe84  1  0.75085477  0.00116041  0.49816757  1
  Fe  Fe85  1  0.12299155  0.62450294  0.87562784  1
  Fe  Fe86  1  0.75040140  0.50354936  0.75091754  1
  Fe  Fe87  1  0.24885598  0.74912027  -0.00063695  1
  Fe  Fe88  1  0.74695764  0.49688390  0.00011986  1
  Fe  Fe89  1  0.12608209  0.37434197  0.87440212  1
  Co  Co90  1  0.75245602  0.75075059  0.00109326  1
  Co  Co91  1  0.87099915  0.12560853  0.62417111  1
  Co  Co92  1  0.37781883  0.62582267  0.88067883  1
  Co  Co93  1  0.50035485  0.50003387  0.25000369  1
  Co  Co94  1  0.62737693  0.37107672  0.12897906  1
  Co  Co95  1  0.87940043  0.62649881  0.37233984  1
  Co  Co96  1  0.62990047  0.87832569  0.12536216  1
  Co  Co97  1  0.37065473  0.87669846  0.62643213  1
  Co  Co98  1  -0.00109462  -0.00201058  0.50436310  1
  Co  Co99  1  0.25141616  0.00384282  0.75405351  1
  Co  Co100  1  0.88003653  0.12405062  0.37678406  1
  Co  Co101  1  0.87802362  0.12524143  0.87374095  1
  Co  Co102  1  -0.00005408  0.49702946  0.24678342  1
  Co  Co103  1  0.75015155  0.25177895  -0.00496519  1
  Co  Co104  1  0.37615936  0.62328688  0.61969564  1
  Co  Co105  1  0.62548107  0.62499947  0.12541704  1
  Co  Co106  1  0.50117106  -0.00411121  0.50069369  1
  Co  Co107  1  0.50004974  0.25436813  0.00100258  1
  Co  Co108  1  0.24980790  0.74763043  0.25305525  1
  Co  Co109  1  0.49981398  0.25254326  0.50233863  1
  Co  Co110  1  0.75017335  0.24779798  0.25577476  1
  Co  Co111  1  0.12899674  0.12316798  0.62219490  1
  Co  Co112  1  -0.00312728  0.49921653  0.50121690  1
  Co  Co113  1  0.37516482  0.37428536  0.37400008  1
  Co  Co114  1  0.24988967  -0.00199777  0.49503672  1
  Co  Co115  1  0.87509423  0.62334247  0.87767387  1
  Co  Co116  1  0.37466300  0.12586371  0.12517359  1
  Co  Co117  1  0.87521045  0.62496678  0.62486425  1
  Co  Co118  1  0.00005082  0.75174010  0.50381084  1
  Co  Co119  1  0.62337397  0.37468821  0.87119670  1
  Co  Co120  1  0.37087841  0.87367625  0.12645479  1
  Co  Co121  1  0.24780785  0.50182562  0.49465835  1
  Co  Co122  1  0.25222616  0.74350082  0.74948904  1
  Co  Co123  1  -0.00295378  0.75318626  0.24583743  1
  Co  Co124  1  0.87329827  0.12700432  0.12500243  1
  Co  Co125  1  0.12707327  0.37192646  0.12580356  1
  Co  Co126  1  0.75110597  0.74714481  0.75102517  1
  Co  Co127  1  0.87537645  0.87560221  0.87274320  1
