# generated using pymatgen
data_Fe45Co19
_symmetry_space_group_name_H-M   'P 1'
_cell_length_a   11.41544892
_cell_length_b   11.41421428
_cell_length_c   11.41542130
_cell_angle_alpha   90.00512845
_cell_angle_beta   89.99985107
_cell_angle_gamma   90.00621027
_symmetry_Int_Tables_number   1
_chemical_formula_structural   Fe45Co19
_chemical_formula_sum   'Fe90 Co38'
_cell_volume   1487.41088953
_cell_formula_units_Z   2
loop_
 _symmetry_equiv_pos_site_id
 _symmetry_equiv_pos_as_xyz
  1  'x, y, z'
loop_
 _atom_site_type_symbol
 _atom_site_label
 _atom_site_symmetry_multiplicity
 _atom_site_fract_x
 _atom_site_fract_y
 _atom_site_fract_z
 _atom_site_occupancy
  Fe  Fe0  1  0.75106447  0.74772638  0.75189758  1
  Fe  Fe1  1  0.62685111  0.37464516  0.87708826  1
  Fe  Fe2  1  0.12375987  0.12361659  0.12432855  1
  Fe  Fe3  1  0.49994950  0.25288748  0.00193945  1
  Fe  Fe4  1  0.12596445  0.37822305  0.37690956  1
  Fe  Fe5  1  0.62403662  0.37475246  0.62390377  1
  Fe  Fe6  1  0.62828639  0.87536367  0.12591534  1
  Fe  Fe7  1  0.87643421  0.12450332  0.12381975  1
  Fe  Fe8  1  0.00103702  0.75085686  0.25624597  1
  Fe  Fe9  1  0.62446361  0.12345156  0.87649843  1
  Fe  Fe10  1  0.62624840  0.87378131  0.87454291  1
  Fe  Fe11  1  0.12412352  0.12487199  0.87518654  1
  Fe  Fe12  1  0.37466265  0.12517363  0.12568407  1
  Fe  Fe13  1  0.25099525  -0.00341595  -0.00056995  1
  Fe  Fe14  1  0.25440525  -0.00248090  0.49732903  1
  Fe  Fe15  1  0.62809288  0.87580920  0.37444617  1
  Fe  Fe16  1  0.37673738  0.63282305  0.87696536  1
  Fe  Fe17  1  0.49765313  0.49928137  0.50137187  1
  Fe  Fe18  1  0.49687687  -0.00532610  -0.00106094  1
  Fe  Fe19  1  0.12815521  0.87678232  0.62510889  1
  Fe  Fe20  1  0.12611158  0.37578632  0.12282841  1
  Fe  Fe21  1  0.87820656  0.62727569  0.12373263  1
  Fe  Fe22  1  0.37503436  0.62565127  0.37476928  1
  Fe  Fe23  1  0.25119277  0.50425878  0.74914742  1
  Fe  Fe24  1  0.12735780  0.87504828  0.87170039  1
  Fe  Fe25  1  0.24805743  0.75016425  0.49836839  1
  Fe  Fe26  1  0.00127417  0.74859177  0.74818796  1
  Fe  Fe27  1  0.87456173  0.12438067  0.62495056  1
  Fe  Fe28  1  0.62485275  0.62526960  0.12283836  1
  Fe  Fe29  1  0.49797857  -0.00468072  0.75007767  1
  Fe  Fe30  1  0.49851726  0.00033552  0.25173457  1
  Fe  Fe31  1  0.62413214  0.12475408  0.62279120  1
  Fe  Fe32  1  0.37598576  0.12436775  0.87546636  1
  Fe  Fe33  1  -0.00033322  0.25451889  -0.00339052  1
  Fe  Fe34  1  0.12247349  0.62362583  0.62078876  1
  Fe  Fe35  1  0.74917781  0.24867474  0.74883602  1
  Fe  Fe36  1  0.49995672  0.49979299  0.24787133  1
  Fe  Fe37  1  0.24968579  0.24955147  0.00030049  1
  Fe  Fe38  1  0.62385369  0.62793230  0.87771719  1
  Fe  Fe39  1  0.12378489  0.87538284  0.12752688  1
  Fe  Fe40  1  0.12248023  0.62437689  0.87881096  1
  Fe  Fe41  1  0.37246723  0.37513251  0.87393762  1
  Fe  Fe42  1  -0.00115022  -0.00041808  0.25187309  1
  Fe  Fe43  1  0.00001831  0.24943239  0.50001319  1
  Fe  Fe44  1  0.00122720  0.24951375  0.25178490  1
  Fe  Fe45  1  0.62556687  0.12548964  0.37802842  1
  Fe  Fe46  1  0.62492690  0.12327523  0.12297582  1
  Fe  Fe47  1  -0.00117348  -0.00311540  -0.00103645  1
  Fe  Fe48  1  0.62470544  0.37447564  0.37686123  1
  Fe  Fe49  1  0.49945058  0.50219143  0.75031999  1
  Fe  Fe50  1  0.24800500  0.24898273  0.24972397  1
  Fe  Fe51  1  0.50071776  0.25108474  0.24841398  1
  Fe  Fe52  1  0.75097816  0.74808970  0.25136153  1
  Fe  Fe53  1  0.87523507  0.12541363  0.87314504  1
  Fe  Fe54  1  0.49741249  0.49959316  0.00230374  1
  Fe  Fe55  1  0.49742925  -0.00291454  0.49849900  1
  Fe  Fe56  1  -0.00184755  0.50190991  0.49964887  1
  Fe  Fe57  1  0.87305861  0.37383781  0.12477305  1
  Fe  Fe58  1  0.24582077  0.74741441  0.25016393  1
  Fe  Fe59  1  0.00191286  0.50041847  0.24875445  1
  Fe  Fe60  1  0.87401797  0.87449269  0.62636765  1
  Fe  Fe61  1  0.24842176  0.50396284  0.24764959  1
  Fe  Fe62  1  0.37438663  0.37511179  0.37420566  1
  Fe  Fe63  1  0.00188755  0.00169517  0.74839302  1
  Fe  Fe64  1  0.75001544  0.50256649  0.75135222  1
  Fe  Fe65  1  0.25122491  0.25139028  0.50131605  1
  Fe  Fe66  1  0.62724604  0.87419342  0.62558314  1
  Fe  Fe67  1  -0.00198100  0.75355841  -0.00166781  1
  Fe  Fe68  1  0.74861778  0.24859696  0.24931613  1
  Fe  Fe69  1  0.87540475  0.37515194  0.62700410  1
  Fe  Fe70  1  0.75368907  0.74757009  0.49793155  1
  Fe  Fe71  1  0.87472010  0.37573176  0.37422681  1
  Fe  Fe72  1  -0.00102044  -0.00281693  0.49916517  1
  Fe  Fe73  1  0.50253490  0.74892856  0.25009918  1
  Fe  Fe74  1  0.49960794  0.75245207  0.49976947  1
  Fe  Fe75  1  0.75308126  0.50171539  -0.00092683  1
  Fe  Fe76  1  0.24718226  0.24785935  0.74811543  1
  Fe  Fe77  1  0.62529726  0.62552093  0.62349858  1
  Fe  Fe78  1  -0.00117107  0.49842565  0.75416748  1
  Fe  Fe79  1  0.50022807  0.25079394  0.74959537  1
  Fe  Fe80  1  0.12732751  0.12140753  0.37610830  1
  Fe  Fe81  1  0.74951756  0.50216739  0.25122914  1
  Fe  Fe82  1  0.25085635  0.50443532  0.00301704  1
  Fe  Fe83  1  0.37629834  0.62892869  0.62504921  1
  Fe  Fe84  1  0.37360875  0.87161335  0.12674424  1
  Fe  Fe85  1  0.87194187  0.12262487  0.37652357  1
  Fe  Fe86  1  0.12488125  0.37648227  0.62574182  1
  Fe  Fe87  1  0.37567867  0.12380363  0.62467030  1
  Fe  Fe88  1  0.75128615  0.50148376  0.49909460  1
  Fe  Fe89  1  0.75375123  -0.00303522  -0.00046491  1
  Co  Co90  1  0.24584420  0.74543137  0.74906035  1
  Co  Co91  1  0.00268017  0.24944510  0.74941875  1
  Co  Co92  1  0.75181277  0.25117424  0.50077701  1
  Co  Co93  1  0.87596769  0.87375557  0.12881911  1
  Co  Co94  1  0.87766088  0.62652812  0.87601307  1
  Co  Co95  1  0.62723219  0.37685014  0.12340674  1
  Co  Co96  1  0.87167585  0.87679254  0.37485547  1
  Co  Co97  1  0.37495745  0.37479134  0.62878358  1
  Co  Co98  1  0.25090085  -0.00008835  0.24773652  1
  Co  Co99  1  0.87636825  0.87537912  0.86945196  1
  Co  Co100  1  0.25323209  0.50025543  0.50235764  1
  Co  Co101  1  0.12641368  0.12206574  0.62118031  1
  Co  Co102  1  0.87622328  0.62459330  0.62588366  1
  Co  Co103  1  0.74870284  -0.00064636  0.50174192  1
  Co  Co104  1  0.50291043  0.75103352  0.74847091  1
  Co  Co105  1  -0.00012545  0.75284011  0.49901803  1
  Co  Co106  1  0.37712707  0.62944888  0.12566139  1
  Co  Co107  1  0.12416820  0.62219386  0.37872291  1
  Co  Co108  1  0.25145979  0.00279122  0.75236618  1
  Co  Co109  1  0.37260690  0.37418202  0.12580745  1
  Co  Co110  1  0.75027001  0.00229640  0.24863336  1
  Co  Co111  1  0.37134329  0.87302018  0.62854983  1
  Co  Co112  1  0.87799534  0.62410256  0.37480205  1
  Co  Co113  1  0.37196374  0.86942296  0.87160338  1
  Co  Co114  1  0.50193770  0.75358278  0.00177848  1
  Co  Co115  1  0.74853277  0.00085724  0.75025999  1
  Co  Co116  1  0.24676704  0.75053249  0.00163585  1
  Co  Co117  1  0.75226897  0.75249460  -0.00075099  1
  Co  Co118  1  0.11890397  0.62659211  0.12259446  1
  Co  Co119  1  0.37408707  0.12671669  0.37357225  1
  Co  Co120  1  -0.00203117  0.49512858  -0.00130779  1
  Co  Co121  1  0.74983795  0.24717386  0.00072707  1
  Co  Co122  1  0.49722971  0.25059562  0.50082642  1
  Co  Co123  1  0.37464474  0.87191325  0.37103278  1
  Co  Co124  1  0.87115490  0.37283563  0.87319092  1
  Co  Co125  1  0.62294527  0.62430113  0.37675653  1
  Co  Co126  1  0.13016914  0.37679876  0.87455200  1
  Co  Co127  1  0.12672029  0.87781302  0.37498495  1
