# generated using pymatgen
data_Fe45Co19
_symmetry_space_group_name_H-M   'P 1'
_cell_length_a   11.41573980
_cell_length_b   11.41613835
_cell_length_c   11.41635978
_cell_angle_alpha   90.00302479
_cell_angle_beta   90.00124959
_cell_angle_gamma   90.00376868
_symmetry_Int_Tables_number   1
_chemical_formula_structural   Fe45Co19
_chemical_formula_sum   'Fe90 Co38'
_cell_volume   1487.82183991
_cell_formula_units_Z   2
loop_
 _symmetry_equiv_pos_site_id
 _symmetry_equiv_pos_as_xyz
  1  'x, y, z'
loop_
 _atom_site_type_symbol
 _atom_site_label
 _atom_site_symmetry_multiplicity
 _atom_site_fract_x
 _atom_site_fract_y
 _atom_site_fract_z
 _atom_site_occupancy
  Fe  Fe0  1  0.24877794  0.74968515  0.74557619  1
  Fe  Fe1  1  0.62423087  0.12399041  0.62108282  1
  Fe  Fe2  1  0.37191265  0.87108682  0.37511356  1
  Fe  Fe3  1  0.12916728  0.87056586  0.37782837  1
  Fe  Fe4  1  0.24808374  0.50456782  0.25004883  1
  Fe  Fe5  1  0.49911473  0.75150205  0.74946731  1
  Fe  Fe6  1  0.75145696  0.00050546  0.25173340  1
  Fe  Fe7  1  0.12449834  0.37844091  0.12478578  1
  Fe  Fe8  1  0.75405788  0.49753270  -0.00004842  1
  Fe  Fe9  1  0.50004348  0.74825503  0.24893730  1
  Fe  Fe10  1  0.74964815  0.74916580  0.50062033  1
  Fe  Fe11  1  0.00397903  0.49901837  0.49884006  1
  Fe  Fe12  1  0.12433860  0.12370751  0.87851314  1
  Fe  Fe13  1  0.49926122  0.50006940  -0.00211561  1
  Fe  Fe14  1  0.00076641  0.24847396  0.74843952  1
  Fe  Fe15  1  0.87864190  0.12270973  0.12381660  1
  Fe  Fe16  1  -0.00218413  0.50020905  0.75257109  1
  Fe  Fe17  1  0.12544193  0.87514109  0.12522400  1
  Fe  Fe18  1  0.12429893  0.37368331  0.87382141  1
  Fe  Fe19  1  0.87288255  0.87540443  0.87496501  1
  Fe  Fe20  1  0.49879742  0.75035808  -0.00080133  1
  Fe  Fe21  1  0.75013359  0.00051935  0.74960246  1
  Fe  Fe22  1  0.00393098  0.50244428  0.25282433  1
  Fe  Fe23  1  0.37546699  0.87482453  0.12455916  1
  Fe  Fe24  1  0.87484172  0.37634780  0.62465645  1
  Fe  Fe25  1  0.62382817  0.12482922  0.12378554  1
  Fe  Fe26  1  0.74984579  0.50097432  0.25099086  1
  Fe  Fe27  1  -0.00082495  0.75291527  0.00096689  1
  Fe  Fe28  1  0.12298200  0.12254007  0.12337496  1
  Fe  Fe29  1  0.62859870  0.62551562  0.87293738  1
  Fe  Fe30  1  0.49468184  0.00308810  0.49655351  1
  Fe  Fe31  1  0.49771114  -0.00018623  0.75229991  1
  Fe  Fe32  1  0.87626608  0.37421427  0.37456125  1
  Fe  Fe33  1  0.62600289  0.12673750  0.37728054  1
  Fe  Fe34  1  0.24851072  0.50094559  0.74915745  1
  Fe  Fe35  1  0.00226602  0.74990528  0.50182366  1
  Fe  Fe36  1  0.49934483  0.25198443  0.25067236  1
  Fe  Fe37  1  0.62743793  0.37398794  0.87618876  1
  Fe  Fe38  1  0.37121409  0.87879750  0.62453141  1
  Fe  Fe39  1  0.62625114  0.62346852  0.62597912  1
  Fe  Fe40  1  0.75303715  0.25242926  0.00342416  1
  Fe  Fe41  1  0.12592405  0.12026980  0.62432314  1
  Fe  Fe42  1  0.50013592  0.25020646  0.74849443  1
  Fe  Fe43  1  0.12870356  0.87636483  0.87493165  1
  Fe  Fe44  1  0.37229807  0.37426253  0.62374511  1
  Fe  Fe45  1  0.37452763  0.37784463  0.12410502  1
  Fe  Fe46  1  0.36772353  0.37195671  0.37675326  1
  Fe  Fe47  1  0.62724656  0.37580178  0.62160950  1
  Fe  Fe48  1  0.24911368  0.24737428  0.74801216  1
  Fe  Fe49  1  0.62273654  0.62567503  0.37617207  1
  Fe  Fe50  1  0.37422730  0.62562230  0.87356694  1
  Fe  Fe51  1  0.62498129  0.87774339  0.62304176  1
  Fe  Fe52  1  0.00180363  0.25100910  0.24911144  1
  Fe  Fe53  1  0.75149974  0.25053504  0.24939701  1
  Fe  Fe54  1  0.87395101  0.87178994  0.37267968  1
  Fe  Fe55  1  0.49622381  0.74849691  0.50215927  1
  Fe  Fe56  1  0.49698159  0.49925990  0.49903329  1
  Fe  Fe57  1  0.87675340  0.12655538  0.87774413  1
  Fe  Fe58  1  -0.00293400  0.49774359  -0.00294070  1
  Fe  Fe59  1  0.49883999  0.25109252  0.00047788  1
  Fe  Fe60  1  0.62524594  0.12503194  0.87722933  1
  Fe  Fe61  1  0.87604060  0.87703903  0.62435121  1
  Fe  Fe62  1  0.37620239  0.12380545  0.12513945  1
  Fe  Fe63  1  0.37394809  0.12285622  0.87628383  1
  Fe  Fe64  1  0.62395742  0.62269349  0.12513028  1
  Fe  Fe65  1  0.87763974  0.62756544  0.12735997  1
  Fe  Fe66  1  0.87515425  0.12261242  0.62147664  1
  Fe  Fe67  1  0.00089964  -0.00077202  0.49580259  1
  Fe  Fe68  1  0.50161719  0.49848176  0.75040699  1
  Fe  Fe69  1  0.49862076  0.00070189  0.25202990  1
  Fe  Fe70  1  0.24837681  0.25093055  0.00233823  1
  Fe  Fe71  1  0.24844624  0.74401190  0.24729800  1
  Fe  Fe72  1  0.12773051  0.12803675  0.37318236  1
  Fe  Fe73  1  0.00077750  0.75152467  0.74976889  1
  Fe  Fe74  1  0.25098516  0.74735350  0.00170219  1
  Fe  Fe75  1  0.62588203  0.87606300  0.87599916  1
  Fe  Fe76  1  0.87390995  0.62448776  0.62740498  1
  Fe  Fe77  1  0.75139231  0.75098328  0.00201440  1
  Fe  Fe78  1  0.00121579  -0.00123435  0.75239001  1
  Fe  Fe79  1  0.25100023  0.00086726  0.25062291  1
  Fe  Fe80  1  0.62473207  0.87455190  0.37609854  1
  Fe  Fe81  1  0.49824126  0.49916129  0.25191535  1
  Fe  Fe82  1  0.00005891  -0.00290713  0.25172600  1
  Fe  Fe83  1  0.62702892  0.37381064  0.37665807  1
  Fe  Fe84  1  0.87652422  0.62790137  0.37376608  1
  Fe  Fe85  1  0.00298055  0.25157316  0.49984016  1
  Fe  Fe86  1  0.75011748  0.25001137  0.74714352  1
  Fe  Fe87  1  0.37349370  0.37501168  0.87439916  1
  Fe  Fe88  1  0.62603000  0.87708861  0.12495373  1
  Fe  Fe89  1  0.12421221  0.62499264  0.87599873  1
  Co  Co90  1  0.24667871  0.24824633  0.50455327  1
  Co  Co91  1  0.24961203  0.00117183  0.75086613  1
  Co  Co92  1  0.87766403  0.37667576  0.12985881  1
  Co  Co93  1  0.37133643  0.13086362  0.37291531  1
  Co  Co94  1  0.87407195  0.87446153  0.12879065  1
  Co  Co95  1  0.25144801  0.00316331  0.49617293  1
  Co  Co96  1  0.87340310  0.62849244  0.87445195  1
  Co  Co97  1  0.62393064  0.37622079  0.12498216  1
  Co  Co98  1  0.49853307  -0.00161282  -0.00062701  1
  Co  Co99  1  0.37179271  0.87381512  0.87518904  1
  Co  Co100  1  0.12545103  0.87846072  0.62290612  1
  Co  Co101  1  0.24988978  0.49979198  -0.00134241  1
  Co  Co102  1  0.12454504  0.37631964  0.62785905  1
  Co  Co103  1  0.74949330  0.75293137  0.74732101  1
  Co  Co104  1  0.12146445  0.62344257  0.62674368  1
  Co  Co105  1  0.25049204  -0.00011244  0.00191766  1
  Co  Co106  1  0.12889534  0.37282796  0.37367329  1
  Co  Co107  1  0.75173385  -0.00104120  0.49754717  1
  Co  Co108  1  0.00495692  0.75064599  0.24949056  1
  Co  Co109  1  0.00166075  0.25384205  0.00200387  1
  Co  Co110  1  0.12124007  0.62324034  0.12074380  1
  Co  Co111  1  0.75117985  0.49807059  0.75162921  1
  Co  Co112  1  0.49816943  0.25066158  0.49915331  1
  Co  Co113  1  0.24852176  0.24997778  0.24288769  1
  Co  Co114  1  0.25083617  0.74562026  0.50611785  1
  Co  Co115  1  0.75261811  0.25047882  0.50019825  1
  Co  Co116  1  0.75162768  0.00026483  0.00031242  1
  Co  Co117  1  0.37735436  0.62302453  0.12416511  1
  Co  Co118  1  0.24716150  0.50174119  0.50093253  1
  Co  Co119  1  0.87667511  0.12733376  0.37477843  1
  Co  Co120  1  0.75154654  0.50212712  0.49752658  1
  Co  Co121  1  0.00019869  -0.00483669  -0.00047712  1
  Co  Co122  1  0.12648879  0.62862579  0.37819824  1
  Co  Co123  1  0.74640435  0.74855520  0.25087994  1
  Co  Co124  1  0.37609896  0.62159625  0.62694815  1
  Co  Co125  1  0.37570273  0.12441919  0.62562223  1
  Co  Co126  1  0.87541825  0.36982551  0.87218918  1
  Co  Co127  1  0.37376265  0.62647233  0.37548375  1
