# generated using pymatgen
data_Fe45Co19
_symmetry_space_group_name_H-M   'P 1'
_cell_length_a   11.41439149
_cell_length_b   11.41662379
_cell_length_c   11.41534880
_cell_angle_alpha   89.99671238
_cell_angle_beta   90.00499817
_cell_angle_gamma   90.00773075
_symmetry_Int_Tables_number   1
_chemical_formula_structural   Fe45Co19
_chemical_formula_sum   'Fe90 Co38'
_cell_volume   1487.57761308
_cell_formula_units_Z   2
loop_
 _symmetry_equiv_pos_site_id
 _symmetry_equiv_pos_as_xyz
  1  'x, y, z'
loop_
 _atom_site_type_symbol
 _atom_site_label
 _atom_site_symmetry_multiplicity
 _atom_site_fract_x
 _atom_site_fract_y
 _atom_site_fract_z
 _atom_site_occupancy
  Fe  Fe0  1  0.49895238  0.24988330  -0.00032783  1
  Fe  Fe1  1  0.87569470  0.87529321  0.37733756  1
  Fe  Fe2  1  0.62097697  0.62717716  0.87001604  1
  Fe  Fe3  1  0.49801374  0.49694272  -0.00249537  1
  Fe  Fe4  1  0.24711056  0.00040379  -0.00001302  1
  Fe  Fe5  1  0.00275830  -0.00163710  0.50036426  1
  Fe  Fe6  1  -0.00132846  0.25133251  0.49853184  1
  Fe  Fe7  1  0.75289203  0.24858798  0.25178315  1
  Fe  Fe8  1  0.75016502  0.75093186  0.50103550  1
  Fe  Fe9  1  0.25267204  0.74932352  0.00003743  1
  Fe  Fe10  1  0.75027817  0.24884052  0.50039170  1
  Fe  Fe11  1  0.62308987  0.87296075  0.62859210  1
  Fe  Fe12  1  0.62199247  0.62791820  0.37610037  1
  Fe  Fe13  1  0.37468730  0.12447104  0.12481278  1
  Fe  Fe14  1  0.37573829  0.62276473  0.12518191  1
  Fe  Fe15  1  0.25152905  0.49850576  -0.00184913  1
  Fe  Fe16  1  0.74881121  0.50232630  -0.00232653  1
  Fe  Fe17  1  0.37515232  0.87717454  0.12479620  1
  Fe  Fe18  1  0.75047733  0.00014960  0.24830800  1
  Fe  Fe19  1  0.75313097  0.24727032  -0.00118720  1
  Fe  Fe20  1  0.37486131  0.11477579  0.62412738  1
  Fe  Fe21  1  0.62318160  0.87332925  0.37359519  1
  Fe  Fe22  1  0.62263565  0.37332849  0.37826985  1
  Fe  Fe23  1  0.37600727  0.37524041  0.62528237  1
  Fe  Fe24  1  0.62449743  0.12648956  0.12710985  1
  Fe  Fe25  1  0.62365460  0.37312648  0.87155519  1
  Fe  Fe26  1  0.12561455  0.62671627  0.37527973  1
  Fe  Fe27  1  0.87122342  0.87587725  0.11858117  1
  Fe  Fe28  1  0.49799939  0.25275099  0.25035078  1
  Fe  Fe29  1  0.74729689  -0.00224300  0.50177547  1
  Fe  Fe30  1  0.12948912  0.62703057  0.62587637  1
  Fe  Fe31  1  0.12643392  0.37328950  0.87340024  1
  Fe  Fe32  1  0.62478622  0.12554728  0.37550753  1
  Fe  Fe33  1  0.25023861  0.25106179  0.00033533  1
  Fe  Fe34  1  0.74788625  0.50158540  0.25300570  1
  Fe  Fe35  1  -0.00219975  0.74884409  -0.00239447  1
  Fe  Fe36  1  0.12689206  0.87307603  0.87557000  1
  Fe  Fe37  1  0.50114553  -0.00130634  0.25012626  1
  Fe  Fe38  1  0.74684694  0.50082346  0.74751233  1
  Fe  Fe39  1  0.87664769  0.12260635  0.62384120  1
  Fe  Fe40  1  0.00203571  0.74852089  0.50088888  1
  Fe  Fe41  1  -0.00406283  0.25091352  0.25322014  1
  Fe  Fe42  1  -0.00014099  -0.00309429  0.75018626  1
  Fe  Fe43  1  0.74750228  0.50285190  0.50068323  1
  Fe  Fe44  1  0.74999532  0.74977562  0.24855336  1
  Fe  Fe45  1  0.37460149  0.12282848  0.87428441  1
  Fe  Fe46  1  0.50324527  0.00010590  -0.00050658  1
  Fe  Fe47  1  0.25339765  0.49768617  0.25317636  1
  Fe  Fe48  1  0.12488011  0.37417487  0.12689310  1
  Fe  Fe49  1  0.25306818  0.25220851  0.25315910  1
  Fe  Fe50  1  0.13043551  0.87490938  0.62352329  1
  Fe  Fe51  1  0.12122151  0.12668253  0.87562096  1
  Fe  Fe52  1  -0.00177149  -0.00058454  0.24853505  1
  Fe  Fe53  1  0.62536962  0.37396471  0.12438219  1
  Fe  Fe54  1  0.12713414  0.62681810  0.87322897  1
  Fe  Fe55  1  0.12304767  0.12585156  0.37488726  1
  Fe  Fe56  1  0.87441195  0.37705965  0.87383226  1
  Fe  Fe57  1  0.25837774  0.75331770  0.74949137  1
  Fe  Fe58  1  0.00144821  0.50035273  -0.00152199  1
  Fe  Fe59  1  0.24978252  0.50041556  0.49817203  1
  Fe  Fe60  1  0.49343135  0.75198010  0.50496755  1
  Fe  Fe61  1  0.49796132  0.75036943  0.24889368  1
  Fe  Fe62  1  0.00153053  0.50118665  0.74841355  1
  Fe  Fe63  1  0.62286383  0.62494992  0.12436346  1
  Fe  Fe64  1  0.12504189  0.37476649  0.62295261  1
  Fe  Fe65  1  -0.00133062  0.25057370  0.74944901  1
  Fe  Fe66  1  0.49896434  0.24846176  0.74676863  1
  Fe  Fe67  1  -0.00263053  0.75011511  0.24952605  1
  Fe  Fe68  1  0.12263803  0.12725447  0.12541120  1
  Fe  Fe69  1  0.87398520  0.37538541  0.12550785  1
  Fe  Fe70  1  0.87399933  0.62393941  0.12403558  1
  Fe  Fe71  1  0.75398334  0.75137106  0.75111885  1
  Fe  Fe72  1  0.62741263  0.12459181  0.87159347  1
  Fe  Fe73  1  0.24983623  0.24593827  0.74685581  1
  Fe  Fe74  1  0.24889481  -0.00138767  0.25290908  1
  Fe  Fe75  1  0.49959620  0.75281861  -0.00133518  1
  Fe  Fe76  1  0.25312235  0.75123150  0.25415904  1
  Fe  Fe77  1  0.87482991  0.62539250  0.62431429  1
  Fe  Fe78  1  -0.00151356  0.49969536  0.25470580  1
  Fe  Fe79  1  0.37782498  0.12246560  0.37753829  1
  Fe  Fe80  1  0.12607298  0.62475004  0.12651830  1
  Fe  Fe81  1  0.50283226  0.50198070  0.50522901  1
  Fe  Fe82  1  0.62457759  0.12435952  0.62602927  1
  Fe  Fe83  1  0.62828075  0.87531315  0.87427281  1
  Fe  Fe84  1  0.25297698  0.49950056  0.75222665  1
  Fe  Fe85  1  0.12556009  0.87308065  0.12608583  1
  Fe  Fe86  1  0.87473177  0.37775155  0.62220838  1
  Fe  Fe87  1  0.75311236  0.24847083  0.74858193  1
  Fe  Fe88  1  -0.00259201  0.75188371  0.75102724  1
  Fe  Fe89  1  0.25154704  0.24731078  0.50038534  1
  Co  Co90  1  0.37489850  0.37498938  0.12452325  1
  Co  Co91  1  0.50149155  0.49791143  0.24965818  1
  Co  Co92  1  0.37159936  0.88555511  0.62355320  1
  Co  Co93  1  0.87241039  0.37687110  0.37796240  1
  Co  Co94  1  0.87773822  0.12528322  0.12230915  1
  Co  Co95  1  0.50275299  -0.00181340  0.75209330  1
  Co  Co96  1  0.87387658  0.62767267  0.37673968  1
  Co  Co97  1  0.12228970  0.12431244  0.62366897  1
  Co  Co98  1  0.50081460  0.49911326  0.74722812  1
  Co  Co99  1  0.49861103  0.24655492  0.50400212  1
  Co  Co100  1  0.87432828  0.12061210  0.37831373  1
  Co  Co101  1  0.74574067  0.00562504  0.00242104  1
  Co  Co102  1  0.00147974  0.50341072  0.49955391  1
  Co  Co103  1  0.62486317  0.63128429  0.62817200  1
  Co  Co104  1  0.25394501  0.75186860  0.49762060  1
  Co  Co105  1  0.87561585  0.62350505  0.87231926  1
  Co  Co106  1  0.74884020  0.74545486  -0.00162899  1
  Co  Co107  1  0.37751123  0.87849303  0.37669744  1
  Co  Co108  1  0.12147300  0.87318066  0.37399967  1
  Co  Co109  1  0.87612089  0.87453703  0.62207657  1
  Co  Co110  1  0.62565136  0.37194498  0.62488946  1
  Co  Co111  1  0.37744509  0.62465600  0.87524979  1
  Co  Co112  1  0.12542375  0.37361028  0.37731669  1
  Co  Co113  1  0.87044183  0.87935370  0.87919140  1
  Co  Co114  1  -0.00130205  0.25344210  -0.00142756  1
  Co  Co115  1  0.37943342  0.37582241  0.37947643  1
  Co  Co116  1  0.00402209  -0.00271333  0.00008448  1
  Co  Co117  1  0.37839218  0.62322908  0.37622629  1
  Co  Co118  1  0.50602682  -0.00154430  0.49970801  1
  Co  Co119  1  0.87668203  0.12042198  0.87485721  1
  Co  Co120  1  0.24478298  0.00187786  0.75327638  1
  Co  Co121  1  0.75124682  -0.00041735  0.74546107  1
  Co  Co122  1  0.37534411  0.37151995  0.87174831  1
  Co  Co123  1  0.49248361  0.75394371  0.74822898  1
  Co  Co124  1  0.37424536  0.88012837  0.87618184  1
  Co  Co125  1  0.62588982  0.87446315  0.12456485  1
  Co  Co126  1  0.24533535  -0.00027515  0.49470107  1
  Co  Co127  1  0.37260058  0.62328479  0.62578139  1
