# generated using pymatgen
data_Fe45Co19
_symmetry_space_group_name_H-M   'P 1'
_cell_length_a   11.41624547
_cell_length_b   11.41521080
_cell_length_c   11.41619746
_cell_angle_alpha   89.99472945
_cell_angle_beta   90.00447723
_cell_angle_gamma   90.00344647
_symmetry_Int_Tables_number   1
_chemical_formula_structural   Fe45Co19
_chemical_formula_sum   'Fe90 Co38'
_cell_volume   1487.74569537
_cell_formula_units_Z   2
loop_
 _symmetry_equiv_pos_site_id
 _symmetry_equiv_pos_as_xyz
  1  'x, y, z'
loop_
 _atom_site_type_symbol
 _atom_site_label
 _atom_site_symmetry_multiplicity
 _atom_site_fract_x
 _atom_site_fract_y
 _atom_site_fract_z
 _atom_site_occupancy
  Fe  Fe0  1  -0.00023888  0.49892656  0.50138506  1
  Fe  Fe1  1  0.62488015  0.37234921  0.12434708  1
  Fe  Fe2  1  0.87438068  0.12445038  0.12399409  1
  Fe  Fe3  1  0.25240858  0.75261561  0.00022438  1
  Fe  Fe4  1  0.62394696  0.87522599  0.12493173  1
  Fe  Fe5  1  0.74741069  0.50121557  0.24717525  1
  Fe  Fe6  1  0.62336768  0.12699785  0.37866653  1
  Fe  Fe7  1  0.75026751  0.00088585  0.24876564  1
  Fe  Fe8  1  0.12500128  0.12606347  0.87645800  1
  Fe  Fe9  1  0.75034868  0.50069659  0.50259661  1
  Fe  Fe10  1  0.25028941  0.49660852  0.25124374  1
  Fe  Fe11  1  0.50221297  0.49974852  0.24897102  1
  Fe  Fe12  1  0.50174344  0.49706808  0.50216420  1
  Fe  Fe13  1  -0.00451894  0.74852838  0.49730383  1
  Fe  Fe14  1  0.12365813  0.62270779  0.37577368  1
  Fe  Fe15  1  0.50118273  0.49897445  0.00155169  1
  Fe  Fe16  1  -0.00192228  0.25073517  0.50184429  1
  Fe  Fe17  1  0.49968773  0.00097934  0.74800924  1
  Fe  Fe18  1  0.00221383  0.50398424  0.75011335  1
  Fe  Fe19  1  0.37602258  0.37288768  0.87432347  1
  Fe  Fe20  1  0.37678632  0.12633621  0.87561967  1
  Fe  Fe21  1  0.50239647  0.24924513  0.74612248  1
  Fe  Fe22  1  0.37628277  0.87531381  0.37211780  1
  Fe  Fe23  1  0.25119586  0.49841306  0.00019456  1
  Fe  Fe24  1  0.00020833  0.74627817  0.75230010  1
  Fe  Fe25  1  0.25015535  0.75021998  0.49888656  1
  Fe  Fe26  1  0.62503672  0.87419566  0.62454804  1
  Fe  Fe27  1  -0.00135085  0.00120076  0.50095013  1
  Fe  Fe28  1  0.50244249  0.50122596  0.74796476  1
  Fe  Fe29  1  0.87274245  0.62409586  0.12267862  1
  Fe  Fe30  1  0.87350341  0.37609271  0.87393842  1
  Fe  Fe31  1  0.74887334  0.74710966  0.74922893  1
  Fe  Fe32  1  0.37674198  0.62294528  0.37463417  1
  Fe  Fe33  1  -0.00245214  0.75058926  -0.00297835  1
  Fe  Fe34  1  -0.00355884  0.74995812  0.25251786  1
  Fe  Fe35  1  0.12547049  0.12685438  0.12338717  1
  Fe  Fe36  1  0.24812988  0.74827847  0.74960636  1
  Fe  Fe37  1  0.24969558  0.00315677  0.74760705  1
  Fe  Fe38  1  0.49852646  0.25187106  0.25119793  1
  Fe  Fe39  1  0.75023701  0.00116471  0.50144061  1
  Fe  Fe40  1  0.75006914  0.00254735  0.74907355  1
  Fe  Fe41  1  0.00035503  0.49958762  -0.00089221  1
  Fe  Fe42  1  0.74819143  0.50335261  0.74960535  1
  Fe  Fe43  1  0.12716775  0.37124191  0.12509917  1
  Fe  Fe44  1  0.62500251  0.87769782  0.87515733  1
  Fe  Fe45  1  0.37370345  0.37371841  0.62606782  1
  Fe  Fe46  1  0.24764415  0.49790769  0.50034641  1
  Fe  Fe47  1  0.62659762  0.37229464  0.37669099  1
  Fe  Fe48  1  0.50050383  0.75155472  0.49971015  1
  Fe  Fe49  1  0.87364582  0.12486130  0.37442727  1
  Fe  Fe50  1  0.37664446  0.12780157  0.12297058  1
  Fe  Fe51  1  -0.00288947  -0.00232251  -0.00009230  1
  Fe  Fe52  1  0.87431978  0.12371726  0.87510275  1
  Fe  Fe53  1  0.37535282  0.62572723  0.87403186  1
  Fe  Fe54  1  0.12462889  0.62599276  0.12394055  1
  Fe  Fe55  1  0.24955609  0.74922370  0.25114429  1
  Fe  Fe56  1  0.12576608  0.37320343  0.87404272  1
  Fe  Fe57  1  0.00062843  0.00107980  0.74865331  1
  Fe  Fe58  1  0.75036613  0.25004838  -0.00153410  1
  Fe  Fe59  1  0.75306358  0.75335255  -0.00150362  1
  Fe  Fe60  1  0.12282361  0.87733230  0.37367464  1
  Fe  Fe61  1  0.87240693  0.37342880  0.62814233  1
  Fe  Fe62  1  0.87294591  0.37482659  0.37310162  1
  Fe  Fe63  1  0.24889014  0.25277039  0.50141795  1
  Fe  Fe64  1  0.49991055  -0.00011243  0.25079587  1
  Fe  Fe65  1  0.12340509  0.87385976  0.62404207  1
  Fe  Fe66  1  0.25348932  -0.00151035  0.00028954  1
  Fe  Fe67  1  0.12341592  0.87595741  0.12662703  1
  Fe  Fe68  1  0.49668674  0.75433519  -0.00127431  1
  Fe  Fe69  1  0.25127586  -0.00111077  0.50148978  1
  Fe  Fe70  1  0.25012746  0.00279334  0.25032331  1
  Fe  Fe71  1  0.62585229  0.37428482  0.87367450  1
  Fe  Fe72  1  0.37647489  0.62612821  0.62507081  1
  Fe  Fe73  1  0.87451407  0.87389407  0.62584764  1
  Fe  Fe74  1  0.62368071  0.12470555  0.12208655  1
  Fe  Fe75  1  0.75163642  0.74953826  0.25204710  1
  Fe  Fe76  1  0.37731626  0.62555561  0.12711526  1
  Fe  Fe77  1  0.00042492  0.49936894  0.24909933  1
  Fe  Fe78  1  0.12497829  0.12670495  0.37622844  1
  Fe  Fe79  1  0.00057815  0.24801691  0.74929554  1
  Fe  Fe80  1  0.62420136  0.12349278  0.87726033  1
  Fe  Fe81  1  0.62498600  0.62526140  0.87821090  1
  Fe  Fe82  1  0.12576064  0.87564567  0.87465641  1
  Fe  Fe83  1  0.62640339  0.87527093  0.37558493  1
  Fe  Fe84  1  0.24766723  0.50133728  0.74905324  1
  Fe  Fe85  1  0.37752709  0.12760181  0.37976042  1
  Fe  Fe86  1  0.37651712  0.87420958  0.62766385  1
  Fe  Fe87  1  0.87309617  0.37410525  0.12485705  1
  Fe  Fe88  1  -0.00013906  0.24892402  0.24948017  1
  Fe  Fe89  1  0.62603465  0.62564952  0.37694426  1
  Co  Co90  1  0.25007640  0.24745739  0.74991333  1
  Co  Co91  1  0.63000532  0.37403300  0.62638459  1
  Co  Co92  1  0.50270017  0.74928971  0.75156040  1
  Co  Co93  1  0.37646170  0.37489223  0.37624720  1
  Co  Co94  1  0.37615393  0.12613863  0.62187797  1
  Co  Co95  1  0.87505932  0.62531137  0.62568392  1
  Co  Co96  1  0.74854236  0.24603400  0.75164664  1
  Co  Co97  1  -0.00183082  0.25097931  -0.00067478  1
  Co  Co98  1  0.37565947  0.37436557  0.12482432  1
  Co  Co99  1  0.37555548  0.87500543  0.13021440  1
  Co  Co100  1  0.50227229  0.74939124  0.25231254  1
  Co  Co101  1  0.12311134  0.37332534  0.37408322  1
  Co  Co102  1  0.75131111  0.24848158  0.50118350  1
  Co  Co103  1  0.12437742  0.62604702  0.62220671  1
  Co  Co104  1  0.25124684  0.25105520  -0.00208282  1
  Co  Co105  1  0.50239427  0.25405586  0.50439164  1
  Co  Co106  1  0.37361529  0.87638130  0.86955640  1
  Co  Co107  1  0.87256516  0.62245712  0.87646938  1
  Co  Co108  1  0.62506816  0.62955114  0.12193352  1
  Co  Co109  1  0.62416143  0.12466962  0.62245036  1
  Co  Co110  1  0.87322241  0.61998114  0.37402270  1
  Co  Co111  1  0.12533365  0.12593779  0.62290541  1
  Co  Co112  1  0.62392783  0.62624546  0.62250483  1
  Co  Co113  1  0.87448357  0.12537905  0.62605012  1
  Co  Co114  1  0.49687472  -0.00397266  -0.00015727  1
  Co  Co115  1  0.00029793  0.00279690  0.24957999  1
  Co  Co116  1  0.12396731  0.37377144  0.62752107  1
  Co  Co117  1  0.74755491  0.49691858  0.00106882  1
  Co  Co118  1  0.87596528  0.87577396  0.12750821  1
  Co  Co119  1  0.87442698  0.87633780  0.87041169  1
  Co  Co120  1  0.87423145  0.87975172  0.37467257  1
  Co  Co121  1  0.75249810  0.74991252  0.49893282  1
  Co  Co122  1  0.25191556  0.24962756  0.25126118  1
  Co  Co123  1  0.75200082  -0.00065545  0.00049436  1
  Co  Co124  1  0.50160206  0.25212932  -0.00105408  1
  Co  Co125  1  0.49986017  -0.00363122  0.50077212  1
  Co  Co126  1  0.12742133  0.62521768  0.87782113  1
  Co  Co127  1  0.74929763  0.24850796  0.24908774  1
