# generated using pymatgen
data_Fe45Co19
_symmetry_space_group_name_H-M   'P 1'
_cell_length_a   11.41535604
_cell_length_b   11.41497840
_cell_length_c   11.41479956
_cell_angle_alpha   89.99142649
_cell_angle_beta   89.98884213
_cell_angle_gamma   90.00178964
_symmetry_Int_Tables_number   1
_chemical_formula_structural   Fe45Co19
_chemical_formula_sum   'Fe90 Co38'
_cell_volume   1487.41731298
_cell_formula_units_Z   2
loop_
 _symmetry_equiv_pos_site_id
 _symmetry_equiv_pos_as_xyz
  1  'x, y, z'
loop_
 _atom_site_type_symbol
 _atom_site_label
 _atom_site_symmetry_multiplicity
 _atom_site_fract_x
 _atom_site_fract_y
 _atom_site_fract_z
 _atom_site_occupancy
  Fe  Fe0  1  0.87766620  0.87272212  0.12344184  1
  Fe  Fe1  1  0.37589778  0.12262528  0.12748090  1
  Fe  Fe2  1  0.87528077  0.87605849  0.62446804  1
  Fe  Fe3  1  0.12822161  0.37259086  0.87695152  1
  Fe  Fe4  1  0.37300763  0.12322267  0.37126979  1
  Fe  Fe5  1  0.24871680  0.75562372  0.25190962  1
  Fe  Fe6  1  0.37931937  0.37136785  0.62595107  1
  Fe  Fe7  1  0.50096654  0.49829381  0.24972416  1
  Fe  Fe8  1  0.75285689  0.25019395  -0.00093258  1
  Fe  Fe9  1  0.62454026  0.12525385  0.12375786  1
  Fe  Fe10  1  0.74977582  -0.00010143  0.74793923  1
  Fe  Fe11  1  0.24681374  0.25229412  0.24716918  1
  Fe  Fe12  1  0.87335039  0.87366800  0.87723102  1
  Fe  Fe13  1  0.87948971  0.37808303  0.12474975  1
  Fe  Fe14  1  0.62308776  0.62576641  0.12612717  1
  Fe  Fe15  1  0.49832640  0.75329840  0.25188280  1
  Fe  Fe16  1  0.24878064  -0.00050466  0.00387800  1
  Fe  Fe17  1  0.00486497  0.50633323  -0.00379202  1
  Fe  Fe18  1  0.49960948  0.49936883  0.49884616  1
  Fe  Fe19  1  -0.00106153  0.00341714  0.50140082  1
  Fe  Fe20  1  0.49979603  0.00230326  -0.00277543  1
  Fe  Fe21  1  0.25268123  0.75276022  0.74607642  1
  Fe  Fe22  1  0.87686909  0.37966022  0.87259564  1
  Fe  Fe23  1  0.62596146  0.37479043  0.37614231  1
  Fe  Fe24  1  0.12253434  0.12613356  0.12569179  1
  Fe  Fe25  1  0.62828996  0.87523460  0.87755226  1
  Fe  Fe26  1  0.12404259  0.87412095  0.62066373  1
  Fe  Fe27  1  0.75162841  0.25336485  0.50317469  1
  Fe  Fe28  1  0.37293196  0.37426971  0.37518963  1
  Fe  Fe29  1  0.62268651  0.37496042  0.87749472  1
  Fe  Fe30  1  0.12778912  0.12456816  0.87293999  1
  Fe  Fe31  1  0.24786449  0.75097638  0.00215096  1
  Fe  Fe32  1  0.37273770  0.62405754  0.37323229  1
  Fe  Fe33  1  0.37249304  0.62416543  0.87472202  1
  Fe  Fe34  1  0.62729433  0.62464602  0.37588435  1
  Fe  Fe35  1  0.37560744  0.62645542  0.62480876  1
  Fe  Fe36  1  0.12300681  0.37248573  0.62261604  1
  Fe  Fe37  1  0.00054924  0.50004030  0.49902711  1
  Fe  Fe38  1  0.87409257  0.87740208  0.37668062  1
  Fe  Fe39  1  0.62672306  0.62511236  0.87555097  1
  Fe  Fe40  1  0.24863330  0.49719518  0.74759821  1
  Fe  Fe41  1  0.37405315  0.87695005  0.87531077  1
  Fe  Fe42  1  0.62849749  0.87591429  0.37738118  1
  Fe  Fe43  1  0.37121838  0.87857410  0.37881269  1
  Fe  Fe44  1  0.50107030  0.00390254  0.49831870  1
  Fe  Fe45  1  0.75167205  0.74942919  0.24948815  1
  Fe  Fe46  1  0.62464286  0.87377888  0.62261000  1
  Fe  Fe47  1  0.24808390  -0.00204952  0.74458469  1
  Fe  Fe48  1  0.87479030  0.37751615  0.37364002  1
  Fe  Fe49  1  0.75000955  0.50173225  0.00102585  1
  Fe  Fe50  1  -0.00074361  0.24796482  -0.00312260  1
  Fe  Fe51  1  0.00087789  0.24978171  0.74961182  1
  Fe  Fe52  1  0.62620652  0.62457062  0.62278123  1
  Fe  Fe53  1  0.49479591  0.24582273  -0.00686199  1
  Fe  Fe54  1  0.74975967  0.00118946  0.24816902  1
  Fe  Fe55  1  0.37651217  0.37430497  0.12237283  1
  Fe  Fe56  1  0.87649426  0.12621508  0.12584706  1
  Fe  Fe57  1  0.12503743  0.87460892  0.87393360  1
  Fe  Fe58  1  0.62463357  0.87596930  0.12322644  1
  Fe  Fe59  1  0.50070239  0.49918002  0.75082054  1
  Fe  Fe60  1  0.87235907  0.62072416  0.37335466  1
  Fe  Fe61  1  0.75046539  0.74888055  0.74907317  1
  Fe  Fe62  1  0.24547219  0.49544672  0.24792969  1
  Fe  Fe63  1  0.74966595  0.25245731  0.24796320  1
  Fe  Fe64  1  -0.00191488  0.74810047  0.49755359  1
  Fe  Fe65  1  0.62274109  0.37359914  0.12143886  1
  Fe  Fe66  1  0.25118957  0.24666411  0.50191309  1
  Fe  Fe67  1  0.87139029  0.12485525  0.37528111  1
  Fe  Fe68  1  -0.00060554  0.74892227  0.75257684  1
  Fe  Fe69  1  0.50126317  0.24954527  0.25211763  1
  Fe  Fe70  1  0.25030076  0.49972219  0.50153187  1
  Fe  Fe71  1  0.87417238  0.61898067  0.62899116  1
  Fe  Fe72  1  0.62448874  0.12917694  0.62465991  1
  Fe  Fe73  1  0.37380629  0.62657618  0.12716320  1
  Fe  Fe74  1  0.11897142  0.87371843  0.12777214  1
  Fe  Fe75  1  0.87944288  0.62496134  0.12632986  1
  Fe  Fe76  1  0.49927619  0.74922900  -0.00117385  1
  Fe  Fe77  1  0.24827857  0.50085494  0.00248009  1
  Fe  Fe78  1  0.12512153  0.62675416  0.62556383  1
  Fe  Fe79  1  0.12672070  0.12229253  0.37409060  1
  Fe  Fe80  1  -0.00123309  0.00077746  -0.00198353  1
  Fe  Fe81  1  0.49822447  0.74982164  0.49905803  1
  Fe  Fe82  1  0.12631274  0.62522937  0.37353865  1
  Fe  Fe83  1  -0.00201856  0.24810334  0.50051496  1
  Fe  Fe84  1  0.49937827  0.75113877  0.75055024  1
  Fe  Fe85  1  0.00171363  0.25204652  0.25187660  1
  Fe  Fe86  1  0.50232535  0.00131485  0.75212023  1
  Fe  Fe87  1  0.87309461  0.12297299  0.87104866  1
  Fe  Fe88  1  0.74983019  0.25478061  0.74857097  1
  Fe  Fe89  1  0.37741922  0.12634534  0.62889764  1
  Co  Co90  1  0.25034725  0.74883907  0.49961570  1
  Co  Co91  1  0.74912822  0.49604886  0.50256304  1
  Co  Co92  1  -0.00228298  0.00106550  0.25149343  1
  Co  Co93  1  0.74499049  0.49644472  0.74940102  1
  Co  Co94  1  0.74780698  0.49878247  0.24660445  1
  Co  Co95  1  0.00426087  0.49705316  0.25141960  1
  Co  Co96  1  0.87246129  0.62365510  0.87237508  1
  Co  Co97  1  0.37782488  0.87504999  0.12289290  1
  Co  Co98  1  0.74987366  0.00151191  0.50298469  1
  Co  Co99  1  0.37802461  0.87620495  0.62310679  1
  Co  Co100  1  0.49788749  0.24771637  0.49511729  1
  Co  Co101  1  0.63139808  0.12480012  0.87599612  1
  Co  Co102  1  0.12415977  0.62848939  0.13037622  1
  Co  Co103  1  0.62875543  0.12595200  0.37496276  1
  Co  Co104  1  0.00036912  -0.00211471  0.75040658  1
  Co  Co105  1  0.12535874  0.87922220  0.37886596  1
  Co  Co106  1  0.49855921  0.50269012  0.00022197  1
  Co  Co107  1  0.25332721  0.24766819  0.00149986  1
  Co  Co108  1  0.12062271  0.37255780  0.11974717  1
  Co  Co109  1  0.75345310  0.74798779  0.50142697  1
  Co  Co110  1  0.75046127  0.74677645  0.00180467  1
  Co  Co111  1  0.24885656  -0.00325871  0.24602356  1
  Co  Co112  1  0.75311182  0.00147548  0.00273327  1
  Co  Co113  1  0.13133636  0.62833699  0.87081499  1
  Co  Co114  1  0.12567030  0.37319126  0.37968427  1
  Co  Co115  1  0.25074249  0.00421567  0.50458126  1
  Co  Co116  1  0.00233073  0.74661566  -0.00408013  1
  Co  Co117  1  0.00640840  0.50051315  0.75298106  1
  Co  Co118  1  0.49941614  0.24817062  0.75799445  1
  Co  Co119  1  0.61835188  0.37146937  0.62389100  1
  Co  Co120  1  0.25026594  0.25193549  0.74869919  1
  Co  Co121  1  0.36726396  0.12006666  0.87129378  1
  Co  Co122  1  0.37289421  0.37806950  0.87575088  1
  Co  Co123  1  0.50155005  -0.00203228  0.25209904  1
  Co  Co124  1  0.12253182  0.12596954  0.62758506  1
  Co  Co125  1  0.87963856  0.37881934  0.62789276  1
  Co  Co126  1  -0.00126433  0.75110619  0.25592927  1
  Co  Co127  1  0.87441705  0.12530805  0.62801948  1
