# generated using pymatgen
data_Fe45Co19
_symmetry_space_group_name_H-M   'P 1'
_cell_length_a   11.41535352
_cell_length_b   11.41583688
_cell_length_c   11.41475861
_cell_angle_alpha   89.99916241
_cell_angle_beta   89.99894943
_cell_angle_gamma   90.00447757
_symmetry_Int_Tables_number   1
_chemical_formula_structural   Fe45Co19
_chemical_formula_sum   'Fe90 Co38'
_cell_volume   1487.52355234
_cell_formula_units_Z   2
loop_
 _symmetry_equiv_pos_site_id
 _symmetry_equiv_pos_as_xyz
  1  'x, y, z'
loop_
 _atom_site_type_symbol
 _atom_site_label
 _atom_site_symmetry_multiplicity
 _atom_site_fract_x
 _atom_site_fract_y
 _atom_site_fract_z
 _atom_site_occupancy
  Fe  Fe0  1  0.24597797  0.24843174  0.00144702  1
  Fe  Fe1  1  0.50132979  0.74990638  0.24705756  1
  Fe  Fe2  1  0.37410410  0.37323252  0.37511734  1
  Fe  Fe3  1  0.49978461  -0.00045832  0.49743274  1
  Fe  Fe4  1  0.50245724  0.25090740  0.50096286  1
  Fe  Fe5  1  0.62460316  0.12308568  0.62565348  1
  Fe  Fe6  1  0.74944284  0.25123203  0.50117923  1
  Fe  Fe7  1  0.12648628  0.37565790  0.62885493  1
  Fe  Fe8  1  0.00128122  0.49963017  -0.00034529  1
  Fe  Fe9  1  0.75182811  0.24934954  0.75090388  1
  Fe  Fe10  1  0.24750020  0.75062364  0.24578415  1
  Fe  Fe11  1  0.37159222  0.37276340  0.87554351  1
  Fe  Fe12  1  0.62432218  0.12340181  0.87626081  1
  Fe  Fe13  1  0.37581419  0.12523272  0.12313100  1
  Fe  Fe14  1  0.62553432  0.12283082  0.12471325  1
  Fe  Fe15  1  0.12448795  0.62327621  0.37181264  1
  Fe  Fe16  1  0.87739790  0.62910388  0.87931626  1
  Fe  Fe17  1  0.75384868  -0.00245323  0.75099202  1
  Fe  Fe18  1  0.24873556  0.74773300  0.75283995  1
  Fe  Fe19  1  0.62542784  0.87653973  0.87551303  1
  Fe  Fe20  1  -0.00046062  -0.00079743  0.49691898  1
  Fe  Fe21  1  -0.00139544  0.24933002  0.24752504  1
  Fe  Fe22  1  -0.00285004  -0.00257962  0.75386081  1
  Fe  Fe23  1  0.24947351  -0.00070945  -0.00042251  1
  Fe  Fe24  1  0.62947504  0.38243712  0.12622317  1
  Fe  Fe25  1  0.37159909  0.37451752  0.62745465  1
  Fe  Fe26  1  0.87232835  0.37403078  0.87933349  1
  Fe  Fe27  1  0.49952460  0.50013008  0.50012219  1
  Fe  Fe28  1  0.74518850  0.74773371  0.00309726  1
  Fe  Fe29  1  0.24969866  0.00063278  0.49604981  1
  Fe  Fe30  1  0.50326047  0.74922203  0.50073036  1
  Fe  Fe31  1  0.37534003  0.87201866  0.37373753  1
  Fe  Fe32  1  0.00072224  0.25126267  0.50022942  1
  Fe  Fe33  1  0.12510027  0.37842416  0.12710725  1
  Fe  Fe34  1  0.24748990  0.50393711  -0.00237221  1
  Fe  Fe35  1  0.50073366  0.49892465  -0.00111862  1
  Fe  Fe36  1  0.25354977  0.49829384  0.24950752  1
  Fe  Fe37  1  0.49759711  0.24886652  0.75011227  1
  Fe  Fe38  1  0.12375008  0.11976169  0.12870991  1
  Fe  Fe39  1  0.75106848  -0.00162416  0.49900664  1
  Fe  Fe40  1  0.87455979  0.12660504  0.87911059  1
  Fe  Fe41  1  0.50289488  0.75268090  0.00283755  1
  Fe  Fe42  1  0.24724586  0.74974381  0.49975405  1
  Fe  Fe43  1  0.49636838  0.00057483  0.75187882  1
  Fe  Fe44  1  -0.00029689  0.75314047  0.75059141  1
  Fe  Fe45  1  0.87485881  0.12817077  0.37592954  1
  Fe  Fe46  1  0.62259430  0.62358764  0.87086138  1
  Fe  Fe47  1  0.62546762  0.12578948  0.37221064  1
  Fe  Fe48  1  0.12431936  0.12377063  0.62588980  1
  Fe  Fe49  1  0.37379418  0.87477179  0.62490753  1
  Fe  Fe50  1  0.37743099  0.62593801  0.62712856  1
  Fe  Fe51  1  0.12590889  0.87724763  0.62773891  1
  Fe  Fe52  1  0.00946249  0.75332892  0.00375808  1
  Fe  Fe53  1  0.50391329  0.25223703  0.00120864  1
  Fe  Fe54  1  0.75530959  0.00048159  0.24742945  1
  Fe  Fe55  1  0.37585388  0.62482433  0.12337668  1
  Fe  Fe56  1  0.49894578  0.25419041  0.24622915  1
  Fe  Fe57  1  0.00183136  0.25055504  0.00192387  1
  Fe  Fe58  1  0.12448480  0.37502595  0.37228110  1
  Fe  Fe59  1  -0.00056642  0.24969505  0.75150357  1
  Fe  Fe60  1  0.75200957  0.74366743  0.24625406  1
  Fe  Fe61  1  0.37353673  0.87307366  0.87897341  1
  Fe  Fe62  1  0.24929890  0.50192761  0.50057107  1
  Fe  Fe63  1  0.87559240  0.12424259  0.62480327  1
  Fe  Fe64  1  0.75278908  0.49917070  0.49931287  1
  Fe  Fe65  1  -0.00136008  0.49805695  0.49894212  1
  Fe  Fe66  1  0.62584556  0.62176960  0.37311837  1
  Fe  Fe67  1  0.12340000  0.87688238  0.36878711  1
  Fe  Fe68  1  0.75164346  -0.00144827  0.00221196  1
  Fe  Fe69  1  0.74990631  0.74996078  0.74810210  1
  Fe  Fe70  1  -0.00238845  -0.00408525  0.00027376  1
  Fe  Fe71  1  0.37569507  0.12843624  0.37401376  1
  Fe  Fe72  1  0.12689762  0.37546562  0.87217323  1
  Fe  Fe73  1  0.62733638  0.37832706  0.62865880  1
  Fe  Fe74  1  0.62775975  0.37767672  0.37051905  1
  Fe  Fe75  1  0.62714304  0.87460065  0.37118483  1
  Fe  Fe76  1  0.37707161  0.62717062  0.87503654  1
  Fe  Fe77  1  -0.00381687  0.49991149  0.75102866  1
  Fe  Fe78  1  -0.00816948  0.50250653  0.24991776  1
  Fe  Fe79  1  0.87452425  0.62748190  0.62159502  1
  Fe  Fe80  1  0.75291788  0.25075093  0.24559958  1
  Fe  Fe81  1  0.25202969  0.00528027  0.75358332  1
  Fe  Fe82  1  0.62431003  0.87640718  0.62555926  1
  Fe  Fe83  1  0.00361396  0.75179360  0.49900076  1
  Fe  Fe84  1  0.24710540  0.24826400  0.49940022  1
  Fe  Fe85  1  0.12335640  0.62408355  0.62738738  1
  Fe  Fe86  1  0.37499824  0.62641788  0.37377936  1
  Fe  Fe87  1  0.87463914  0.86973495  0.37388775  1
  Fe  Fe88  1  0.49767575  -0.00209756  0.24763849  1
  Fe  Fe89  1  0.62833071  0.37721970  0.87340125  1
  Co  Co90  1  0.87530531  0.62957056  0.38038779  1
  Co  Co91  1  0.62169222  0.61919850  0.12769946  1
  Co  Co92  1  0.50197977  -0.00325691  0.00235660  1
  Co  Co93  1  0.74642072  0.24944197  0.00143844  1
  Co  Co94  1  0.74518342  0.75145876  0.50196210  1
  Co  Co95  1  0.87585537  0.12643380  0.12073420  1
  Co  Co96  1  0.87444788  0.37436191  0.62574586  1
  Co  Co97  1  0.75894449  0.50478963  0.24885242  1
  Co  Co98  1  0.12129919  0.62484083  0.87262600  1
  Co  Co99  1  0.74940530  0.50488578  -0.00119198  1
  Co  Co100  1  0.37502289  0.12481816  0.62151352  1
  Co  Co101  1  0.50123144  0.75348109  0.75009582  1
  Co  Co102  1  0.87622461  0.87374756  0.62279624  1
  Co  Co103  1  0.49739114  0.49707918  0.75085863  1
  Co  Co104  1  0.87316438  0.37605973  0.12064186  1
  Co  Co105  1  0.24979896  0.24443636  0.75212507  1
  Co  Co106  1  0.25078572  0.50390184  0.75188479  1
  Co  Co107  1  0.25009674  0.25031461  0.24674566  1
  Co  Co108  1  0.24450880  0.74691637  0.00165232  1
  Co  Co109  1  0.87350473  0.86995755  0.88006243  1
  Co  Co110  1  0.87450758  0.37152615  0.37410537  1
  Co  Co111  1  0.75562959  0.50350199  0.75280381  1
  Co  Co112  1  0.37238866  0.87289157  0.12231793  1
  Co  Co113  1  -0.00710625  0.00111857  0.25063079  1
  Co  Co114  1  0.87888563  0.62714834  0.11747267  1
  Co  Co115  1  0.87506108  0.86948799  0.12455909  1
  Co  Co116  1  0.12437214  0.12590869  0.37153016  1
  Co  Co117  1  0.12123880  0.12368488  0.87689975  1
  Co  Co118  1  0.12769582  0.87586538  0.87419601  1
  Co  Co119  1  0.25458809  0.00029612  0.25251465  1
  Co  Co120  1  0.62488747  0.62166214  0.62693072  1
  Co  Co121  1  0.00052540  0.74706006  0.24807374  1
  Co  Co122  1  0.37242555  0.37679603  0.11986257  1
  Co  Co123  1  0.12471571  0.61997558  0.12870737  1
  Co  Co124  1  0.37830295  0.12719303  0.88159971  1
  Co  Co125  1  0.12532024  0.88067199  0.12952212  1
  Co  Co126  1  0.49528497  0.49798401  0.25030286  1
  Co  Co127  1  0.62779053  0.87594163  0.12773568  1
