# generated using pymatgen
data_Fe45Co19
_symmetry_space_group_name_H-M   'P 1'
_cell_length_a   11.41565553
_cell_length_b   11.41579693
_cell_length_c   11.41565863
_cell_angle_alpha   90.00843522
_cell_angle_beta   90.00288700
_cell_angle_gamma   90.00800219
_symmetry_Int_Tables_number   1
_chemical_formula_structural   Fe45Co19
_chemical_formula_sum   'Fe90 Co38'
_cell_volume   1487.67496222
_cell_formula_units_Z   2
loop_
 _symmetry_equiv_pos_site_id
 _symmetry_equiv_pos_as_xyz
  1  'x, y, z'
loop_
 _atom_site_type_symbol
 _atom_site_label
 _atom_site_symmetry_multiplicity
 _atom_site_fract_x
 _atom_site_fract_y
 _atom_site_fract_z
 _atom_site_occupancy
  Fe  Fe0  1  0.49581088  0.75223564  0.25094194  1
  Fe  Fe1  1  0.62608899  0.37247340  0.12804274  1
  Fe  Fe2  1  0.49704285  0.24706023  0.00060086  1
  Fe  Fe3  1  0.87526219  0.12764718  0.62344684  1
  Fe  Fe4  1  0.37419555  0.37748877  0.37098232  1
  Fe  Fe5  1  0.00008866  0.00056948  0.74831150  1
  Fe  Fe6  1  0.12419189  0.37679153  0.62425326  1
  Fe  Fe7  1  0.49971734  0.00270830  0.75036429  1
  Fe  Fe8  1  0.75295696  0.00101059  -0.00185874  1
  Fe  Fe9  1  0.62379949  0.62496777  0.62238706  1
  Fe  Fe10  1  0.62389592  0.87333609  0.37750616  1
  Fe  Fe11  1  0.25030377  0.50079294  0.49844711  1
  Fe  Fe12  1  0.87422453  0.37514463  0.12664822  1
  Fe  Fe13  1  0.87415656  0.87352708  0.62325446  1
  Fe  Fe14  1  0.12578662  0.12359608  0.87289070  1
  Fe  Fe15  1  0.49797839  -0.00133143  0.24942048  1
  Fe  Fe16  1  0.12372927  0.62451795  0.87621741  1
  Fe  Fe17  1  0.87455438  0.62325417  0.62421564  1
  Fe  Fe18  1  0.75043180  0.74818513  0.75034676  1
  Fe  Fe19  1  0.49946761  0.00193080  0.00078300  1
  Fe  Fe20  1  0.50029767  0.49995592  0.74942192  1
  Fe  Fe21  1  0.49886609  0.75044821  0.00195861  1
  Fe  Fe22  1  0.75091553  0.00241854  0.75177662  1
  Fe  Fe23  1  -0.00036126  0.74889199  0.75020879  1
  Fe  Fe24  1  0.62078252  0.37238134  0.87516003  1
  Fe  Fe25  1  0.12705315  0.12743887  0.12545944  1
  Fe  Fe26  1  0.12584816  0.87514160  0.37652506  1
  Fe  Fe27  1  0.12596494  0.87385079  0.62397051  1
  Fe  Fe28  1  0.75195542  0.00141031  0.25378652  1
  Fe  Fe29  1  0.37555619  0.87585063  0.87639574  1
  Fe  Fe30  1  0.49851880  0.74889340  0.74844214  1
  Fe  Fe31  1  -0.00237077  -0.00145760  -0.00050793  1
  Fe  Fe32  1  0.87859147  0.37601190  0.87570499  1
  Fe  Fe33  1  0.37190357  0.12568734  0.62722794  1
  Fe  Fe34  1  0.00265145  0.25341091  0.25093338  1
  Fe  Fe35  1  0.49922835  0.50006987  0.49978081  1
  Fe  Fe36  1  0.25112890  0.49926740  0.75456724  1
  Fe  Fe37  1  0.00122165  -0.00199128  0.25016533  1
  Fe  Fe38  1  0.12387273  0.87451275  0.87553600  1
  Fe  Fe39  1  0.25327681  0.75309393  0.25197658  1
  Fe  Fe40  1  0.00623447  0.49910362  0.00548869  1
  Fe  Fe41  1  0.12708543  0.62312395  0.62584222  1
  Fe  Fe42  1  0.75162344  0.75045856  0.25150167  1
  Fe  Fe43  1  0.49851811  0.49968575  0.00307996  1
  Fe  Fe44  1  0.74884289  0.49995271  0.49785125  1
  Fe  Fe45  1  0.62540976  0.87570375  0.87502946  1
  Fe  Fe46  1  0.00146850  0.25055444  0.74867693  1
  Fe  Fe47  1  0.74952805  0.24955640  0.49530424  1
  Fe  Fe48  1  0.25207780  0.74984031  0.75073216  1
  Fe  Fe49  1  0.62669621  0.87560078  0.12552301  1
  Fe  Fe50  1  0.24814241  0.00143880  0.50083673  1
  Fe  Fe51  1  0.25066884  0.25213251  0.75371696  1
  Fe  Fe52  1  0.00258382  0.25049665  -0.00027704  1
  Fe  Fe53  1  0.25396488  0.74723424  0.49817077  1
  Fe  Fe54  1  0.87601119  0.62454930  0.12529944  1
  Fe  Fe55  1  0.24847673  0.25107515  0.49838313  1
  Fe  Fe56  1  0.36806448  0.37381470  0.12483651  1
  Fe  Fe57  1  0.12495143  0.62244820  0.37204833  1
  Fe  Fe58  1  0.00013907  0.74766030  0.50027612  1
  Fe  Fe59  1  0.75110952  0.00235857  0.49631539  1
  Fe  Fe60  1  0.37631776  0.37535050  0.62657732  1
  Fe  Fe61  1  0.62321621  0.37368869  0.37097724  1
  Fe  Fe62  1  0.87607809  0.37610837  0.62297097  1
  Fe  Fe63  1  0.74841791  0.25113358  0.75105961  1
  Fe  Fe64  1  0.12359285  0.12591593  0.37547116  1
  Fe  Fe65  1  0.00060168  0.00174252  0.50199985  1
  Fe  Fe66  1  0.37483879  0.12302378  0.37331749  1
  Fe  Fe67  1  0.87725500  0.62297731  0.37320620  1
  Fe  Fe68  1  0.62161017  0.62523603  0.37340783  1
  Fe  Fe69  1  0.12557324  0.87308125  0.12424752  1
  Fe  Fe70  1  0.87857946  0.37678068  0.37434367  1
  Fe  Fe71  1  0.37159361  0.62289868  0.12656506  1
  Fe  Fe72  1  0.50035098  0.00119751  0.50051816  1
  Fe  Fe73  1  0.25004730  0.00068969  0.00017831  1
  Fe  Fe74  1  0.87583440  0.12591025  0.12704782  1
  Fe  Fe75  1  -0.00109068  0.75209160  0.24894668  1
  Fe  Fe76  1  0.36998156  0.12559661  0.12720699  1
  Fe  Fe77  1  0.25106977  0.74864019  -0.00091488  1
  Fe  Fe78  1  0.62565805  0.12775906  0.62396502  1
  Fe  Fe79  1  0.74846094  0.49846484  0.00101576  1
  Fe  Fe80  1  0.62666960  0.12623031  0.12811583  1
  Fe  Fe81  1  0.62337245  0.62468938  0.87692827  1
  Fe  Fe82  1  0.87732699  0.62297135  0.87736940  1
  Fe  Fe83  1  0.62612047  0.87348606  0.62250211  1
  Fe  Fe84  1  0.37424315  0.87483275  0.62279114  1
  Fe  Fe85  1  0.49922122  0.24997137  0.49954843  1
  Fe  Fe86  1  0.74885468  0.49850298  0.75083653  1
  Fe  Fe87  1  0.75263325  0.75180252  -0.00061195  1
  Fe  Fe88  1  0.75072009  0.24946305  -0.00048982  1
  Fe  Fe89  1  0.62535032  0.62567518  0.12652263  1
  Co  Co90  1  0.74949439  0.50010503  0.24962654  1
  Co  Co91  1  0.75088144  0.74770343  0.49862533  1
  Co  Co92  1  -0.00015650  0.50089049  0.74857324  1
  Co  Co93  1  0.24512151  0.49844265  0.24857967  1
  Co  Co94  1  0.87389730  0.87634256  0.12645427  1
  Co  Co95  1  0.49562947  0.74816352  0.49982335  1
  Co  Co96  1  0.24728807  0.50050476  -0.00108407  1
  Co  Co97  1  0.87538367  0.87498539  0.87258616  1
  Co  Co98  1  0.12705022  0.63006579  0.12689451  1
  Co  Co99  1  0.88033749  0.12626356  0.37413114  1
  Co  Co100  1  0.37877698  0.37578124  0.87622480  1
  Co  Co101  1  0.87665879  0.12783420  0.87466863  1
  Co  Co102  1  0.12241961  0.37628692  0.87478122  1
  Co  Co103  1  0.62112856  0.12620686  0.37237689  1
  Co  Co104  1  0.49643374  0.25032430  0.24780310  1
  Co  Co105  1  0.37412464  0.62215592  0.62565384  1
  Co  Co106  1  0.13170005  0.37045731  0.12448560  1
  Co  Co107  1  0.87657518  0.87528429  0.37712401  1
  Co  Co108  1  0.37407095  0.87899753  0.37799892  1
  Co  Co109  1  0.37651863  0.62363593  0.87618187  1
  Co  Co110  1  0.62434608  0.37414302  0.62401331  1
  Co  Co111  1  0.75178506  0.24963889  0.25251868  1
  Co  Co112  1  0.24986986  -0.00350914  0.74956594  1
  Co  Co113  1  0.37322186  0.12341997  0.87336328  1
  Co  Co114  1  0.00089545  0.50227425  0.50105528  1
  Co  Co115  1  0.12314553  0.37762125  0.37762899  1
  Co  Co116  1  0.12794869  0.12685994  0.62686084  1
  Co  Co117  1  0.37319965  0.87603631  0.12360363  1
  Co  Co118  1  0.49950664  0.24713629  0.74939983  1
  Co  Co119  1  0.24758938  -0.00054740  0.24988882  1
  Co  Co120  1  0.00386105  0.49756107  0.24509896  1
  Co  Co121  1  0.37545551  0.62054551  0.37161189  1
  Co  Co122  1  0.24803192  0.24901873  0.25535258  1
  Co  Co123  1  0.24941842  0.24934169  -0.00552365  1
  Co  Co124  1  0.00253028  0.24998095  0.50158531  1
  Co  Co125  1  -0.00197834  0.75147351  0.00042210  1
  Co  Co126  1  0.62508176  0.12649196  0.87628130  1
  Co  Co127  1  0.50007573  0.49818772  0.24581590  1
