# generated using pymatgen
data_Fe45Co19
_symmetry_space_group_name_H-M   'P 1'
_cell_length_a   11.41456270
_cell_length_b   11.41374507
_cell_length_c   11.41442506
_cell_angle_alpha   90.01231201
_cell_angle_beta   90.00745586
_cell_angle_gamma   89.99403171
_symmetry_Int_Tables_number   1
_chemical_formula_structural   Fe45Co19
_chemical_formula_sum   'Fe90 Co38'
_cell_volume   1487.10444333
_cell_formula_units_Z   2
loop_
 _symmetry_equiv_pos_site_id
 _symmetry_equiv_pos_as_xyz
  1  'x, y, z'
loop_
 _atom_site_type_symbol
 _atom_site_label
 _atom_site_symmetry_multiplicity
 _atom_site_fract_x
 _atom_site_fract_y
 _atom_site_fract_z
 _atom_site_occupancy
  Fe  Fe0  1  0.87597997  0.37624450  0.12910462  1
  Fe  Fe1  1  0.00111564  0.00109180  0.24900169  1
  Fe  Fe2  1  0.61966139  0.62411939  0.37174558  1
  Fe  Fe3  1  0.49812828  0.75195858  0.00187075  1
  Fe  Fe4  1  0.12502947  0.87626247  0.62520968  1
  Fe  Fe5  1  0.87419714  0.87307300  0.62400245  1
  Fe  Fe6  1  0.24903194  0.75065749  0.75290163  1
  Fe  Fe7  1  0.37620745  0.62838857  0.62372515  1
  Fe  Fe8  1  0.62305021  0.37571630  0.12449081  1
  Fe  Fe9  1  0.87496297  0.62281046  0.37326220  1
  Fe  Fe10  1  0.74912996  0.24922958  0.49785973  1
  Fe  Fe11  1  -0.00025709  0.25217963  0.50061337  1
  Fe  Fe12  1  0.12357400  0.87574329  0.37712312  1
  Fe  Fe13  1  0.12424131  0.12531770  0.87372564  1
  Fe  Fe14  1  0.87287322  0.62232870  0.12816803  1
  Fe  Fe15  1  0.12752724  0.87281635  0.12216142  1
  Fe  Fe16  1  0.37374269  0.87360099  0.62399043  1
  Fe  Fe17  1  0.25121273  0.49888372  0.74951943  1
  Fe  Fe18  1  0.00088509  0.74879051  0.24926682  1
  Fe  Fe19  1  0.87671379  0.12403321  0.37365237  1
  Fe  Fe20  1  0.00003734  0.74888171  0.50002213  1
  Fe  Fe21  1  0.37506394  0.12530516  0.62520715  1
  Fe  Fe22  1  0.37555212  0.37323263  0.62327108  1
  Fe  Fe23  1  0.12542955  0.62310775  0.87525932  1
  Fe  Fe24  1  0.75090852  0.00240822  0.50062198  1
  Fe  Fe25  1  0.12461311  0.62409244  0.62444822  1
  Fe  Fe26  1  -0.00040465  0.74889753  -0.00014778  1
  Fe  Fe27  1  0.50043914  0.49867205  0.74934743  1
  Fe  Fe28  1  -0.00112781  0.00225462  0.00077853  1
  Fe  Fe29  1  0.49996258  0.00008478  0.50190083  1
  Fe  Fe30  1  0.87515443  0.37396546  0.87145350  1
  Fe  Fe31  1  0.62790001  0.87509169  0.12580919  1
  Fe  Fe32  1  0.50086215  0.24805905  0.75042389  1
  Fe  Fe33  1  0.49776980  0.25138591  0.24934256  1
  Fe  Fe34  1  0.75166307  0.74841722  0.00038563  1
  Fe  Fe35  1  0.62530364  0.12406145  0.12670892  1
  Fe  Fe36  1  0.87442240  0.87592959  0.37358992  1
  Fe  Fe37  1  0.24873846  0.25214837  -0.00024118  1
  Fe  Fe38  1  0.75106917  0.74851043  0.75136293  1
  Fe  Fe39  1  0.74943614  0.49841439  -0.00098499  1
  Fe  Fe40  1  0.87533832  0.62199635  0.87248722  1
  Fe  Fe41  1  0.62332313  0.62450487  0.87625543  1
  Fe  Fe42  1  -0.00083224  0.00055869  0.75066233  1
  Fe  Fe43  1  0.25269880  0.49788955  0.24936936  1
  Fe  Fe44  1  0.62135793  0.37612494  0.37541164  1
  Fe  Fe45  1  0.12507170  0.12469216  0.62343943  1
  Fe  Fe46  1  0.37860695  0.37596359  0.37636137  1
  Fe  Fe47  1  0.75085524  0.49911818  0.49988486  1
  Fe  Fe48  1  0.12687468  0.62528049  0.12455580  1
  Fe  Fe49  1  0.62559044  0.87766858  0.87480264  1
  Fe  Fe50  1  0.00059067  0.49806736  0.00142023  1
  Fe  Fe51  1  0.37656498  0.37434912  0.87596872  1
  Fe  Fe52  1  0.62484435  0.37402592  0.62325684  1
  Fe  Fe53  1  0.74893934  0.74794747  0.49861656  1
  Fe  Fe54  1  0.37560772  0.86884723  0.37668037  1
  Fe  Fe55  1  0.24928877  0.00016206  0.49926210  1
  Fe  Fe56  1  0.49877890  0.50114212  0.00170139  1
  Fe  Fe57  1  0.37382053  0.12470784  0.12484915  1
  Fe  Fe58  1  -0.00239382  0.49694605  0.50161820  1
  Fe  Fe59  1  0.62563129  0.62478372  0.62609643  1
  Fe  Fe60  1  0.75085478  0.24985483  -0.00017962  1
  Fe  Fe61  1  0.12661338  0.62479883  0.37501646  1
  Fe  Fe62  1  0.75254155  0.00279106  0.00152222  1
  Fe  Fe63  1  0.74713214  0.24963211  0.75168390  1
  Fe  Fe64  1  0.37468832  0.87816336  0.87594069  1
  Fe  Fe65  1  0.24986925  0.00085067  -0.00225858  1
  Fe  Fe66  1  0.50075398  0.24678128  -0.00137774  1
  Fe  Fe67  1  0.00173214  0.25065560  0.25101190  1
  Fe  Fe68  1  0.25058314  0.24882090  0.49728692  1
  Fe  Fe69  1  0.62600788  0.87547199  0.37364203  1
  Fe  Fe70  1  0.62243256  0.12422117  0.37457416  1
  Fe  Fe71  1  0.12564965  0.37507133  0.37479429  1
  Fe  Fe72  1  0.00004808  0.25103394  -0.00074546  1
  Fe  Fe73  1  0.24949567  -0.00101702  0.25189269  1
  Fe  Fe74  1  0.25360455  0.50226195  0.49960968  1
  Fe  Fe75  1  0.87537547  0.12801087  0.62747636  1
  Fe  Fe76  1  0.00055376  0.74962886  0.75101030  1
  Fe  Fe77  1  0.00030632  0.49559464  0.74639220  1
  Fe  Fe78  1  0.87525365  0.87645120  0.87567203  1
  Fe  Fe79  1  0.87331605  0.87524759  0.12770264  1
  Fe  Fe80  1  0.62615752  0.87727763  0.62626868  1
  Fe  Fe81  1  0.24776812  0.25112084  0.75096579  1
  Fe  Fe82  1  0.49837086  -0.00327904  0.24770792  1
  Fe  Fe83  1  0.74965385  0.25074623  0.25093026  1
  Fe  Fe84  1  0.62455651  0.12048442  0.87370170  1
  Fe  Fe85  1  0.37429624  0.62922779  0.12764310  1
  Fe  Fe86  1  0.37597290  0.12491579  0.37467310  1
  Fe  Fe87  1  0.12720556  0.12772066  0.12746255  1
  Fe  Fe88  1  0.49993964  0.75201514  0.75074027  1
  Fe  Fe89  1  0.25162481  0.49902518  0.00085186  1
  Co  Co90  1  0.00490744  0.25267991  0.74914014  1
  Co  Co91  1  -0.00155741  0.00055486  0.50164810  1
  Co  Co92  1  0.87467579  0.62453241  0.62500115  1
  Co  Co93  1  0.00328689  0.50104050  0.25053840  1
  Co  Co94  1  0.50005803  0.24843624  0.50060872  1
  Co  Co95  1  0.75050224  0.00273179  0.25039246  1
  Co  Co96  1  0.62265078  0.37590985  0.87652765  1
  Co  Co97  1  0.24802374  0.75154315  0.25149736  1
  Co  Co98  1  0.50355684  0.75005006  0.50153388  1
  Co  Co99  1  0.75281021  0.00007583  0.74901198  1
  Co  Co100  1  0.74763883  0.49991743  0.75068408  1
  Co  Co101  1  0.50028933  0.00002901  0.00157039  1
  Co  Co102  1  0.24686646  0.74918483  0.50083128  1
  Co  Co103  1  0.49737388  0.49989089  0.24690755  1
  Co  Co104  1  0.25013119  0.00009690  0.75028151  1
  Co  Co105  1  0.12417958  0.37407280  0.12658707  1
  Co  Co106  1  0.12399276  0.12559633  0.37513679  1
  Co  Co107  1  0.12411943  0.87564520  0.87683039  1
  Co  Co108  1  0.87103939  0.37270119  0.62726119  1
  Co  Co109  1  0.87553565  0.12695841  0.87349088  1
  Co  Co110  1  0.74609918  0.49890232  0.25023695  1
  Co  Co111  1  0.49735283  0.00073053  0.74896025  1
  Co  Co112  1  0.62446110  0.12383385  0.62549211  1
  Co  Co113  1  0.87538339  0.37599960  0.37244893  1
  Co  Co114  1  0.62584458  0.62494414  0.12353836  1
  Co  Co115  1  0.12849923  0.37537447  0.62095368  1
  Co  Co116  1  0.37014867  0.87548453  0.12307899  1
  Co  Co117  1  0.49913095  0.50183716  0.50246193  1
  Co  Co118  1  0.37674539  0.37201625  0.12159562  1
  Co  Co119  1  0.25114621  0.74856397  -0.00442044  1
  Co  Co120  1  0.25262803  0.25257593  0.25178266  1
  Co  Co121  1  0.37668308  0.62377211  0.87372257  1
  Co  Co122  1  0.37708559  0.62899847  0.37420684  1
  Co  Co123  1  0.74949604  0.74723605  0.25081013  1
  Co  Co124  1  0.37415174  0.12573693  0.87584815  1
  Co  Co125  1  0.12606758  0.37801042  0.87604451  1
  Co  Co126  1  0.87551410  0.12720239  0.12709431  1
  Co  Co127  1  0.50076475  0.75261053  0.24639688  1
