# generated using pymatgen
data_Fe45Co19
_symmetry_space_group_name_H-M   'P 1'
_cell_length_a   11.41433988
_cell_length_b   11.41447859
_cell_length_c   11.41606396
_cell_angle_alpha   90.00648638
_cell_angle_beta   90.00625992
_cell_angle_gamma   89.99563259
_symmetry_Int_Tables_number   1
_chemical_formula_structural   Fe45Co19
_chemical_formula_sum   'Fe90 Co38'
_cell_volume   1487.38454443
_cell_formula_units_Z   2
loop_
 _symmetry_equiv_pos_site_id
 _symmetry_equiv_pos_as_xyz
  1  'x, y, z'
loop_
 _atom_site_type_symbol
 _atom_site_label
 _atom_site_symmetry_multiplicity
 _atom_site_fract_x
 _atom_site_fract_y
 _atom_site_fract_z
 _atom_site_occupancy
  Fe  Fe0  1  0.87441303  0.37446399  0.62440947  1
  Fe  Fe1  1  0.25316064  0.24738876  0.74909683  1
  Fe  Fe2  1  0.25161662  0.00133394  0.24992137  1
  Fe  Fe3  1  0.49814765  0.49943131  0.00090840  1
  Fe  Fe4  1  0.62676846  0.12391966  0.37188658  1
  Fe  Fe5  1  0.37431343  0.12696628  0.37810053  1
  Fe  Fe6  1  0.00094237  0.75045033  0.50108502  1
  Fe  Fe7  1  0.74812122  0.24925794  0.50148568  1
  Fe  Fe8  1  0.37515124  0.87732285  0.62326784  1
  Fe  Fe9  1  0.12544655  0.37444812  0.62706849  1
  Fe  Fe10  1  0.12412463  0.12530377  0.12716742  1
  Fe  Fe11  1  0.00500736  0.25395575  0.00009319  1
  Fe  Fe12  1  0.50162558  0.25063310  -0.00255056  1
  Fe  Fe13  1  0.24761860  -0.00047200  0.00066882  1
  Fe  Fe14  1  0.87488795  0.37483976  0.87573917  1
  Fe  Fe15  1  -0.00316276  -0.00077371  0.24937364  1
  Fe  Fe16  1  -0.00086576  0.25009625  0.75039900  1
  Fe  Fe17  1  0.12453322  0.12569837  0.87321192  1
  Fe  Fe18  1  0.49810570  0.49672755  0.75052969  1
  Fe  Fe19  1  0.87483872  0.62425059  0.37475490  1
  Fe  Fe20  1  0.00058722  0.49957726  0.75106308  1
  Fe  Fe21  1  0.49993707  0.00014853  -0.00063667  1
  Fe  Fe22  1  0.37439233  0.87382416  0.12470646  1
  Fe  Fe23  1  0.12515697  0.87651506  0.37264877  1
  Fe  Fe24  1  0.12731932  0.61981177  0.12762584  1
  Fe  Fe25  1  0.37011708  0.62616529  0.87577012  1
  Fe  Fe26  1  0.75105628  0.74915973  0.75138849  1
  Fe  Fe27  1  0.87619440  0.62581838  0.87867880  1
  Fe  Fe28  1  0.50231359  0.75068225  0.50054551  1
  Fe  Fe29  1  0.37605411  0.37067187  0.62276193  1
  Fe  Fe30  1  -0.00168406  0.25167297  0.25066829  1
  Fe  Fe31  1  0.62399746  0.62345995  0.62608972  1
  Fe  Fe32  1  0.50032444  0.50056836  0.49919984  1
  Fe  Fe33  1  0.24984068  0.75002698  0.24779884  1
  Fe  Fe34  1  0.00008785  0.00182008  0.50032249  1
  Fe  Fe35  1  0.87445748  0.12491396  0.37513251  1
  Fe  Fe36  1  0.74577036  0.25175443  0.75130853  1
  Fe  Fe37  1  0.62511012  0.12475436  0.12384498  1
  Fe  Fe38  1  0.37136920  0.37320390  0.87579288  1
  Fe  Fe39  1  0.87679174  0.62521370  0.62476285  1
  Fe  Fe40  1  0.74937686  0.75004383  0.50168845  1
  Fe  Fe41  1  -0.00025437  -0.00090026  -0.00391733  1
  Fe  Fe42  1  0.13141263  0.62507326  0.87138585  1
  Fe  Fe43  1  0.62659370  0.87600178  0.87616694  1
  Fe  Fe44  1  0.00185427  0.24939366  0.49890897  1
  Fe  Fe45  1  0.75080812  0.74681455  0.24586359  1
  Fe  Fe46  1  0.49889851  0.00158971  0.24999912  1
  Fe  Fe47  1  0.49833554  0.49986620  0.24954336  1
  Fe  Fe48  1  0.75086449  0.25009773  0.24822911  1
  Fe  Fe49  1  0.50428615  0.24752155  0.50190217  1
  Fe  Fe50  1  0.74810503  0.25090064  -0.00080814  1
  Fe  Fe51  1  0.37303644  0.37377087  0.12469295  1
  Fe  Fe52  1  0.37356027  0.87508321  0.37628254  1
  Fe  Fe53  1  0.75078902  0.49962529  0.75006042  1
  Fe  Fe54  1  0.49997487  0.74926785  0.24976160  1
  Fe  Fe55  1  0.25168047  0.00279977  0.74946062  1
  Fe  Fe56  1  0.25017571  0.49818660  0.50054122  1
  Fe  Fe57  1  0.25199004  0.25010597  0.25162414  1
  Fe  Fe58  1  0.62739408  0.87855160  0.62709570  1
  Fe  Fe59  1  -0.00028405  0.49847190  0.49925877  1
  Fe  Fe60  1  0.37469143  0.62609235  0.37507955  1
  Fe  Fe61  1  0.00056488  0.75134423  0.75030917  1
  Fe  Fe62  1  0.87713092  0.37711902  0.12474382  1
  Fe  Fe63  1  0.00681556  0.75026868  0.00016875  1
  Fe  Fe64  1  0.74889381  0.50108720  0.00206864  1
  Fe  Fe65  1  0.75609162  0.00063205  0.75552082  1
  Fe  Fe66  1  0.49885490  0.75106560  0.75016622  1
  Fe  Fe67  1  0.49944663  0.74910189  -0.00033944  1
  Fe  Fe68  1  0.49641177  0.00382517  0.75169155  1
  Fe  Fe69  1  0.62436559  0.37467956  0.37265242  1
  Fe  Fe70  1  0.87307117  0.87558380  0.37532861  1
  Fe  Fe71  1  0.74977824  0.49942305  0.49993868  1
  Fe  Fe72  1  0.62359279  0.62248219  0.87550228  1
  Fe  Fe73  1  0.62786885  0.87585759  0.37332354  1
  Fe  Fe74  1  0.62711243  0.87602767  0.12356946  1
  Fe  Fe75  1  0.24643311  0.00399561  0.50069140  1
  Fe  Fe76  1  0.37491809  0.62523969  0.62591823  1
  Fe  Fe77  1  0.00651697  0.49616317  -0.00171487  1
  Fe  Fe78  1  0.87496899  0.12447024  0.62582649  1
  Fe  Fe79  1  0.87367051  0.87384961  0.11960046  1
  Fe  Fe80  1  0.37057858  0.87358499  0.87620129  1
  Fe  Fe81  1  0.37391823  0.12712529  0.12165938  1
  Fe  Fe82  1  0.87564649  0.12500386  0.12176577  1
  Fe  Fe83  1  -0.00039646  0.74906622  0.24799955  1
  Fe  Fe84  1  0.75084148  0.50118774  0.24771364  1
  Fe  Fe85  1  0.12274599  0.87797903  0.62820388  1
  Fe  Fe86  1  0.24814645  0.74982636  0.50333483  1
  Fe  Fe87  1  0.12556373  0.62370248  0.37466211  1
  Fe  Fe88  1  0.50263673  0.00111579  0.49936066  1
  Fe  Fe89  1  0.12474179  0.37554260  0.37223814  1
  Co  Co90  1  0.87945074  0.62360929  0.12076178  1
  Co  Co91  1  0.25458239  0.49822600  0.25261851  1
  Co  Co92  1  0.24695546  0.49688361  -0.00044092  1
  Co  Co93  1  0.62148650  0.62414057  0.12447497  1
  Co  Co94  1  0.62530416  0.37767959  0.87610661  1
  Co  Co95  1  0.12636224  0.37594726  0.13148146  1
  Co  Co96  1  0.25113235  0.75104280  0.74525569  1
  Co  Co97  1  -0.00473970  -0.00039859  0.75415714  1
  Co  Co98  1  0.75167370  0.00275584  -0.00299496  1
  Co  Co99  1  0.87331237  0.37413462  0.37513022  1
  Co  Co100  1  0.12377017  0.12458304  0.37042671  1
  Co  Co101  1  0.62367378  0.37447321  0.12585819  1
  Co  Co102  1  0.62386940  0.12436287  0.87433464  1
  Co  Co103  1  0.12843875  0.87567160  0.87165212  1
  Co  Co104  1  0.74648942  0.74641238  0.00038347  1
  Co  Co105  1  0.12316984  0.12539125  0.62899652  1
  Co  Co106  1  0.75183258  0.00094960  0.24721028  1
  Co  Co107  1  0.62563492  0.12178510  0.63032407  1
  Co  Co108  1  0.75037885  0.00149196  0.49985519  1
  Co  Co109  1  0.24749234  0.75080804  0.00352722  1
  Co  Co110  1  0.37359256  0.62459776  0.12350461  1
  Co  Co111  1  0.24507980  0.25007464  0.49842128  1
  Co  Co112  1  0.12379506  0.62302619  0.62593050  1
  Co  Co113  1  0.87562589  0.87537200  0.62473936  1
  Co  Co114  1  -0.00282389  0.49991935  0.25151965  1
  Co  Co115  1  0.12435147  0.87810711  0.12727589  1
  Co  Co116  1  0.62362325  0.37680218  0.62507306  1
  Co  Co117  1  0.49816847  0.24776444  0.24903066  1
  Co  Co118  1  0.12789412  0.37263142  0.86876963  1
  Co  Co119  1  0.24468317  0.25164140  0.00085050  1
  Co  Co120  1  0.50018951  0.25053859  0.75264057  1
  Co  Co121  1  0.87505162  0.86946319  0.87982135  1
  Co  Co122  1  0.62519995  0.62461596  0.37407078  1
  Co  Co123  1  0.87657894  0.13160729  0.87672132  1
  Co  Co124  1  0.25231148  0.49824056  0.74739299  1
  Co  Co125  1  0.37814998  0.37235349  0.37741902  1
  Co  Co126  1  0.37618581  0.12754012  0.62151541  1
  Co  Co127  1  0.37386541  0.12604016  0.87916876  1
