# generated using pymatgen
data_Fe45Co19
_symmetry_space_group_name_H-M   'P 1'
_cell_length_a   11.41517395
_cell_length_b   11.41535957
_cell_length_c   11.41614384
_cell_angle_alpha   90.00139421
_cell_angle_beta   89.99896520
_cell_angle_gamma   90.00214226
_symmetry_Int_Tables_number   1
_chemical_formula_structural   Fe45Co19
_chemical_formula_sum   'Fe90 Co38'
_cell_volume   1487.61846822
_cell_formula_units_Z   2
loop_
 _symmetry_equiv_pos_site_id
 _symmetry_equiv_pos_as_xyz
  1  'x, y, z'
loop_
 _atom_site_type_symbol
 _atom_site_label
 _atom_site_symmetry_multiplicity
 _atom_site_fract_x
 _atom_site_fract_y
 _atom_site_fract_z
 _atom_site_occupancy
  Fe  Fe0  1  0.74582280  0.75241915  0.00003167  1
  Fe  Fe1  1  0.62574734  0.61652439  0.62276821  1
  Fe  Fe2  1  0.87480737  0.12774564  0.87500215  1
  Fe  Fe3  1  0.50366739  -0.00196605  0.00075294  1
  Fe  Fe4  1  0.12657194  0.37535369  0.37425810  1
  Fe  Fe5  1  -0.00058828  0.75029327  0.74958849  1
  Fe  Fe6  1  0.74895819  0.74931991  0.25182436  1
  Fe  Fe7  1  0.25263307  0.00264795  0.25126062  1
  Fe  Fe8  1  0.37371529  0.37533916  0.12370221  1
  Fe  Fe9  1  0.75259798  0.49768711  -0.00328045  1
  Fe  Fe10  1  0.87310383  0.12525643  0.12277749  1
  Fe  Fe11  1  0.12584305  0.37693943  0.62780582  1
  Fe  Fe12  1  0.24929045  0.24967124  -0.00010753  1
  Fe  Fe13  1  0.00085689  0.75077579  0.25052907  1
  Fe  Fe14  1  0.24960582  0.74957789  0.25023373  1
  Fe  Fe15  1  0.74863628  0.74744729  0.74825804  1
  Fe  Fe16  1  0.87332431  0.87507517  0.12447399  1
  Fe  Fe17  1  0.50127675  0.24987589  0.00062025  1
  Fe  Fe18  1  0.12612351  0.62246335  0.12470235  1
  Fe  Fe19  1  0.37407903  0.87455868  0.62455795  1
  Fe  Fe20  1  0.87302419  0.87466418  0.62197598  1
  Fe  Fe21  1  0.25351576  0.49903561  0.50171816  1
  Fe  Fe22  1  0.12617781  0.62306846  0.62522481  1
  Fe  Fe23  1  0.87778987  0.12615728  0.37736572  1
  Fe  Fe24  1  0.00117770  0.25231320  0.00053987  1
  Fe  Fe25  1  0.62662367  0.87736605  0.62420342  1
  Fe  Fe26  1  0.37617302  0.12545527  0.87528643  1
  Fe  Fe27  1  0.50177506  0.74917510  0.50178860  1
  Fe  Fe28  1  -0.00006110  -0.00154466  -0.00253166  1
  Fe  Fe29  1  0.25204659  0.49936330  -0.00358928  1
  Fe  Fe30  1  -0.00328666  0.50032977  0.75334264  1
  Fe  Fe31  1  -0.00098179  0.49736687  0.49957132  1
  Fe  Fe32  1  0.87478463  0.87129174  0.87574893  1
  Fe  Fe33  1  0.49963665  0.00242367  0.24970853  1
  Fe  Fe34  1  0.37621085  0.87554525  0.12543896  1
  Fe  Fe35  1  0.50016959  0.24904723  0.24558163  1
  Fe  Fe36  1  0.12345650  0.12293545  0.87105738  1
  Fe  Fe37  1  0.37444824  0.37196938  0.37458025  1
  Fe  Fe38  1  0.62500451  0.62275082  0.12442760  1
  Fe  Fe39  1  0.74838189  0.25320139  0.50168196  1
  Fe  Fe40  1  0.74666703  0.25118171  0.24797686  1
  Fe  Fe41  1  0.49923153  0.25297416  0.50500518  1
  Fe  Fe42  1  0.12505025  0.12325833  0.12468897  1
  Fe  Fe43  1  0.49705563  0.49985155  -0.00383790  1
  Fe  Fe44  1  0.37485054  0.62536381  0.12394580  1
  Fe  Fe45  1  0.25214173  0.24858966  0.74893042  1
  Fe  Fe46  1  -0.00291375  0.49796643  -0.00144203  1
  Fe  Fe47  1  0.74835729  0.49749213  0.25110075  1
  Fe  Fe48  1  0.25098954  0.74779059  0.75001762  1
  Fe  Fe49  1  0.50336904  0.75193331  0.00033843  1
  Fe  Fe50  1  0.50172270  0.74887818  0.25055246  1
  Fe  Fe51  1  0.87457372  0.62458809  0.37752491  1
  Fe  Fe52  1  0.12253647  0.12344734  0.37558410  1
  Fe  Fe53  1  0.87885565  0.12657945  0.62401845  1
  Fe  Fe54  1  0.74764008  0.25320199  0.00136638  1
  Fe  Fe55  1  0.12689520  0.62467016  0.37621884  1
  Fe  Fe56  1  0.24922058  -0.00137263  -0.00330038  1
  Fe  Fe57  1  0.12284915  0.12260274  0.62735893  1
  Fe  Fe58  1  0.62573058  0.62389218  0.87350248  1
  Fe  Fe59  1  0.62322076  0.12331939  0.62363501  1
  Fe  Fe60  1  0.37314431  0.62712676  0.37816027  1
  Fe  Fe61  1  0.74974967  0.00274293  0.25120786  1
  Fe  Fe62  1  0.62199349  0.12662228  0.37738855  1
  Fe  Fe63  1  0.87564586  0.37294937  0.37344066  1
  Fe  Fe64  1  0.12568622  0.37489188  0.87291244  1
  Fe  Fe65  1  0.49829678  0.00149056  0.74882100  1
  Fe  Fe66  1  0.62639086  0.62171255  0.37913922  1
  Fe  Fe67  1  0.12662674  0.87807230  0.62831307  1
  Fe  Fe68  1  0.87422808  0.62526422  0.12342384  1
  Fe  Fe69  1  0.74719100  0.25106948  0.74810681  1
  Fe  Fe70  1  0.75263298  0.00089447  0.75002930  1
  Fe  Fe71  1  0.50079431  0.74638489  0.74795427  1
  Fe  Fe72  1  0.37631340  0.87315388  0.87356286  1
  Fe  Fe73  1  0.49862530  0.49977542  0.25184769  1
  Fe  Fe74  1  0.12444246  0.87751879  0.12739571  1
  Fe  Fe75  1  0.12352602  0.62692091  0.87550920  1
  Fe  Fe76  1  0.25016951  0.24856885  0.24754872  1
  Fe  Fe77  1  0.87384654  0.62416640  0.62263399  1
  Fe  Fe78  1  0.87462704  0.87680386  0.37810585  1
  Fe  Fe79  1  0.00119263  0.49903651  0.24887636  1
  Fe  Fe80  1  0.62262047  0.37654425  0.87022150  1
  Fe  Fe81  1  0.87556118  0.37412432  0.62763331  1
  Fe  Fe82  1  0.37460098  0.87443534  0.37724578  1
  Fe  Fe83  1  0.24777129  0.75241336  0.00009511  1
  Fe  Fe84  1  0.24996395  0.24919587  0.50279796  1
  Fe  Fe85  1  0.62592682  0.87697711  0.37753932  1
  Fe  Fe86  1  0.00228649  0.25086545  0.24733693  1
  Fe  Fe87  1  0.25097617  0.00139471  0.49991047  1
  Fe  Fe88  1  0.62612601  0.12311080  0.87559173  1
  Fe  Fe89  1  0.00332347  0.75259437  0.49920274  1
  Co  Co90  1  0.62472311  0.87548686  0.86938251  1
  Co  Co91  1  0.00286934  0.75169946  0.00269592  1
  Co  Co92  1  0.37741636  0.12757744  0.37684279  1
  Co  Co93  1  0.37539204  0.36999565  0.87236557  1
  Co  Co94  1  0.12643529  0.87777012  0.37279258  1
  Co  Co95  1  0.50114297  0.24644470  0.74924315  1
  Co  Co96  1  0.49326340  0.50408958  0.75360298  1
  Co  Co97  1  0.37462638  0.62492794  0.62271042  1
  Co  Co98  1  0.74939664  -0.00319254  -0.00233221  1
  Co  Co99  1  0.24711758  0.75102235  0.50107278  1
  Co  Co100  1  0.37405714  0.63087548  0.87715224  1
  Co  Co101  1  0.00217635  0.25225935  0.50057541  1
  Co  Co102  1  0.62679526  0.12306393  0.12340357  1
  Co  Co103  1  0.62272888  0.37290739  0.37560613  1
  Co  Co104  1  0.00188308  0.25115333  0.74992616  1
  Co  Co105  1  0.37689896  0.37580235  0.62968695  1
  Co  Co106  1  0.87462330  0.37451093  0.12659654  1
  Co  Co107  1  0.87467124  0.36994174  0.87267332  1
  Co  Co108  1  0.62594769  0.87622594  0.12927314  1
  Co  Co109  1  0.49585171  0.49791931  0.49722005  1
  Co  Co110  1  -0.00456811  -0.00147825  0.75115236  1
  Co  Co111  1  0.87498936  0.63045204  0.87706686  1
  Co  Co112  1  0.25267423  0.50046338  0.25104121  1
  Co  Co113  1  0.25375644  0.00138274  0.75156226  1
  Co  Co114  1  0.37498789  0.12489389  0.62420336  1
  Co  Co115  1  0.49851713  -0.00083206  0.50092683  1
  Co  Co116  1  0.00136060  -0.00161622  0.50155581  1
  Co  Co117  1  0.75010579  0.00404463  0.50036026  1
  Co  Co118  1  0.75224105  0.49388022  0.49920735  1
  Co  Co119  1  0.75434457  0.50035581  0.75230009  1
  Co  Co120  1  0.25296341  0.50246770  0.75315715  1
  Co  Co121  1  0.12697088  0.37683815  0.12415688  1
  Co  Co122  1  0.74775280  0.74856381  0.50006024  1
  Co  Co123  1  0.62330870  0.37846347  0.12375827  1
  Co  Co124  1  -0.00308139  0.00036945  0.24891653  1
  Co  Co125  1  0.37478691  0.12378220  0.12185497  1
  Co  Co126  1  0.12476431  0.87433714  0.87116534  1
  Co  Co127  1  0.62164506  0.38119942  0.62904578  1
