# generated using pymatgen
data_Fe45Co19
_symmetry_space_group_name_H-M   'P 1'
_cell_length_a   11.41558048
_cell_length_b   11.41592410
_cell_length_c   11.41612572
_cell_angle_alpha   89.99161866
_cell_angle_beta   89.99879029
_cell_angle_gamma   90.00167800
_symmetry_Int_Tables_number   1
_chemical_formula_structural   Fe45Co19
_chemical_formula_sum   'Fe90 Co38'
_cell_volume   1487.74264097
_cell_formula_units_Z   2
loop_
 _symmetry_equiv_pos_site_id
 _symmetry_equiv_pos_as_xyz
  1  'x, y, z'
loop_
 _atom_site_type_symbol
 _atom_site_label
 _atom_site_symmetry_multiplicity
 _atom_site_fract_x
 _atom_site_fract_y
 _atom_site_fract_z
 _atom_site_occupancy
  Fe  Fe0  1  0.75123672  0.25067078  0.49830995  1
  Fe  Fe1  1  0.62508247  0.37607210  0.62716480  1
  Fe  Fe2  1  0.12215666  0.37295073  0.87304784  1
  Fe  Fe3  1  0.24604343  0.25168144  0.50129972  1
  Fe  Fe4  1  0.50412171  0.00099377  0.50243499  1
  Fe  Fe5  1  0.49166824  0.74948056  0.24904195  1
  Fe  Fe6  1  0.25215901  0.74992162  0.74938217  1
  Fe  Fe7  1  0.87851750  0.37255480  0.87800745  1
  Fe  Fe8  1  -0.00046469  0.50083589  0.75105121  1
  Fe  Fe9  1  0.24828752  0.00146334  -0.00147160  1
  Fe  Fe10  1  0.24865308  0.25096930  0.74673777  1
  Fe  Fe11  1  0.87725377  0.88007379  0.37416837  1
  Fe  Fe12  1  -0.00172901  0.75267906  0.75146553  1
  Fe  Fe13  1  0.12061491  0.12445029  0.87101993  1
  Fe  Fe14  1  0.37429225  0.61989198  0.62400249  1
  Fe  Fe15  1  0.62527020  0.87336216  0.87532956  1
  Fe  Fe16  1  0.62785125  0.12740756  0.37238406  1
  Fe  Fe17  1  0.75486777  0.25019862  0.75014632  1
  Fe  Fe18  1  0.12547457  0.62540095  0.87505890  1
  Fe  Fe19  1  0.74964060  0.49945449  0.00005803  1
  Fe  Fe20  1  0.49890193  0.24967320  0.74935541  1
  Fe  Fe21  1  0.50212952  0.00133910  0.74824231  1
  Fe  Fe22  1  0.00269607  0.50074423  0.49675350  1
  Fe  Fe23  1  0.25054817  0.75141719  0.00238062  1
  Fe  Fe24  1  0.74908093  0.49946941  0.49854675  1
  Fe  Fe25  1  0.24639285  0.49673548  0.50156662  1
  Fe  Fe26  1  0.62586570  0.13048713  0.12636719  1
  Fe  Fe27  1  0.62425404  0.62546921  0.12564751  1
  Fe  Fe28  1  0.75068259  0.00029449  0.75068401  1
  Fe  Fe29  1  0.49988688  0.74805367  0.50136533  1
  Fe  Fe30  1  0.37595777  0.37307592  0.12392369  1
  Fe  Fe31  1  0.62563084  0.37363908  0.37184842  1
  Fe  Fe32  1  0.87955231  0.37470203  0.12502630  1
  Fe  Fe33  1  0.62541981  0.87365997  0.12538047  1
  Fe  Fe34  1  0.87666240  0.62644527  0.12102802  1
  Fe  Fe35  1  0.62663248  0.37442114  0.87374234  1
  Fe  Fe36  1  0.49711522  0.50057842  0.25165545  1
  Fe  Fe37  1  0.37425062  0.12266013  0.37732694  1
  Fe  Fe38  1  0.37444479  0.37561741  0.37788149  1
  Fe  Fe39  1  0.25231845  -0.00376227  0.25141613  1
  Fe  Fe40  1  0.75297132  0.75263325  0.24861372  1
  Fe  Fe41  1  0.12161815  0.12183351  0.62876681  1
  Fe  Fe42  1  0.87848947  0.37450203  0.37268389  1
  Fe  Fe43  1  0.37470079  0.12586455  0.12388025  1
  Fe  Fe44  1  0.37518220  0.87725450  0.87627358  1
  Fe  Fe45  1  0.50115009  0.49907356  -0.00198093  1
  Fe  Fe46  1  0.25130640  0.50060997  0.24997642  1
  Fe  Fe47  1  0.49951424  0.74876035  0.00048487  1
  Fe  Fe48  1  0.12376056  0.62602535  0.62616936  1
  Fe  Fe49  1  0.12606295  0.87690561  0.87242911  1
  Fe  Fe50  1  0.87353133  0.87731976  0.88295425  1
  Fe  Fe51  1  0.12771019  0.62776514  0.37222789  1
  Fe  Fe52  1  0.37429819  0.12521125  0.87500632  1
  Fe  Fe53  1  0.75245369  0.49966391  0.24883470  1
  Fe  Fe54  1  0.50078628  0.25024842  0.50005843  1
  Fe  Fe55  1  0.87512832  0.62447528  0.62403884  1
  Fe  Fe56  1  0.87233014  0.12304571  0.12146965  1
  Fe  Fe57  1  0.37421532  0.12516450  0.62381588  1
  Fe  Fe58  1  0.00204188  0.24900884  0.49808066  1
  Fe  Fe59  1  0.87453960  0.62535737  0.37566107  1
  Fe  Fe60  1  0.87481283  0.62581855  0.87883142  1
  Fe  Fe61  1  0.25158783  0.25020676  0.25259867  1
  Fe  Fe62  1  0.75104162  0.74955775  0.75169063  1
  Fe  Fe63  1  0.87581833  0.12321853  0.62336069  1
  Fe  Fe64  1  0.50261235  0.00316283  0.00020968  1
  Fe  Fe65  1  0.49964464  0.74810302  0.74974569  1
  Fe  Fe66  1  0.62500079  0.62603173  0.37261102  1
  Fe  Fe67  1  0.62815967  0.12803716  0.87524332  1
  Fe  Fe68  1  0.24792447  0.24990178  -0.00053896  1
  Fe  Fe69  1  0.37523811  0.87704305  0.62520259  1
  Fe  Fe70  1  0.24550508  -0.00346999  0.50127644  1
  Fe  Fe71  1  -0.00209160  0.75081297  0.24887831  1
  Fe  Fe72  1  0.62277885  0.87356812  0.37383930  1
  Fe  Fe73  1  0.12683792  0.12566047  0.12738990  1
  Fe  Fe74  1  0.24684116  0.49760423  -0.00004071  1
  Fe  Fe75  1  0.12075168  0.37396758  0.12906111  1
  Fe  Fe76  1  0.87346938  0.87530256  0.62337712  1
  Fe  Fe77  1  0.24943700  0.75400710  0.49857172  1
  Fe  Fe78  1  0.00183768  0.75375649  0.49967217  1
  Fe  Fe79  1  0.50015185  0.00126460  0.24933533  1
  Fe  Fe80  1  0.62782517  0.62268360  0.62787323  1
  Fe  Fe81  1  0.62367039  0.37136954  0.12649712  1
  Fe  Fe82  1  0.87786240  0.37676416  0.62333062  1
  Fe  Fe83  1  0.12438396  0.87518452  0.12697967  1
  Fe  Fe84  1  0.12220000  0.12196081  0.37302464  1
  Fe  Fe85  1  0.12531484  0.62548941  0.12581248  1
  Fe  Fe86  1  0.37348326  0.62281822  0.87712630  1
  Fe  Fe87  1  0.74929843  0.75059077  0.49896229  1
  Fe  Fe88  1  0.37307335  0.37445311  0.87327568  1
  Fe  Fe89  1  0.74672108  -0.00051028  0.49992129  1
  Co  Co90  1  0.49877648  0.50039717  0.75168440  1
  Co  Co91  1  0.00321034  0.75211173  -0.00056187  1
  Co  Co92  1  0.74761034  0.74849193  0.00131020  1
  Co  Co93  1  0.37526467  0.87924676  0.12120163  1
  Co  Co94  1  0.37231694  0.62351576  0.37764442  1
  Co  Co95  1  0.24830167  0.49930662  0.74924373  1
  Co  Co96  1  0.75427036  0.49938288  0.75179714  1
  Co  Co97  1  -0.00489646  -0.00387576  0.75102539  1
  Co  Co98  1  0.87483292  0.87630095  0.12071448  1
  Co  Co99  1  0.12551027  0.87410186  0.63013796  1
  Co  Co100  1  0.12076570  0.37564173  0.62701385  1
  Co  Co101  1  0.37604351  0.37506836  0.62417910  1
  Co  Co102  1  0.87535957  0.12412866  0.87775193  1
  Co  Co103  1  0.12280998  0.87452801  0.36982778  1
  Co  Co104  1  0.12283343  0.37460800  0.37007980  1
  Co  Co105  1  0.49596102  0.24886159  0.25258107  1
  Co  Co106  1  -0.00279297  0.24456846  0.25032981  1
  Co  Co107  1  0.74919120  -0.00046157  0.24915465  1
  Co  Co108  1  0.49900194  0.24996278  -0.00185876  1
  Co  Co109  1  -0.00305664  0.24941244  0.74899533  1
  Co  Co110  1  0.50353533  0.49986239  0.49909468  1
  Co  Co111  1  0.00180713  0.50027738  -0.00112395  1
  Co  Co112  1  0.37724164  0.87731483  0.37782334  1
  Co  Co113  1  -0.00119830  0.50458049  0.25134206  1
  Co  Co114  1  0.37386345  0.62199836  0.12119955  1
  Co  Co115  1  0.00357848  -0.00299459  0.50247470  1
  Co  Co116  1  0.87532853  0.12124671  0.37876907  1
  Co  Co117  1  0.62655265  0.62479822  0.87436343  1
  Co  Co118  1  0.62622048  0.87247986  0.62634558  1
  Co  Co119  1  0.62794218  0.12847554  0.62649208  1
  Co  Co120  1  0.75512444  0.25010207  0.24999273  1
  Co  Co121  1  0.00197027  0.24615809  0.00277606  1
  Co  Co122  1  -0.00258773  0.00221272  0.24605788  1
  Co  Co123  1  0.74492619  0.00104624  0.00128781  1
  Co  Co124  1  0.00378794  0.00151345  0.00087417  1
  Co  Co125  1  0.25534807  0.75186166  0.24830703  1
  Co  Co126  1  0.75098537  0.25236375  0.00077020  1
  Co  Co127  1  0.25185463  0.00108904  0.74956003  1
