# generated using pymatgen
data_Fe45Co19
_symmetry_space_group_name_H-M   'P 1'
_cell_length_a   11.41622277
_cell_length_b   11.41605882
_cell_length_c   11.41499415
_cell_angle_alpha   90.00508584
_cell_angle_beta   90.00018241
_cell_angle_gamma   90.00666459
_symmetry_Int_Tables_number   1
_chemical_formula_structural   Fe45Co19
_chemical_formula_sum   'Fe90 Co38'
_cell_volume   1487.69643091
_cell_formula_units_Z   2
loop_
 _symmetry_equiv_pos_site_id
 _symmetry_equiv_pos_as_xyz
  1  'x, y, z'
loop_
 _atom_site_type_symbol
 _atom_site_label
 _atom_site_symmetry_multiplicity
 _atom_site_fract_x
 _atom_site_fract_y
 _atom_site_fract_z
 _atom_site_occupancy
  Fe  Fe0  1  0.00065072  0.50034319  0.00087368  1
  Fe  Fe1  1  0.62138139  0.11853579  0.87795983  1
  Fe  Fe2  1  0.25341039  0.24990375  0.74928406  1
  Fe  Fe3  1  0.37542258  0.12463077  0.37302567  1
  Fe  Fe4  1  -0.00022160  0.24664753  0.75217263  1
  Fe  Fe5  1  0.62626433  0.62576373  0.12482420  1
  Fe  Fe6  1  0.38107432  0.88069201  0.87443030  1
  Fe  Fe7  1  0.87461094  0.62289050  0.37580873  1
  Fe  Fe8  1  0.62480973  0.87709369  0.37459835  1
  Fe  Fe9  1  0.62171475  0.37623879  0.87429973  1
  Fe  Fe10  1  0.00117739  0.50015770  0.50188306  1
  Fe  Fe11  1  0.87091916  0.12239160  0.87761677  1
  Fe  Fe12  1  0.37732965  0.87729147  0.37504974  1
  Fe  Fe13  1  0.49756643  0.24721178  -0.00157646  1
  Fe  Fe14  1  0.74936717  0.75192259  0.75010318  1
  Fe  Fe15  1  0.37473092  0.37433289  0.87503837  1
  Fe  Fe16  1  0.37450766  0.37406043  0.37323064  1
  Fe  Fe17  1  0.37394892  0.62530285  0.87192165  1
  Fe  Fe18  1  0.50307387  0.00332264  0.50502679  1
  Fe  Fe19  1  0.25025188  0.00069876  0.24780844  1
  Fe  Fe20  1  0.62295867  0.37159892  0.62587293  1
  Fe  Fe21  1  0.25452450  0.00001550  0.00391761  1
  Fe  Fe22  1  -0.00181059  0.00137744  0.00170205  1
  Fe  Fe23  1  0.74808685  0.25171880  0.75558152  1
  Fe  Fe24  1  0.12451112  0.37484342  0.37495328  1
  Fe  Fe25  1  0.12301195  0.87675466  0.37661080  1
  Fe  Fe26  1  0.87953344  0.87785501  0.62668258  1
  Fe  Fe27  1  0.12854791  0.62571842  0.87229592  1
  Fe  Fe28  1  0.62490938  0.62571854  0.62474637  1
  Fe  Fe29  1  0.49817676  0.74661926  0.49726235  1
  Fe  Fe30  1  0.49901537  0.50103466  0.00138780  1
  Fe  Fe31  1  0.25153772  0.75246010  -0.00210624  1
  Fe  Fe32  1  0.75105128  0.75159754  0.49879488  1
  Fe  Fe33  1  0.12446854  0.87508860  0.12362589  1
  Fe  Fe34  1  0.00072564  0.24878984  0.24897161  1
  Fe  Fe35  1  -0.00149457  0.24847354  0.50025966  1
  Fe  Fe36  1  0.25102916  0.75217454  0.50208721  1
  Fe  Fe37  1  0.25262703  0.24967102  0.00406666  1
  Fe  Fe38  1  0.50042715  0.74777067  0.25195230  1
  Fe  Fe39  1  0.12592789  0.37308756  0.62585048  1
  Fe  Fe40  1  0.87383097  0.62661745  0.12374554  1
  Fe  Fe41  1  0.74923504  0.00071208  0.50111587  1
  Fe  Fe42  1  0.00060552  0.75039905  0.50140027  1
  Fe  Fe43  1  0.74887784  0.49688633  -0.00146901  1
  Fe  Fe44  1  0.62418069  0.37017885  0.12493106  1
  Fe  Fe45  1  0.50260825  0.00314235  0.24408447  1
  Fe  Fe46  1  0.12541939  0.37403442  0.87558278  1
  Fe  Fe47  1  0.87425533  0.12461700  0.37388688  1
  Fe  Fe48  1  0.62488251  0.62565506  0.87402190  1
  Fe  Fe49  1  0.49974393  0.75148383  0.00140130  1
  Fe  Fe50  1  0.12489928  0.12504905  0.37392307  1
  Fe  Fe51  1  0.24909249  -0.00082722  0.50186828  1
  Fe  Fe52  1  0.00097975  0.50037323  0.75071005  1
  Fe  Fe53  1  0.87330643  0.62320444  0.62644127  1
  Fe  Fe54  1  -0.00111687  0.00175245  0.24665093  1
  Fe  Fe55  1  0.25059709  0.49876153  0.00176286  1
  Fe  Fe56  1  0.25267218  0.50017222  0.50331503  1
  Fe  Fe57  1  -0.00022892  0.24806251  -0.00179599  1
  Fe  Fe58  1  0.87457285  0.87697286  0.87469328  1
  Fe  Fe59  1  0.49742833  0.50325929  0.49960580  1
  Fe  Fe60  1  0.00018748  0.74976701  -0.00171399  1
  Fe  Fe61  1  0.74881290  0.00311478  0.24349800  1
  Fe  Fe62  1  0.87271106  0.36967206  0.12375016  1
  Fe  Fe63  1  0.25089205  0.24852808  0.49922336  1
  Fe  Fe64  1  0.49996498  0.75344974  0.74898935  1
  Fe  Fe65  1  0.12956582  0.62791383  0.63051921  1
  Fe  Fe66  1  0.87343487  0.12457041  0.62687777  1
  Fe  Fe67  1  0.12440114  0.12283093  0.62488499  1
  Fe  Fe68  1  0.50018081  0.24678010  0.49885125  1
  Fe  Fe69  1  0.87551221  0.87714093  0.37331277  1
  Fe  Fe70  1  0.12328900  0.87672537  0.87258979  1
  Fe  Fe71  1  0.24878636  0.75160557  0.25059373  1
  Fe  Fe72  1  0.00038106  0.50053916  0.24749952  1
  Fe  Fe73  1  0.74522788  -0.00224624  0.74895036  1
  Fe  Fe74  1  0.75032129  0.49739087  0.25048564  1
  Fe  Fe75  1  0.87290676  0.62290027  0.87407919  1
  Fe  Fe76  1  0.74957482  0.75071973  0.25093642  1
  Fe  Fe77  1  0.24897216  0.49726811  0.24616228  1
  Fe  Fe78  1  0.00132430  0.74868015  0.24975946  1
  Fe  Fe79  1  0.12944119  0.12404969  0.87670066  1
  Fe  Fe80  1  0.87393601  0.37428637  0.62786518  1
  Fe  Fe81  1  0.37312244  0.62641852  0.12562267  1
  Fe  Fe82  1  0.74959265  0.49806654  0.49988653  1
  Fe  Fe83  1  0.75070222  0.24969654  0.49618706  1
  Fe  Fe84  1  0.49802141  0.49841545  0.74842412  1
  Fe  Fe85  1  0.50025734  0.50122423  0.25032372  1
  Fe  Fe86  1  0.12709256  0.62356984  0.37514912  1
  Fe  Fe87  1  0.25213496  -0.00193063  0.74678859  1
  Fe  Fe88  1  0.74836059  0.75384450  -0.00067470  1
  Fe  Fe89  1  0.62382466  0.37504224  0.37519719  1
  Co  Co90  1  0.12013150  0.87716601  0.62670109  1
  Co  Co91  1  0.00041528  0.00454894  0.75359922  1
  Co  Co92  1  -0.00065716  0.00199972  0.49822615  1
  Co  Co93  1  0.37863615  0.37352700  0.12643655  1
  Co  Co94  1  0.25273619  0.75792447  0.75101491  1
  Co  Co95  1  0.49876655  0.24767873  0.75311575  1
  Co  Co96  1  0.12572928  0.12423636  0.12361523  1
  Co  Co97  1  0.37836217  0.87522738  0.62139591  1
  Co  Co98  1  0.74761556  0.25303833  -0.00713493  1
  Co  Co99  1  0.24899865  0.25040408  0.24917149  1
  Co  Co100  1  0.50242453  0.24747045  0.25264882  1
  Co  Co101  1  0.62818166  0.13006807  0.62629943  1
  Co  Co102  1  0.37567174  0.12894194  0.12745363  1
  Co  Co103  1  0.74671594  0.49854996  0.75086770  1
  Co  Co104  1  0.87092978  0.13006960  0.12154379  1
  Co  Co105  1  0.37041314  0.62397228  0.37228299  1
  Co  Co106  1  0.62406567  0.87198025  0.62186279  1
  Co  Co107  1  0.62845482  0.62403544  0.37525921  1
  Co  Co108  1  0.87808533  0.37713839  0.87419714  1
  Co  Co109  1  0.37783345  0.37196187  0.62311802  1
  Co  Co110  1  0.37448358  0.12627826  0.62545914  1
  Co  Co111  1  0.74818671  -0.00422080  0.00518135  1
  Co  Co112  1  0.74717339  0.24879835  0.25466719  1
  Co  Co113  1  0.62113122  0.87853246  0.87646926  1
  Co  Co114  1  0.50216411  0.00145462  0.74341909  1
  Co  Co115  1  0.12693735  0.62729786  0.12300498  1
  Co  Co116  1  0.25240618  0.49523631  0.75025052  1
  Co  Co117  1  0.62760558  0.13157698  0.12008138  1
  Co  Co118  1  0.37490902  0.87181226  0.12757682  1
  Co  Co119  1  0.62508429  0.12167849  0.37537884  1
  Co  Co120  1  0.62362248  0.87196906  0.12602542  1
  Co  Co121  1  0.37409647  0.62650298  0.62904491  1
  Co  Co122  1  0.87682530  0.87291802  0.12513493  1
  Co  Co123  1  0.87777101  0.37558058  0.37460324  1
  Co  Co124  1  0.49881219  0.00051199  0.00852442  1
  Co  Co125  1  0.37586837  0.12043734  0.87451896  1
  Co  Co126  1  -0.00175482  0.74854241  0.75122325  1
  Co  Co127  1  0.12263649  0.37281213  0.12327134  1
