# generated using pymatgen
data_Fe45Co19
_symmetry_space_group_name_H-M   'P 1'
_cell_length_a   11.41512272
_cell_length_b   11.41553041
_cell_length_c   11.41477790
_cell_angle_alpha   90.00180702
_cell_angle_beta   90.00393372
_cell_angle_gamma   89.99587077
_symmetry_Int_Tables_number   1
_chemical_formula_structural   Fe45Co19
_chemical_formula_sum   'Fe90 Co38'
_cell_volume   1487.45605370
_cell_formula_units_Z   2
loop_
 _symmetry_equiv_pos_site_id
 _symmetry_equiv_pos_as_xyz
  1  'x, y, z'
loop_
 _atom_site_type_symbol
 _atom_site_label
 _atom_site_symmetry_multiplicity
 _atom_site_fract_x
 _atom_site_fract_y
 _atom_site_fract_z
 _atom_site_occupancy
  Fe  Fe0  1  -0.00174652  0.50088405  0.50086821  1
  Fe  Fe1  1  0.00122542  0.50054716  0.24761614  1
  Fe  Fe2  1  0.75346786  0.24478825  0.75324663  1
  Fe  Fe3  1  0.37291001  0.37387848  0.12491490  1
  Fe  Fe4  1  0.62726559  0.87628227  0.87394082  1
  Fe  Fe5  1  0.37414906  0.37362298  0.87563674  1
  Fe  Fe6  1  0.49844611  0.49978233  -0.00061737  1
  Fe  Fe7  1  0.87321751  0.12483562  0.37278393  1
  Fe  Fe8  1  0.50080403  0.24875446  0.75032251  1
  Fe  Fe9  1  0.87721784  0.87066367  0.37303522  1
  Fe  Fe10  1  0.12566071  0.87461013  0.87326600  1
  Fe  Fe11  1  0.75213423  0.00232079  0.00136603  1
  Fe  Fe12  1  0.24920395  0.50137875  0.75078108  1
  Fe  Fe13  1  0.50198870  0.24865280  0.24967034  1
  Fe  Fe14  1  0.12539344  0.87488755  0.62450160  1
  Fe  Fe15  1  0.25013598  -0.00188414  0.49767610  1
  Fe  Fe16  1  0.50176675  0.50126632  0.75005347  1
  Fe  Fe17  1  0.87483447  0.37535817  0.62979386  1
  Fe  Fe18  1  0.62892182  0.12313691  0.37249980  1
  Fe  Fe19  1  0.12641818  0.87613574  0.12527515  1
  Fe  Fe20  1  0.62534242  0.87107802  0.62734435  1
  Fe  Fe21  1  0.49926601  0.50272410  0.24970187  1
  Fe  Fe22  1  0.49929455  0.50063553  0.49988738  1
  Fe  Fe23  1  -0.00069081  0.00258138  0.74800137  1
  Fe  Fe24  1  0.24780072  0.24816658  0.75133844  1
  Fe  Fe25  1  0.25205983  0.49727336  0.49580534  1
  Fe  Fe26  1  0.50207710  -0.00277193  0.49746804  1
  Fe  Fe27  1  0.75126424  0.74912204  0.00044737  1
  Fe  Fe28  1  0.37372850  0.62688063  0.12428631  1
  Fe  Fe29  1  0.12521424  0.62318830  0.12234039  1
  Fe  Fe30  1  0.37173754  0.87400334  0.87384924  1
  Fe  Fe31  1  0.62852422  0.12357444  0.12696318  1
  Fe  Fe32  1  0.12471684  0.37742799  0.87862429  1
  Fe  Fe33  1  0.37487606  0.87472411  0.62893734  1
  Fe  Fe34  1  0.00037344  -0.00181747  0.25047088  1
  Fe  Fe35  1  0.50057269  0.24895065  0.00207306  1
  Fe  Fe36  1  0.62690403  0.37792847  0.12586371  1
  Fe  Fe37  1  0.62638397  0.37453183  0.62609890  1
  Fe  Fe38  1  0.75217741  0.50081178  -0.00058316  1
  Fe  Fe39  1  0.12373535  0.12571863  0.12413619  1
  Fe  Fe40  1  0.37183692  0.12370105  0.12699080  1
  Fe  Fe41  1  0.87245369  0.37739227  0.12744379  1
  Fe  Fe42  1  0.37417507  0.37337344  0.62414090  1
  Fe  Fe43  1  0.87392299  0.87541344  0.62720913  1
  Fe  Fe44  1  0.00000838  0.25202718  0.24930194  1
  Fe  Fe45  1  0.62616804  0.37296932  0.87555293  1
  Fe  Fe46  1  0.87363885  0.62282407  0.62886928  1
  Fe  Fe47  1  0.24843479  0.49699631  0.25164192  1
  Fe  Fe48  1  -0.00204944  0.25047048  0.50038055  1
  Fe  Fe49  1  0.12514588  0.37383420  0.62304934  1
  Fe  Fe50  1  0.37573078  0.12493978  0.87522455  1
  Fe  Fe51  1  -0.00160707  -0.00171288  0.49850941  1
  Fe  Fe52  1  0.37378781  0.12478561  0.62395753  1
  Fe  Fe53  1  0.49894693  0.75169942  0.00163753  1
  Fe  Fe54  1  0.37726273  0.87542503  0.36931369  1
  Fe  Fe55  1  0.62673083  0.12417959  0.62499972  1
  Fe  Fe56  1  0.75000872  -0.00296850  0.49895044  1
  Fe  Fe57  1  0.74819319  0.74731305  0.24742883  1
  Fe  Fe58  1  0.12328222  0.62809537  0.37640968  1
  Fe  Fe59  1  0.24694425  0.25297737  0.25254653  1
  Fe  Fe60  1  0.62225422  0.62788556  0.37654633  1
  Fe  Fe61  1  0.00000090  0.75002206  0.00128945  1
  Fe  Fe62  1  0.50177853  -0.00006118  0.75100992  1
  Fe  Fe63  1  0.87537298  0.87779562  0.87399375  1
  Fe  Fe64  1  0.50071865  0.24918352  0.49866981  1
  Fe  Fe65  1  0.87483893  0.37704337  0.37300141  1
  Fe  Fe66  1  0.62295871  0.87611652  0.12784798  1
  Fe  Fe67  1  0.12653956  0.62561340  0.62211847  1
  Fe  Fe68  1  0.37651266  0.62706608  0.62464880  1
  Fe  Fe69  1  0.24951823  -0.00035272  0.00048115  1
  Fe  Fe70  1  -0.00345971  0.25301069  -0.00047557  1
  Fe  Fe71  1  0.62480852  0.37615838  0.37286542  1
  Fe  Fe72  1  0.87623185  0.87420300  0.12559351  1
  Fe  Fe73  1  0.12160199  0.12360051  0.87725713  1
  Fe  Fe74  1  0.37396458  0.12566469  0.37461343  1
  Fe  Fe75  1  0.12501824  0.62358305  0.87834392  1
  Fe  Fe76  1  0.25222294  0.75242406  0.49891852  1
  Fe  Fe77  1  0.87807140  0.62750952  0.37280101  1
  Fe  Fe78  1  0.75116423  0.25127279  0.49860261  1
  Fe  Fe79  1  0.75317307  0.24823851  -0.00039492  1
  Fe  Fe80  1  0.12473573  0.12516847  0.37626819  1
  Fe  Fe81  1  0.87687661  0.62188544  0.87351380  1
  Fe  Fe82  1  0.12530592  0.12562787  0.62265328  1
  Fe  Fe83  1  0.62516711  0.62640336  0.87510310  1
  Fe  Fe84  1  0.75058002  0.74909181  0.50126117  1
  Fe  Fe85  1  0.49887368  0.00019614  0.00132866  1
  Fe  Fe86  1  0.24858237  0.75181643  0.24885055  1
  Fe  Fe87  1  0.74937506  0.50118340  0.50037335  1
  Fe  Fe88  1  0.37279127  0.62778551  0.87595114  1
  Fe  Fe89  1  0.00081518  0.74810151  0.74853772  1
  Co  Co90  1  0.74517161  0.50149949  0.74995871  1
  Co  Co91  1  0.12615881  0.37505017  0.12099014  1
  Co  Co92  1  0.62530821  0.87254515  0.37147074  1
  Co  Co93  1  0.25303082  0.49983710  0.00056675  1
  Co  Co94  1  0.49721412  0.75320264  0.49869328  1
  Co  Co95  1  0.37327773  0.62653335  0.37367959  1
  Co  Co96  1  0.24868949  0.75261816  0.00177073  1
  Co  Co97  1  -0.00207422  0.74964034  0.50505584  1
  Co  Co98  1  0.50077274  0.74763472  0.24753893  1
  Co  Co99  1  0.37562362  0.87685471  0.12745403  1
  Co  Co100  1  0.75025281  0.25117951  0.24956727  1
  Co  Co101  1  0.00260666  0.74997169  0.24476764  1
  Co  Co102  1  0.74989921  0.00269406  0.74992623  1
  Co  Co103  1  0.00103770  -0.00330478  0.00279536  1
  Co  Co104  1  0.50012220  0.74975583  0.75308956  1
  Co  Co105  1  0.50106878  0.00306139  0.25077358  1
  Co  Co106  1  0.00480877  0.50016082  0.74858101  1
  Co  Co107  1  0.75334998  -0.00301784  0.24962239  1
  Co  Co108  1  0.24858979  0.00261802  0.75071346  1
  Co  Co109  1  0.87889027  0.12069107  0.87743315  1
  Co  Co110  1  0.62269016  0.62868396  0.62390106  1
  Co  Co111  1  0.25027123  0.24822230  -0.00134765  1
  Co  Co112  1  0.87476992  0.37830676  0.87105516  1
  Co  Co113  1  0.62463434  0.62362371  0.12140691  1
  Co  Co114  1  0.24779930  0.74754536  0.74915879  1
  Co  Co115  1  0.00121747  0.24973249  0.75142003  1
  Co  Co116  1  0.74906613  0.50463490  0.25202834  1
  Co  Co117  1  0.24621558  -0.00075983  0.25150818  1
  Co  Co118  1  0.87530765  0.62571363  0.12543328  1
  Co  Co119  1  0.87511984  0.12470851  0.62330322  1
  Co  Co120  1  0.62426708  0.12449837  0.87665259  1
  Co  Co121  1  0.37833554  0.37347410  0.37378872  1
  Co  Co122  1  -0.00349912  0.49867601  0.00298712  1
  Co  Co123  1  0.12083831  0.37609642  0.37748138  1
  Co  Co124  1  0.75140643  0.74881385  0.75148634  1
  Co  Co125  1  0.12188120  0.87126992  0.37660744  1
  Co  Co126  1  0.25019567  0.25173140  0.49737752  1
  Co  Co127  1  0.87750176  0.12419545  0.12648596  1
