# generated using pymatgen
data_Fe45Co19
_symmetry_space_group_name_H-M   'P 1'
_cell_length_a   11.41399215
_cell_length_b   11.41508802
_cell_length_c   11.41400699
_cell_angle_alpha   90.00308976
_cell_angle_beta   90.00077508
_cell_angle_gamma   89.99980286
_symmetry_Int_Tables_number   1
_chemical_formula_structural   Fe45Co19
_chemical_formula_sum   'Fe90 Co38'
_cell_volume   1487.15065790
_cell_formula_units_Z   2
loop_
 _symmetry_equiv_pos_site_id
 _symmetry_equiv_pos_as_xyz
  1  'x, y, z'
loop_
 _atom_site_type_symbol
 _atom_site_label
 _atom_site_symmetry_multiplicity
 _atom_site_fract_x
 _atom_site_fract_y
 _atom_site_fract_z
 _atom_site_occupancy
  Fe  Fe0  1  0.37610659  0.12289542  0.37744162  1
  Fe  Fe1  1  0.50014226  -0.00065296  0.74965795  1
  Fe  Fe2  1  0.49887630  0.25060710  0.00142852  1
  Fe  Fe3  1  -0.00121859  -0.00007507  0.25000839  1
  Fe  Fe4  1  0.74898817  0.25046825  0.00254433  1
  Fe  Fe5  1  0.62348251  0.12644709  0.12819517  1
  Fe  Fe6  1  0.50639616  0.50523765  0.00352548  1
  Fe  Fe7  1  0.62661321  0.37319039  0.37491512  1
  Fe  Fe8  1  0.74885526  0.25063414  0.74864271  1
  Fe  Fe9  1  0.87593416  0.62075823  0.37396417  1
  Fe  Fe10  1  0.12534331  0.12690991  0.37287594  1
  Fe  Fe11  1  0.25234886  0.74902383  0.49684921  1
  Fe  Fe12  1  -0.00216153  0.25463268  0.25371038  1
  Fe  Fe13  1  0.62470019  0.87364915  0.87469350  1
  Fe  Fe14  1  0.24822234  0.49828773  -0.00187659  1
  Fe  Fe15  1  0.87332244  0.12703960  0.37780705  1
  Fe  Fe16  1  0.75233183  0.75125683  0.74723782  1
  Fe  Fe17  1  0.50086224  -0.00163580  0.25379876  1
  Fe  Fe18  1  0.49876645  0.49958455  0.24782137  1
  Fe  Fe19  1  0.12743676  0.12535605  0.87533694  1
  Fe  Fe20  1  0.12776290  0.87531549  0.37318704  1
  Fe  Fe21  1  0.62478950  0.37546253  0.87484220  1
  Fe  Fe22  1  0.00161624  0.49770361  0.49748872  1
  Fe  Fe23  1  0.37380668  0.37614169  0.37591672  1
  Fe  Fe24  1  0.00255442  -0.00024831  -0.00026829  1
  Fe  Fe25  1  -0.00352716  0.75160671  0.74958737  1
  Fe  Fe26  1  0.49445256  0.25193034  0.24823644  1
  Fe  Fe27  1  0.12492653  0.12649345  0.62711200  1
  Fe  Fe28  1  0.62523134  0.12362392  0.62583129  1
  Fe  Fe29  1  0.25072125  -0.00250894  0.74981804  1
  Fe  Fe30  1  -0.00047997  0.75064108  -0.00009821  1
  Fe  Fe31  1  -0.00008301  0.74907302  0.24969827  1
  Fe  Fe32  1  0.50247513  0.50087959  0.49939951  1
  Fe  Fe33  1  0.87252623  0.12176928  0.62251265  1
  Fe  Fe34  1  0.37733599  0.87801726  0.61769469  1
  Fe  Fe35  1  0.62608720  0.12406147  0.87566432  1
  Fe  Fe36  1  0.62283471  0.62661320  0.62716128  1
  Fe  Fe37  1  0.49067958  0.74996975  0.25200543  1
  Fe  Fe38  1  0.37734246  0.37461842  0.87733604  1
  Fe  Fe39  1  0.75290056  0.25245581  0.24843076  1
  Fe  Fe40  1  0.24874618  0.24968955  0.49881159  1
  Fe  Fe41  1  0.25162172  0.75200859  0.00123097  1
  Fe  Fe42  1  0.25176284  0.00293999  0.24693026  1
  Fe  Fe43  1  0.62410578  0.87169127  0.12923611  1
  Fe  Fe44  1  0.62416267  0.62693166  0.37109154  1
  Fe  Fe45  1  0.87159988  0.87732509  0.87692334  1
  Fe  Fe46  1  0.74599493  0.74674806  0.00067527  1
  Fe  Fe47  1  0.12447816  0.87363644  0.62464788  1
  Fe  Fe48  1  0.49965896  0.49947988  0.75004547  1
  Fe  Fe49  1  0.50281007  0.24945537  0.50084665  1
  Fe  Fe50  1  0.50298871  -0.00195652  0.00277108  1
  Fe  Fe51  1  0.75203301  0.74721615  0.50039861  1
  Fe  Fe52  1  0.87457495  0.87658741  0.37750337  1
  Fe  Fe53  1  0.25091431  0.50113368  0.24953174  1
  Fe  Fe54  1  0.25244593  0.25174058  0.75283707  1
  Fe  Fe55  1  0.74872869  0.00016342  0.25222088  1
  Fe  Fe56  1  0.00227953  0.00127101  0.49933570  1
  Fe  Fe57  1  0.87462818  0.62207706  0.12407998  1
  Fe  Fe58  1  0.12642267  0.87480976  0.12673246  1
  Fe  Fe59  1  0.87346765  0.37674913  0.87856633  1
  Fe  Fe60  1  0.12675325  0.62673123  0.12641019  1
  Fe  Fe61  1  0.37720693  0.62576095  0.62404512  1
  Fe  Fe62  1  0.87393334  0.87657980  0.12356865  1
  Fe  Fe63  1  0.87293486  0.62239649  0.87644134  1
  Fe  Fe64  1  0.87593918  0.12458995  0.12446823  1
  Fe  Fe65  1  0.75415999  0.75084941  0.25036159  1
  Fe  Fe66  1  0.37782282  0.37280551  0.62583656  1
  Fe  Fe67  1  0.87167392  0.12288873  0.87608103  1
  Fe  Fe68  1  0.37862891  0.62747901  0.87635924  1
  Fe  Fe69  1  0.12584340  0.62398977  0.37349334  1
  Fe  Fe70  1  0.37670233  0.87502429  0.87860140  1
  Fe  Fe71  1  0.12425017  0.62592944  0.62574855  1
  Fe  Fe72  1  0.12520796  0.37360144  0.62585973  1
  Fe  Fe73  1  0.12797735  0.37100082  0.12817992  1
  Fe  Fe74  1  0.25326690  0.75100523  0.74940411  1
  Fe  Fe75  1  0.12420832  0.62667956  0.87324700  1
  Fe  Fe76  1  0.37615942  0.12411099  0.62367727  1
  Fe  Fe77  1  0.87181741  0.37512908  0.61841305  1
  Fe  Fe78  1  -0.00037822  -0.00200374  0.75176360  1
  Fe  Fe79  1  -0.00308426  0.25086589  0.74941374  1
  Fe  Fe80  1  0.75163706  0.49615840  0.24705567  1
  Fe  Fe81  1  0.25116419  0.49995261  0.75106530  1
  Fe  Fe82  1  0.62490296  0.87500890  0.62012120  1
  Fe  Fe83  1  0.74980609  0.49921288  0.74815208  1
  Fe  Fe84  1  0.37429958  0.12357030  0.87780014  1
  Fe  Fe85  1  -0.00153656  0.74946110  0.49958254  1
  Fe  Fe86  1  -0.00041343  0.49858787  0.74952513  1
  Fe  Fe87  1  0.00189176  0.25052753  -0.00099083  1
  Fe  Fe88  1  0.25018422  0.49913665  0.50206607  1
  Fe  Fe89  1  0.00293000  0.49854793  0.00177986  1
  Co  Co90  1  0.62546771  0.62874621  0.13317557  1
  Co  Co91  1  0.37508653  0.87658647  0.12388479  1
  Co  Co92  1  0.49751541  0.74769474  0.49626911  1
  Co  Co93  1  0.62524163  0.86800240  0.37463026  1
  Co  Co94  1  0.87436397  0.88004342  0.62165659  1
  Co  Co95  1  0.74409882  0.50194149  0.00297316  1
  Co  Co96  1  0.37361648  0.62335547  0.12227001  1
  Co  Co97  1  0.12447862  0.37372760  0.87304499  1
  Co  Co98  1  0.74779601  -0.00116569  0.74998853  1
  Co  Co99  1  0.24568767  0.00287687  0.50055814  1
  Co  Co100  1  0.37817265  0.12262265  0.12272103  1
  Co  Co101  1  0.25130344  0.24932016  0.00109017  1
  Co  Co102  1  0.62470884  0.13124328  0.36951533  1
  Co  Co103  1  0.87094372  0.37617722  0.38012779  1
  Co  Co104  1  0.37234337  0.88023593  0.37830463  1
  Co  Co105  1  0.74452863  0.50417736  0.49933272  1
  Co  Co106  1  0.74516979  0.00168248  0.49372803  1
  Co  Co107  1  0.12914537  0.37484971  0.37289960  1
  Co  Co108  1  0.62337820  0.37595804  0.62578889  1
  Co  Co109  1  0.24706569  0.00021901  0.00249342  1
  Co  Co110  1  0.50354835  0.74739548  0.00245740  1
  Co  Co111  1  0.37420380  0.62012210  0.37599279  1
  Co  Co112  1  0.62326482  0.37233870  0.12629452  1
  Co  Co113  1  0.50094917  0.24738524  0.75124175  1
  Co  Co114  1  0.12583734  0.87313754  0.87445990  1
  Co  Co115  1  0.49820221  0.75430459  0.74813783  1
  Co  Co116  1  0.87676206  0.62200752  0.62424315  1
  Co  Co117  1  0.87642598  0.37539229  0.12145202  1
  Co  Co118  1  0.62492932  0.62618545  0.86836273  1
  Co  Co119  1  0.12234011  0.12802243  0.12655984  1
  Co  Co120  1  0.37406343  0.37858209  0.12263621  1
  Co  Co121  1  0.74626018  0.00018679  0.00454627  1
  Co  Co122  1  0.50676200  0.00240641  0.49541554  1
  Co  Co123  1  0.25418330  0.74932036  0.25218602  1
  Co  Co124  1  0.25561263  0.24684691  0.24955666  1
  Co  Co125  1  0.00010794  0.49772485  0.24945817  1
  Co  Co126  1  0.74565667  0.24781182  0.50157964  1
  Co  Co127  1  0.00216138  0.25002483  0.49888548  1
