# generated using pymatgen
data_Fe45Co19
_symmetry_space_group_name_H-M   'P 1'
_cell_length_a   11.41502945
_cell_length_b   11.41573674
_cell_length_c   11.41481857
_cell_angle_alpha   90.00635972
_cell_angle_beta   89.99450162
_cell_angle_gamma   89.99497939
_symmetry_Int_Tables_number   1
_chemical_formula_structural   Fe45Co19
_chemical_formula_sum   'Fe90 Co38'
_cell_volume   1487.47607134
_cell_formula_units_Z   2
loop_
 _symmetry_equiv_pos_site_id
 _symmetry_equiv_pos_as_xyz
  1  'x, y, z'
loop_
 _atom_site_type_symbol
 _atom_site_label
 _atom_site_symmetry_multiplicity
 _atom_site_fract_x
 _atom_site_fract_y
 _atom_site_fract_z
 _atom_site_occupancy
  Fe  Fe0  1  0.00421487  0.50010282  0.74765842  1
  Fe  Fe1  1  0.75640394  0.00253418  0.25285947  1
  Fe  Fe2  1  0.87456864  0.37501039  0.12577274  1
  Fe  Fe3  1  0.87268491  0.12651275  0.62469634  1
  Fe  Fe4  1  0.87282524  0.37774881  0.87267440  1
  Fe  Fe5  1  0.62430084  0.37361035  0.37504460  1
  Fe  Fe6  1  0.24973195  0.49972056  0.74796045  1
  Fe  Fe7  1  0.25101282  0.75213231  0.49720575  1
  Fe  Fe8  1  0.49984374  0.24836011  -0.00284986  1
  Fe  Fe9  1  0.12641748  0.62556516  0.12446673  1
  Fe  Fe10  1  0.87359164  0.62431036  0.62801989  1
  Fe  Fe11  1  0.24824609  0.25044845  0.25122967  1
  Fe  Fe12  1  0.12522203  0.87463156  0.87551085  1
  Fe  Fe13  1  0.25092473  -0.00014398  0.74987622  1
  Fe  Fe14  1  0.12310438  0.37705557  0.37781028  1
  Fe  Fe15  1  0.50063603  0.49792478  -0.00164446  1
  Fe  Fe16  1  0.62576946  0.37512199  0.12478032  1
  Fe  Fe17  1  0.87576354  0.87339147  0.87354626  1
  Fe  Fe18  1  0.37367124  0.87559477  0.12709072  1
  Fe  Fe19  1  0.50073577  0.75003745  0.25103737  1
  Fe  Fe20  1  0.87543273  0.87286903  0.12540943  1
  Fe  Fe21  1  0.37370742  0.62524968  0.87648258  1
  Fe  Fe22  1  0.87457071  0.62404207  0.12484208  1
  Fe  Fe23  1  0.24940041  0.74963974  0.75119330  1
  Fe  Fe24  1  0.74828374  0.74917738  0.50103282  1
  Fe  Fe25  1  0.00022703  0.25089997  -0.00111476  1
  Fe  Fe26  1  0.00045438  0.74707400  -0.00213950  1
  Fe  Fe27  1  0.50319629  0.74891296  0.74805618  1
  Fe  Fe28  1  0.74452376  0.50296373  0.75200389  1
  Fe  Fe29  1  0.62441883  0.62451188  0.12339046  1
  Fe  Fe30  1  0.25136803  0.24932104  0.50077877  1
  Fe  Fe31  1  0.75036462  0.49803725  0.50119045  1
  Fe  Fe32  1  0.25355076  0.25121107  0.74763252  1
  Fe  Fe33  1  -0.00027757  0.00079326  0.74797070  1
  Fe  Fe34  1  -0.00245108  0.25415233  0.50525152  1
  Fe  Fe35  1  0.62718749  0.87763875  0.12389644  1
  Fe  Fe36  1  0.87594219  0.37393869  0.37505847  1
  Fe  Fe37  1  0.37595800  0.62591106  0.62361128  1
  Fe  Fe38  1  0.25144877  0.49853052  0.25009518  1
  Fe  Fe39  1  0.75090057  0.24706544  0.25249737  1
  Fe  Fe40  1  0.50022882  0.24954209  0.24918656  1
  Fe  Fe41  1  0.37672701  0.37476338  0.37625657  1
  Fe  Fe42  1  0.75314892  0.00327562  0.49626565  1
  Fe  Fe43  1  0.37509545  0.62459230  0.12539584  1
  Fe  Fe44  1  0.75130879  0.74809121  -0.00324606  1
  Fe  Fe45  1  0.37495702  0.87591267  0.62408973  1
  Fe  Fe46  1  0.62447445  0.87594953  0.87717760  1
  Fe  Fe47  1  -0.00276838  0.00121663  -0.00015831  1
  Fe  Fe48  1  0.12526601  0.87460464  0.62401018  1
  Fe  Fe49  1  -0.00018729  0.74685318  0.50022520  1
  Fe  Fe50  1  0.12550529  0.37553419  0.12399065  1
  Fe  Fe51  1  0.62553960  0.87616794  0.62350715  1
  Fe  Fe52  1  0.49734669  0.75282729  0.00030969  1
  Fe  Fe53  1  0.12280562  0.12464192  0.12528242  1
  Fe  Fe54  1  0.24847232  0.00076497  0.25358093  1
  Fe  Fe55  1  0.74587952  0.24976278  0.74824715  1
  Fe  Fe56  1  0.50054960  0.24898053  0.74948778  1
  Fe  Fe57  1  0.50167370  0.50051580  0.50068216  1
  Fe  Fe58  1  0.00080662  0.50058354  0.25110467  1
  Fe  Fe59  1  0.50282010  0.24809346  0.50370974  1
  Fe  Fe60  1  0.75040754  0.25083547  -0.00105632  1
  Fe  Fe61  1  0.87581482  0.62457299  0.37438817  1
  Fe  Fe62  1  0.75007980  0.74943900  0.25122766  1
  Fe  Fe63  1  0.00083909  0.74844325  0.75072121  1
  Fe  Fe64  1  0.12355381  0.87485748  0.12514290  1
  Fe  Fe65  1  0.62501470  0.87598749  0.37453354  1
  Fe  Fe66  1  0.62735312  0.12184487  0.12212317  1
  Fe  Fe67  1  -0.00016185  0.50050719  -0.00250453  1
  Fe  Fe68  1  0.74765862  0.50006186  0.24924933  1
  Fe  Fe69  1  0.87317888  0.12535414  0.87503331  1
  Fe  Fe70  1  0.49907449  0.00257990  0.75264383  1
  Fe  Fe71  1  0.24862842  0.50046405  0.50247098  1
  Fe  Fe72  1  0.87379882  0.87315312  0.62494991  1
  Fe  Fe73  1  0.37620400  0.12391446  0.37561517  1
  Fe  Fe74  1  0.37374171  0.12514589  0.12405640  1
  Fe  Fe75  1  0.75011063  -0.00127665  0.75160072  1
  Fe  Fe76  1  0.50056441  0.00054635  0.24899202  1
  Fe  Fe77  1  0.00000037  0.25062463  0.74982920  1
  Fe  Fe78  1  0.11873368  0.12383942  0.37639399  1
  Fe  Fe79  1  0.49867645  0.00010866  0.49943411  1
  Fe  Fe80  1  0.25267910  -0.00093158  -0.00215545  1
  Fe  Fe81  1  0.11904815  0.87656000  0.37459852  1
  Fe  Fe82  1  0.24894076  0.75060646  0.25210387  1
  Fe  Fe83  1  0.12668152  0.12515198  0.62423393  1
  Fe  Fe84  1  0.62356638  0.62488200  0.37554774  1
  Fe  Fe85  1  0.37462100  0.37396316  0.12366167  1
  Fe  Fe86  1  0.12752693  0.12543928  0.87485660  1
  Fe  Fe87  1  0.50132806  0.49989219  0.75132057  1
  Fe  Fe88  1  0.37631253  0.62514908  0.37437219  1
  Fe  Fe89  1  0.12900676  0.37502492  0.87516432  1
  Co  Co90  1  0.12652318  0.37337806  0.62471758  1
  Co  Co91  1  0.62474072  0.37645650  0.62548878  1
  Co  Co92  1  0.62559969  0.37396231  0.87457831  1
  Co  Co93  1  0.25107953  0.75140164  -0.00035073  1
  Co  Co94  1  0.37312498  0.37463274  0.87510596  1
  Co  Co95  1  0.12527708  0.62332799  0.37523590  1
  Co  Co96  1  0.50001385  0.75128379  0.50004509  1
  Co  Co97  1  0.74633346  0.75042802  0.75084576  1
  Co  Co98  1  0.37702160  0.37603315  0.62406569  1
  Co  Co99  1  0.37734860  0.87619912  0.37363908  1
  Co  Co100  1  0.62643914  0.12330521  0.87701910  1
  Co  Co101  1  0.62274937  0.12438244  0.37430474  1
  Co  Co102  1  0.37466320  0.12278154  0.62396894  1
  Co  Co103  1  0.87761871  0.87210864  0.37636867  1
  Co  Co104  1  0.74940060  0.50040717  -0.00008486  1
  Co  Co105  1  0.25078987  0.50024468  0.00143595  1
  Co  Co106  1  0.87565265  0.12821020  0.12425252  1
  Co  Co107  1  0.37536436  0.87344614  0.87211857  1
  Co  Co108  1  0.00191975  0.25242731  0.24831617  1
  Co  Co109  1  0.75410502  -0.00124179  -0.00111346  1
  Co  Co110  1  -0.00547488  -0.00039662  0.24786686  1
  Co  Co111  1  0.12612502  0.62757146  0.62408126  1
  Co  Co112  1  -0.00222347  -0.00018892  0.50500868  1
  Co  Co113  1  0.62321275  0.62717850  0.87847369  1
  Co  Co114  1  0.24892091  -0.00115972  0.49798408  1
  Co  Co115  1  -0.00115927  0.50038245  0.50327740  1
  Co  Co116  1  0.12741015  0.62484016  0.87558193  1
  Co  Co117  1  0.50044721  0.49877309  0.24941540  1
  Co  Co118  1  0.49641037  -0.00062141  -0.00118671  1
  Co  Co119  1  0.62611694  0.12198835  0.62511343  1
  Co  Co120  1  0.00000790  0.74820360  0.24972255  1
  Co  Co121  1  0.37313885  0.12686747  0.87511658  1
  Co  Co122  1  0.88179475  0.12884605  0.37667506  1
  Co  Co123  1  0.24899841  0.24969954  0.00208513  1
  Co  Co124  1  0.87165428  0.37698121  0.62920686  1
  Co  Co125  1  0.87482099  0.62301516  0.87150348  1
  Co  Co126  1  0.74875977  0.24956137  0.49960850  1
  Co  Co127  1  0.62476497  0.62425900  0.62296876  1
