# generated using pymatgen
data_Fe45Co19
_symmetry_space_group_name_H-M   'P 1'
_cell_length_a   11.41362962
_cell_length_b   11.41359459
_cell_length_c   11.41564705
_cell_angle_alpha   89.99837210
_cell_angle_beta   90.00083631
_cell_angle_gamma   89.97950853
_symmetry_Int_Tables_number   1
_chemical_formula_structural   Fe45Co19
_chemical_formula_sum   'Fe90 Co38'
_cell_volume   1487.12242451
_cell_formula_units_Z   2
loop_
 _symmetry_equiv_pos_site_id
 _symmetry_equiv_pos_as_xyz
  1  'x, y, z'
loop_
 _atom_site_type_symbol
 _atom_site_label
 _atom_site_symmetry_multiplicity
 _atom_site_fract_x
 _atom_site_fract_y
 _atom_site_fract_z
 _atom_site_occupancy
  Fe  Fe0  1  0.75040982  0.25066952  0.24864888  1
  Fe  Fe1  1  0.37432170  0.87493101  0.62231172  1
  Fe  Fe2  1  0.00009477  0.75127055  0.74936860  1
  Fe  Fe3  1  -0.00119239  0.24989143  0.24940023  1
  Fe  Fe4  1  0.00035531  -0.00115900  0.25075148  1
  Fe  Fe5  1  0.12918746  0.37181691  0.87430160  1
  Fe  Fe6  1  0.37399368  0.62629384  0.37463938  1
  Fe  Fe7  1  0.49475756  0.25228428  0.00072629  1
  Fe  Fe8  1  0.87547775  0.12332169  0.62728145  1
  Fe  Fe9  1  0.24973585  0.49896872  0.00245086  1
  Fe  Fe10  1  0.00285605  0.24783129  0.00049492  1
  Fe  Fe11  1  0.25155346  0.24846817  0.50233135  1
  Fe  Fe12  1  0.50017700  0.50127894  0.75129656  1
  Fe  Fe13  1  0.75249174  0.25304653  0.75115592  1
  Fe  Fe14  1  0.37166686  0.12357635  0.87793462  1
  Fe  Fe15  1  0.00012819  0.74876595  0.49818842  1
  Fe  Fe16  1  0.74670113  0.50265482  -0.00015833  1
  Fe  Fe17  1  0.12810509  0.87260864  0.62407438  1
  Fe  Fe18  1  0.74758643  -0.00069104  0.49913736  1
  Fe  Fe19  1  -0.00279293  0.25544336  0.74909741  1
  Fe  Fe20  1  0.87272986  0.62416478  0.12754089  1
  Fe  Fe21  1  0.75132682  -0.00208409  0.75225350  1
  Fe  Fe22  1  0.62299180  0.37328745  0.37545060  1
  Fe  Fe23  1  0.87571742  0.62528179  0.87452428  1
  Fe  Fe24  1  0.50115147  0.74641025  0.00043786  1
  Fe  Fe25  1  0.62309726  0.37480330  0.87716944  1
  Fe  Fe26  1  0.87493007  0.37610997  0.37751355  1
  Fe  Fe27  1  0.75035760  0.24890827  0.50104101  1
  Fe  Fe28  1  0.00049161  0.25012910  0.50114407  1
  Fe  Fe29  1  0.62384169  0.37571547  0.12273298  1
  Fe  Fe30  1  0.12650169  0.12585311  0.62997658  1
  Fe  Fe31  1  0.74970136  0.75080168  0.00102299  1
  Fe  Fe32  1  0.00497166  0.00199334  -0.00353124  1
  Fe  Fe33  1  0.49840489  0.24975654  0.24803899  1
  Fe  Fe34  1  0.62388942  0.87271153  0.87463733  1
  Fe  Fe35  1  0.49538658  0.24979998  0.75027609  1
  Fe  Fe36  1  0.87527628  0.12323759  0.37512002  1
  Fe  Fe37  1  0.00067839  0.74820994  0.00204536  1
  Fe  Fe38  1  0.62254900  0.12335135  0.37422911  1
  Fe  Fe39  1  0.75150690  0.49808854  0.75194423  1
  Fe  Fe40  1  -0.00042009  0.49901591  0.25067899  1
  Fe  Fe41  1  0.49712783  0.24708478  0.50194415  1
  Fe  Fe42  1  0.12652279  0.12488263  0.37191086  1
  Fe  Fe43  1  0.24670426  0.50260121  0.74693015  1
  Fe  Fe44  1  0.62327104  0.87576564  0.62433447  1
  Fe  Fe45  1  0.62439853  0.12387134  0.12495877  1
  Fe  Fe46  1  0.62338917  0.12398677  0.62648453  1
  Fe  Fe47  1  0.50154130  0.50163930  0.24895788  1
  Fe  Fe48  1  0.37351412  0.62314587  0.12371953  1
  Fe  Fe49  1  0.25102948  0.24914106  0.24662127  1
  Fe  Fe50  1  0.49799209  -0.00088919  0.75210424  1
  Fe  Fe51  1  0.50138854  0.50269661  0.49846477  1
  Fe  Fe52  1  0.62429030  0.37485792  0.62496581  1
  Fe  Fe53  1  -0.00367202  0.75239298  0.25002244  1
  Fe  Fe54  1  0.50125745  0.74979487  0.49855280  1
  Fe  Fe55  1  0.87981952  0.61966729  0.62512162  1
  Fe  Fe56  1  0.12396058  0.62792166  0.37227598  1
  Fe  Fe57  1  0.75255376  0.75091934  0.74935418  1
  Fe  Fe58  1  0.37320306  0.62476124  0.87615693  1
  Fe  Fe59  1  0.37386136  0.62693177  0.62391744  1
  Fe  Fe60  1  0.24972592  -0.00282461  0.75380291  1
  Fe  Fe61  1  0.87433192  0.37464679  0.12146855  1
  Fe  Fe62  1  0.24597009  0.50284279  0.50099075  1
  Fe  Fe63  1  0.62843986  0.63049905  0.36752969  1
  Fe  Fe64  1  0.25163778  0.75260282  0.24892047  1
  Fe  Fe65  1  0.37147177  0.12116753  0.12339821  1
  Fe  Fe66  1  0.24854522  0.50051215  0.25009359  1
  Fe  Fe67  1  0.87689457  0.12409632  0.87422729  1
  Fe  Fe68  1  0.62358009  0.87292747  0.12747297  1
  Fe  Fe69  1  0.12505747  0.37491224  0.12564837  1
  Fe  Fe70  1  0.49593786  -0.00297788  0.25233508  1
  Fe  Fe71  1  0.00242187  0.50150775  -0.00037384  1
  Fe  Fe72  1  0.74821309  0.50182166  0.49783268  1
  Fe  Fe73  1  0.00341244  0.00136627  0.50157929  1
  Fe  Fe74  1  0.37285446  0.87727614  0.11893899  1
  Fe  Fe75  1  0.12660638  0.62723588  0.87497294  1
  Fe  Fe76  1  0.12677008  0.37274854  0.37504825  1
  Fe  Fe77  1  0.75188920  -0.00387748  0.25084877  1
  Fe  Fe78  1  0.25154049  0.00043264  0.49582399  1
  Fe  Fe79  1  0.49710153  0.75061355  0.75141024  1
  Fe  Fe80  1  0.37475774  0.37473536  0.37434827  1
  Fe  Fe81  1  0.74892588  -0.00067070  -0.00139560  1
  Fe  Fe82  1  0.12518625  0.87556775  0.12578359  1
  Fe  Fe83  1  0.37396345  0.37729769  0.62522272  1
  Fe  Fe84  1  0.62377879  0.12637113  0.87597264  1
  Fe  Fe85  1  0.75199633  0.75016403  0.49830281  1
  Fe  Fe86  1  0.87586027  0.12318961  0.12372870  1
  Fe  Fe87  1  0.87608968  0.87659360  0.62384760  1
  Fe  Fe88  1  0.62540408  0.62576483  0.62729161  1
  Fe  Fe89  1  0.12564827  0.87084319  0.87536222  1
  Co  Co90  1  0.12140690  0.62728374  0.62667390  1
  Co  Co91  1  0.50288691  -0.00009092  -0.00045902  1
  Co  Co92  1  0.62823274  0.62818525  0.13081005  1
  Co  Co93  1  0.25072611  0.25027488  0.00407547  1
  Co  Co94  1  0.87465327  0.62293641  0.37263005  1
  Co  Co95  1  0.49884545  0.00026772  0.49776888  1
  Co  Co96  1  0.12545700  0.37379059  0.62513685  1
  Co  Co97  1  0.12556538  0.13014630  0.86935394  1
  Co  Co98  1  0.87858464  0.87806538  0.12013845  1
  Co  Co99  1  0.37399852  0.12018638  0.62597310  1
  Co  Co100  1  0.00549974  0.50002083  0.49676127  1
  Co  Co101  1  0.24254155  0.00116809  -0.00369282  1
  Co  Co102  1  0.87468088  0.37602398  0.88108352  1
  Co  Co103  1  0.37475108  0.12730212  0.37254591  1
  Co  Co104  1  0.74945898  0.49499705  0.24964416  1
  Co  Co105  1  0.24841509  0.74725395  0.49910241  1
  Co  Co106  1  0.75796609  0.75755803  0.25026689  1
  Co  Co107  1  0.24939995  0.74965461  0.00143330  1
  Co  Co108  1  0.74945003  0.24669201  0.00025793  1
  Co  Co109  1  0.25472447  0.24948081  0.74784454  1
  Co  Co110  1  0.12552160  0.62621847  0.12749386  1
  Co  Co111  1  0.50099043  0.50307991  0.00039188  1
  Co  Co112  1  0.37484561  0.87183289  0.37834591  1
  Co  Co113  1  0.37207740  0.37826371  0.87394210  1
  Co  Co114  1  0.12458200  0.87418828  0.37431950  1
  Co  Co115  1  0.00255989  0.49670598  0.75404028  1
  Co  Co116  1  0.00209038  -0.00384271  0.75047401  1
  Co  Co117  1  0.87558622  0.37975168  0.62095924  1
  Co  Co118  1  0.87692964  0.87412758  0.87724841  1
  Co  Co119  1  0.12618487  0.12303578  0.12838014  1
  Co  Co120  1  0.25221669  0.75054962  0.75037910  1
  Co  Co121  1  0.37512269  0.87486583  0.88027670  1
  Co  Co122  1  0.37481024  0.37854223  0.12735982  1
  Co  Co123  1  0.49383106  0.75085881  0.24748008  1
  Co  Co124  1  0.87766637  0.87868287  0.37965339  1
  Co  Co125  1  0.62572301  0.62677408  0.87227204  1
  Co  Co126  1  0.25198375  -0.00309651  0.25188787  1
  Co  Co127  1  0.62317118  0.87288734  0.37283560  1
