# generated using pymatgen
data_Fe45Co19
_symmetry_space_group_name_H-M   'P 1'
_cell_length_a   11.41558599
_cell_length_b   11.41555768
_cell_length_c   11.41561294
_cell_angle_alpha   90.00017960
_cell_angle_beta   89.99626808
_cell_angle_gamma   90.00222027
_symmetry_Int_Tables_number   1
_chemical_formula_structural   Fe45Co19
_chemical_formula_sum   'Fe90 Co38'
_cell_volume   1487.62879609
_cell_formula_units_Z   2
loop_
 _symmetry_equiv_pos_site_id
 _symmetry_equiv_pos_as_xyz
  1  'x, y, z'
loop_
 _atom_site_type_symbol
 _atom_site_label
 _atom_site_symmetry_multiplicity
 _atom_site_fract_x
 _atom_site_fract_y
 _atom_site_fract_z
 _atom_site_occupancy
  Fe  Fe0  1  0.49942271  0.49842877  0.74970373  1
  Fe  Fe1  1  0.00103318  0.25214167  -0.00017008  1
  Fe  Fe2  1  -0.00024900  0.25044538  0.25057520  1
  Fe  Fe3  1  0.25152128  0.50124824  0.74970896  1
  Fe  Fe4  1  0.24980556  0.50116622  0.24968884  1
  Fe  Fe5  1  0.62426957  0.87582299  0.62580177  1
  Fe  Fe6  1  0.49951653  -0.00255465  0.24899497  1
  Fe  Fe7  1  0.62956571  0.87684290  0.87603567  1
  Fe  Fe8  1  0.74705689  0.00581769  0.49938199  1
  Fe  Fe9  1  0.87358020  0.62413906  0.87558496  1
  Fe  Fe10  1  -0.00556526  0.50178290  0.25224524  1
  Fe  Fe11  1  0.24839628  0.25004405  0.24721696  1
  Fe  Fe12  1  0.37618591  0.12468824  0.12399734  1
  Fe  Fe13  1  0.62317046  0.62629528  0.87013990  1
  Fe  Fe14  1  -0.00472673  0.49542771  0.50078591  1
  Fe  Fe15  1  0.12336692  0.62331108  0.62479109  1
  Fe  Fe16  1  0.12608515  0.37485073  0.37491259  1
  Fe  Fe17  1  0.62167458  0.12581028  0.12486237  1
  Fe  Fe18  1  0.25535483  0.74819579  0.74660776  1
  Fe  Fe19  1  0.63233154  0.37693318  0.37303275  1
  Fe  Fe20  1  0.62757530  0.37082868  0.62360738  1
  Fe  Fe21  1  -0.00204901  0.75230648  0.75239260  1
  Fe  Fe22  1  0.25148260  0.74878607  0.24880848  1
  Fe  Fe23  1  0.37636698  0.12667725  0.37468612  1
  Fe  Fe24  1  0.50095150  -0.00073379  0.75185676  1
  Fe  Fe25  1  0.62846119  0.62336178  0.37592537  1
  Fe  Fe26  1  0.12638594  0.12529868  0.87677534  1
  Fe  Fe27  1  0.24771401  0.25316822  0.00357049  1
  Fe  Fe28  1  0.12141286  0.12513259  0.62276745  1
  Fe  Fe29  1  0.12247484  0.62425293  0.12491551  1
  Fe  Fe30  1  0.62575130  0.87462564  0.12372540  1
  Fe  Fe31  1  0.74944823  0.74887976  0.50260215  1
  Fe  Fe32  1  0.37492558  0.37412821  0.62163523  1
  Fe  Fe33  1  -0.00357975  0.74883708  0.25081011  1
  Fe  Fe34  1  0.12309500  0.62493502  0.37744942  1
  Fe  Fe35  1  0.62277739  0.12558789  0.87595940  1
  Fe  Fe36  1  0.62305151  0.62177021  0.12773342  1
  Fe  Fe37  1  0.12658989  0.87335307  0.37386969  1
  Fe  Fe38  1  0.87319912  0.37595987  0.12556933  1
  Fe  Fe39  1  0.37407902  0.87424096  0.87532286  1
  Fe  Fe40  1  0.87405349  0.37528626  0.87247273  1
  Fe  Fe41  1  0.87822428  0.12485775  0.62261587  1
  Fe  Fe42  1  0.75057106  0.75113689  0.74931820  1
  Fe  Fe43  1  0.24977794  0.00151308  0.49980725  1
  Fe  Fe44  1  0.49990487  0.74897256  0.50265274  1
  Fe  Fe45  1  0.62512149  0.37220446  0.87516814  1
  Fe  Fe46  1  0.50213696  0.00116041  0.49784248  1
  Fe  Fe47  1  0.12568173  0.87663044  0.62826784  1
  Fe  Fe48  1  0.38002033  0.12772183  0.62295545  1
  Fe  Fe49  1  0.74980091  0.50000110  0.74802282  1
  Fe  Fe50  1  0.74916007  0.24888151  0.00107483  1
  Fe  Fe51  1  -0.00097683  0.75346241  0.50108835  1
  Fe  Fe52  1  0.12242368  0.12578148  0.37624106  1
  Fe  Fe53  1  0.37485820  0.87448388  0.37627774  1
  Fe  Fe54  1  0.87434989  0.87964187  0.62705172  1
  Fe  Fe55  1  0.12523181  0.37502642  0.62576170  1
  Fe  Fe56  1  0.37755897  0.62175096  0.12235541  1
  Fe  Fe57  1  0.25142222  0.74939385  0.50269322  1
  Fe  Fe58  1  0.37209125  0.37516371  0.37765545  1
  Fe  Fe59  1  0.49980150  0.25456023  0.25011121  1
  Fe  Fe60  1  0.37595269  0.12694684  0.87801426  1
  Fe  Fe61  1  0.25181126  0.24954561  0.74865572  1
  Fe  Fe62  1  0.00170334  -0.00407091  -0.00367166  1
  Fe  Fe63  1  0.00174968  0.49815359  -0.00231979  1
  Fe  Fe64  1  0.24929539  -0.00101204  0.24780846  1
  Fe  Fe65  1  0.87204073  0.87554270  0.37619023  1
  Fe  Fe66  1  0.74739119  0.50039750  0.00105016  1
  Fe  Fe67  1  0.50131814  0.74986638  -0.00195099  1
  Fe  Fe68  1  0.00049603  0.75302089  -0.00444961  1
  Fe  Fe69  1  0.74945071  0.24574073  0.74898173  1
  Fe  Fe70  1  0.62633101  0.87401392  0.37419210  1
  Fe  Fe71  1  0.24880003  -0.00311529  0.00316177  1
  Fe  Fe72  1  0.87317688  0.87312596  0.12074208  1
  Fe  Fe73  1  -0.00012051  -0.00274375  0.25022148  1
  Fe  Fe74  1  0.87509039  0.12260383  0.87475577  1
  Fe  Fe75  1  0.75069113  0.00159400  0.24924603  1
  Fe  Fe76  1  0.37484808  0.62332751  0.37781772  1
  Fe  Fe77  1  0.12718018  0.62529207  0.87356339  1
  Fe  Fe78  1  0.37529729  0.37676110  0.87871595  1
  Fe  Fe79  1  0.75277527  0.74605597  0.24824569  1
  Fe  Fe80  1  0.12561316  0.37499330  0.87286293  1
  Fe  Fe81  1  0.00023833  0.24961015  0.75018433  1
  Fe  Fe82  1  0.49879722  0.74905078  0.25129272  1
  Fe  Fe83  1  0.25014806  0.75024816  0.00208883  1
  Fe  Fe84  1  0.87524097  0.62384497  0.62570952  1
  Fe  Fe85  1  0.87842990  0.12425163  0.12393660  1
  Fe  Fe86  1  0.50316235  0.49928763  0.49974398  1
  Fe  Fe87  1  0.75124525  0.24582314  0.25076899  1
  Fe  Fe88  1  0.25110536  0.00271056  0.74859901  1
  Fe  Fe89  1  0.37709538  0.37938818  0.12221691  1
  Co  Co90  1  0.87912109  0.12342888  0.37666435  1
  Co  Co91  1  0.50043096  -0.00110218  -0.00066451  1
  Co  Co92  1  0.87802198  0.62495034  0.11867722  1
  Co  Co93  1  0.00143327  -0.00447822  0.49885470  1
  Co  Co94  1  0.74830938  0.00402204  0.74749195  1
  Co  Co95  1  0.75558008  0.50621479  0.24826711  1
  Co  Co96  1  0.74658150  0.74520852  0.00023889  1
  Co  Co97  1  0.12291699  0.12355330  0.12370033  1
  Co  Co98  1  0.61935470  0.12884844  0.62647035  1
  Co  Co99  1  0.12187257  0.37724021  0.12809244  1
  Co  Co100  1  0.37828549  0.62199247  0.62453502  1
  Co  Co101  1  0.37688732  0.87356852  0.12505687  1
  Co  Co102  1  0.86836471  0.87679383  0.87597966  1
  Co  Co103  1  0.50297133  0.25258849  0.49507239  1
  Co  Co104  1  0.86901950  0.37344078  0.37302806  1
  Co  Co105  1  -0.00166048  0.25544405  0.49929190  1
  Co  Co106  1  0.87369976  0.62664856  0.38090882  1
  Co  Co107  1  0.12351317  0.87292919  0.12694382  1
  Co  Co108  1  0.62411954  0.62575382  0.62735761  1
  Co  Co109  1  0.74933898  0.00442503  0.00246586  1
  Co  Co110  1  0.37585648  0.62425860  0.87643243  1
  Co  Co111  1  0.75204728  0.50028843  0.50404588  1
  Co  Co112  1  0.50144872  0.25201968  0.00173099  1
  Co  Co113  1  0.62180691  0.12526845  0.37053209  1
  Co  Co114  1  0.49878217  0.75312985  0.75005542  1
  Co  Co115  1  0.24626846  0.49936909  0.00018342  1
  Co  Co116  1  0.74956707  0.24448051  0.49839663  1
  Co  Co117  1  0.24854700  0.24820596  0.50062061  1
  Co  Co118  1  0.49887607  0.49798607  0.25380861  1
  Co  Co119  1  0.49774584  0.25251317  0.75238083  1
  Co  Co120  1  0.37687552  0.87844514  0.62352522  1
  Co  Co121  1  0.24825895  0.50083658  0.50066261  1
  Co  Co122  1  0.62820384  0.37602287  0.12853600  1
  Co  Co123  1  -0.00031726  0.50029964  0.75034545  1
  Co  Co124  1  0.50600142  0.50030835  -0.00209250  1
  Co  Co125  1  0.13028717  0.87393514  0.87051513  1
  Co  Co126  1  0.00046003  -0.00072906  0.75357338  1
  Co  Co127  1  0.87164397  0.37177033  0.62862595  1
