# generated using pymatgen
data_Fe45Co19
_symmetry_space_group_name_H-M   'P 1'
_cell_length_a   11.41593826
_cell_length_b   11.41514594
_cell_length_c   11.41499777
_cell_angle_alpha   90.00337598
_cell_angle_beta   89.99819238
_cell_angle_gamma   89.99825904
_symmetry_Int_Tables_number   1
_chemical_formula_structural   Fe45Co19
_chemical_formula_sum   'Fe90 Co38'
_cell_volume   1487.54087773
_cell_formula_units_Z   2
loop_
 _symmetry_equiv_pos_site_id
 _symmetry_equiv_pos_as_xyz
  1  'x, y, z'
loop_
 _atom_site_type_symbol
 _atom_site_label
 _atom_site_symmetry_multiplicity
 _atom_site_fract_x
 _atom_site_fract_y
 _atom_site_fract_z
 _atom_site_occupancy
  Fe  Fe0  1  0.62412146  0.12360986  0.38156557  1
  Fe  Fe1  1  0.37053786  0.87452644  0.12797514  1
  Fe  Fe2  1  -0.00075512  0.74943360  0.75038010  1
  Fe  Fe3  1  0.37665915  0.37454840  0.37661887  1
  Fe  Fe4  1  0.74904405  0.49931380  0.50172698  1
  Fe  Fe5  1  0.87520899  0.87680070  0.87511725  1
  Fe  Fe6  1  0.87382047  0.62496592  0.12355409  1
  Fe  Fe7  1  0.61638870  0.62192755  0.87110675  1
  Fe  Fe8  1  0.74713902  0.74863224  0.25258584  1
  Fe  Fe9  1  0.12472572  0.12342927  0.87365139  1
  Fe  Fe10  1  0.87632256  0.62273654  0.37604249  1
  Fe  Fe11  1  0.24998775  0.74870696  0.49833295  1
  Fe  Fe12  1  0.12306782  0.62296875  0.37558112  1
  Fe  Fe13  1  0.62283583  0.12386598  0.12452596  1
  Fe  Fe14  1  0.12900490  0.12641982  0.62567785  1
  Fe  Fe15  1  0.50010147  0.24617850  0.74749558  1
  Fe  Fe16  1  0.00095423  0.25355198  0.50193158  1
  Fe  Fe17  1  0.62320583  0.62593923  0.12519666  1
  Fe  Fe18  1  0.87587560  0.12532450  0.37765741  1
  Fe  Fe19  1  0.37539448  0.87498897  0.62518647  1
  Fe  Fe20  1  0.37491428  0.12728342  0.37975257  1
  Fe  Fe21  1  0.00059863  0.49490696  0.00215406  1
  Fe  Fe22  1  0.25071734  0.50043481  0.50095624  1
  Fe  Fe23  1  0.74818835  0.75012081  0.49895334  1
  Fe  Fe24  1  -0.00053607  0.75029171  0.50026844  1
  Fe  Fe25  1  0.74775334  0.75038330  0.75129728  1
  Fe  Fe26  1  0.87345945  0.87415879  0.12484154  1
  Fe  Fe27  1  0.87540793  0.62426327  0.87585786  1
  Fe  Fe28  1  0.37823663  0.62671131  0.37544866  1
  Fe  Fe29  1  0.12692998  0.87637012  0.87480238  1
  Fe  Fe30  1  0.62523947  0.37245703  0.12485970  1
  Fe  Fe31  1  0.49940440  0.24966835  0.25181516  1
  Fe  Fe32  1  0.13045731  0.87409322  0.12607890  1
  Fe  Fe33  1  0.87620857  0.37603564  0.37608928  1
  Fe  Fe34  1  0.00175781  0.74901734  0.24922369  1
  Fe  Fe35  1  0.24931409  0.25243706  -0.00586474  1
  Fe  Fe36  1  0.37462193  0.62646621  0.12411887  1
  Fe  Fe37  1  0.12629213  0.87291066  0.62602570  1
  Fe  Fe38  1  0.00008947  -0.00107600  0.74699768  1
  Fe  Fe39  1  0.49653139  -0.00108173  0.25302060  1
  Fe  Fe40  1  0.12800249  0.62408577  0.12298308  1
  Fe  Fe41  1  0.62472979  0.87734180  0.12538295  1
  Fe  Fe42  1  0.12793787  0.87576612  0.37336869  1
  Fe  Fe43  1  0.62258545  0.87972202  0.87593282  1
  Fe  Fe44  1  0.74990301  0.00193745  0.25056906  1
  Fe  Fe45  1  -0.00013567  -0.00153547  0.50236263  1
  Fe  Fe46  1  0.37370883  0.12167664  0.87281767  1
  Fe  Fe47  1  0.74587783  0.49914609  -0.00192286  1
  Fe  Fe48  1  0.87374184  0.62555744  0.62399700  1
  Fe  Fe49  1  0.00175406  0.00018183  0.00223353  1
  Fe  Fe50  1  0.87290265  0.12610057  0.62268236  1
  Fe  Fe51  1  0.87628055  0.12815706  0.12399536  1
  Fe  Fe52  1  0.50302436  0.75101914  0.49818134  1
  Fe  Fe53  1  0.62211092  0.37582877  0.37641376  1
  Fe  Fe54  1  0.87671358  0.12371120  0.87672776  1
  Fe  Fe55  1  0.62707255  0.37130751  0.62576728  1
  Fe  Fe56  1  0.25252225  0.49771197  -0.00533150  1
  Fe  Fe57  1  0.12519102  0.12770948  0.37400186  1
  Fe  Fe58  1  0.12515151  0.62327600  0.87537476  1
  Fe  Fe59  1  -0.00101123  0.50119029  0.74787057  1
  Fe  Fe60  1  0.87550242  0.37414185  0.87504867  1
  Fe  Fe61  1  0.62424788  0.87786735  0.62358343  1
  Fe  Fe62  1  0.74930078  0.24892396  0.75055800  1
  Fe  Fe63  1  0.49991722  0.49956151  0.50531287  1
  Fe  Fe64  1  0.00121901  0.75080831  0.00012707  1
  Fe  Fe65  1  -0.00010147  0.49655539  0.24590342  1
  Fe  Fe66  1  0.74746278  0.74975582  -0.00295803  1
  Fe  Fe67  1  0.37017588  0.37042287  0.62714985  1
  Fe  Fe68  1  0.00159111  0.00100794  0.24913094  1
  Fe  Fe69  1  0.49973570  0.50065048  0.24783239  1
  Fe  Fe70  1  0.74953388  0.24948859  0.25287978  1
  Fe  Fe71  1  0.25390938  0.74680739  0.75363506  1
  Fe  Fe72  1  0.25172056  0.49997255  0.25079158  1
  Fe  Fe73  1  0.12687349  0.62488781  0.62536927  1
  Fe  Fe74  1  0.49759954  0.75218227  -0.00037020  1
  Fe  Fe75  1  0.25181398  -0.00010559  0.50014154  1
  Fe  Fe76  1  0.74895273  0.49964704  0.24959341  1
  Fe  Fe77  1  0.62400260  0.12193475  0.87643033  1
  Fe  Fe78  1  0.37488919  0.87955012  0.87414659  1
  Fe  Fe79  1  0.74832481  0.49954290  0.75027173  1
  Fe  Fe80  1  0.12690343  0.13077877  0.12734951  1
  Fe  Fe81  1  0.37377232  0.12606688  0.12438715  1
  Fe  Fe82  1  0.12591932  0.37407221  0.37267610  1
  Fe  Fe83  1  0.74848713  0.24951893  -0.00202628  1
  Fe  Fe84  1  0.37389719  0.37311361  0.12392808  1
  Fe  Fe85  1  0.87466563  0.87597868  0.37485162  1
  Fe  Fe86  1  0.74931807  0.00091790  0.74800439  1
  Fe  Fe87  1  -0.00002431  0.25009541  0.74949980  1
  Fe  Fe88  1  0.12806326  0.37617104  0.62907683  1
  Fe  Fe89  1  0.49995575  0.25006818  -0.00203882  1
  Co  Co90  1  0.62251772  0.62189773  0.37577725  1
  Co  Co91  1  0.38368468  0.62076597  0.87375318  1
  Co  Co92  1  0.25419312  0.50390771  0.75124140  1
  Co  Co93  1  0.25008622  -0.00121450  0.74739624  1
  Co  Co94  1  0.50161365  0.75090685  0.24972927  1
  Co  Co95  1  0.87464771  0.87268254  0.62608876  1
  Co  Co96  1  0.00262234  0.25251143  -0.00113396  1
  Co  Co97  1  0.00171672  0.49726493  0.50276847  1
  Co  Co98  1  0.62051028  0.37554203  0.87270532  1
  Co  Co99  1  0.13063494  0.37180505  0.12638323  1
  Co  Co100  1  0.12340699  0.37727818  0.87031939  1
  Co  Co101  1  0.49708647  -0.00044811  0.00152808  1
  Co  Co102  1  0.87435062  0.37495291  0.62740246  1
  Co  Co103  1  0.87031015  0.37305266  0.12248536  1
  Co  Co104  1  0.24841980  0.74580519  0.25193567  1
  Co  Co105  1  0.37646404  0.62916525  0.62413215  1
  Co  Co106  1  -0.00287545  0.25325044  0.25017100  1
  Co  Co107  1  0.38065649  0.37648885  0.87214795  1
  Co  Co108  1  0.49739583  0.49668538  0.74088160  1
  Co  Co109  1  0.25293065  0.74833872  -0.00475015  1
  Co  Co110  1  0.50096417  0.49782405  0.00372514  1
  Co  Co111  1  0.75114714  0.00116537  0.00135357  1
  Co  Co112  1  0.62754789  0.12484189  0.61959310  1
  Co  Co113  1  0.24840875  0.00226954  0.00135989  1
  Co  Co114  1  0.24986836  0.24998746  0.75531981  1
  Co  Co115  1  0.49551189  -0.00003707  0.50073776  1
  Co  Co116  1  0.25142015  0.00417133  0.25175402  1
  Co  Co117  1  0.62450795  0.62584659  0.62691936  1
  Co  Co118  1  0.25462463  0.25039118  0.25289832  1
  Co  Co119  1  0.49966455  0.75403826  0.75035539  1
  Co  Co120  1  0.24821588  0.25154334  0.49867932  1
  Co  Co121  1  0.75126920  0.25342963  0.49848380  1
  Co  Co122  1  0.50068992  0.00398655  0.74664657  1
  Co  Co123  1  0.37309531  0.87174774  0.37364074  1
  Co  Co124  1  0.49883076  0.25093067  0.50339361  1
  Co  Co125  1  0.75245039  -0.00206034  0.50152884  1
  Co  Co126  1  0.62538315  0.87856815  0.37539180  1
  Co  Co127  1  0.37110680  0.12671858  0.62495483  1
