# generated using pymatgen
data_Fe45Co19
_symmetry_space_group_name_H-M   'P 1'
_cell_length_a   11.41528111
_cell_length_b   11.41579316
_cell_length_c   11.41549525
_cell_angle_alpha   89.99932683
_cell_angle_beta   90.00269761
_cell_angle_gamma   89.99444652
_symmetry_Int_Tables_number   1
_chemical_formula_structural   Fe45Co19
_chemical_formula_sum   'Fe90 Co38'
_cell_volume   1487.60440981
_cell_formula_units_Z   2
loop_
 _symmetry_equiv_pos_site_id
 _symmetry_equiv_pos_as_xyz
  1  'x, y, z'
loop_
 _atom_site_type_symbol
 _atom_site_label
 _atom_site_symmetry_multiplicity
 _atom_site_fract_x
 _atom_site_fract_y
 _atom_site_fract_z
 _atom_site_occupancy
  Fe  Fe0  1  0.74758539  0.00031102  0.25083552  1
  Fe  Fe1  1  0.75522234  0.24842977  0.49757539  1
  Fe  Fe2  1  0.37339378  0.87566263  0.37429153  1
  Fe  Fe3  1  0.24873428  0.00037573  0.50034847  1
  Fe  Fe4  1  0.12302918  0.37613300  0.62632239  1
  Fe  Fe5  1  0.12183705  0.87397460  0.62203932  1
  Fe  Fe6  1  0.00058495  0.00367117  0.49671023  1
  Fe  Fe7  1  0.62503278  0.37435364  0.62283251  1
  Fe  Fe8  1  0.12620575  0.62730333  0.37655634  1
  Fe  Fe9  1  0.49846377  0.75201836  0.00008709  1
  Fe  Fe10  1  0.75091425  0.49927537  0.74924897  1
  Fe  Fe11  1  0.87644374  0.62470233  0.62272110  1
  Fe  Fe12  1  0.50108794  0.75051355  0.75014368  1
  Fe  Fe13  1  0.49882308  0.75084821  0.49880018  1
  Fe  Fe14  1  0.87684875  0.37674136  0.12671105  1
  Fe  Fe15  1  0.87578789  0.87650386  0.87596463  1
  Fe  Fe16  1  0.25041296  0.75089909  0.50109251  1
  Fe  Fe17  1  -0.00037409  0.50012286  0.49765103  1
  Fe  Fe18  1  0.74735210  -0.00236090  0.74721615  1
  Fe  Fe19  1  0.75074968  0.50002983  0.49412764  1
  Fe  Fe20  1  0.00009946  0.24717375  -0.00199691  1
  Fe  Fe21  1  0.37444922  0.12254214  0.62854559  1
  Fe  Fe22  1  0.49829177  0.24838454  0.25109949  1
  Fe  Fe23  1  0.00121193  0.75133340  0.25129280  1
  Fe  Fe24  1  0.36970558  0.62423316  0.87656957  1
  Fe  Fe25  1  0.49967363  0.49994274  0.00000057  1
  Fe  Fe26  1  0.74979264  0.75270513  0.74713852  1
  Fe  Fe27  1  0.49915481  0.00086391  0.49835387  1
  Fe  Fe28  1  0.87712846  0.87643784  0.37535509  1
  Fe  Fe29  1  0.37385844  0.62399229  0.37386535  1
  Fe  Fe30  1  0.37414168  0.62344259  0.62562387  1
  Fe  Fe31  1  0.87680371  0.87808029  0.12369254  1
  Fe  Fe32  1  0.12804768  0.36849379  0.37725964  1
  Fe  Fe33  1  0.12248202  0.37390783  0.12400868  1
  Fe  Fe34  1  0.37659170  0.87791745  0.62715506  1
  Fe  Fe35  1  0.87425791  0.62491775  0.87491228  1
  Fe  Fe36  1  0.50083645  0.24942246  0.75127759  1
  Fe  Fe37  1  0.87442509  0.12268307  0.87408484  1
  Fe  Fe38  1  0.62489445  0.37323143  0.12509989  1
  Fe  Fe39  1  0.37423485  0.87764666  0.87221972  1
  Fe  Fe40  1  0.00225017  0.50037225  0.25305295  1
  Fe  Fe41  1  0.62410733  0.12577529  0.12378505  1
  Fe  Fe42  1  0.37234981  0.37583426  0.87507961  1
  Fe  Fe43  1  -0.00012608  0.24731852  0.25381730  1
  Fe  Fe44  1  0.87739188  0.37666526  0.87574550  1
  Fe  Fe45  1  0.74916469  0.74976706  0.25173744  1
  Fe  Fe46  1  0.24754419  0.49856625  0.24873534  1
  Fe  Fe47  1  0.24731293  -0.00003066  -0.00088790  1
  Fe  Fe48  1  0.37580922  0.37458004  0.12535927  1
  Fe  Fe49  1  0.75089432  0.75185924  0.00120561  1
  Fe  Fe50  1  0.75133253  0.25110692  0.74990006  1
  Fe  Fe51  1  0.49521282  0.25152070  0.49838474  1
  Fe  Fe52  1  0.50220714  -0.00024411  -0.00075549  1
  Fe  Fe53  1  0.75111907  -0.00060590  0.50120694  1
  Fe  Fe54  1  0.24571158  0.00026903  0.25093571  1
  Fe  Fe55  1  -0.00097288  0.25019555  0.75032405  1
  Fe  Fe56  1  0.00381283  0.50383942  -0.00199523  1
  Fe  Fe57  1  0.62536668  0.62498864  0.62251687  1
  Fe  Fe58  1  0.87625623  0.37546279  0.62417408  1
  Fe  Fe59  1  0.75150753  0.75212526  0.49958968  1
  Fe  Fe60  1  0.62664844  0.62570683  0.87560480  1
  Fe  Fe61  1  0.12360787  0.87179745  0.87717807  1
  Fe  Fe62  1  0.12243720  0.87385961  0.12270753  1
  Fe  Fe63  1  0.12419782  0.12672553  0.62411043  1
  Fe  Fe64  1  0.49783412  0.49692236  0.49740297  1
  Fe  Fe65  1  0.62502741  0.12618559  0.62257001  1
  Fe  Fe66  1  0.50047756  0.75102521  0.25095223  1
  Fe  Fe67  1  0.75040116  0.49972984  0.00243894  1
  Fe  Fe68  1  0.75134524  0.25041851  0.25177813  1
  Fe  Fe69  1  0.00262112  0.00098606  0.75143938  1
  Fe  Fe70  1  0.25237076  0.49642517  0.50148965  1
  Fe  Fe71  1  0.00121333  0.74596482  0.74842328  1
  Fe  Fe72  1  0.62666319  0.12510743  0.87625299  1
  Fe  Fe73  1  0.87645797  0.62319378  0.12832989  1
  Fe  Fe74  1  0.75217721  0.24971925  0.00079147  1
  Fe  Fe75  1  0.87695167  0.12193494  0.12609851  1
  Fe  Fe76  1  0.62557627  0.37519950  0.87652596  1
  Fe  Fe77  1  0.24900608  0.75155331  0.24932622  1
  Fe  Fe78  1  0.12327786  0.12329896  0.12542183  1
  Fe  Fe79  1  0.24823217  0.75055957  0.74745820  1
  Fe  Fe80  1  0.36865868  0.12820205  0.37349548  1
  Fe  Fe81  1  0.37224870  0.62416582  0.12459431  1
  Fe  Fe82  1  0.50147388  0.00099855  0.25232700  1
  Fe  Fe83  1  0.62521032  0.62600319  0.12547544  1
  Fe  Fe84  1  0.24952469  0.25102414  0.74832383  1
  Fe  Fe85  1  0.50053938  0.50091369  0.75052697  1
  Fe  Fe86  1  0.50236139  0.49927186  0.25250765  1
  Fe  Fe87  1  0.24990402  0.24961772  0.00214420  1
  Fe  Fe88  1  0.37505753  0.87764295  0.12589709  1
  Fe  Fe89  1  0.37262296  0.12257011  0.87357301  1
  Co  Co90  1  0.62195776  0.87475699  0.62275021  1
  Co  Co91  1  0.25329755  0.25192182  0.50621476  1
  Co  Co92  1  0.37133474  0.37255799  0.37051485  1
  Co  Co93  1  0.24874373  0.50091860  0.74856213  1
  Co  Co94  1  0.62579300  0.12633383  0.37722912  1
  Co  Co95  1  0.12553373  0.62769290  0.12530897  1
  Co  Co96  1  0.37521340  0.12156626  0.12446336  1
  Co  Co97  1  0.00417079  -0.00056269  0.25281349  1
  Co  Co98  1  0.24710283  0.49781756  0.00346519  1
  Co  Co99  1  0.50463317  0.00096458  0.75006501  1
  Co  Co100  1  0.62443395  0.87449624  0.12590417  1
  Co  Co101  1  0.49804315  0.24884993  -0.00144828  1
  Co  Co102  1  -0.00331653  0.24811666  0.49974387  1
  Co  Co103  1  0.12708479  0.12759833  0.87399349  1
  Co  Co104  1  0.24439149  -0.00176908  0.74877346  1
  Co  Co105  1  0.25146649  0.75233846  0.00164391  1
  Co  Co106  1  0.87526465  0.12246104  0.37288485  1
  Co  Co107  1  -0.00043886  0.50341284  0.75071607  1
  Co  Co108  1  0.74801703  0.49978540  0.25165970  1
  Co  Co109  1  0.62400349  0.62652748  0.37609231  1
  Co  Co110  1  0.87593352  0.12338889  0.62771221  1
  Co  Co111  1  0.62589050  0.87370342  0.87576419  1
  Co  Co112  1  0.12550614  0.62299909  0.62212412  1
  Co  Co113  1  0.12548120  0.37524949  0.87393272  1
  Co  Co114  1  0.87597100  0.37475046  0.37289291  1
  Co  Co115  1  -0.00201562  0.74715368  0.00035361  1
  Co  Co116  1  0.87977303  0.87627510  0.62507144  1
  Co  Co117  1  0.37749379  0.37616731  0.62988022  1
  Co  Co118  1  0.62545883  0.37204408  0.37543527  1
  Co  Co119  1  -0.00085812  0.74847036  0.49899869  1
  Co  Co120  1  0.87650247  0.62603426  0.37318808  1
  Co  Co121  1  0.00112066  0.00199455  -0.00177266  1
  Co  Co122  1  0.12511783  0.87319636  0.37748171  1
  Co  Co123  1  0.24918481  0.24898343  0.24373145  1
  Co  Co124  1  0.12950110  0.62583661  0.87577902  1
  Co  Co125  1  0.12889984  0.12986546  0.37660309  1
  Co  Co126  1  0.74898335  0.00030673  0.00127871  1
  Co  Co127  1  0.62473023  0.87484493  0.37628376  1
