# generated using pymatgen
data_Fe45Co19
_symmetry_space_group_name_H-M   'P 1'
_cell_length_a   11.41366716
_cell_length_b   11.41536355
_cell_length_c   11.41455885
_cell_angle_alpha   89.99145666
_cell_angle_beta   90.00540771
_cell_angle_gamma   90.01056162
_symmetry_Int_Tables_number   1
_chemical_formula_structural   Fe45Co19
_chemical_formula_sum   'Fe90 Co38'
_cell_volume   1487.21606594
_cell_formula_units_Z   2
loop_
 _symmetry_equiv_pos_site_id
 _symmetry_equiv_pos_as_xyz
  1  'x, y, z'
loop_
 _atom_site_type_symbol
 _atom_site_label
 _atom_site_symmetry_multiplicity
 _atom_site_fract_x
 _atom_site_fract_y
 _atom_site_fract_z
 _atom_site_occupancy
  Fe  Fe0  1  0.62173997  0.62760504  0.37565238  1
  Fe  Fe1  1  0.62493363  0.62523211  0.87374574  1
  Fe  Fe2  1  0.37491735  0.62546589  0.87482755  1
  Fe  Fe3  1  0.75150033  0.24726202  0.49844188  1
  Fe  Fe4  1  0.50283876  0.49867529  0.00098883  1
  Fe  Fe5  1  0.87627746  0.87482657  0.87677051  1
  Fe  Fe6  1  0.25082102  0.00147402  0.25065448  1
  Fe  Fe7  1  0.12585500  0.62580215  0.87768835  1
  Fe  Fe8  1  0.00204738  0.00309255  0.00385812  1
  Fe  Fe9  1  0.74987137  0.00127367  0.49653305  1
  Fe  Fe10  1  0.24971556  0.49934147  0.00018640  1
  Fe  Fe11  1  0.24888339  0.25157302  0.00117334  1
  Fe  Fe12  1  0.00105412  0.00162745  0.24798384  1
  Fe  Fe13  1  0.87319168  0.87792413  0.12419709  1
  Fe  Fe14  1  0.24977020  0.00046213  0.49752891  1
  Fe  Fe15  1  0.37433367  0.62249809  0.62520059  1
  Fe  Fe16  1  0.87468076  0.37752715  0.62154281  1
  Fe  Fe17  1  0.49989247  0.74908760  0.00277400  1
  Fe  Fe18  1  0.25167975  0.25191980  0.25111326  1
  Fe  Fe19  1  0.25110573  0.25061305  0.74935043  1
  Fe  Fe20  1  0.12497103  0.12770133  0.87483750  1
  Fe  Fe21  1  0.00004000  0.74779155  0.24792328  1
  Fe  Fe22  1  -0.00324786  0.49777053  0.00207840  1
  Fe  Fe23  1  0.87792436  0.12790706  0.87579545  1
  Fe  Fe24  1  0.87435253  0.87697910  0.62310619  1
  Fe  Fe25  1  0.75083187  0.00099786  0.75341323  1
  Fe  Fe26  1  -0.00183430  0.24647597  0.50289144  1
  Fe  Fe27  1  0.62840879  0.37453859  0.12507610  1
  Fe  Fe28  1  0.74868399  0.75083558  0.74774478  1
  Fe  Fe29  1  0.25167886  0.74852075  0.24964515  1
  Fe  Fe30  1  0.87132214  0.62300064  0.62039420  1
  Fe  Fe31  1  0.74666188  0.00019333  0.25128366  1
  Fe  Fe32  1  -0.00116039  0.74839802  0.74865429  1
  Fe  Fe33  1  0.12653565  0.12465517  0.62538639  1
  Fe  Fe34  1  0.62699395  0.12598167  0.12251688  1
  Fe  Fe35  1  0.62509189  0.87425673  0.87576977  1
  Fe  Fe36  1  -0.00486261  0.24822999  0.24517892  1
  Fe  Fe37  1  0.37419412  0.87563446  0.87511162  1
  Fe  Fe38  1  0.75317252  0.24954400  0.74870987  1
  Fe  Fe39  1  0.37556796  0.12777450  0.12410147  1
  Fe  Fe40  1  0.12158660  0.37313005  0.87388490  1
  Fe  Fe41  1  0.12305188  0.12648199  0.37379013  1
  Fe  Fe42  1  0.12314267  0.37646088  0.12755629  1
  Fe  Fe43  1  0.74904322  0.75221864  0.24999024  1
  Fe  Fe44  1  0.74917967  0.75069994  0.00057801  1
  Fe  Fe45  1  0.37403458  0.62115272  0.12780817  1
  Fe  Fe46  1  0.74507850  0.75185824  0.50183355  1
  Fe  Fe47  1  0.37611259  0.87602863  0.12695163  1
  Fe  Fe48  1  0.25036184  0.49810412  0.49686470  1
  Fe  Fe49  1  0.11930705  0.37442795  0.37348759  1
  Fe  Fe50  1  0.00103393  0.74981664  0.00384876  1
  Fe  Fe51  1  0.49824456  0.24915092  0.75119938  1
  Fe  Fe52  1  0.12411087  0.62175977  0.37170672  1
  Fe  Fe53  1  0.37726572  0.37551976  0.12656236  1
  Fe  Fe54  1  0.12620724  0.87456164  0.62392628  1
  Fe  Fe55  1  0.12592364  0.37613593  0.62535016  1
  Fe  Fe56  1  0.62480819  0.37403662  0.62364294  1
  Fe  Fe57  1  0.37944395  0.37533532  0.37344157  1
  Fe  Fe58  1  0.61852012  0.87427553  0.37376453  1
  Fe  Fe59  1  0.24851078  -0.00014573  0.00096752  1
  Fe  Fe60  1  0.25376171  0.74955231  0.49585851  1
  Fe  Fe61  1  0.62543492  0.12465225  0.62489993  1
  Fe  Fe62  1  0.37458701  0.87659103  0.62466234  1
  Fe  Fe63  1  0.50057147  0.00305850  0.75353252  1
  Fe  Fe64  1  0.49964861  0.49822110  0.75018668  1
  Fe  Fe65  1  0.87698939  0.87495539  0.37522904  1
  Fe  Fe66  1  0.62660579  0.37340901  0.87563438  1
  Fe  Fe67  1  0.25237377  0.25126449  0.49878975  1
  Fe  Fe68  1  0.12487695  0.87551162  0.37332648  1
  Fe  Fe69  1  0.24980260  0.75060061  0.75150920  1
  Fe  Fe70  1  0.00114840  0.74902281  0.49994050  1
  Fe  Fe71  1  0.37943820  0.12628923  0.37337070  1
  Fe  Fe72  1  0.00104030  0.00024140  0.74825830  1
  Fe  Fe73  1  0.62183917  0.37073689  0.37631535  1
  Fe  Fe74  1  0.12548085  0.87379579  0.87656265  1
  Fe  Fe75  1  0.75033329  0.49926999  0.75057079  1
  Fe  Fe76  1  0.75111921  0.24809246  0.25380946  1
  Fe  Fe77  1  0.12785662  0.62365563  0.62496322  1
  Fe  Fe78  1  0.75269761  0.49888595  0.25667621  1
  Fe  Fe79  1  0.87369535  0.62421372  0.87576811  1
  Fe  Fe80  1  0.49958016  0.00064477  0.49897260  1
  Fe  Fe81  1  0.50241592  0.75096017  0.74574285  1
  Fe  Fe82  1  0.87211766  0.62258745  0.12565530  1
  Fe  Fe83  1  -0.00055618  0.50036614  0.74889316  1
  Fe  Fe84  1  0.37423432  0.12484579  0.62557958  1
  Fe  Fe85  1  0.62655562  0.62423600  0.12661386  1
  Fe  Fe86  1  0.75408455  0.25106943  -0.00086369  1
  Fe  Fe87  1  0.37466562  0.37413752  0.87501817  1
  Fe  Fe88  1  0.50059904  0.49962669  0.50051728  1
  Fe  Fe89  1  0.50188871  0.00286070  -0.00123110  1
  Co  Co90  1  0.62462368  0.87558709  0.12346879  1
  Co  Co91  1  0.24851918  -0.00044849  0.74996452  1
  Co  Co92  1  0.12875389  0.12778599  0.12699605  1
  Co  Co93  1  0.87354163  0.12168410  0.62400465  1
  Co  Co94  1  0.74906560  0.50020553  -0.00214552  1
  Co  Co95  1  0.50032928  0.25147250  -0.00020275  1
  Co  Co96  1  0.00178811  0.00022170  0.50046744  1
  Co  Co97  1  0.37773932  0.62212320  0.37331188  1
  Co  Co98  1  0.50185411  0.24914391  0.24695498  1
  Co  Co99  1  0.00086429  0.50200351  0.49960491  1
  Co  Co100  1  0.50439457  0.49817309  0.24963719  1
  Co  Co101  1  0.87358101  0.62849892  0.37829268  1
  Co  Co102  1  -0.00551481  0.50170688  0.25055570  1
  Co  Co103  1  0.37124650  0.12607566  0.87677303  1
  Co  Co104  1  0.87055271  0.37640797  0.12652530  1
  Co  Co105  1  0.74743617  0.49784156  0.49412735  1
  Co  Co106  1  0.25162462  0.75008137  0.00231983  1
  Co  Co107  1  0.12615217  0.62182091  0.12536009  1
  Co  Co108  1  0.87924817  0.37178494  0.37776134  1
  Co  Co109  1  0.49923788  0.75007485  0.50304520  1
  Co  Co110  1  0.62506591  0.88118972  0.62553419  1
  Co  Co111  1  0.87029632  0.12244588  0.12507335  1
  Co  Co112  1  0.62533933  0.62102663  0.62456848  1
  Co  Co113  1  0.87602265  0.37411194  0.87471352  1
  Co  Co114  1  0.74902149  0.00000384  -0.00345688  1
  Co  Co115  1  0.62143134  0.12626873  0.37628539  1
  Co  Co116  1  -0.00167401  0.25048593  0.74596159  1
  Co  Co117  1  -0.00158732  0.24969639  0.00487460  1
  Co  Co118  1  0.37410697  0.37633452  0.62558709  1
  Co  Co119  1  0.24916175  0.49653532  0.25211712  1
  Co  Co120  1  0.87763843  0.12348466  0.37427089  1
  Co  Co121  1  0.50233860  0.00296243  0.24700264  1
  Co  Co122  1  0.49826629  0.74939331  0.24786618  1
  Co  Co123  1  0.12683308  0.87443575  0.12688037  1
  Co  Co124  1  0.49807525  0.24936554  0.50235503  1
  Co  Co125  1  0.62731331  0.12937670  0.87587553  1
  Co  Co126  1  0.24902947  0.49966211  0.75285960  1
  Co  Co127  1  0.37799284  0.87614097  0.37306089  1
