# generated using pymatgen
data_Fe45Co19
_symmetry_space_group_name_H-M   'P 1'
_cell_length_a   11.41376480
_cell_length_b   11.41554790
_cell_length_c   11.41504056
_cell_angle_alpha   89.99717000
_cell_angle_beta   89.99712584
_cell_angle_gamma   89.99909201
_symmetry_Int_Tables_number   1
_chemical_formula_structural   Fe45Co19
_chemical_formula_sum   'Fe90 Co38'
_cell_volume   1487.31561448
_cell_formula_units_Z   2
loop_
 _symmetry_equiv_pos_site_id
 _symmetry_equiv_pos_as_xyz
  1  'x, y, z'
loop_
 _atom_site_type_symbol
 _atom_site_label
 _atom_site_symmetry_multiplicity
 _atom_site_fract_x
 _atom_site_fract_y
 _atom_site_fract_z
 _atom_site_occupancy
  Fe  Fe0  1  0.25126410  0.25032307  0.25004654  1
  Fe  Fe1  1  0.37362144  0.87327146  0.62871105  1
  Fe  Fe2  1  0.24836032  0.49853094  -0.00092093  1
  Fe  Fe3  1  0.75033676  0.25235882  -0.00231748  1
  Fe  Fe4  1  0.62484021  0.87397528  0.37521987  1
  Fe  Fe5  1  0.37707835  0.37422972  0.12288415  1
  Fe  Fe6  1  0.50124194  0.74809005  0.24907324  1
  Fe  Fe7  1  0.74687552  0.00208171  0.50338478  1
  Fe  Fe8  1  0.25014423  0.25035000  -0.00319739  1
  Fe  Fe9  1  0.12600270  0.37340981  0.62663297  1
  Fe  Fe10  1  0.62715763  0.86939883  0.12383411  1
  Fe  Fe11  1  0.12655504  0.12730008  0.62658713  1
  Fe  Fe12  1  0.87330612  0.12227670  0.87450471  1
  Fe  Fe13  1  0.62549467  0.12515340  0.37509398  1
  Fe  Fe14  1  0.25523393  0.25156651  0.75443678  1
  Fe  Fe15  1  0.62556553  0.62905690  0.62529025  1
  Fe  Fe16  1  0.00048000  0.50190944  0.50129554  1
  Fe  Fe17  1  0.37683687  0.12681674  0.62210160  1
  Fe  Fe18  1  0.37509918  0.62557301  0.37372226  1
  Fe  Fe19  1  0.61991078  0.36892310  0.62802090  1
  Fe  Fe20  1  0.25006773  0.50024878  0.50027295  1
  Fe  Fe21  1  0.87217769  0.62068589  0.37388108  1
  Fe  Fe22  1  0.50360703  0.00009068  0.24760849  1
  Fe  Fe23  1  -0.00465415  0.74903865  0.00046118  1
  Fe  Fe24  1  0.12530456  0.87254711  0.12457098  1
  Fe  Fe25  1  0.50231402  -0.00080762  0.50260981  1
  Fe  Fe26  1  0.62695332  0.37513340  0.37218839  1
  Fe  Fe27  1  0.50512915  -0.00062625  0.74695913  1
  Fe  Fe28  1  0.24922732  0.50002391  0.24936082  1
  Fe  Fe29  1  0.00020004  0.50115028  0.74895741  1
  Fe  Fe30  1  0.75139307  0.24919107  0.49945289  1
  Fe  Fe31  1  0.25199118  0.49688037  0.75112223  1
  Fe  Fe32  1  0.12170376  0.37366521  0.37350202  1
  Fe  Fe33  1  0.00010098  0.00093110  0.74949351  1
  Fe  Fe34  1  0.12420995  0.37390517  0.12488245  1
  Fe  Fe35  1  0.37544655  0.12328364  0.12301281  1
  Fe  Fe36  1  0.24894192  -0.00168487  0.24937671  1
  Fe  Fe37  1  0.87667356  0.37890351  0.87629655  1
  Fe  Fe38  1  0.75099109  0.75174132  0.75308639  1
  Fe  Fe39  1  0.00102660  0.00055452  0.00082394  1
  Fe  Fe40  1  0.12592117  0.62725067  0.12448265  1
  Fe  Fe41  1  0.12640410  0.87190221  0.62607776  1
  Fe  Fe42  1  -0.00245152  0.74925628  0.50004450  1
  Fe  Fe43  1  0.25408269  0.75215154  -0.00326577  1
  Fe  Fe44  1  0.49871039  0.24881743  0.25000696  1
  Fe  Fe45  1  0.37546922  0.62390736  0.12424177  1
  Fe  Fe46  1  -0.00438241  0.74927387  0.24891630  1
  Fe  Fe47  1  0.00155114  -0.00010188  0.50076453  1
  Fe  Fe48  1  0.37846633  0.62273717  0.87433969  1
  Fe  Fe49  1  0.62186706  0.87198483  0.87708141  1
  Fe  Fe50  1  0.12673977  0.87192503  0.37408065  1
  Fe  Fe51  1  0.87512885  0.37676224  0.62440904  1
  Fe  Fe52  1  -0.00075524  0.50073648  0.24778944  1
  Fe  Fe53  1  0.25127214  0.25138142  0.49802082  1
  Fe  Fe54  1  0.87106678  0.12318552  0.62776870  1
  Fe  Fe55  1  0.74643685  0.49857715  0.75006448  1
  Fe  Fe56  1  0.62455978  0.62762900  0.87779338  1
  Fe  Fe57  1  0.50072932  0.49902701  0.50189036  1
  Fe  Fe58  1  0.74751638  0.49958415  0.50222751  1
  Fe  Fe59  1  0.12446568  0.87584019  0.87514482  1
  Fe  Fe60  1  0.75208109  0.74934600  0.49803693  1
  Fe  Fe61  1  0.37670743  0.37710827  0.37427114  1
  Fe  Fe62  1  -0.00035079  0.25059692  -0.00028487  1
  Fe  Fe63  1  0.37451056  0.62616219  0.62809837  1
  Fe  Fe64  1  0.61948860  0.37206167  0.87252221  1
  Fe  Fe65  1  0.37659951  0.87779747  0.12262403  1
  Fe  Fe66  1  0.87267572  0.87979591  0.37250891  1
  Fe  Fe67  1  0.12715314  0.62801197  0.62585539  1
  Fe  Fe68  1  0.24991581  -0.00215601  0.49851261  1
  Fe  Fe69  1  -0.00194041  0.74874165  0.75133061  1
  Fe  Fe70  1  0.87130770  0.87711064  0.12700828  1
  Fe  Fe71  1  0.87282542  0.62077423  0.87801896  1
  Fe  Fe72  1  0.12741642  0.62840259  0.37331277  1
  Fe  Fe73  1  0.62745058  0.12895140  0.12420602  1
  Fe  Fe74  1  0.12181480  0.12615399  0.37199397  1
  Fe  Fe75  1  0.12411340  0.62394569  0.87606587  1
  Fe  Fe76  1  0.74784985  -0.00118522  -0.00135121  1
  Fe  Fe77  1  0.37715288  0.11879262  0.88019815  1
  Fe  Fe78  1  0.50655579  0.49898266  0.00422013  1
  Fe  Fe79  1  0.75738101  0.24729272  0.25161207  1
  Fe  Fe80  1  -0.00325591  0.24881011  0.49881323  1
  Fe  Fe81  1  0.87306742  0.87489877  0.62687387  1
  Fe  Fe82  1  0.50645701  0.50254747  0.24647905  1
  Fe  Fe83  1  0.62608582  0.12751298  0.87171220  1
  Fe  Fe84  1  0.24902188  0.00044166  0.75158820  1
  Fe  Fe85  1  0.49696476  0.75133714  0.50093524  1
  Fe  Fe86  1  0.37625835  0.12221253  0.37483420  1
  Fe  Fe87  1  -0.00177395  0.24990278  0.75121301  1
  Fe  Fe88  1  0.87147475  0.37987356  0.12404686  1
  Fe  Fe89  1  0.12308392  0.12664507  0.12642725  1
  Co  Co90  1  0.62760999  0.86955193  0.62300466  1
  Co  Co91  1  0.74993246  0.74716746  0.25331786  1
  Co  Co92  1  0.25067898  0.75018778  0.75569645  1
  Co  Co93  1  0.74596028  0.00161329  0.24777241  1
  Co  Co94  1  0.87001572  0.62209266  0.12212599  1
  Co  Co95  1  0.87198385  0.62543411  0.62677103  1
  Co  Co96  1  0.49442079  0.75007731  -0.00022110  1
  Co  Co97  1  0.62960014  0.63246793  0.11940417  1
  Co  Co98  1  0.37728094  0.87563461  0.37275231  1
  Co  Co99  1  0.50705749  0.00065280  0.00247793  1
  Co  Co100  1  0.12401629  0.12513654  0.87419229  1
  Co  Co101  1  0.25315336  0.75017928  0.49988926  1
  Co  Co102  1  0.74464781  0.50476088  0.24761960  1
  Co  Co103  1  0.50092929  0.25035867  0.49613242  1
  Co  Co104  1  -0.00705110  0.25101607  0.24882107  1
  Co  Co105  1  0.50185229  0.50152167  0.74805488  1
  Co  Co106  1  0.37697319  0.37317021  0.62361696  1
  Co  Co107  1  0.87589362  0.11910495  0.37539128  1
  Co  Co108  1  0.38006883  0.37908867  0.87968618  1
  Co  Co109  1  0.62688113  0.36894190  0.12920266  1
  Co  Co110  1  0.37790925  0.88081811  0.87475802  1
  Co  Co111  1  0.62529674  0.13138384  0.62827038  1
  Co  Co112  1  0.50080513  0.24876538  0.00006934  1
  Co  Co113  1  0.50063694  0.75116925  0.75076585  1
  Co  Co114  1  0.00194111  -0.00121683  0.24872757  1
  Co  Co115  1  0.75593506  0.75326440  -0.00351208  1
  Co  Co116  1  0.62364919  0.62601899  0.37936286  1
  Co  Co117  1  0.74545905  -0.00384184  0.75061949  1
  Co  Co118  1  0.87349047  0.38039384  0.37565732  1
  Co  Co119  1  0.00202284  0.50093188  0.00221698  1
  Co  Co120  1  0.87414654  0.12133008  0.12163412  1
  Co  Co121  1  0.87724681  0.87872996  0.87391886  1
  Co  Co122  1  0.74232507  0.49588298  -0.00073880  1
  Co  Co123  1  0.25338917  0.75084589  0.24712564  1
  Co  Co124  1  0.12334487  0.37509250  0.87371906  1
  Co  Co125  1  0.24586749  -0.00106522  0.00127724  1
  Co  Co126  1  0.75356435  0.25405695  0.75107465  1
  Co  Co127  1  0.49196279  0.24713258  0.75345894  1
