# generated using pymatgen
data_Fe45Co19
_symmetry_space_group_name_H-M   'P 1'
_cell_length_a   11.41489703
_cell_length_b   11.41539701
_cell_length_c   11.41501931
_cell_angle_alpha   89.99761580
_cell_angle_beta   90.00724620
_cell_angle_gamma   90.00363270
_symmetry_Int_Tables_number   1
_chemical_formula_structural   Fe45Co19
_chemical_formula_sum   'Fe90 Co38'
_cell_volume   1487.44071140
_cell_formula_units_Z   2
loop_
 _symmetry_equiv_pos_site_id
 _symmetry_equiv_pos_as_xyz
  1  'x, y, z'
loop_
 _atom_site_type_symbol
 _atom_site_label
 _atom_site_symmetry_multiplicity
 _atom_site_fract_x
 _atom_site_fract_y
 _atom_site_fract_z
 _atom_site_occupancy
  Fe  Fe0  1  0.49977518  0.75001410  0.00183157  1
  Fe  Fe1  1  0.74873553  -0.00153802  0.49790674  1
  Fe  Fe2  1  0.49951038  0.75129185  0.49723098  1
  Fe  Fe3  1  0.62439231  0.62322743  0.87619564  1
  Fe  Fe4  1  0.50217618  0.00064965  0.49848621  1
  Fe  Fe5  1  0.75136219  0.50054272  0.00283198  1
  Fe  Fe6  1  0.50234167  0.24918887  0.25244838  1
  Fe  Fe7  1  0.75025496  0.24862201  0.25140731  1
  Fe  Fe8  1  0.25141545  0.49427782  0.00191534  1
  Fe  Fe9  1  0.75105545  0.74911934  0.50060580  1
  Fe  Fe10  1  0.12595185  0.62448916  0.12593947  1
  Fe  Fe11  1  0.12359411  0.62481241  0.37116915  1
  Fe  Fe12  1  0.37306421  0.12686009  0.62156688  1
  Fe  Fe13  1  0.24947191  0.25232436  0.75037398  1
  Fe  Fe14  1  0.62483069  0.87485110  0.62515879  1
  Fe  Fe15  1  -0.00025853  0.00117189  -0.00057380  1
  Fe  Fe16  1  -0.00113583  0.74893929  0.75273253  1
  Fe  Fe17  1  0.74848035  0.25167226  0.49850119  1
  Fe  Fe18  1  0.87535960  0.62515729  0.87803193  1
  Fe  Fe19  1  0.62549760  0.37473479  0.62455279  1
  Fe  Fe20  1  0.12166961  0.37552423  0.36953232  1
  Fe  Fe21  1  0.37509229  0.37292497  0.62173704  1
  Fe  Fe22  1  0.37276087  0.12581228  0.87584067  1
  Fe  Fe23  1  0.12525179  0.12322574  0.37506671  1
  Fe  Fe24  1  0.49751344  0.49927656  0.74980391  1
  Fe  Fe25  1  0.87223977  0.87356922  0.88100762  1
  Fe  Fe26  1  0.49571113  0.49866568  0.00477845  1
  Fe  Fe27  1  -0.00409492  0.00279929  0.74882211  1
  Fe  Fe28  1  0.37656047  0.62726418  0.37213617  1
  Fe  Fe29  1  0.12516855  0.87733371  0.87262422  1
  Fe  Fe30  1  0.37391548  0.62466357  0.87752173  1
  Fe  Fe31  1  0.49868205  0.75107767  0.75091182  1
  Fe  Fe32  1  0.87395590  0.12376153  0.12534019  1
  Fe  Fe33  1  0.12454486  0.12591595  0.87522798  1
  Fe  Fe34  1  0.00165772  0.74926444  0.49758836  1
  Fe  Fe35  1  0.24954183  0.75336717  0.25122635  1
  Fe  Fe36  1  0.37672630  0.37151923  0.37455171  1
  Fe  Fe37  1  -0.00080945  0.00043884  0.24896515  1
  Fe  Fe38  1  0.12227940  0.37571508  0.62550549  1
  Fe  Fe39  1  0.12531142  0.62226728  0.87596314  1
  Fe  Fe40  1  0.49943443  0.00157993  -0.00163380  1
  Fe  Fe41  1  0.24727035  -0.00309927  0.50150337  1
  Fe  Fe42  1  0.49911440  -0.00054174  0.74983151  1
  Fe  Fe43  1  0.25189986  -0.00172189  0.74903055  1
  Fe  Fe44  1  0.74996773  0.75579836  0.24521909  1
  Fe  Fe45  1  0.00187080  0.00083048  0.50304502  1
  Fe  Fe46  1  0.62471514  0.62510446  0.62527436  1
  Fe  Fe47  1  0.87716180  0.37421319  0.87621509  1
  Fe  Fe48  1  0.87715302  0.37463023  0.37230779  1
  Fe  Fe49  1  0.50226390  -0.00337417  0.25412896  1
  Fe  Fe50  1  0.87876609  0.63029790  0.12441732  1
  Fe  Fe51  1  0.50162255  0.24835878  0.00053739  1
  Fe  Fe52  1  0.12488596  0.62557616  0.62607101  1
  Fe  Fe53  1  0.12394631  0.87824610  0.12658811  1
  Fe  Fe54  1  0.37380785  0.12480221  0.37780168  1
  Fe  Fe55  1  0.87587838  0.62424091  0.62523943  1
  Fe  Fe56  1  0.87631537  0.87400021  0.37422789  1
  Fe  Fe57  1  0.62682483  0.12116460  0.12818444  1
  Fe  Fe58  1  0.24839178  0.75332921  -0.00064986  1
  Fe  Fe59  1  0.50016565  0.24923103  0.74903712  1
  Fe  Fe60  1  -0.00127531  0.50250694  0.49712977  1
  Fe  Fe61  1  0.75110746  0.50107321  0.49812285  1
  Fe  Fe62  1  0.24754580  0.25149069  0.00171622  1
  Fe  Fe63  1  0.75264350  0.49792502  0.74982627  1
  Fe  Fe64  1  0.24698854  0.24590012  0.24981574  1
  Fe  Fe65  1  0.00110066  0.25093041  0.00497971  1
  Fe  Fe66  1  0.62536822  0.62680627  0.37086880  1
  Fe  Fe67  1  0.00117178  0.49775104  0.00389784  1
  Fe  Fe68  1  0.74924895  0.24866243  0.00004744  1
  Fe  Fe69  1  0.74986583  0.75035169  0.75151029  1
  Fe  Fe70  1  0.37435493  0.87705978  0.12508546  1
  Fe  Fe71  1  0.62117059  0.62508460  0.12795662  1
  Fe  Fe72  1  0.50108432  0.49945226  0.49652476  1
  Fe  Fe73  1  0.87590821  0.87512171  0.62470437  1
  Fe  Fe74  1  0.87405977  0.12390027  0.37539833  1
  Fe  Fe75  1  0.62706585  0.87579061  0.87881892  1
  Fe  Fe76  1  0.62520825  0.37525805  0.12714052  1
  Fe  Fe77  1  0.37399012  0.12366458  0.12540901  1
  Fe  Fe78  1  0.37425778  0.62544731  0.62336320  1
  Fe  Fe79  1  0.62954491  0.12413460  0.87178694  1
  Fe  Fe80  1  0.25008774  0.49719663  0.75146382  1
  Fe  Fe81  1  0.24904683  0.49859711  0.49779309  1
  Fe  Fe82  1  0.24816508  0.75323623  0.49939491  1
  Fe  Fe83  1  0.25412058  0.49928121  0.24817227  1
  Fe  Fe84  1  0.00130219  0.24780774  0.50076308  1
  Fe  Fe85  1  0.62978622  0.12502467  0.62649694  1
  Fe  Fe86  1  0.25216081  0.75182208  0.75003189  1
  Fe  Fe87  1  -0.00381436  0.24762910  0.74649852  1
  Fe  Fe88  1  0.75316983  0.50072660  0.24901670  1
  Fe  Fe89  1  0.62381516  0.37587854  0.87615736  1
  Co  Co90  1  0.12351776  0.87749465  0.37411186  1
  Co  Co91  1  -0.00129097  0.50159049  0.75002416  1
  Co  Co92  1  0.86930928  0.12430673  0.62247762  1
  Co  Co93  1  0.62402597  0.87921415  0.12107109  1
  Co  Co94  1  0.37757187  0.37295437  0.87676758  1
  Co  Co95  1  0.87515687  0.12756339  0.87692318  1
  Co  Co96  1  0.75270365  0.25355390  0.75064657  1
  Co  Co97  1  0.49650838  0.49915118  0.24901325  1
  Co  Co98  1  0.12772645  0.12473337  0.62641393  1
  Co  Co99  1  0.00166775  0.75163465  0.25003813  1
  Co  Co100  1  0.37310311  0.62904846  0.12535091  1
  Co  Co101  1  0.49976364  0.75499120  0.24943972  1
  Co  Co102  1  0.37541514  0.36879097  0.12672972  1
  Co  Co103  1  0.12031548  0.37318563  0.87430979  1
  Co  Co104  1  0.37283426  0.87719170  0.37552798  1
  Co  Co105  1  0.24932568  0.00206636  0.25027458  1
  Co  Co106  1  0.87392219  0.37210594  0.12734675  1
  Co  Co107  1  0.62751459  0.87173229  0.37599234  1
  Co  Co108  1  0.75321814  -0.00291203  0.75224850  1
  Co  Co109  1  0.87704662  0.37554589  0.62146020  1
  Co  Co110  1  -0.00388241  0.50287492  0.24799557  1
  Co  Co111  1  0.87750404  0.87478214  0.12137666  1
  Co  Co112  1  0.75153470  -0.00382375  0.24934612  1
  Co  Co113  1  0.50431704  0.24867780  0.49915673  1
  Co  Co114  1  0.12540999  0.12276069  0.12294854  1
  Co  Co115  1  0.62587514  0.37735361  0.37174430  1
  Co  Co116  1  0.12259397  0.87389438  0.62768490  1
  Co  Co117  1  0.87317270  0.62884333  0.37206793  1
  Co  Co118  1  0.24959529  -0.00047441  -0.00076684  1
  Co  Co119  1  0.12483875  0.37598629  0.13072796  1
  Co  Co120  1  0.24522991  0.25215068  0.49779399  1
  Co  Co121  1  0.00512395  0.75068676  -0.00105187  1
  Co  Co122  1  0.00074877  0.24511345  0.24884170  1
  Co  Co123  1  0.62831005  0.12379932  0.37362839  1
  Co  Co124  1  0.74699692  0.74698735  0.00342103  1
  Co  Co125  1  0.37610468  0.87510494  0.87671364  1
  Co  Co126  1  0.37665039  0.87504678  0.62256319  1
  Co  Co127  1  0.75126006  0.00331922  0.00090813  1
