# generated using pymatgen
data_Fe45Co19
_symmetry_space_group_name_H-M   'P 1'
_cell_length_a   11.41584868
_cell_length_b   11.41495558
_cell_length_c   11.41597362
_cell_angle_alpha   90.00479102
_cell_angle_beta   89.99864993
_cell_angle_gamma   90.00410876
_symmetry_Int_Tables_number   1
_chemical_formula_structural   Fe45Co19
_chemical_formula_sum   'Fe90 Co38'
_cell_volume   1487.63156003
_cell_formula_units_Z   2
loop_
 _symmetry_equiv_pos_site_id
 _symmetry_equiv_pos_as_xyz
  1  'x, y, z'
loop_
 _atom_site_type_symbol
 _atom_site_label
 _atom_site_symmetry_multiplicity
 _atom_site_fract_x
 _atom_site_fract_y
 _atom_site_fract_z
 _atom_site_occupancy
  Fe  Fe0  1  0.62381662  0.37748741  0.87400616  1
  Fe  Fe1  1  0.50197382  0.50404572  0.50222988  1
  Fe  Fe2  1  0.87647233  0.37531984  0.37494764  1
  Fe  Fe3  1  0.49846117  0.24877923  0.25228826  1
  Fe  Fe4  1  0.12618324  0.37504502  0.62481829  1
  Fe  Fe5  1  0.00178423  0.24810384  0.50154085  1
  Fe  Fe6  1  0.00178689  0.24897930  0.25057473  1
  Fe  Fe7  1  0.24649485  0.24503843  0.00061421  1
  Fe  Fe8  1  0.37390575  0.37454405  0.62064035  1
  Fe  Fe9  1  0.75225125  0.24935004  0.00007038  1
  Fe  Fe10  1  0.12811364  0.87801169  0.12279943  1
  Fe  Fe11  1  -0.00054105  0.50176173  0.24985154  1
  Fe  Fe12  1  0.25135880  0.74929166  -0.00045424  1
  Fe  Fe13  1  0.75324406  0.50120708  0.25012633  1
  Fe  Fe14  1  0.00281152  0.75229032  0.74716561  1
  Fe  Fe15  1  0.12622635  0.87595571  0.87534767  1
  Fe  Fe16  1  0.75045701  0.00091724  0.25148837  1
  Fe  Fe17  1  0.49851727  0.74787612  0.00260406  1
  Fe  Fe18  1  0.24737076  0.49959545  0.49630723  1
  Fe  Fe19  1  0.62485709  0.87492341  0.62554999  1
  Fe  Fe20  1  0.62379941  0.87473285  0.37492236  1
  Fe  Fe21  1  0.74847188  0.50422736  0.49898273  1
  Fe  Fe22  1  0.12504439  0.37054522  0.87427291  1
  Fe  Fe23  1  0.24936195  0.49935633  0.00074427  1
  Fe  Fe24  1  0.37435773  0.62445144  0.37424218  1
  Fe  Fe25  1  0.12280356  0.37236181  0.12463624  1
  Fe  Fe26  1  0.37371005  0.12593736  0.87432425  1
  Fe  Fe27  1  0.49602851  -0.00044136  0.25129260  1
  Fe  Fe28  1  0.62498428  0.12610183  0.87282410  1
  Fe  Fe29  1  0.49634622  0.74794482  0.74783309  1
  Fe  Fe30  1  0.49949106  0.74756986  0.50085745  1
  Fe  Fe31  1  0.49770773  0.00087498  0.49928107  1
  Fe  Fe32  1  0.74868209  0.74652152  0.50011326  1
  Fe  Fe33  1  0.12541245  0.62444820  0.87235748  1
  Fe  Fe34  1  0.87590554  0.12488619  0.37631251  1
  Fe  Fe35  1  0.75128900  0.50050619  0.00249722  1
  Fe  Fe36  1  0.74880373  0.00170162  0.50008351  1
  Fe  Fe37  1  0.75161738  0.74961743  0.24974907  1
  Fe  Fe38  1  0.12733310  0.87685212  0.37643934  1
  Fe  Fe39  1  0.87562423  0.37321626  0.87699693  1
  Fe  Fe40  1  0.75090977  0.00040411  -0.00336782  1
  Fe  Fe41  1  0.37199301  0.87437265  0.62422896  1
  Fe  Fe42  1  0.62199227  0.62146613  0.87312398  1
  Fe  Fe43  1  0.62732997  0.37250284  0.12608363  1
  Fe  Fe44  1  0.62534962  0.62531726  0.12565901  1
  Fe  Fe45  1  0.49633906  0.25334204  0.75052960  1
  Fe  Fe46  1  0.62416266  0.37562731  0.37437174  1
  Fe  Fe47  1  0.00252636  0.00118725  0.50249710  1
  Fe  Fe48  1  -0.00080045  -0.00195875  0.25089778  1
  Fe  Fe49  1  0.49818032  0.00201099  0.00085693  1
  Fe  Fe50  1  0.00084025  0.75126141  0.24917130  1
  Fe  Fe51  1  0.87431223  0.37613510  0.62169666  1
  Fe  Fe52  1  0.62502144  0.12522070  0.12621245  1
  Fe  Fe53  1  0.87922624  0.12397691  0.86891300  1
  Fe  Fe54  1  0.24796796  0.74677188  0.50084798  1
  Fe  Fe55  1  -0.00028478  0.49901330  0.00116415  1
  Fe  Fe56  1  0.50049034  0.25102885  -0.00105243  1
  Fe  Fe57  1  0.37656223  0.62097354  0.87587230  1
  Fe  Fe58  1  0.25161004  0.75242788  0.24922440  1
  Fe  Fe59  1  0.25315818  0.00109045  0.24826719  1
  Fe  Fe60  1  0.87683423  0.62689479  0.87588565  1
  Fe  Fe61  1  0.00223116  0.50461636  0.49924060  1
  Fe  Fe62  1  0.75164858  0.50027578  0.74863724  1
  Fe  Fe63  1  0.62500492  0.87617497  0.12366442  1
  Fe  Fe64  1  0.25006875  0.00445192  0.50149904  1
  Fe  Fe65  1  0.12612767  0.12821038  0.62960599  1
  Fe  Fe66  1  0.24915322  -0.00041368  0.75116196  1
  Fe  Fe67  1  0.00401633  0.74746542  0.50238254  1
  Fe  Fe68  1  -0.00086022  0.49780938  0.74964593  1
  Fe  Fe69  1  0.75176033  0.24987396  0.74823530  1
  Fe  Fe70  1  0.62483509  0.37503902  0.62581221  1
  Fe  Fe71  1  0.62357538  0.87491515  0.87575176  1
  Fe  Fe72  1  0.49906515  0.24729868  0.49857330  1
  Fe  Fe73  1  0.24940689  0.49554411  0.25273218  1
  Fe  Fe74  1  0.00204849  0.75017847  0.00115479  1
  Fe  Fe75  1  0.74907149  0.24826732  0.49787492  1
  Fe  Fe76  1  0.62445205  0.12497997  0.62616507  1
  Fe  Fe77  1  0.37434614  0.87604673  0.87702351  1
  Fe  Fe78  1  0.12693662  0.62486738  0.12643945  1
  Fe  Fe79  1  0.49928610  0.00008846  0.74919212  1
  Fe  Fe80  1  0.87604030  0.87345144  0.37790193  1
  Fe  Fe81  1  0.00324779  0.00370993  -0.00180525  1
  Fe  Fe82  1  0.25308727  0.49710910  0.75112378  1
  Fe  Fe83  1  0.87442053  0.87684777  0.62573690  1
  Fe  Fe84  1  0.49783076  0.49958605  0.24818748  1
  Fe  Fe85  1  0.87384133  0.87429408  0.12077250  1
  Fe  Fe86  1  0.87606835  0.12638864  0.12555906  1
  Fe  Fe87  1  0.49606049  0.75174984  0.24924232  1
  Fe  Fe88  1  0.37359452  0.37243976  0.12323083  1
  Fe  Fe89  1  0.75097213  0.75178789  0.75221635  1
  Co  Co90  1  0.50099056  0.49863468  0.00408907  1
  Co  Co91  1  0.37164265  0.62296703  0.12588145  1
  Co  Co92  1  0.12711723  0.62168709  0.62954226  1
  Co  Co93  1  0.24926268  0.25330509  0.25282371  1
  Co  Co94  1  0.12486495  0.12443882  0.12929128  1
  Co  Co95  1  0.49591958  0.49678742  0.74697513  1
  Co  Co96  1  0.37479625  0.12561259  0.62630927  1
  Co  Co97  1  0.37241172  0.12603965  0.37435728  1
  Co  Co98  1  0.62296388  0.12321020  0.37477135  1
  Co  Co99  1  0.12973526  0.87490121  0.62384893  1
  Co  Co100  1  0.12330694  0.12852377  0.86825713  1
  Co  Co101  1  0.37791218  0.37518765  0.37773209  1
  Co  Co102  1  0.62605745  0.62531860  0.62986934  1
  Co  Co103  1  0.00026310  0.24794947  -0.00047562  1
  Co  Co104  1  0.62354912  0.62560989  0.37182849  1
  Co  Co105  1  0.87432491  0.12341826  0.62620726  1
  Co  Co106  1  0.74754118  0.74918298  -0.00234391  1
  Co  Co107  1  0.74833321  -0.00097727  0.75124650  1
  Co  Co108  1  0.87575037  0.62532121  0.62611290  1
  Co  Co109  1  0.25412422  0.25330636  0.74896629  1
  Co  Co110  1  0.37426912  0.37507803  0.88027936  1
  Co  Co111  1  0.37219169  0.87500324  0.37884963  1
  Co  Co112  1  0.12086715  0.37327102  0.37606061  1
  Co  Co113  1  0.87708910  0.62687868  0.37543213  1
  Co  Co114  1  0.12578239  0.62680787  0.37165712  1
  Co  Co115  1  0.24783532  0.24964493  0.49763300  1
  Co  Co116  1  0.37081580  0.62363805  0.62419622  1
  Co  Co117  1  0.87658872  0.37258411  0.12650226  1
  Co  Co118  1  -0.00236439  0.25452720  0.74657589  1
  Co  Co119  1  0.24798232  0.00446948  -0.00188285  1
  Co  Co120  1  0.25131342  0.75006888  0.75220886  1
  Co  Co121  1  0.87626031  0.62701792  0.12317986  1
  Co  Co122  1  0.75035647  0.24861089  0.25297971  1
  Co  Co123  1  0.00313686  -0.00357602  0.74719765  1
  Co  Co124  1  0.37536741  0.12739826  0.12530321  1
  Co  Co125  1  0.37399476  0.87739241  0.12060365  1
  Co  Co126  1  0.12613954  0.12331351  0.37275096  1
  Co  Co127  1  0.87812814  0.87539064  0.87586139  1
