# generated using pymatgen
data_Fe45Co19
_symmetry_space_group_name_H-M   'P 1'
_cell_length_a   11.41488767
_cell_length_b   11.41513015
_cell_length_c   11.41550185
_cell_angle_alpha   89.99493014
_cell_angle_beta   90.00464891
_cell_angle_gamma   90.01752798
_symmetry_Int_Tables_number   1
_chemical_formula_structural   Fe45Co19
_chemical_formula_sum   'Fe90 Co38'
_cell_volume   1487.46753160
_cell_formula_units_Z   2
loop_
 _symmetry_equiv_pos_site_id
 _symmetry_equiv_pos_as_xyz
  1  'x, y, z'
loop_
 _atom_site_type_symbol
 _atom_site_label
 _atom_site_symmetry_multiplicity
 _atom_site_fract_x
 _atom_site_fract_y
 _atom_site_fract_z
 _atom_site_occupancy
  Fe  Fe0  1  0.37381164  0.12479053  0.62347024  1
  Fe  Fe1  1  0.62429876  0.12532418  0.37717996  1
  Fe  Fe2  1  0.25333916  0.50280903  0.24786775  1
  Fe  Fe3  1  0.12586429  0.37645535  0.62713721  1
  Fe  Fe4  1  0.37787179  0.12143027  0.12104908  1
  Fe  Fe5  1  0.00237122  0.74848319  0.74871852  1
  Fe  Fe6  1  0.74836117  -0.00334575  -0.00039986  1
  Fe  Fe7  1  0.37297740  0.87876920  0.12823284  1
  Fe  Fe8  1  0.37642438  0.62734274  0.87829884  1
  Fe  Fe9  1  0.50050395  0.00049064  0.50077622  1
  Fe  Fe10  1  0.50020887  0.49704626  -0.00043478  1
  Fe  Fe11  1  0.87449579  0.62374239  0.12606357  1
  Fe  Fe12  1  0.12291266  0.12456419  0.87842050  1
  Fe  Fe13  1  0.25325034  0.25502777  0.50090508  1
  Fe  Fe14  1  0.62454414  0.62768903  0.12283427  1
  Fe  Fe15  1  0.74942624  0.00203606  0.25108466  1
  Fe  Fe16  1  0.62498452  0.87530514  0.37386184  1
  Fe  Fe17  1  0.62398360  0.12432652  0.87560684  1
  Fe  Fe18  1  0.24918765  0.00215656  0.75158341  1
  Fe  Fe19  1  0.62194262  0.37300074  0.37450005  1
  Fe  Fe20  1  0.25002198  0.24966549  0.00147925  1
  Fe  Fe21  1  0.62240346  0.62636234  0.37693554  1
  Fe  Fe22  1  0.87652172  0.62436558  0.37464858  1
  Fe  Fe23  1  0.62266205  0.62463888  0.62165351  1
  Fe  Fe24  1  0.87655436  0.12484386  0.37613016  1
  Fe  Fe25  1  0.50001320  0.00018289  0.75027480  1
  Fe  Fe26  1  0.12404824  0.62686380  0.12755135  1
  Fe  Fe27  1  0.62246069  0.12221895  0.12338039  1
  Fe  Fe28  1  0.00098460  0.00053396  0.74982672  1
  Fe  Fe29  1  0.49840965  0.50130713  0.24880566  1
  Fe  Fe30  1  0.00001304  0.75249980  0.00211013  1
  Fe  Fe31  1  0.37315699  0.12445770  0.37705674  1
  Fe  Fe32  1  0.74969681  0.25233021  -0.00070281  1
  Fe  Fe33  1  0.75030070  0.25009988  0.50124651  1
  Fe  Fe34  1  0.49809760  0.24774525  0.24947621  1
  Fe  Fe35  1  0.50357961  0.75611610  -0.00055992  1
  Fe  Fe36  1  -0.00074393  0.25386397  0.00242698  1
  Fe  Fe37  1  0.50080315  0.74920075  0.74935280  1
  Fe  Fe38  1  0.74948331  0.49704995  -0.00189497  1
  Fe  Fe39  1  0.49714958  0.75000495  0.25080725  1
  Fe  Fe40  1  0.87472046  0.87728917  0.37405761  1
  Fe  Fe41  1  0.62644035  0.87622492  0.62487277  1
  Fe  Fe42  1  0.37572387  0.62360281  0.37901231  1
  Fe  Fe43  1  0.24858906  0.75084409  0.49979582  1
  Fe  Fe44  1  0.87468840  0.37388854  0.37234725  1
  Fe  Fe45  1  0.00028083  0.49759457  0.00342886  1
  Fe  Fe46  1  0.50023487  0.50135882  0.75125471  1
  Fe  Fe47  1  0.87330565  0.87334026  0.87266794  1
  Fe  Fe48  1  0.12360054  0.37519644  0.87502986  1
  Fe  Fe49  1  0.74909801  0.49836792  0.49934649  1
  Fe  Fe50  1  0.12500859  0.62486137  0.37353150  1
  Fe  Fe51  1  0.12804040  0.87615661  0.36885298  1
  Fe  Fe52  1  0.24737010  0.74571355  0.74982576  1
  Fe  Fe53  1  0.75045075  0.75135791  0.49990968  1
  Fe  Fe54  1  0.37250567  0.87793384  0.37320931  1
  Fe  Fe55  1  0.49870398  0.24880634  0.75034583  1
  Fe  Fe56  1  0.12588431  0.87477890  0.87463252  1
  Fe  Fe57  1  0.37365330  0.87473639  0.87354269  1
  Fe  Fe58  1  0.37648957  0.12357531  0.87858269  1
  Fe  Fe59  1  0.74932056  0.74655860  0.74956155  1
  Fe  Fe60  1  0.12663798  0.12424427  0.62243266  1
  Fe  Fe61  1  0.62341294  0.37324100  0.12568054  1
  Fe  Fe62  1  0.87665799  0.87744084  0.12820230  1
  Fe  Fe63  1  0.75062410  0.00169271  0.74830275  1
  Fe  Fe64  1  0.37412839  0.62330886  0.62119319  1
  Fe  Fe65  1  0.75139263  0.74895407  0.24972388  1
  Fe  Fe66  1  0.87562075  0.12386981  0.62307762  1
  Fe  Fe67  1  0.12750783  0.37419726  0.37033742  1
  Fe  Fe68  1  0.37490133  0.37379620  0.87544062  1
  Fe  Fe69  1  0.24906926  0.24900950  0.75120946  1
  Fe  Fe70  1  0.24862293  0.75165381  0.00265697  1
  Fe  Fe71  1  0.00215661  -0.00257978  0.50028662  1
  Fe  Fe72  1  0.62272252  0.37297363  0.62467088  1
  Fe  Fe73  1  0.37178037  0.87548538  0.62529844  1
  Fe  Fe74  1  0.00191618  0.75289278  0.50000604  1
  Fe  Fe75  1  0.00134094  0.49793020  0.49841939  1
  Fe  Fe76  1  0.24870827  0.24428901  0.24619023  1
  Fe  Fe77  1  0.87472157  0.62501481  0.87730582  1
  Fe  Fe78  1  0.75021248  0.24839185  0.24882247  1
  Fe  Fe79  1  0.75246772  0.25145180  0.74994936  1
  Fe  Fe80  1  0.74968218  0.49929738  0.75150504  1
  Fe  Fe81  1  0.00044552  0.50145790  0.75007670  1
  Fe  Fe82  1  0.87678177  0.62525555  0.62249332  1
  Fe  Fe83  1  0.24933923  0.50307773  0.75134450  1
  Fe  Fe84  1  0.00011018  0.25302320  0.50177634  1
  Fe  Fe85  1  0.25087997  0.50044888  0.00167152  1
  Fe  Fe86  1  0.87686509  0.12319581  0.12402115  1
  Fe  Fe87  1  0.87690663  0.12668937  0.87599363  1
  Fe  Fe88  1  0.74908806  0.50025467  0.25073902  1
  Fe  Fe89  1  0.00205456  0.24796281  0.24705057  1
  Co  Co90  1  0.49659665  0.25055961  0.49984310  1
  Co  Co91  1  0.62512467  0.87511861  0.13051619  1
  Co  Co92  1  0.12749147  0.87554244  0.62766696  1
  Co  Co93  1  0.49886615  0.49552750  0.49949877  1
  Co  Co94  1  -0.00179672  0.75012767  0.25039887  1
  Co  Co95  1  0.87534716  0.37657403  0.62556982  1
  Co  Co96  1  0.50043864  0.25059464  -0.00043942  1
  Co  Co97  1  0.00352247  0.00454118  0.25235735  1
  Co  Co98  1  0.75063411  0.75303904  0.00181065  1
  Co  Co99  1  0.37499839  0.37650399  0.62928843  1
  Co  Co100  1  0.12489310  0.62433724  0.62150210  1
  Co  Co101  1  0.87265014  0.37499757  0.12772301  1
  Co  Co102  1  0.62461939  0.62653151  0.87808139  1
  Co  Co103  1  0.37803420  0.62707401  0.12045481  1
  Co  Co104  1  0.74922583  0.00029686  0.49953479  1
  Co  Co105  1  0.12413265  0.62512826  0.87905957  1
  Co  Co106  1  0.62348614  0.37311698  0.87362196  1
  Co  Co107  1  0.24676806  0.00735360  0.24858062  1
  Co  Co108  1  -0.00054935  0.49890384  0.24992369  1
  Co  Co109  1  0.62802020  0.87457422  0.87018240  1
  Co  Co110  1  0.37492713  0.37285866  0.12594197  1
  Co  Co111  1  0.50231356  -0.00518924  -0.00236221  1
  Co  Co112  1  0.12134616  0.12082217  0.11817001  1
  Co  Co113  1  0.12834567  0.37597483  0.12752610  1
  Co  Co114  1  0.87796552  0.37482034  0.87392011  1
  Co  Co115  1  0.49853053  0.75341389  0.49999349  1
  Co  Co116  1  0.00093097  0.24812934  0.74811515  1
  Co  Co117  1  0.37448041  0.37459905  0.36931988  1
  Co  Co118  1  0.12577174  0.87586505  0.12885965  1
  Co  Co119  1  0.62508821  0.12646493  0.62499154  1
  Co  Co120  1  0.12531475  0.12784786  0.38055059  1
  Co  Co121  1  0.24963574  0.49660272  0.49893753  1
  Co  Co122  1  0.49977277  0.00154008  0.25230398  1
  Co  Co123  1  -0.00153170  -0.00458616  -0.00234382  1
  Co  Co124  1  0.25340460  0.74692041  0.24943154  1
  Co  Co125  1  0.24913658  -0.00157729  0.49927697  1
  Co  Co126  1  0.25024850  -0.00153169  -0.00052874  1
  Co  Co127  1  0.87457331  0.87467911  0.62627350  1
