# generated using pymatgen
data_Fe45Co19
_symmetry_space_group_name_H-M   'P 1'
_cell_length_a   11.41498567
_cell_length_b   11.41487730
_cell_length_c   11.41487034
_cell_angle_alpha   89.99446591
_cell_angle_beta   90.00297380
_cell_angle_gamma   90.00291323
_symmetry_Int_Tables_number   1
_chemical_formula_structural   Fe45Co19
_chemical_formula_sum   'Fe90 Co38'
_cell_volume   1487.36513620
_cell_formula_units_Z   2
loop_
 _symmetry_equiv_pos_site_id
 _symmetry_equiv_pos_as_xyz
  1  'x, y, z'
loop_
 _atom_site_type_symbol
 _atom_site_label
 _atom_site_symmetry_multiplicity
 _atom_site_fract_x
 _atom_site_fract_y
 _atom_site_fract_z
 _atom_site_occupancy
  Fe  Fe0  1  0.87656667  0.12339530  0.87221695  1
  Fe  Fe1  1  0.50184925  0.49678771  -0.00331697  1
  Fe  Fe2  1  0.74536807  0.50300532  0.75049942  1
  Fe  Fe3  1  0.75059862  0.49863666  0.00137291  1
  Fe  Fe4  1  0.62606215  0.12385011  0.62268500  1
  Fe  Fe5  1  0.75208334  0.75485883  -0.00359095  1
  Fe  Fe6  1  0.37396435  0.37685639  0.37584840  1
  Fe  Fe7  1  0.75136440  0.00139233  0.49802230  1
  Fe  Fe8  1  0.12360261  0.87426582  0.12602029  1
  Fe  Fe9  1  0.75157355  0.25204558  0.25476330  1
  Fe  Fe10  1  0.24999790  0.00010772  0.00037082  1
  Fe  Fe11  1  0.12189427  0.12487704  0.37550793  1
  Fe  Fe12  1  0.50688731  0.75109761  0.75058903  1
  Fe  Fe13  1  0.62547619  0.62208961  0.37489856  1
  Fe  Fe14  1  0.37538720  0.62358931  0.37256134  1
  Fe  Fe15  1  0.50150076  0.25108589  0.75079287  1
  Fe  Fe16  1  0.00183390  0.49888152  0.74827610  1
  Fe  Fe17  1  0.50224245  0.24887781  0.49893207  1
  Fe  Fe18  1  0.50210450  0.49933290  0.24834262  1
  Fe  Fe19  1  0.62614302  0.37129876  0.12325782  1
  Fe  Fe20  1  0.87375522  0.37703272  0.62361115  1
  Fe  Fe21  1  0.37583079  0.87377873  0.62369788  1
  Fe  Fe22  1  0.50035938  -0.00083288  0.74845977  1
  Fe  Fe23  1  0.62421964  0.87572118  0.37463021  1
  Fe  Fe24  1  -0.00174173  0.74781513  0.25012763  1
  Fe  Fe25  1  0.24887588  -0.00075946  0.25156975  1
  Fe  Fe26  1  0.37447456  0.37465072  0.62489418  1
  Fe  Fe27  1  0.00091265  0.74464478  0.49861564  1
  Fe  Fe28  1  0.12558362  0.87307296  0.62332248  1
  Fe  Fe29  1  0.74777151  -0.00326027  0.75098290  1
  Fe  Fe30  1  0.87629118  0.12645168  0.12806060  1
  Fe  Fe31  1  0.87544434  0.61733770  0.37284263  1
  Fe  Fe32  1  0.87311554  0.62649215  0.62791318  1
  Fe  Fe33  1  0.87375047  0.62591577  0.87491077  1
  Fe  Fe34  1  0.37517079  0.37362063  0.87418980  1
  Fe  Fe35  1  0.25116506  0.00116043  0.50114794  1
  Fe  Fe36  1  0.24688984  0.25286369  0.25146616  1
  Fe  Fe37  1  0.50064402  0.75052889  0.49781504  1
  Fe  Fe38  1  0.12447159  0.37451497  0.87498591  1
  Fe  Fe39  1  0.00079606  0.75180910  0.75176296  1
  Fe  Fe40  1  0.12525335  0.62349869  0.12626732  1
  Fe  Fe41  1  0.37493419  0.12540773  0.37413962  1
  Fe  Fe42  1  0.25092121  0.50089200  0.00029490  1
  Fe  Fe43  1  0.37581035  0.87511211  0.87704934  1
  Fe  Fe44  1  0.24921557  0.75164954  0.75325697  1
  Fe  Fe45  1  0.25014586  0.00103886  0.74794720  1
  Fe  Fe46  1  0.24923769  0.49968595  0.74811438  1
  Fe  Fe47  1  -0.00075781  0.25144716  0.00008179  1
  Fe  Fe48  1  -0.00284953  -0.00282063  0.00121391  1
  Fe  Fe49  1  0.50112443  0.24830852  0.24965437  1
  Fe  Fe50  1  -0.00223748  0.49841585  0.00398341  1
  Fe  Fe51  1  0.24849938  0.25004336  0.49981870  1
  Fe  Fe52  1  0.12320705  0.12594563  0.12698599  1
  Fe  Fe53  1  0.62833132  0.37712976  0.37649739  1
  Fe  Fe54  1  0.37711955  0.62482343  0.62720012  1
  Fe  Fe55  1  0.24879437  0.74572470  0.49723198  1
  Fe  Fe56  1  0.12453688  0.62487143  0.87579713  1
  Fe  Fe57  1  0.74948385  0.74743377  0.50024599  1
  Fe  Fe58  1  0.24796640  0.24768947  0.74800670  1
  Fe  Fe59  1  0.25005242  0.24864924  0.00008667  1
  Fe  Fe60  1  0.87397432  0.37597178  0.87441323  1
  Fe  Fe61  1  0.87702051  0.12791840  0.37475189  1
  Fe  Fe62  1  0.87560018  0.87356047  0.37403489  1
  Fe  Fe63  1  0.12114913  0.38376326  0.37564111  1
  Fe  Fe64  1  0.49861191  0.00054947  0.49845220  1
  Fe  Fe65  1  0.62546027  0.37670853  0.62451092  1
  Fe  Fe66  1  0.75215958  0.00105980  0.25079592  1
  Fe  Fe67  1  0.37504213  0.37284107  0.12443995  1
  Fe  Fe68  1  0.12417810  0.87363093  0.37546908  1
  Fe  Fe69  1  0.62712416  0.62558224  0.12365283  1
  Fe  Fe70  1  0.12251495  0.12454919  0.87341074  1
  Fe  Fe71  1  0.87234439  0.87304291  0.62591029  1
  Fe  Fe72  1  0.62781347  0.87670061  0.12479221  1
  Fe  Fe73  1  0.37606135  0.12561974  0.87469366  1
  Fe  Fe74  1  0.74966966  0.74844266  0.25097400  1
  Fe  Fe75  1  0.37630681  0.62445933  0.12560975  1
  Fe  Fe76  1  0.37410236  0.87441575  0.12625627  1
  Fe  Fe77  1  0.49974572  0.00455602  0.00422686  1
  Fe  Fe78  1  0.62478514  0.12461054  0.87708251  1
  Fe  Fe79  1  0.49996108  0.75054280  0.00120101  1
  Fe  Fe80  1  0.75045862  0.24724273  -0.00212280  1
  Fe  Fe81  1  0.49899905  0.50004817  0.50109624  1
  Fe  Fe82  1  -0.00150306  -0.00070509  0.50045258  1
  Fe  Fe83  1  -0.00220420  0.25155187  0.50272301  1
  Fe  Fe84  1  0.25117150  0.74917874  0.25088596  1
  Fe  Fe85  1  -0.00068983  0.75270529  -0.00084133  1
  Fe  Fe86  1  0.37692776  0.62563358  0.87451965  1
  Fe  Fe87  1  0.49967084  0.00143060  0.24925129  1
  Fe  Fe88  1  0.00109332  -0.00142665  0.74775665  1
  Fe  Fe89  1  0.75123198  0.24894047  0.74821393  1
  Co  Co90  1  0.12263675  0.12552693  0.62445005  1
  Co  Co91  1  0.12319130  0.61873314  0.36917144  1
  Co  Co92  1  0.24972866  0.74932442  0.00020803  1
  Co  Co93  1  0.62861630  0.12645884  0.12564189  1
  Co  Co94  1  0.75021152  0.50094849  0.50168266  1
  Co  Co95  1  0.12581126  0.37342975  0.62445278  1
  Co  Co96  1  0.62492951  0.12427882  0.37512936  1
  Co  Co97  1  0.12710869  0.37554967  0.12329502  1
  Co  Co98  1  -0.00583644  0.49698100  0.24186927  1
  Co  Co99  1  0.00163185  0.25537437  0.25066086  1
  Co  Co100  1  0.75098406  0.49844276  0.24636870  1
  Co  Co101  1  0.12591727  0.87674822  0.87557565  1
  Co  Co102  1  0.62325115  0.62409404  0.62234995  1
  Co  Co103  1  0.75093500  0.24955948  0.49988454  1
  Co  Co104  1  0.62590127  0.62560594  0.87884163  1
  Co  Co105  1  0.37507542  0.87517134  0.37476400  1
  Co  Co106  1  0.49925639  0.24855653  -0.00007220  1
  Co  Co107  1  0.37676714  0.12736285  0.62369441  1
  Co  Co108  1  0.87188218  0.62866267  0.12266503  1
  Co  Co109  1  0.24929742  0.50367072  0.50283687  1
  Co  Co110  1  0.00223802  0.50460648  0.50586863  1
  Co  Co111  1  0.75393272  0.00058016  0.00018953  1
  Co  Co112  1  0.50248144  0.49913335  0.75257242  1
  Co  Co113  1  -0.00210381  0.25208750  0.74857792  1
  Co  Co114  1  0.62603719  0.87614138  0.62029481  1
  Co  Co115  1  0.37137670  0.12760054  0.12819634  1
  Co  Co116  1  0.25272922  0.49847204  0.24806529  1
  Co  Co117  1  0.62797282  0.37267894  0.87539770  1
  Co  Co118  1  0.87739503  0.37983536  0.37846082  1
  Co  Co119  1  0.87432835  0.12256618  0.62551494  1
  Co  Co120  1  0.62270339  0.87777224  0.87982058  1
  Co  Co121  1  0.87469378  0.87520269  0.87129978  1
  Co  Co122  1  0.50170385  0.74993466  0.24967197  1
  Co  Co123  1  0.87157368  0.36980449  0.12395120  1
  Co  Co124  1  0.12623438  0.62803237  0.62896094  1
  Co  Co125  1  0.74406825  0.75054354  0.75077136  1
  Co  Co126  1  -0.00081411  -0.00087576  0.25144390  1
  Co  Co127  1  0.87430119  0.87444125  0.12828717  1
