# generated using pymatgen
data_Fe45Co19
_symmetry_space_group_name_H-M   'P 1'
_cell_length_a   11.41516377
_cell_length_b   11.41621055
_cell_length_c   11.41492364
_cell_angle_alpha   89.99650807
_cell_angle_beta   89.99746153
_cell_angle_gamma   90.00206728
_symmetry_Int_Tables_number   1
_chemical_formula_structural   Fe45Co19
_chemical_formula_sum   'Fe90 Co38'
_cell_volume   1487.56902006
_cell_formula_units_Z   2
loop_
 _symmetry_equiv_pos_site_id
 _symmetry_equiv_pos_as_xyz
  1  'x, y, z'
loop_
 _atom_site_type_symbol
 _atom_site_label
 _atom_site_symmetry_multiplicity
 _atom_site_fract_x
 _atom_site_fract_y
 _atom_site_fract_z
 _atom_site_occupancy
  Fe  Fe0  1  0.00389252  0.24998854  0.75326872  1
  Fe  Fe1  1  0.87488155  0.37289837  0.62468420  1
  Fe  Fe2  1  0.37499297  0.37641724  0.87959178  1
  Fe  Fe3  1  0.62323344  0.37673771  0.62543854  1
  Fe  Fe4  1  0.87492764  0.62537110  0.37130333  1
  Fe  Fe5  1  0.12394451  0.62486209  0.12465384  1
  Fe  Fe6  1  0.50009557  0.25013246  0.24889513  1
  Fe  Fe7  1  0.50034583  0.24718569  0.75280265  1
  Fe  Fe8  1  0.24671074  0.24900111  -0.00205320  1
  Fe  Fe9  1  0.87323051  0.62771312  0.12625048  1
  Fe  Fe10  1  0.87415079  0.62666208  0.62681964  1
  Fe  Fe11  1  0.74803131  0.24926452  0.50034302  1
  Fe  Fe12  1  0.74607840  0.00042835  0.75006447  1
  Fe  Fe13  1  0.62270601  0.62229942  0.37338742  1
  Fe  Fe14  1  0.12392701  0.62482885  0.62491911  1
  Fe  Fe15  1  0.87000134  0.87318876  0.62342263  1
  Fe  Fe16  1  -0.00050389  0.75022362  0.75161941  1
  Fe  Fe17  1  0.12181367  0.87766712  0.12438958  1
  Fe  Fe18  1  0.12560744  0.12389703  0.62423663  1
  Fe  Fe19  1  0.62293159  0.12471875  0.12232246  1
  Fe  Fe20  1  0.37512635  0.87347644  0.12385945  1
  Fe  Fe21  1  0.87922583  0.12842820  0.12668733  1
  Fe  Fe22  1  0.37439104  0.87451461  0.37422231  1
  Fe  Fe23  1  0.12481564  0.87726427  0.37497665  1
  Fe  Fe24  1  0.50183841  0.74863339  0.24890117  1
  Fe  Fe25  1  0.87267455  0.87268124  0.37386935  1
  Fe  Fe26  1  0.62487097  0.12475829  0.37410963  1
  Fe  Fe27  1  0.37273668  0.12371184  0.37473897  1
  Fe  Fe28  1  0.87649877  0.12724012  0.62557262  1
  Fe  Fe29  1  0.62801156  0.87729505  0.37831007  1
  Fe  Fe30  1  0.50111342  0.50115650  0.75411256  1
  Fe  Fe31  1  0.74687341  0.24880365  0.74964359  1
  Fe  Fe32  1  0.49897263  0.24975921  0.49936844  1
  Fe  Fe33  1  0.25518128  0.50320300  0.24563660  1
  Fe  Fe34  1  0.24723542  0.75196974  -0.00073053  1
  Fe  Fe35  1  0.63084063  0.62460326  0.88080312  1
  Fe  Fe36  1  0.86981448  0.87204134  0.87303809  1
  Fe  Fe37  1  0.50278643  0.75077438  0.00059873  1
  Fe  Fe38  1  0.62146560  0.37624568  0.12257234  1
  Fe  Fe39  1  0.25040238  0.75084999  0.74904025  1
  Fe  Fe40  1  0.12528822  0.37605944  0.12482492  1
  Fe  Fe41  1  0.74959885  0.50069051  0.50026429  1
  Fe  Fe42  1  0.37713071  0.37433803  0.62701112  1
  Fe  Fe43  1  0.12378069  0.62296061  0.87584428  1
  Fe  Fe44  1  0.00318902  0.25345619  0.49454468  1
  Fe  Fe45  1  0.24594023  0.24772110  0.24961709  1
  Fe  Fe46  1  0.62152882  0.12114777  0.62396662  1
  Fe  Fe47  1  0.50306396  0.74942967  0.50015484  1
  Fe  Fe48  1  -0.00300018  0.49886656  0.00100102  1
  Fe  Fe49  1  -0.00050345  0.74931273  0.49851685  1
  Fe  Fe50  1  0.62725017  0.87411585  0.12530698  1
  Fe  Fe51  1  0.37821918  0.12053878  0.87826177  1
  Fe  Fe52  1  0.24900649  0.00026100  0.24751873  1
  Fe  Fe53  1  0.12384188  0.87613978  0.62481763  1
  Fe  Fe54  1  0.12613175  0.87871524  0.87525908  1
  Fe  Fe55  1  0.37405936  0.62763561  0.87760522  1
  Fe  Fe56  1  0.87513669  0.87314308  0.12938168  1
  Fe  Fe57  1  0.37711580  0.12535335  0.12299924  1
  Fe  Fe58  1  -0.00183766  0.49740854  0.49701723  1
  Fe  Fe59  1  0.87508598  0.37386373  0.87359845  1
  Fe  Fe60  1  0.62479380  0.37577628  0.37329637  1
  Fe  Fe61  1  0.87772688  0.37015690  0.12970297  1
  Fe  Fe62  1  0.37996620  0.87723229  0.62575909  1
  Fe  Fe63  1  0.24951865  0.24977211  0.49944867  1
  Fe  Fe64  1  -0.00072405  0.50001721  0.75005573  1
  Fe  Fe65  1  -0.00157657  0.75174576  -0.00110514  1
  Fe  Fe66  1  -0.00192521  -0.00045176  0.75134444  1
  Fe  Fe67  1  0.24934546  0.24842109  0.75391807  1
  Fe  Fe68  1  0.25098950  0.50083134  0.75070098  1
  Fe  Fe69  1  0.75068074  0.00176951  0.25013024  1
  Fe  Fe70  1  0.75138557  -0.00034909  0.00161128  1
  Fe  Fe71  1  0.12612906  0.37550321  0.62565737  1
  Fe  Fe72  1  0.49990295  -0.00055602  0.24950043  1
  Fe  Fe73  1  0.50660447  0.75365778  0.75095693  1
  Fe  Fe74  1  0.25315473  0.00030053  0.74981609  1
  Fe  Fe75  1  0.25451785  0.50150638  0.50168231  1
  Fe  Fe76  1  0.87417146  0.12627506  0.87566251  1
  Fe  Fe77  1  0.75061717  0.50115321  0.75024624  1
  Fe  Fe78  1  0.74978149  0.49905122  0.24707086  1
  Fe  Fe79  1  0.11883844  0.12201572  0.12089073  1
  Fe  Fe80  1  0.74979160  0.25124517  0.00163576  1
  Fe  Fe81  1  0.87504405  0.13060536  0.37068883  1
  Fe  Fe82  1  0.62537385  0.37544624  0.87851535  1
  Fe  Fe83  1  0.49517141  0.50201815  0.24444718  1
  Fe  Fe84  1  0.12573897  0.62286804  0.37399608  1
  Fe  Fe85  1  0.37385231  0.37517525  0.37262100  1
  Fe  Fe86  1  0.25089311  0.75017890  0.50128635  1
  Fe  Fe87  1  0.24881943  0.74932276  0.24995872  1
  Fe  Fe88  1  0.37981445  0.62516787  0.62570056  1
  Fe  Fe89  1  -0.00292389  0.00068870  0.49828642  1
  Co  Co90  1  -0.00156576  0.49878677  0.24964835  1
  Co  Co91  1  0.87025563  0.37206770  0.37206192  1
  Co  Co92  1  0.75268771  0.75195853  0.00249273  1
  Co  Co93  1  0.50331043  -0.00207881  0.75341323  1
  Co  Co94  1  0.74500244  0.74908394  0.74637889  1
  Co  Co95  1  0.74828285  0.74443530  0.49975067  1
  Co  Co96  1  0.12344222  0.11895647  0.87684230  1
  Co  Co97  1  0.37565243  0.12490425  0.62552127  1
  Co  Co98  1  0.25168474  0.50062149  0.00198272  1
  Co  Co99  1  0.37382146  0.63165351  0.12142295  1
  Co  Co100  1  0.37385126  0.37035868  0.12287127  1
  Co  Co101  1  0.50053934  0.25041657  -0.00113813  1
  Co  Co102  1  0.87330003  0.62595715  0.87520612  1
  Co  Co103  1  0.37636453  0.62718251  0.37539220  1
  Co  Co104  1  0.74475294  0.24964244  0.24649869  1
  Co  Co105  1  0.13056403  0.38183236  0.37288156  1
  Co  Co106  1  0.62827945  0.87463690  0.87848933  1
  Co  Co107  1  0.00223174  0.74983420  0.25035164  1
  Co  Co108  1  0.00716849  0.25165015  0.25488126  1
  Co  Co109  1  0.75430702  0.00542922  0.49775075  1
  Co  Co110  1  0.75444663  0.49604390  0.00272768  1
  Co  Co111  1  0.37487759  0.87429809  0.87679699  1
  Co  Co112  1  0.62778263  0.87955212  0.61932104  1
  Co  Co113  1  0.25209443  -0.00010017  0.00241662  1
  Co  Co114  1  0.74700677  0.74924161  0.25189061  1
  Co  Co115  1  -0.00143418  0.00042068  0.25217433  1
  Co  Co116  1  0.49693716  0.00145887  0.49721284  1
  Co  Co117  1  0.12688645  0.11970296  0.37747038  1
  Co  Co118  1  0.12478421  0.37974349  0.87514426  1
  Co  Co119  1  -0.00589630  -0.00347847  -0.00239382  1
  Co  Co120  1  0.50129557  -0.00382007  0.00101964  1
  Co  Co121  1  0.49722298  0.50290779  0.00219163  1
  Co  Co122  1  0.00134970  0.25219265  -0.00334459  1
  Co  Co123  1  0.62598733  0.12468727  0.87924608  1
  Co  Co124  1  0.25236104  -0.00264532  0.50248376  1
  Co  Co125  1  0.62779717  0.62457851  0.12268580  1
  Co  Co126  1  0.49848660  0.49774551  0.49848583  1
  Co  Co127  1  0.62270648  0.62154242  0.62508650  1
