# generated using pymatgen
data_Fe45Co19
_symmetry_space_group_name_H-M   'P 1'
_cell_length_a   11.41494066
_cell_length_b   11.41357505
_cell_length_c   11.41653224
_cell_angle_alpha   89.98868552
_cell_angle_beta   89.99669490
_cell_angle_gamma   90.00612071
_symmetry_Int_Tables_number   1
_chemical_formula_structural   Fe45Co19
_chemical_formula_sum   'Fe90 Co38'
_cell_volume   1487.40608148
_cell_formula_units_Z   2
loop_
 _symmetry_equiv_pos_site_id
 _symmetry_equiv_pos_as_xyz
  1  'x, y, z'
loop_
 _atom_site_type_symbol
 _atom_site_label
 _atom_site_symmetry_multiplicity
 _atom_site_fract_x
 _atom_site_fract_y
 _atom_site_fract_z
 _atom_site_occupancy
  Fe  Fe0  1  0.12524995  0.37567454  0.87403160  1
  Fe  Fe1  1  0.37690659  0.12288089  0.62440678  1
  Fe  Fe2  1  0.62527249  0.62586220  0.87477945  1
  Fe  Fe3  1  0.37580249  0.62701132  0.12338892  1
  Fe  Fe4  1  0.25090298  0.75138181  -0.00089862  1
  Fe  Fe5  1  0.74736792  -0.00254562  0.50025953  1
  Fe  Fe6  1  0.74673504  0.25280788  0.25135301  1
  Fe  Fe7  1  0.12639378  0.12167099  0.87530455  1
  Fe  Fe8  1  -0.00172990  0.74888786  0.24992811  1
  Fe  Fe9  1  0.38078158  0.37680760  0.37564199  1
  Fe  Fe10  1  -0.00033303  0.50106698  0.74743437  1
  Fe  Fe11  1  0.50113236  0.49884579  -0.00130213  1
  Fe  Fe12  1  -0.00122636  0.24959364  0.74985670  1
  Fe  Fe13  1  -0.00169421  0.25053947  0.25159236  1
  Fe  Fe14  1  0.50260214  0.25038477  0.49871002  1
  Fe  Fe15  1  0.87271797  0.87210999  0.37614889  1
  Fe  Fe16  1  0.87212748  0.37541134  0.87631127  1
  Fe  Fe17  1  0.25406289  0.00133190  0.24942000  1
  Fe  Fe18  1  0.12645226  0.87727695  0.87461209  1
  Fe  Fe19  1  -0.00022788  0.24855140  -0.00025834  1
  Fe  Fe20  1  0.12644018  0.12492014  0.12525823  1
  Fe  Fe21  1  0.37782575  0.37545388  0.62428029  1
  Fe  Fe22  1  0.50325180  0.24979936  -0.00092188  1
  Fe  Fe23  1  0.62456460  0.12291324  0.37313626  1
  Fe  Fe24  1  -0.00227231  -0.00212180  0.75004485  1
  Fe  Fe25  1  0.25105830  0.49933871  0.00000578  1
  Fe  Fe26  1  0.12588222  0.12486698  0.37602815  1
  Fe  Fe27  1  -0.00063062  0.75075898  -0.00191672  1
  Fe  Fe28  1  0.74649863  0.49940321  0.50049459  1
  Fe  Fe29  1  0.87272423  0.87234841  0.62360242  1
  Fe  Fe30  1  0.62486483  0.62635057  0.37393661  1
  Fe  Fe31  1  0.87233112  0.11901024  0.87772998  1
  Fe  Fe32  1  0.12435668  0.62531359  0.12564436  1
  Fe  Fe33  1  0.62468510  0.62520603  0.12430078  1
  Fe  Fe34  1  0.37592236  0.62904013  0.62436024  1
  Fe  Fe35  1  0.00135937  0.74572081  0.50260403  1
  Fe  Fe36  1  0.62715991  0.11918367  0.87489239  1
  Fe  Fe37  1  0.12634682  0.87539684  0.12585370  1
  Fe  Fe38  1  0.50113823  0.49983413  0.74957341  1
  Fe  Fe39  1  0.74574411  0.24888806  0.00118234  1
  Fe  Fe40  1  0.87638611  0.87498971  0.12390793  1
  Fe  Fe41  1  0.37570509  0.62540034  0.87439402  1
  Fe  Fe42  1  0.49859850  -0.00231578  0.00208815  1
  Fe  Fe43  1  0.49467420  0.00220972  0.25030283  1
  Fe  Fe44  1  0.37389525  0.12096808  0.87512205  1
  Fe  Fe45  1  0.37680543  0.62656426  0.37697142  1
  Fe  Fe46  1  0.12590317  0.87258619  0.62473762  1
  Fe  Fe47  1  0.25174047  0.74847974  0.25140376  1
  Fe  Fe48  1  0.25377713  0.24976948  0.25246041  1
  Fe  Fe49  1  0.75069472  0.75118401  0.00163120  1
  Fe  Fe50  1  0.87400695  0.12563763  0.37580664  1
  Fe  Fe51  1  0.87397989  0.12392499  0.12404133  1
  Fe  Fe52  1  0.25097674  0.25028699  -0.00235321  1
  Fe  Fe53  1  0.12304900  0.37608156  0.37648945  1
  Fe  Fe54  1  -0.00141334  0.50037208  0.24933380  1
  Fe  Fe55  1  0.25283624  0.75247678  0.75036676  1
  Fe  Fe56  1  0.12549451  0.37483700  0.12508456  1
  Fe  Fe57  1  0.25006869  0.25100803  0.50086283  1
  Fe  Fe58  1  0.12633731  0.87286808  0.37500118  1
  Fe  Fe59  1  0.12350136  0.12574647  0.62394940  1
  Fe  Fe60  1  0.87422511  0.12483083  0.62249582  1
  Fe  Fe61  1  0.24855379  0.50262704  0.50040172  1
  Fe  Fe62  1  0.62507911  0.62827223  0.62619868  1
  Fe  Fe63  1  -0.00060984  -0.00046311  0.49908714  1
  Fe  Fe64  1  0.00176557  0.50387579  0.50339778  1
  Fe  Fe65  1  0.87489616  0.37443407  0.62214698  1
  Fe  Fe66  1  0.25255610  0.50114743  0.25068006  1
  Fe  Fe67  1  0.74727333  0.25230638  0.49770975  1
  Fe  Fe68  1  0.87220691  0.37665242  0.12306274  1
  Fe  Fe69  1  0.74888392  0.75407310  0.75045516  1
  Fe  Fe70  1  -0.00049795  0.00033885  0.25087923  1
  Fe  Fe71  1  0.50105442  0.25066057  0.75209510  1
  Fe  Fe72  1  0.74921045  0.24860882  0.75008277  1
  Fe  Fe73  1  0.87379384  0.62574393  0.37604467  1
  Fe  Fe74  1  0.87450664  0.62715054  0.87280296  1
  Fe  Fe75  1  0.75139646  -0.00121566  0.24911442  1
  Fe  Fe76  1  0.74800235  0.49875873  0.74944593  1
  Fe  Fe77  1  0.50277567  0.75391629  0.49858233  1
  Fe  Fe78  1  0.62510704  0.12346326  0.62586637  1
  Fe  Fe79  1  0.50038120  -0.00549985  0.74941401  1
  Fe  Fe80  1  0.25208438  -0.00241738  0.50114235  1
  Fe  Fe81  1  0.25205257  0.49818208  0.74940990  1
  Fe  Fe82  1  0.49945528  0.75320798  -0.00232606  1
  Fe  Fe83  1  0.37914083  0.37305175  0.12561376  1
  Fe  Fe84  1  -0.00092193  0.50193316  -0.00091083  1
  Fe  Fe85  1  0.74919141  0.50098854  0.24926553  1
  Fe  Fe86  1  0.50117421  -0.00431116  0.49857672  1
  Fe  Fe87  1  0.25100295  0.25002203  0.74934178  1
  Fe  Fe88  1  0.62273836  0.87430350  0.12958988  1
  Fe  Fe89  1  0.12546704  0.62546394  0.87193687  1
  Co  Co90  1  0.37487757  0.87195743  0.12656317  1
  Co  Co91  1  0.62520609  0.87424978  0.62632154  1
  Co  Co92  1  0.62438662  0.37296141  0.62653227  1
  Co  Co93  1  0.24926301  0.74907962  0.49881639  1
  Co  Co94  1  0.37359826  0.87725111  0.87450830  1
  Co  Co95  1  0.37545512  0.12477365  0.37946685  1
  Co  Co96  1  0.37509516  0.12829249  0.12211209  1
  Co  Co97  1  0.87629446  0.62480431  0.12455181  1
  Co  Co98  1  0.37668121  0.37530968  0.87492687  1
  Co  Co99  1  0.62413154  0.12327152  0.12734160  1
  Co  Co100  1  0.50262310  0.50268076  0.50287180  1
  Co  Co101  1  0.75083940  0.74839100  0.24812718  1
  Co  Co102  1  0.75141361  -0.00173349  0.74664901  1
  Co  Co103  1  0.62350244  0.37705581  0.12587013  1
  Co  Co104  1  0.87052937  0.62630708  0.62637476  1
  Co  Co105  1  0.37568224  0.87274396  0.62420612  1
  Co  Co106  1  0.12379401  0.62579859  0.37215240  1
  Co  Co107  1  0.74996661  0.50284687  -0.00065847  1
  Co  Co108  1  0.62539075  0.87568873  0.36929470  1
  Co  Co109  1  0.87259197  0.87696471  0.87674345  1
  Co  Co110  1  0.25182902  -0.00113046  0.00312296  1
  Co  Co111  1  0.49925828  0.50459858  0.24828877  1
  Co  Co112  1  -0.00120709  0.75264253  0.74937383  1
  Co  Co113  1  0.50053728  0.24692133  0.25180069  1
  Co  Co114  1  0.12868627  0.62682478  0.62969298  1
  Co  Co115  1  0.00005754  0.24885713  0.49848786  1
  Co  Co116  1  0.62657405  0.37596459  0.87513047  1
  Co  Co117  1  0.74603545  0.75108557  0.49870308  1
  Co  Co118  1  0.12419115  0.37482664  0.62471672  1
  Co  Co119  1  0.49949775  0.74735145  0.25110644  1
  Co  Co120  1  0.62694400  0.87629444  0.87513023  1
  Co  Co121  1  0.87555287  0.37752527  0.37746306  1
  Co  Co122  1  0.37453437  0.87333003  0.37410131  1
  Co  Co123  1  0.50030481  0.75139943  0.75211271  1
  Co  Co124  1  0.62012315  0.37782370  0.37240960  1
  Co  Co125  1  0.74687873  -0.00329643  0.00462238  1
  Co  Co126  1  0.24977662  0.00007375  0.74600831  1
  Co  Co127  1  0.00159250  -0.00014563  0.00094062  1
