# generated using pymatgen
data_Fe45Co19
_symmetry_space_group_name_H-M   'P 1'
_cell_length_a   11.41661816
_cell_length_b   11.41475599
_cell_length_c   11.41634437
_cell_angle_alpha   90.00875529
_cell_angle_beta   90.00340996
_cell_angle_gamma   89.99333802
_symmetry_Int_Tables_number   1
_chemical_formula_structural   Fe45Co19
_chemical_formula_sum   'Fe90 Co38'
_cell_volume   1487.75411374
_cell_formula_units_Z   2
loop_
 _symmetry_equiv_pos_site_id
 _symmetry_equiv_pos_as_xyz
  1  'x, y, z'
loop_
 _atom_site_type_symbol
 _atom_site_label
 _atom_site_symmetry_multiplicity
 _atom_site_fract_x
 _atom_site_fract_y
 _atom_site_fract_z
 _atom_site_occupancy
  Fe  Fe0  1  0.49723559  0.50312460  0.00068251  1
  Fe  Fe1  1  0.25117647  0.74983385  0.24996455  1
  Fe  Fe2  1  0.62332248  0.62682372  0.87632794  1
  Fe  Fe3  1  0.87616756  0.87063164  0.12760586  1
  Fe  Fe4  1  0.24936195  -0.00184175  0.74906645  1
  Fe  Fe5  1  0.12437917  0.87270509  0.87570571  1
  Fe  Fe6  1  0.25028527  0.50074958  0.74773274  1
  Fe  Fe7  1  0.37515366  0.62034413  0.37149706  1
  Fe  Fe8  1  0.62742273  0.62803839  0.62279049  1
  Fe  Fe9  1  0.12431005  0.37649193  0.62294592  1
  Fe  Fe10  1  0.25523590  0.74871189  0.00287954  1
  Fe  Fe11  1  0.50067056  0.50232679  0.74881567  1
  Fe  Fe12  1  0.49943230  0.74894822  0.24891409  1
  Fe  Fe13  1  0.49970138  0.24962865  0.25544771  1
  Fe  Fe14  1  -0.00192557  -0.00205572  0.50030509  1
  Fe  Fe15  1  0.00052908  -0.00267089  0.74988792  1
  Fe  Fe16  1  0.50130534  -0.00305240  0.74789320  1
  Fe  Fe17  1  0.49996076  0.75359325  0.50148938  1
  Fe  Fe18  1  0.25303303  0.50085446  0.00055879  1
  Fe  Fe19  1  0.62555076  0.62507729  0.37655807  1
  Fe  Fe20  1  0.25022416  -0.00064013  0.50131292  1
  Fe  Fe21  1  0.37673506  0.62618037  0.62616668  1
  Fe  Fe22  1  0.25331904  -0.00096478  0.00012302  1
  Fe  Fe23  1  0.12457546  0.62524497  0.87607197  1
  Fe  Fe24  1  0.00048186  0.25140332  0.25061379  1
  Fe  Fe25  1  0.62035841  0.87412242  0.12257744  1
  Fe  Fe26  1  0.87206272  0.37717553  0.37541146  1
  Fe  Fe27  1  0.37552403  0.37773729  0.12961546  1
  Fe  Fe28  1  0.62408116  0.12539253  0.87604799  1
  Fe  Fe29  1  0.24882740  0.75017056  0.74760466  1
  Fe  Fe30  1  0.00012789  0.25062100  0.75092485  1
  Fe  Fe31  1  0.12598562  0.37217579  0.12312888  1
  Fe  Fe32  1  0.62423317  0.62638892  0.12435106  1
  Fe  Fe33  1  0.12662791  0.12594372  0.37626938  1
  Fe  Fe34  1  0.25074596  0.25056938  0.74846713  1
  Fe  Fe35  1  0.87464731  0.12592098  0.87660881  1
  Fe  Fe36  1  0.74897333  -0.00095685  0.24813664  1
  Fe  Fe37  1  0.87377115  0.37512093  0.87494407  1
  Fe  Fe38  1  0.12579287  0.12788426  0.12163861  1
  Fe  Fe39  1  0.37593293  0.37636771  0.87252459  1
  Fe  Fe40  1  0.24879654  0.00064511  0.24929728  1
  Fe  Fe41  1  -0.00383297  0.50340715  0.74786739  1
  Fe  Fe42  1  0.74812002  0.25021841  0.74992463  1
  Fe  Fe43  1  0.87361971  0.12765272  0.12282327  1
  Fe  Fe44  1  0.62520562  0.87624269  0.37474064  1
  Fe  Fe45  1  -0.00128054  0.75187264  0.49700203  1
  Fe  Fe46  1  0.12400060  0.12389309  0.62495923  1
  Fe  Fe47  1  0.37619902  0.12583925  0.87296508  1
  Fe  Fe48  1  0.12173251  0.62576781  0.62276045  1
  Fe  Fe49  1  0.50038869  0.49828653  0.49729949  1
  Fe  Fe50  1  0.13094397  0.37568750  0.37844572  1
  Fe  Fe51  1  0.37613553  0.37518538  0.62423775  1
  Fe  Fe52  1  0.12600000  0.62337885  0.37710513  1
  Fe  Fe53  1  0.49799963  0.25034816  0.49461495  1
  Fe  Fe54  1  0.87578601  0.87020559  0.87605725  1
  Fe  Fe55  1  0.12446285  0.87616838  0.37473748  1
  Fe  Fe56  1  0.87323148  0.87039172  0.62681606  1
  Fe  Fe57  1  0.37724373  0.12310570  0.62374969  1
  Fe  Fe58  1  0.74879304  0.24951530  0.24978174  1
  Fe  Fe59  1  0.87510600  0.12587414  0.62575949  1
  Fe  Fe60  1  0.25219291  0.74977022  0.49951197  1
  Fe  Fe61  1  0.74945811  -0.00128913  0.75117073  1
  Fe  Fe62  1  0.62470025  0.37683910  0.87416707  1
  Fe  Fe63  1  0.62225596  0.87054230  0.87606236  1
  Fe  Fe64  1  0.87208198  0.62575208  0.37627885  1
  Fe  Fe65  1  0.37503578  0.87715190  0.37449249  1
  Fe  Fe66  1  0.00030277  0.00090211  0.24919164  1
  Fe  Fe67  1  0.62476789  0.37500135  0.62415706  1
  Fe  Fe68  1  0.87325789  0.12373749  0.37483379  1
  Fe  Fe69  1  0.74741394  0.50127584  0.25032569  1
  Fe  Fe70  1  0.74776308  -0.00115274  0.00110160  1
  Fe  Fe71  1  0.12545929  0.12640863  0.87755472  1
  Fe  Fe72  1  0.75048091  -0.00326489  0.49977083  1
  Fe  Fe73  1  0.37767524  0.87147809  0.87387006  1
  Fe  Fe74  1  0.87481675  0.62738774  0.12628080  1
  Fe  Fe75  1  0.75098868  0.50041320  0.00097283  1
  Fe  Fe76  1  0.50165610  0.00326242  0.25277829  1
  Fe  Fe77  1  0.12504011  0.87321973  0.12556567  1
  Fe  Fe78  1  0.49974433  0.24974318  -0.00039362  1
  Fe  Fe79  1  0.74992542  0.25118303  0.50071221  1
  Fe  Fe80  1  0.00150987  0.49955014  0.25127203  1
  Fe  Fe81  1  0.62499369  0.37383786  0.12564054  1
  Fe  Fe82  1  0.12506095  0.62675433  0.12470800  1
  Fe  Fe83  1  0.62403076  0.12353639  0.62241665  1
  Fe  Fe84  1  -0.00052766  0.25164667  0.49943479  1
  Fe  Fe85  1  0.37641919  0.12363761  0.12627190  1
  Fe  Fe86  1  -0.00048006  -0.00122118  0.00095343  1
  Fe  Fe87  1  0.75311094  0.50406957  0.74703312  1
  Fe  Fe88  1  0.12567004  0.37479071  0.87606243  1
  Fe  Fe89  1  -0.00188649  0.49935599  0.00140595  1
  Co  Co90  1  0.87638255  0.62663829  0.87879355  1
  Co  Co91  1  0.25074675  0.24903274  0.24979124  1
  Co  Co92  1  0.62415269  0.12656909  0.12530761  1
  Co  Co93  1  0.49973161  0.00158073  -0.00209363  1
  Co  Co94  1  0.37435830  0.62612918  0.87086430  1
  Co  Co95  1  0.50528587  0.49906012  0.25221485  1
  Co  Co96  1  0.75052426  0.74594083  0.75247342  1
  Co  Co97  1  0.87525110  0.87566394  0.37113344  1
  Co  Co98  1  0.74927273  0.49924390  0.50229516  1
  Co  Co99  1  0.62835893  0.37505494  0.37516247  1
  Co  Co100  1  0.62778818  0.87402934  0.62650522  1
  Co  Co101  1  0.37804868  0.87783770  0.12724239  1
  Co  Co102  1  0.74876484  0.75378017  0.49639812  1
  Co  Co103  1  0.62882077  0.12388025  0.37687309  1
  Co  Co104  1  0.74905170  0.75062224  0.00118167  1
  Co  Co105  1  0.50200917  0.74969368  0.74703502  1
  Co  Co106  1  0.37049618  0.38007257  0.37269346  1
  Co  Co107  1  0.37502453  0.62101725  0.13091786  1
  Co  Co108  1  0.50138537  0.24994440  0.74927014  1
  Co  Co109  1  0.74675597  0.75060658  0.25021236  1
  Co  Co110  1  0.37415105  0.87531785  0.62495886  1
  Co  Co111  1  0.87450030  0.62840485  0.61940606  1
  Co  Co112  1  0.87477968  0.37392352  0.62528698  1
  Co  Co113  1  0.49518302  0.74540129  0.00256692  1
  Co  Co114  1  0.25271937  0.24888804  0.50199586  1
  Co  Co115  1  0.74796265  0.25088753  -0.00164546  1
  Co  Co116  1  0.25242104  0.50257682  0.50361699  1
  Co  Co117  1  0.00082068  0.74981355  0.00135902  1
  Co  Co118  1  0.00174649  0.74806986  0.25275728  1
  Co  Co119  1  0.25520732  0.25076011  -0.00020574  1
  Co  Co120  1  -0.00162197  0.49888789  0.49864212  1
  Co  Co121  1  0.50132261  -0.00213143  0.49984393  1
  Co  Co122  1  -0.00238562  0.25126075  -0.00067413  1
  Co  Co123  1  0.87318545  0.37520011  0.12663242  1
  Co  Co124  1  0.12469375  0.87372006  0.62325055  1
  Co  Co125  1  -0.00043039  0.74834218  0.74994463  1
  Co  Co126  1  0.37228151  0.12179922  0.37532777  1
  Co  Co127  1  0.24434692  0.50035334  0.24850754  1
