# generated using pymatgen
data_Fe45Co19
_symmetry_space_group_name_H-M   'P 1'
_cell_length_a   11.41666455
_cell_length_b   11.41457016
_cell_length_c   11.41554415
_cell_angle_alpha   89.99004240
_cell_angle_beta   90.00394236
_cell_angle_gamma   89.99400229
_symmetry_Int_Tables_number   1
_chemical_formula_structural   Fe45Co19
_chemical_formula_sum   'Fe90 Co38'
_cell_volume   1487.63165450
_cell_formula_units_Z   2
loop_
 _symmetry_equiv_pos_site_id
 _symmetry_equiv_pos_as_xyz
  1  'x, y, z'
loop_
 _atom_site_type_symbol
 _atom_site_label
 _atom_site_symmetry_multiplicity
 _atom_site_fract_x
 _atom_site_fract_y
 _atom_site_fract_z
 _atom_site_occupancy
  Fe  Fe0  1  0.12455891  0.37595351  0.12416806  1
  Fe  Fe1  1  0.62209843  0.36872160  0.37681650  1
  Fe  Fe2  1  0.74785556  0.49774433  0.49923843  1
  Fe  Fe3  1  0.62549164  0.87497564  0.62711228  1
  Fe  Fe4  1  0.74864367  0.00131799  0.24997854  1
  Fe  Fe5  1  0.12638163  0.37410938  0.62489211  1
  Fe  Fe6  1  0.75142113  0.25305720  0.00280937  1
  Fe  Fe7  1  0.00062901  -0.00059686  0.25036704  1
  Fe  Fe8  1  0.00310046  0.50143806  0.49833090  1
  Fe  Fe9  1  0.00039347  0.25118395  0.75065058  1
  Fe  Fe10  1  0.25217670  0.74487671  0.00114347  1
  Fe  Fe11  1  0.00036247  0.50105895  0.75024777  1
  Fe  Fe12  1  0.62150578  0.87608676  0.87322116  1
  Fe  Fe13  1  0.12508222  0.87339437  0.87644292  1
  Fe  Fe14  1  0.87422749  0.87486639  0.12575715  1
  Fe  Fe15  1  0.87432633  0.12493496  0.37470357  1
  Fe  Fe16  1  0.24991400  -0.00009629  0.75052447  1
  Fe  Fe17  1  0.74782034  0.49901105  0.25231449  1
  Fe  Fe18  1  0.12576614  0.87263307  0.37669487  1
  Fe  Fe19  1  0.75195767  0.74910115  0.75317335  1
  Fe  Fe20  1  0.25203275  0.49954701  0.75275508  1
  Fe  Fe21  1  0.37694994  0.87701620  0.62540552  1
  Fe  Fe22  1  0.12367157  0.12546680  0.87540520  1
  Fe  Fe23  1  -0.00136069  0.74832889  0.75144515  1
  Fe  Fe24  1  0.24761881  0.50050526  0.25106636  1
  Fe  Fe25  1  0.00216631  0.50199957  0.25198510  1
  Fe  Fe26  1  0.37579727  0.37780322  0.12456160  1
  Fe  Fe27  1  0.37495774  0.62401042  0.37552166  1
  Fe  Fe28  1  0.25075835  0.00024758  0.24940335  1
  Fe  Fe29  1  0.50144491  0.25149216  0.00425979  1
  Fe  Fe30  1  0.74941490  0.74914890  0.49828487  1
  Fe  Fe31  1  0.37637532  0.87443209  0.12525844  1
  Fe  Fe32  1  0.24763492  0.00167442  0.49975452  1
  Fe  Fe33  1  0.50165853  0.49839608  0.50169528  1
  Fe  Fe34  1  0.37329828  0.37339056  0.62242404  1
  Fe  Fe35  1  0.62414708  0.87556450  0.37455775  1
  Fe  Fe36  1  0.87350845  0.62361510  0.62515832  1
  Fe  Fe37  1  0.50020058  0.74883050  0.25112185  1
  Fe  Fe38  1  0.12303417  0.87475490  0.62247913  1
  Fe  Fe39  1  -0.00051992  -0.00161975  0.74926534  1
  Fe  Fe40  1  0.00225831  0.50102085  -0.00003533  1
  Fe  Fe41  1  0.50168707  0.49831117  0.25161076  1
  Fe  Fe42  1  0.37336791  0.62453438  0.62482320  1
  Fe  Fe43  1  0.50063094  0.00452825  0.24746992  1
  Fe  Fe44  1  0.62745330  0.12848586  0.62239090  1
  Fe  Fe45  1  0.24674170  0.49896442  0.49658744  1
  Fe  Fe46  1  0.87554731  0.12460729  0.62536471  1
  Fe  Fe47  1  0.50057615  0.74897929  0.50164235  1
  Fe  Fe48  1  -0.00178594  0.74800197  0.25186271  1
  Fe  Fe49  1  -0.00172402  0.74815224  0.49852261  1
  Fe  Fe50  1  0.87631254  0.37547239  0.37463832  1
  Fe  Fe51  1  0.62136360  0.37876429  0.87290136  1
  Fe  Fe52  1  0.37806855  0.87442342  0.87279766  1
  Fe  Fe53  1  0.24910187  0.25131741  -0.00016949  1
  Fe  Fe54  1  0.25245445  0.25300079  0.25110233  1
  Fe  Fe55  1  -0.00167666  0.74762380  -0.00143759  1
  Fe  Fe56  1  0.74941421  0.25074244  0.24621971  1
  Fe  Fe57  1  0.24944834  0.74997974  0.74812449  1
  Fe  Fe58  1  0.37747441  0.12574733  0.87616502  1
  Fe  Fe59  1  0.25113146  0.74838831  0.24971093  1
  Fe  Fe60  1  0.25233893  -0.00066528  0.00019781  1
  Fe  Fe61  1  0.00080130  0.24966762  0.50145045  1
  Fe  Fe62  1  -0.00269637  0.25069013  0.24584744  1
  Fe  Fe63  1  0.12609803  0.12622305  0.12465979  1
  Fe  Fe64  1  0.37692658  0.12899630  0.37512090  1
  Fe  Fe65  1  0.12656004  0.37633800  0.87633838  1
  Fe  Fe66  1  0.62350736  0.12484741  0.87708752  1
  Fe  Fe67  1  0.62562632  0.62134558  0.62994150  1
  Fe  Fe68  1  0.75051136  -0.00027919  0.75049019  1
  Fe  Fe69  1  0.37275686  0.12553296  0.62454089  1
  Fe  Fe70  1  0.75008105  -0.00155775  -0.00001103  1
  Fe  Fe71  1  0.37586302  0.87550747  0.37620691  1
  Fe  Fe72  1  0.87459061  0.37584703  0.62426050  1
  Fe  Fe73  1  0.74816734  0.50088710  -0.00193451  1
  Fe  Fe74  1  0.12537738  0.87283593  0.12463197  1
  Fe  Fe75  1  0.87411710  0.62251494  0.12544833  1
  Fe  Fe76  1  0.74989634  0.74804148  0.25204831  1
  Fe  Fe77  1  0.74898882  0.74767170  -0.00306486  1
  Fe  Fe78  1  0.12497681  0.12794869  0.37505385  1
  Fe  Fe79  1  0.75161858  -0.00065857  0.49885144  1
  Fe  Fe80  1  -0.00040245  0.00032899  0.00147239  1
  Fe  Fe81  1  0.75065475  0.25316507  0.75003287  1
  Fe  Fe82  1  0.49987269  0.74580416  -0.00156179  1
  Fe  Fe83  1  0.50035087  0.25130750  0.74708371  1
  Fe  Fe84  1  0.62367602  0.87521802  0.12462419  1
  Fe  Fe85  1  0.62304410  0.62269072  0.12530269  1
  Fe  Fe86  1  0.24945104  0.24969849  0.75074962  1
  Fe  Fe87  1  0.87579389  0.12571733  0.87657293  1
  Fe  Fe88  1  0.50184654  0.00236818  0.50065351  1
  Fe  Fe89  1  0.87641833  0.37624738  0.87659575  1
  Co  Co90  1  0.87362359  0.87495789  0.37455054  1
  Co  Co91  1  0.75367461  0.25207782  0.50033263  1
  Co  Co92  1  0.87315316  0.62234509  0.37600571  1
  Co  Co93  1  0.37747775  0.37579660  0.37532948  1
  Co  Co94  1  0.49952509  0.74888854  0.74777631  1
  Co  Co95  1  0.87467669  0.87364278  0.62451288  1
  Co  Co96  1  0.50041761  0.24889562  0.24577692  1
  Co  Co97  1  0.62280480  0.62109989  0.86994344  1
  Co  Co98  1  -0.00058566  0.25148919  0.00134200  1
  Co  Co99  1  0.12689218  0.62464478  0.87388481  1
  Co  Co100  1  0.25297531  0.75073697  0.50147872  1
  Co  Co101  1  0.87563512  0.62203852  0.87536112  1
  Co  Co102  1  0.87526276  0.37971471  0.12513276  1
  Co  Co103  1  0.87513209  0.87645449  0.87544357  1
  Co  Co104  1  0.62657609  0.12414051  0.12246688  1
  Co  Co105  1  0.62513602  0.12886744  0.37604643  1
  Co  Co106  1  -0.00040811  0.00092697  0.49842461  1
  Co  Co107  1  0.25204271  0.50267260  -0.00007750  1
  Co  Co108  1  0.12288207  0.37190678  0.37429681  1
  Co  Co109  1  0.37291703  0.12672889  0.12353000  1
  Co  Co110  1  0.37552227  0.62644886  0.87117681  1
  Co  Co111  1  0.49648948  0.50305639  -0.00228131  1
  Co  Co112  1  0.50157542  0.00344881  0.74826612  1
  Co  Co113  1  0.62603219  0.37518994  0.62610651  1
  Co  Co114  1  0.12588578  0.62497855  0.62568823  1
  Co  Co115  1  0.49828420  0.25033880  0.50293255  1
  Co  Co116  1  0.49458209  0.49683188  0.74878682  1
  Co  Co117  1  0.62407990  0.37862356  0.12436918  1
  Co  Co118  1  0.49783344  -0.00079920  0.00178829  1
  Co  Co119  1  0.12467089  0.12530466  0.62603252  1
  Co  Co120  1  0.62317876  0.62505701  0.37573067  1
  Co  Co121  1  0.12762318  0.62874339  0.37579124  1
  Co  Co122  1  0.37632082  0.37178872  0.87716738  1
  Co  Co123  1  0.87412411  0.12341926  0.12349220  1
  Co  Co124  1  0.37726129  0.62238155  0.12947665  1
  Co  Co125  1  0.24854870  0.25060708  0.49880352  1
  Co  Co126  1  0.12428819  0.62557081  0.12485818  1
  Co  Co127  1  0.75272738  0.49728143  0.75087725  1
