# generated using pymatgen
data_Fe45Co19
_symmetry_space_group_name_H-M   'P 1'
_cell_length_a   11.41575617
_cell_length_b   11.41514928
_cell_length_c   11.41628040
_cell_angle_alpha   90.00500182
_cell_angle_beta   90.00452628
_cell_angle_gamma   90.00156582
_symmetry_Int_Tables_number   1
_chemical_formula_structural   Fe45Co19
_chemical_formula_sum   'Fe90 Co38'
_cell_volume   1487.68472420
_cell_formula_units_Z   2
loop_
 _symmetry_equiv_pos_site_id
 _symmetry_equiv_pos_as_xyz
  1  'x, y, z'
loop_
 _atom_site_type_symbol
 _atom_site_label
 _atom_site_symmetry_multiplicity
 _atom_site_fract_x
 _atom_site_fract_y
 _atom_site_fract_z
 _atom_site_occupancy
  Fe  Fe0  1  0.74664193  0.24744929  0.25421030  1
  Fe  Fe1  1  0.37607883  0.37395482  0.12777615  1
  Fe  Fe2  1  0.37463334  0.37360567  0.87745173  1
  Fe  Fe3  1  0.37482163  0.37263660  0.62303149  1
  Fe  Fe4  1  0.24891085  -0.00131430  0.24807549  1
  Fe  Fe5  1  0.12545160  0.37468930  0.12433515  1
  Fe  Fe6  1  0.50153155  0.75223223  -0.00134005  1
  Fe  Fe7  1  0.87392419  0.37136847  0.37742456  1
  Fe  Fe8  1  0.50045977  0.24863137  0.75126854  1
  Fe  Fe9  1  0.62305084  0.37355236  0.62115961  1
  Fe  Fe10  1  0.74985677  0.49939555  0.00078501  1
  Fe  Fe11  1  0.74661064  0.24947871  0.74854600  1
  Fe  Fe12  1  -0.00071451  -0.00092029  0.74790875  1
  Fe  Fe13  1  0.25189112  0.24613287  0.75148313  1
  Fe  Fe14  1  0.24896291  0.24416309  0.00149465  1
  Fe  Fe15  1  -0.00050533  0.75060089  -0.00149889  1
  Fe  Fe16  1  0.75247835  0.50156154  0.25092102  1
  Fe  Fe17  1  0.25312124  0.50250583  0.49953977  1
  Fe  Fe18  1  0.75274444  0.74894276  0.24915918  1
  Fe  Fe19  1  0.50120964  0.24809220  0.49317777  1
  Fe  Fe20  1  0.37412404  0.62699412  0.12610573  1
  Fe  Fe21  1  0.50170627  0.75118636  0.75033994  1
  Fe  Fe22  1  0.00159969  0.24967762  0.75141261  1
  Fe  Fe23  1  0.24988029  0.24786931  0.25124520  1
  Fe  Fe24  1  0.62550090  0.87650072  0.62481709  1
  Fe  Fe25  1  0.62687140  0.87552729  0.12503676  1
  Fe  Fe26  1  0.50004664  0.49822681  0.75109178  1
  Fe  Fe27  1  0.12477047  0.12398660  0.62546042  1
  Fe  Fe28  1  0.00073628  0.49990952  -0.00182854  1
  Fe  Fe29  1  0.62610258  0.62600951  0.12501557  1
  Fe  Fe30  1  0.12454591  0.62568207  0.62674206  1
  Fe  Fe31  1  0.50108624  0.75167643  0.25077333  1
  Fe  Fe32  1  0.25004349  0.75080122  0.75060897  1
  Fe  Fe33  1  0.00105138  0.49891851  0.75226942  1
  Fe  Fe34  1  0.62263750  0.62532975  0.62363656  1
  Fe  Fe35  1  0.37468882  0.87434472  0.12544636  1
  Fe  Fe36  1  0.50252107  0.24893317  0.00050208  1
  Fe  Fe37  1  0.87603009  0.12730262  0.62270311  1
  Fe  Fe38  1  0.87542009  0.87594020  0.12351812  1
  Fe  Fe39  1  -0.00314822  0.75230295  0.50472646  1
  Fe  Fe40  1  0.49549233  0.50250837  0.49653848  1
  Fe  Fe41  1  0.25069064  0.49966117  0.75092914  1
  Fe  Fe42  1  0.12472373  0.62422900  0.12404123  1
  Fe  Fe43  1  0.74909844  0.00081296  -0.00161639  1
  Fe  Fe44  1  0.24870682  0.75068372  -0.00038233  1
  Fe  Fe45  1  0.12631988  0.37543167  0.37488468  1
  Fe  Fe46  1  0.74841581  0.49902015  0.74872144  1
  Fe  Fe47  1  0.37960717  0.12476306  0.12985452  1
  Fe  Fe48  1  0.62436404  0.62604448  0.37556839  1
  Fe  Fe49  1  0.62599785  0.87524924  0.37650129  1
  Fe  Fe50  1  0.74797142  0.00304090  0.75022809  1
  Fe  Fe51  1  -0.00057532  0.49910756  0.49961068  1
  Fe  Fe52  1  0.87538322  0.37294232  0.62308784  1
  Fe  Fe53  1  0.12788286  0.88124734  0.87476829  1
  Fe  Fe54  1  -0.00089704  0.75080378  0.24846331  1
  Fe  Fe55  1  0.00038882  0.24940716  0.25102270  1
  Fe  Fe56  1  0.49832455  0.00292433  0.74876307  1
  Fe  Fe57  1  -0.00241645  0.50018507  0.25083903  1
  Fe  Fe58  1  0.12429316  0.62744014  0.37488994  1
  Fe  Fe59  1  0.12782718  0.37333417  0.87718339  1
  Fe  Fe60  1  0.25193792  0.50112535  0.25038089  1
  Fe  Fe61  1  0.87605785  0.87583919  0.37683492  1
  Fe  Fe62  1  0.74779033  0.24737256  -0.00046693  1
  Fe  Fe63  1  0.12385600  0.87482327  0.37737537  1
  Fe  Fe64  1  0.50174419  -0.00022230  0.00130811  1
  Fe  Fe65  1  0.87321027  0.37263953  0.87529327  1
  Fe  Fe66  1  0.87269434  0.62717227  0.87464488  1
  Fe  Fe67  1  0.37417845  0.87414508  0.37351207  1
  Fe  Fe68  1  0.12263941  0.87932135  0.12210869  1
  Fe  Fe69  1  0.25026555  0.00067745  0.50248434  1
  Fe  Fe70  1  0.87549578  0.37376468  0.12445718  1
  Fe  Fe71  1  0.25293085  0.74795860  0.50146735  1
  Fe  Fe72  1  0.12195861  0.12177630  0.37431240  1
  Fe  Fe73  1  0.00152118  0.24505726  -0.00175676  1
  Fe  Fe74  1  0.87598487  0.12412339  0.12624805  1
  Fe  Fe75  1  0.37338318  0.87944879  0.87559175  1
  Fe  Fe76  1  0.87137721  0.87444208  0.87329164  1
  Fe  Fe77  1  0.75118446  0.00114094  0.25148315  1
  Fe  Fe78  1  0.49845581  -0.00023304  0.49920863  1
  Fe  Fe79  1  0.24997636  0.24823339  0.49710393  1
  Fe  Fe80  1  0.37487351  0.87351487  0.62516506  1
  Fe  Fe81  1  0.62678013  0.62670503  0.87597956  1
  Fe  Fe82  1  0.12669036  0.37462918  0.62445866  1
  Fe  Fe83  1  0.75178980  0.50041267  0.49994997  1
  Fe  Fe84  1  0.50007142  0.49932040  0.00080012  1
  Fe  Fe85  1  0.75135712  0.00415632  0.49911353  1
  Fe  Fe86  1  -0.00110499  0.75243725  0.74802175  1
  Fe  Fe87  1  0.62417608  0.37493319  0.12850123  1
  Fe  Fe88  1  0.75190722  0.74901108  0.50366158  1
  Fe  Fe89  1  0.37384311  0.62477461  0.87546859  1
  Co  Co90  1  0.87869348  0.12587909  0.37617856  1
  Co  Co91  1  0.37681743  0.12843239  0.62147110  1
  Co  Co92  1  0.62575362  0.87654347  0.87278928  1
  Co  Co93  1  -0.00350650  0.00223021  -0.00264232  1
  Co  Co94  1  0.50099698  -0.00440822  0.24976940  1
  Co  Co95  1  0.25181040  0.00412482  0.00478326  1
  Co  Co96  1  0.87643379  0.62729092  0.37579443  1
  Co  Co97  1  0.87017387  0.87823616  0.62542943  1
  Co  Co98  1  0.87360208  0.12597580  0.87284529  1
  Co  Co99  1  0.37591683  0.62568001  0.62853365  1
  Co  Co100  1  -0.00016001  -0.00122122  0.50286712  1
  Co  Co101  1  0.49883993  0.75156688  0.49996245  1
  Co  Co102  1  0.87641225  0.62254987  0.62704178  1
  Co  Co103  1  0.62420125  0.12350622  0.12655422  1
  Co  Co104  1  0.62567491  0.37382152  0.87594372  1
  Co  Co105  1  0.25070456  0.49982308  0.00055589  1
  Co  Co106  1  0.37677188  0.12324344  0.87702398  1
  Co  Co107  1  0.12727711  0.11916553  0.87323917  1
  Co  Co108  1  0.50315703  0.25049601  0.25495146  1
  Co  Co109  1  0.24675412  0.75279372  0.24792007  1
  Co  Co110  1  0.74646935  0.24728592  0.49753153  1
  Co  Co111  1  0.62222967  0.11982362  0.37313600  1
  Co  Co112  1  0.62253363  0.12501404  0.62361265  1
  Co  Co113  1  0.00308607  0.25042144  0.50011405  1
  Co  Co114  1  0.37539276  0.12091791  0.37244270  1
  Co  Co115  1  0.74907404  0.75247281  0.00086326  1
  Co  Co116  1  0.49907642  0.50178835  0.24996415  1
  Co  Co117  1  0.25410537  0.00267854  0.74552947  1
  Co  Co118  1  0.37459568  0.62929805  0.37087177  1
  Co  Co119  1  -0.00146408  -0.00215218  0.25107123  1
  Co  Co120  1  0.62542568  0.37936636  0.37507492  1
  Co  Co121  1  0.12120358  0.12238403  0.12734289  1
  Co  Co122  1  0.74806907  0.74905727  0.74575054  1
  Co  Co123  1  0.87579806  0.62492526  0.12267632  1
  Co  Co124  1  0.12577268  0.62634360  0.87433319  1
  Co  Co125  1  0.12822200  0.87444381  0.62530772  1
  Co  Co126  1  0.62326736  0.12423938  0.87532352  1
  Co  Co127  1  0.37481743  0.37474630  0.37360997  1
