# generated using pymatgen
data_Fe45Co19
_symmetry_space_group_name_H-M   'P 1'
_cell_length_a   11.41353363
_cell_length_b   11.41547916
_cell_length_c   11.41583821
_cell_angle_alpha   89.99882201
_cell_angle_beta   90.00931953
_cell_angle_gamma   90.01448783
_symmetry_Int_Tables_number   1
_chemical_formula_structural   Fe45Co19
_chemical_formula_sum   'Fe90 Co38'
_cell_volume   1487.38039751
_cell_formula_units_Z   2
loop_
 _symmetry_equiv_pos_site_id
 _symmetry_equiv_pos_as_xyz
  1  'x, y, z'
loop_
 _atom_site_type_symbol
 _atom_site_label
 _atom_site_symmetry_multiplicity
 _atom_site_fract_x
 _atom_site_fract_y
 _atom_site_fract_z
 _atom_site_occupancy
  Fe  Fe0  1  0.62763456  0.37450142  0.87332917  1
  Fe  Fe1  1  0.12568872  0.12428949  0.12408914  1
  Fe  Fe2  1  0.25125789  0.50002475  0.50166103  1
  Fe  Fe3  1  0.49998636  0.00140045  0.49779722  1
  Fe  Fe4  1  0.50202674  0.24728679  -0.00188540  1
  Fe  Fe5  1  0.12025261  0.37526647  0.87281336  1
  Fe  Fe6  1  0.00400681  0.49867710  0.49998761  1
  Fe  Fe7  1  0.50381465  0.00105202  -0.00189872  1
  Fe  Fe8  1  0.25380315  0.50210796  0.24480823  1
  Fe  Fe9  1  0.37368516  0.12258241  0.62499799  1
  Fe  Fe10  1  0.12758942  0.12485437  0.87634412  1
  Fe  Fe11  1  0.87418051  0.62298486  0.37507846  1
  Fe  Fe12  1  0.87695103  0.87646910  0.37388964  1
  Fe  Fe13  1  0.87209102  0.87172109  0.87352732  1
  Fe  Fe14  1  0.24913101  0.24956069  0.74969024  1
  Fe  Fe15  1  0.12499522  0.87509455  0.12807163  1
  Fe  Fe16  1  0.49820734  0.00160850  0.75444609  1
  Fe  Fe17  1  0.12367713  0.87380422  0.87262602  1
  Fe  Fe18  1  0.62440428  0.37641959  0.62642597  1
  Fe  Fe19  1  0.62337811  0.87488505  0.62724762  1
  Fe  Fe20  1  -0.00554277  0.74589131  0.74757683  1
  Fe  Fe21  1  0.25137830  0.00020168  0.25190136  1
  Fe  Fe22  1  0.50201956  0.75109340  -0.00239752  1
  Fe  Fe23  1  0.74610825  -0.00591929  0.00326880  1
  Fe  Fe24  1  0.25279554  0.75280182  0.75048509  1
  Fe  Fe25  1  0.37601538  0.37488645  0.87676466  1
  Fe  Fe26  1  0.87205611  0.12467231  0.87768339  1
  Fe  Fe27  1  -0.00260267  0.25048535  0.00049267  1
  Fe  Fe28  1  0.75216383  0.25086750  0.49888496  1
  Fe  Fe29  1  0.75517543  0.50368260  0.75176339  1
  Fe  Fe30  1  0.75190700  0.24847095  0.74870480  1
  Fe  Fe31  1  0.12264694  0.12617755  0.62253263  1
  Fe  Fe32  1  0.87763262  0.37807459  0.37043234  1
  Fe  Fe33  1  0.63228293  0.62888148  0.87711098  1
  Fe  Fe34  1  0.87849482  0.12459840  0.62064610  1
  Fe  Fe35  1  0.74922454  0.49692715  0.49870065  1
  Fe  Fe36  1  0.37547835  0.37635675  0.37335479  1
  Fe  Fe37  1  0.12294003  0.87507040  0.62607475  1
  Fe  Fe38  1  0.37628238  0.37773802  0.62628541  1
  Fe  Fe39  1  0.62897413  0.62752114  0.12483906  1
  Fe  Fe40  1  0.49982845  0.24917400  0.50066145  1
  Fe  Fe41  1  -0.00367513  0.49881533  -0.00043511  1
  Fe  Fe42  1  0.75096428  0.25073047  0.25021779  1
  Fe  Fe43  1  -0.00091283  0.75165773  0.00256978  1
  Fe  Fe44  1  0.62223859  0.87349088  0.37264426  1
  Fe  Fe45  1  0.62551070  0.62513317  0.37600502  1
  Fe  Fe46  1  0.12491596  0.62593040  0.87744152  1
  Fe  Fe47  1  -0.00056704  0.75169925  0.49997625  1
  Fe  Fe48  1  0.50021897  0.50263657  0.75233744  1
  Fe  Fe49  1  0.87364543  0.12331543  0.12539461  1
  Fe  Fe50  1  0.37121356  0.62555119  0.87887727  1
  Fe  Fe51  1  0.12818221  0.62673765  0.37351981  1
  Fe  Fe52  1  0.24960368  0.25336416  0.00140509  1
  Fe  Fe53  1  0.00184612  0.00133252  0.25193471  1
  Fe  Fe54  1  0.62601007  0.12431064  0.37275377  1
  Fe  Fe55  1  0.49979478  0.24759931  0.75146112  1
  Fe  Fe56  1  0.62456568  0.12499973  0.62529879  1
  Fe  Fe57  1  0.12523344  0.12634817  0.37683472  1
  Fe  Fe58  1  0.12583155  0.62482409  0.62558096  1
  Fe  Fe59  1  0.00017045  0.24787878  0.25058886  1
  Fe  Fe60  1  0.24997153  0.25258089  0.50025949  1
  Fe  Fe61  1  0.24811350  0.49933295  0.75170326  1
  Fe  Fe62  1  0.12312454  0.37528706  0.12664494  1
  Fe  Fe63  1  0.25225875  0.75028469  0.50136050  1
  Fe  Fe64  1  0.74770954  -0.00372398  0.24779472  1
  Fe  Fe65  1  -0.00018606  0.74799258  0.24939482  1
  Fe  Fe66  1  0.62159938  0.37537309  0.37518192  1
  Fe  Fe67  1  0.24812093  -0.00245510  0.49981629  1
  Fe  Fe68  1  0.62420648  0.37459536  0.12612241  1
  Fe  Fe69  1  0.75015911  -0.00042262  0.74867802  1
  Fe  Fe70  1  0.49872070  0.50327139  0.24797152  1
  Fe  Fe71  1  0.37456227  0.87404556  0.37586023  1
  Fe  Fe72  1  0.75055451  0.25308162  0.00156884  1
  Fe  Fe73  1  0.49830389  0.74905870  0.74989975  1
  Fe  Fe74  1  0.37388752  0.12557195  0.12389967  1
  Fe  Fe75  1  0.24946309  -0.00346793  -0.00204121  1
  Fe  Fe76  1  0.62540228  0.62291867  0.62350483  1
  Fe  Fe77  1  0.74990677  -0.00080780  0.49964690  1
  Fe  Fe78  1  0.50160558  0.50131659  0.00022747  1
  Fe  Fe79  1  0.88087554  0.37570405  0.62800638  1
  Fe  Fe80  1  -0.00043924  -0.00189588  -0.00103740  1
  Fe  Fe81  1  0.12855014  0.62563616  0.12254500  1
  Fe  Fe82  1  0.87064359  0.62328449  0.12486286  1
  Fe  Fe83  1  0.49597723  0.74699306  0.25017296  1
  Fe  Fe84  1  0.49808093  0.24668897  0.25049373  1
  Fe  Fe85  1  0.49715528  0.74718413  0.50251212  1
  Fe  Fe86  1  0.75108641  0.75232478  0.50155472  1
  Fe  Fe87  1  0.12704511  0.37648107  0.37121284  1
  Fe  Fe88  1  -0.00006592  0.00232254  0.75054908  1
  Fe  Fe89  1  0.37618104  0.87363450  0.12315772  1
  Co  Co90  1  0.87642051  0.37368795  0.87150828  1
  Co  Co91  1  0.75307980  0.74686415  0.74394721  1
  Co  Co92  1  0.00250256  0.50444897  0.24825759  1
  Co  Co93  1  0.37661494  0.87763848  0.62465825  1
  Co  Co94  1  0.12532090  0.87148044  0.37307102  1
  Co  Co95  1  0.87890656  0.87697517  0.12799600  1
  Co  Co96  1  -0.00107278  0.25346278  0.49549032  1
  Co  Co97  1  0.62935034  0.12506040  0.87533159  1
  Co  Co98  1  0.61901709  0.87215790  0.12910755  1
  Co  Co99  1  0.87607968  0.87773664  0.62482526  1
  Co  Co100  1  0.75199974  0.75168812  0.25105573  1
  Co  Co101  1  0.00164339  -0.00217825  0.49800759  1
  Co  Co102  1  0.37320840  0.12574591  0.37659594  1
  Co  Co103  1  0.62786331  0.87262244  0.87068264  1
  Co  Co104  1  0.74586415  0.49994682  0.25079606  1
  Co  Co105  1  0.74989212  0.75734846  0.00587457  1
  Co  Co106  1  0.25281893  0.74937762  0.24801552  1
  Co  Co107  1  0.24970898  0.24938941  0.24897913  1
  Co  Co108  1  0.12219206  0.37476879  0.62749045  1
  Co  Co109  1  0.49925178  0.50074909  0.50041705  1
  Co  Co110  1  0.24861456  -0.00083097  0.74991967  1
  Co  Co111  1  0.62617861  0.12534801  0.12679387  1
  Co  Co112  1  0.49693531  0.00143281  0.25046251  1
  Co  Co113  1  0.37355421  0.62375022  0.37627469  1
  Co  Co114  1  0.00075038  0.24430772  0.75222698  1
  Co  Co115  1  0.24646866  0.75510008  -0.00092083  1
  Co  Co116  1  0.37146003  0.12540491  0.87690891  1
  Co  Co117  1  0.75090092  0.49566637  0.00042707  1
  Co  Co118  1  0.37286856  0.62733612  0.11758202  1
  Co  Co119  1  0.37598032  0.87533963  0.87663853  1
  Co  Co120  1  0.24883849  0.49541455  0.00047183  1
  Co  Co121  1  0.87393467  0.12196180  0.37355011  1
  Co  Co122  1  0.37359783  0.62262915  0.62725001  1
  Co  Co123  1  -0.00169482  0.50620615  0.75196426  1
  Co  Co124  1  0.87555945  0.62186956  0.61809986  1
  Co  Co125  1  0.37826470  0.37347790  0.12439206  1
  Co  Co126  1  0.87571711  0.37623773  0.12928750  1
  Co  Co127  1  0.87202281  0.62958554  0.88181878  1
