# generated using pymatgen
data_Fe45Co19
_symmetry_space_group_name_H-M   'P 1'
_cell_length_a   11.41524565
_cell_length_b   11.41551011
_cell_length_c   11.41521730
_cell_angle_alpha   89.99464595
_cell_angle_beta   89.99726380
_cell_angle_gamma   90.00167708
_symmetry_Int_Tables_number   1
_chemical_formula_structural   Fe45Co19
_chemical_formula_sum   'Fe90 Co38'
_cell_volume   1487.52668585
_cell_formula_units_Z   2
loop_
 _symmetry_equiv_pos_site_id
 _symmetry_equiv_pos_as_xyz
  1  'x, y, z'
loop_
 _atom_site_type_symbol
 _atom_site_label
 _atom_site_symmetry_multiplicity
 _atom_site_fract_x
 _atom_site_fract_y
 _atom_site_fract_z
 _atom_site_occupancy
  Fe  Fe0  1  0.37796209  0.87460865  0.37593913  1
  Fe  Fe1  1  0.00078605  0.25076881  0.74828959  1
  Fe  Fe2  1  0.24877716  0.25412119  0.74955248  1
  Fe  Fe3  1  0.37766685  0.87544711  0.87513570  1
  Fe  Fe4  1  0.75066762  0.74850980  0.25055642  1
  Fe  Fe5  1  0.87211884  0.87654727  0.87705211  1
  Fe  Fe6  1  0.50286147  0.74805529  0.00153222  1
  Fe  Fe7  1  0.87547303  0.37282832  0.87436070  1
  Fe  Fe8  1  0.74731760  0.24961129  0.74926843  1
  Fe  Fe9  1  0.86858876  0.37729584  0.12946418  1
  Fe  Fe10  1  0.12674719  0.37327869  0.12643268  1
  Fe  Fe11  1  0.12547727  0.87870890  0.37353131  1
  Fe  Fe12  1  0.87251034  0.12482723  0.12779256  1
  Fe  Fe13  1  0.25345998  0.00584759  0.49586870  1
  Fe  Fe14  1  0.37449289  0.87780568  0.62343234  1
  Fe  Fe15  1  0.62571969  0.87178427  0.61943747  1
  Fe  Fe16  1  0.37639652  0.62421294  0.87313328  1
  Fe  Fe17  1  0.74638516  0.50058582  0.49462103  1
  Fe  Fe18  1  0.00122248  0.75248997  0.74772144  1
  Fe  Fe19  1  0.49957375  -0.00118624  0.25129392  1
  Fe  Fe20  1  0.24908611  0.75182051  0.74835803  1
  Fe  Fe21  1  -0.00069365  0.74846567  0.00226927  1
  Fe  Fe22  1  0.50140583  0.74947923  0.74791045  1
  Fe  Fe23  1  -0.00159259  0.49851382  0.00154582  1
  Fe  Fe24  1  0.25005447  0.74959235  0.00025001  1
  Fe  Fe25  1  -0.00043726  0.24854931  0.49812915  1
  Fe  Fe26  1  0.37437068  0.37427783  0.62251593  1
  Fe  Fe27  1  0.87688771  0.62444203  0.37360586  1
  Fe  Fe28  1  0.62199653  0.12715424  0.37632407  1
  Fe  Fe29  1  0.87185047  0.12510392  0.62296125  1
  Fe  Fe30  1  0.87372505  0.12429832  0.87513529  1
  Fe  Fe31  1  0.50376316  0.00351645  0.74600136  1
  Fe  Fe32  1  0.12479367  0.62523845  0.12761749  1
  Fe  Fe33  1  0.62431171  0.12737337  0.12680800  1
  Fe  Fe34  1  0.50198638  0.49839228  0.74744279  1
  Fe  Fe35  1  0.37556902  0.87574496  0.12409544  1
  Fe  Fe36  1  0.62690522  0.87580553  0.12437783  1
  Fe  Fe37  1  0.00217992  0.74886391  0.50044889  1
  Fe  Fe38  1  0.24682437  0.50073833  0.50055575  1
  Fe  Fe39  1  0.74833088  0.74840687  0.75022465  1
  Fe  Fe40  1  0.87384317  0.87662012  0.37648005  1
  Fe  Fe41  1  -0.00331917  0.25002942  0.25258541  1
  Fe  Fe42  1  0.12630886  0.12265415  0.13131601  1
  Fe  Fe43  1  0.37493480  0.37504903  0.87608604  1
  Fe  Fe44  1  0.24886261  0.74837293  0.49987524  1
  Fe  Fe45  1  -0.00048479  0.25061809  0.00271129  1
  Fe  Fe46  1  0.74944708  0.24993086  0.00041645  1
  Fe  Fe47  1  0.87405769  0.87589340  0.62331080  1
  Fe  Fe48  1  0.37730941  0.12595175  0.87228206  1
  Fe  Fe49  1  0.87405895  0.62535065  0.87541328  1
  Fe  Fe50  1  0.50173665  0.49820271  0.00265915  1
  Fe  Fe51  1  0.12417321  0.87532539  0.87714338  1
  Fe  Fe52  1  0.49593295  0.24830364  0.50404956  1
  Fe  Fe53  1  0.12729630  0.12648743  0.62375432  1
  Fe  Fe54  1  0.87371923  0.37596873  0.62268406  1
  Fe  Fe55  1  0.00069939  0.00007486  0.74856745  1
  Fe  Fe56  1  0.12525826  0.62357603  0.87154575  1
  Fe  Fe57  1  0.74883511  0.00161657  0.25278670  1
  Fe  Fe58  1  0.62632625  0.87575148  0.87688048  1
  Fe  Fe59  1  0.49667020  0.25659177  0.24659130  1
  Fe  Fe60  1  0.37428780  0.62384476  0.62571238  1
  Fe  Fe61  1  0.37514242  0.62240081  0.12616003  1
  Fe  Fe62  1  0.87269475  0.87490946  0.12296953  1
  Fe  Fe63  1  0.75176297  0.25146879  0.49539787  1
  Fe  Fe64  1  0.25521045  0.25030468  0.25333499  1
  Fe  Fe65  1  0.74701601  0.49993899  0.74984937  1
  Fe  Fe66  1  0.00281720  0.50100208  0.49967468  1
  Fe  Fe67  1  0.74715366  0.00209030  0.74819278  1
  Fe  Fe68  1  0.12360145  0.12635736  0.87544612  1
  Fe  Fe69  1  0.00043842  0.75137293  0.24902116  1
  Fe  Fe70  1  0.25039854  0.24826507  0.00141155  1
  Fe  Fe71  1  0.25179280  0.49734436  0.25145804  1
  Fe  Fe72  1  -0.00008488  0.49881091  0.25000353  1
  Fe  Fe73  1  0.12554280  0.37296928  0.37674229  1
  Fe  Fe74  1  0.62356630  0.87101985  0.37919533  1
  Fe  Fe75  1  -0.00027819  0.00245102  0.49891153  1
  Fe  Fe76  1  0.24808504  0.50041399  -0.00081197  1
  Fe  Fe77  1  0.24802641  -0.00090877  0.75059643  1
  Fe  Fe78  1  0.87429175  0.62351569  0.62435685  1
  Fe  Fe79  1  0.50408960  0.50202593  0.49815531  1
  Fe  Fe80  1  0.62427750  0.37386779  0.87503511  1
  Fe  Fe81  1  0.50101439  0.00206524  0.00032403  1
  Fe  Fe82  1  0.25102003  0.00121074  0.00200635  1
  Fe  Fe83  1  0.24995855  0.75188245  0.24977100  1
  Fe  Fe84  1  0.00240058  0.49644654  0.74896203  1
  Fe  Fe85  1  0.62996462  0.61934185  0.12646883  1
  Fe  Fe86  1  0.37640999  0.62349961  0.37348370  1
  Fe  Fe87  1  -0.00029476  0.00119099  0.00269318  1
  Fe  Fe88  1  0.50012547  0.74769233  0.24840585  1
  Fe  Fe89  1  0.49970651  0.25145763  0.00210369  1
  Co  Co90  1  0.50106983  0.25098980  0.74768576  1
  Co  Co91  1  0.62766942  0.12881730  0.62054375  1
  Co  Co92  1  0.74635159  0.49906399  0.25982624  1
  Co  Co93  1  0.37241612  0.12505777  0.62955444  1
  Co  Co94  1  0.87482841  0.12263557  0.37574293  1
  Co  Co95  1  0.74881371  0.00314526  0.00152381  1
  Co  Co96  1  0.12489094  0.62527360  0.62810795  1
  Co  Co97  1  0.75203683  0.49818471  -0.00405272  1
  Co  Co98  1  0.62049561  0.36987703  0.37509802  1
  Co  Co99  1  0.24986743  0.49567279  0.74873445  1
  Co  Co100  1  0.62244594  0.63090910  0.37529640  1
  Co  Co101  1  0.49940929  0.00157514  0.50217613  1
  Co  Co102  1  0.25529715  -0.00059990  0.25175051  1
  Co  Co103  1  0.50136076  0.49838269  0.25043802  1
  Co  Co104  1  0.37716325  0.37725262  0.37903146  1
  Co  Co105  1  0.12366791  0.12429969  0.37032367  1
  Co  Co106  1  0.25221932  0.24632075  0.49662866  1
  Co  Co107  1  0.38123009  0.12632748  0.37180926  1
  Co  Co108  1  0.62381744  0.12679911  0.87643729  1
  Co  Co109  1  0.12620138  0.87747883  0.62064539  1
  Co  Co110  1  0.75413029  0.74762097  0.49928690  1
  Co  Co111  1  0.63052342  0.37626734  0.12685105  1
  Co  Co112  1  -0.00401561  -0.00159377  0.24951392  1
  Co  Co113  1  0.75161233  0.24902750  0.25484063  1
  Co  Co114  1  0.49535289  0.74819092  0.50155963  1
  Co  Co115  1  0.62285232  0.62324114  0.87529004  1
  Co  Co116  1  0.74832023  0.74766225  -0.00021977  1
  Co  Co117  1  0.37696442  0.12377520  0.12615039  1
  Co  Co118  1  0.62622048  0.62682563  0.62257384  1
  Co  Co119  1  0.12458291  0.37286608  0.62133907  1
  Co  Co120  1  0.12382874  0.37445689  0.87748187  1
  Co  Co121  1  0.12611258  0.87671373  0.12607754  1
  Co  Co122  1  0.87750931  0.37701946  0.37578114  1
  Co  Co123  1  0.37249235  0.37710115  0.12304389  1
  Co  Co124  1  0.62639498  0.37381383  0.62197310  1
  Co  Co125  1  0.74752365  0.00004673  0.49839733  1
  Co  Co126  1  0.12523739  0.62480884  0.37185703  1
  Co  Co127  1  0.87177805  0.62214540  0.12773766  1
