# generated using pymatgen
data_Fe45Co19
_symmetry_space_group_name_H-M   'P 1'
_cell_length_a   11.41528998
_cell_length_b   11.41491463
_cell_length_c   11.41665247
_cell_angle_alpha   89.99124161
_cell_angle_beta   90.00545269
_cell_angle_gamma   90.00939881
_symmetry_Int_Tables_number   1
_chemical_formula_structural   Fe45Co19
_chemical_formula_sum   'Fe90 Co38'
_cell_volume   1487.64184000
_cell_formula_units_Z   2
loop_
 _symmetry_equiv_pos_site_id
 _symmetry_equiv_pos_as_xyz
  1  'x, y, z'
loop_
 _atom_site_type_symbol
 _atom_site_label
 _atom_site_symmetry_multiplicity
 _atom_site_fract_x
 _atom_site_fract_y
 _atom_site_fract_z
 _atom_site_occupancy
  Fe  Fe0  1  -0.00249072  0.25444802  0.74841144  1
  Fe  Fe1  1  0.50194181  0.75040167  0.49734012  1
  Fe  Fe2  1  0.37373631  0.37652468  0.37436421  1
  Fe  Fe3  1  0.37625438  0.62478329  0.62549839  1
  Fe  Fe4  1  0.49995003  0.75041747  0.75248238  1
  Fe  Fe5  1  0.74923915  0.50030747  0.50114590  1
  Fe  Fe6  1  0.49864373  -0.00006738  0.25031262  1
  Fe  Fe7  1  0.49939041  0.24900577  0.25066540  1
  Fe  Fe8  1  0.50129009  0.24900762  0.49884949  1
  Fe  Fe9  1  0.24963328  0.50026122  0.00252387  1
  Fe  Fe10  1  0.12472912  0.12314473  0.12856324  1
  Fe  Fe11  1  0.87255117  0.12674260  0.62471359  1
  Fe  Fe12  1  0.62832703  0.63016345  0.37146959  1
  Fe  Fe13  1  0.87271902  0.37469863  0.37388431  1
  Fe  Fe14  1  0.62650165  0.12466370  0.12747445  1
  Fe  Fe15  1  0.12151352  0.37831242  0.12724847  1
  Fe  Fe16  1  0.50202942  0.50121746  0.49715996  1
  Fe  Fe17  1  0.75413135  0.49486584  0.74846115  1
  Fe  Fe18  1  -0.00145940  0.00024317  0.74980066  1
  Fe  Fe19  1  0.62057115  0.62542598  0.12570418  1
  Fe  Fe20  1  0.62920132  0.12645291  0.62717562  1
  Fe  Fe21  1  0.62610253  0.87453051  0.87644647  1
  Fe  Fe22  1  0.12157455  0.37428883  0.87652186  1
  Fe  Fe23  1  0.75003339  -0.00080491  0.49834981  1
  Fe  Fe24  1  0.00067905  0.50214838  0.49593891  1
  Fe  Fe25  1  0.87479435  0.12429272  0.12688623  1
  Fe  Fe26  1  0.24844200  0.00041174  0.75021579  1
  Fe  Fe27  1  0.37609879  0.62393401  0.87667836  1
  Fe  Fe28  1  0.49982947  0.49829506  0.75174120  1
  Fe  Fe29  1  0.37294845  0.62383818  0.37326548  1
  Fe  Fe30  1  0.87440028  0.12804116  0.87408448  1
  Fe  Fe31  1  0.37407699  0.37488186  0.87691535  1
  Fe  Fe32  1  0.24939109  0.74951218  0.75130884  1
  Fe  Fe33  1  0.24932962  0.74857828  0.00175384  1
  Fe  Fe34  1  -0.00202389  0.50030119  0.00121605  1
  Fe  Fe35  1  0.24736869  0.49900144  0.74940187  1
  Fe  Fe36  1  0.24872472  0.74963787  0.50107636  1
  Fe  Fe37  1  -0.00142476  -0.00115111  0.25287597  1
  Fe  Fe38  1  0.62680730  0.37516602  0.87551557  1
  Fe  Fe39  1  0.12650881  0.37636184  0.37329963  1
  Fe  Fe40  1  0.87257787  0.12664177  0.37347900  1
  Fe  Fe41  1  0.12238181  0.62457924  0.87542947  1
  Fe  Fe42  1  0.12194817  0.62544167  0.62542717  1
  Fe  Fe43  1  0.87570575  0.62442116  0.87490214  1
  Fe  Fe44  1  0.12295856  0.87383475  0.62502495  1
  Fe  Fe45  1  0.62354314  0.87452376  0.12786997  1
  Fe  Fe46  1  0.75086651  -0.00097502  0.00219749  1
  Fe  Fe47  1  0.87548738  0.87471164  0.87677721  1
  Fe  Fe48  1  0.87063738  0.86839328  0.37372987  1
  Fe  Fe49  1  0.62932077  0.12553687  0.87333634  1
  Fe  Fe50  1  0.37685373  0.37566412  0.12574175  1
  Fe  Fe51  1  0.87798671  0.62620134  0.62276522  1
  Fe  Fe52  1  0.24861590  0.25175683  0.74964838  1
  Fe  Fe53  1  0.00127612  0.00310859  -0.00180045  1
  Fe  Fe54  1  0.12660548  0.87388827  0.37369889  1
  Fe  Fe55  1  0.37267773  0.87597420  0.37548211  1
  Fe  Fe56  1  0.24881001  0.49940726  0.50099130  1
  Fe  Fe57  1  0.37258702  0.12490529  0.62300256  1
  Fe  Fe58  1  0.00127204  0.24962398  0.49743215  1
  Fe  Fe59  1  0.37597285  0.37476178  0.62335001  1
  Fe  Fe60  1  0.75275850  0.74991744  0.00494516  1
  Fe  Fe61  1  0.37897538  0.62234821  0.12560709  1
  Fe  Fe62  1  0.25023705  0.24936141  0.24974382  1
  Fe  Fe63  1  0.62761244  0.37403843  0.37439273  1
  Fe  Fe64  1  0.12395967  0.87450882  0.87575736  1
  Fe  Fe65  1  0.50061216  0.24987274  0.75044416  1
  Fe  Fe66  1  0.12022437  0.87271409  0.12502618  1
  Fe  Fe67  1  0.62827402  0.12383922  0.37264480  1
  Fe  Fe68  1  0.62460659  0.37572911  0.12630437  1
  Fe  Fe69  1  0.50131030  0.00099507  0.75147355  1
  Fe  Fe70  1  0.37561869  0.87866905  0.12200165  1
  Fe  Fe71  1  0.37524720  0.87809349  0.87853845  1
  Fe  Fe72  1  -0.00100983  0.25089614  0.24980001  1
  Fe  Fe73  1  0.87624595  0.87307016  0.62292408  1
  Fe  Fe74  1  0.24658306  0.24769137  0.00178469  1
  Fe  Fe75  1  0.75233210  0.75084797  0.74859986  1
  Fe  Fe76  1  0.37520648  0.87525922  0.62438073  1
  Fe  Fe77  1  0.62429736  0.62378233  0.62730511  1
  Fe  Fe78  1  0.50076748  0.24872004  0.00090069  1
  Fe  Fe79  1  0.75212428  0.50034336  0.00302290  1
  Fe  Fe80  1  0.75287466  0.25220553  0.00247565  1
  Fe  Fe81  1  0.12576825  0.12653651  0.62322679  1
  Fe  Fe82  1  0.37006924  0.12263288  0.37524264  1
  Fe  Fe83  1  0.75323604  0.50260431  0.24775993  1
  Fe  Fe84  1  0.00010072  -0.00033996  0.49690248  1
  Fe  Fe85  1  0.37349204  0.12271154  0.87893031  1
  Fe  Fe86  1  0.62611353  0.62477213  0.87585769  1
  Fe  Fe87  1  0.50153607  -0.00049888  0.49839513  1
  Fe  Fe88  1  0.24916734  0.74761739  0.24645037  1
  Fe  Fe89  1  0.62521508  0.87600966  0.62514666  1
  Co  Co90  1  0.37357280  0.12343546  0.12345264  1
  Co  Co91  1  0.87637906  0.37552117  0.61884389  1
  Co  Co92  1  0.24648007  -0.00070219  0.50080993  1
  Co  Co93  1  0.74667792  0.75033487  0.50433705  1
  Co  Co94  1  0.62863130  0.87312557  0.37184626  1
  Co  Co95  1  0.87732297  0.37627791  0.12651499  1
  Co  Co96  1  0.88106451  0.62553900  0.12517666  1
  Co  Co97  1  -0.00131335  0.74916173  -0.00250037  1
  Co  Co98  1  0.75241166  -0.00245691  0.75015322  1
  Co  Co99  1  -0.00199999  0.49776804  0.74937190  1
  Co  Co100  1  -0.00282719  0.50393222  0.25517765  1
  Co  Co101  1  0.24883427  -0.00187432  0.24817877  1
  Co  Co102  1  0.12415257  0.37501255  0.62300537  1
  Co  Co103  1  0.75334796  0.25651088  0.74903960  1
  Co  Co104  1  -0.00128137  0.75010891  0.75164206  1
  Co  Co105  1  0.12045079  0.62434543  0.12483417  1
  Co  Co106  1  0.50196555  0.49910395  0.25278989  1
  Co  Co107  1  0.12964669  0.62440393  0.37396947  1
  Co  Co108  1  0.24376881  0.00146457  0.00044393  1
  Co  Co109  1  0.74892886  0.24951078  0.49972440  1
  Co  Co110  1  0.24974015  0.50125490  0.24690673  1
  Co  Co111  1  0.49665098  0.75126844  0.25124550  1
  Co  Co112  1  0.86945965  0.62902543  0.37774619  1
  Co  Co113  1  0.62328201  0.37469548  0.62407429  1
  Co  Co114  1  0.50424680  0.00192236  0.00074360  1
  Co  Co115  1  0.49962915  0.75014106  -0.00036267  1
  Co  Co116  1  0.24890344  0.25116539  0.49768976  1
  Co  Co117  1  0.00247732  0.74976715  0.49564579  1
  Co  Co118  1  -0.00037349  0.74554061  0.25457229  1
  Co  Co119  1  0.87836797  0.37424015  0.88011746  1
  Co  Co120  1  0.88096091  0.87536442  0.12546976  1
  Co  Co121  1  0.00049257  0.24733819  0.00428306  1
  Co  Co122  1  0.75090490  0.25114969  0.24834265  1
  Co  Co123  1  0.12324079  0.12757007  0.87166749  1
  Co  Co124  1  0.75243427  -0.00191838  0.24935568  1
  Co  Co125  1  0.12649481  0.12439441  0.37343501  1
  Co  Co126  1  0.75271995  0.74869377  0.24232178  1
  Co  Co127  1  0.50044755  0.49822779  -0.00127751  1
