# generated using pymatgen
data_Zn9.12Cu14.88
_symmetry_space_group_name_H-M   'P 1'
_cell_length_a   3.69600000
_cell_length_b   7.39200000
_cell_length_c   11.08800000
_cell_angle_alpha   90.00000000
_cell_angle_beta   90.00000000
_cell_angle_gamma   90.00000000
_symmetry_Int_Tables_number   1
_chemical_formula_structural   Zn9.12Cu14.88
_chemical_formula_sum   'Zn9.12 Cu14.88'
_cell_volume   302.93338522
_cell_formula_units_Z   1
loop_
 _symmetry_equiv_pos_site_id
 _symmetry_equiv_pos_as_xyz
  1  'x, y, z'
loop_
 _atom_site_type_symbol
 _atom_site_label
 _atom_site_symmetry_multiplicity
 _atom_site_fract_x
 _atom_site_fract_y
 _atom_site_fract_z
 _atom_site_occupancy

  Zn  Zn1  1  0.50000000  0.50000000  0.83333333  1.0
  Zn  Zn1  1  0.00000000  0.50000000  0.66666667  1.0
  Zn  Zn1  1  0.00000000  0.00000000  0.66666667  1.0
  Zn  Zn1  1  0.50000000  0.25000000  0.66666667  1.0
  Zn  Zn1  1  0.50000000  0.75000000  0.33333333  1.0
  Zn  Zn1  1  0.50000000  0.75000000  0.00000000  1.0
  Zn  Zn1  1  0.50000000  0.00000000  0.16666667  1.0
  Zn  Zn1  1  0.00000000  0.25000000  0.83333333  1.0
  Zn  Zn1  1  0.00000000  0.75000000  0.16666667  1.0
  Cu  Zn1  1  0.00000000  0.50000000  0.33333333  1.0
  Cu  Zn1  1  0.00000000  0.00000000  0.33333333  1.0
  Cu  Zn1  1  0.50000000  0.75000000  0.66666667  1.0
  Cu  Zn1  1  0.00000000  0.25000000  0.16666667  1.0
  Cu  Zn1  1  0.00000000  0.00000000  0.00000000  1.0
  Cu  Zn1  1  0.50000000  0.50000000  0.16666667  1.0
  Cu  Zn1  1  0.00000000  0.75000000  0.83333333  1.0
  Cu  Zn1  1  0.00000000  0.50000000  0.00000000  1.0
  Cu  Zn1  1  0.00000000  0.75000000  0.50000000  1.0
  Cu  Zn1  1  0.50000000  0.00000000  0.83333333  1.0
  Cu  Zn1  1  0.50000000  0.25000000  0.00000000  1.0
  Cu  Zn1  1  0.50000000  0.50000000  0.50000000  1.0
  Cu  Zn1  1  0.50000000  0.00000000  0.50000000  1.0
  Cu  Zn1  1  0.50000000  0.25000000  0.33333333  1.0
  Cu  Zn1  1  0.00000000  0.25000000  0.50000000  1.0







































































































































































































































