# generated using pymatgen
data_Ba51.2Fe51.2Bi25.6O166.464
_symmetry_space_group_name_H-M   'P 1'
_cell_length_a   16.27400000
_cell_length_b   16.27400000
_cell_length_c   16.27400000
_cell_angle_alpha   90.00000000
_cell_angle_beta   90.00000000
_cell_angle_gamma   90.00000000
_symmetry_Int_Tables_number   1
_chemical_formula_structural   Ba51.2Fe51.2Bi25.6O166.464
_chemical_formula_sum   'Ba51.2 Fe51.2 Bi25.6 O166.464'
_cell_volume   4310.05621882
_cell_formula_units_Z   1
loop_
 _symmetry_equiv_pos_site_id
 _symmetry_equiv_pos_as_xyz
  1  'x, y, z'
loop_
 _atom_site_type_symbol
 _atom_site_label
 _atom_site_symmetry_multiplicity
 _atom_site_fract_x
 _atom_site_fract_y
 _atom_site_fract_z
 _atom_site_occupancy
  Ba  Bi1  1  0.75000000  0.25000000  0.50000000  1.0
  Ba  Bi1  1  0.75000000  0.50000000  0.25000000  1.0
  Ba  Bi1  1  0.75000000  0.50000000  0.75000000  1.0
  Ba  Bi1  1  0.75000000  0.75000000  0.50000000  1.0
  Ba  Bi1  1  0.50000000  0.75000000  0.25000000  1.0
  Ba  Bi1  1  0.25000000  0.00000000  0.00000000  1.0
  Ba  Bi1  1  0.75000000  0.75000000  0.25000000  1.0
  Ba  Bi1  1  0.25000000  0.75000000  0.50000000  1.0
  Ba  Bi1  1  0.50000000  0.75000000  0.75000000  1.0
  Ba  Bi1  1  0.75000000  0.50000000  0.50000000  1.0
  Ba  Bi1  1  0.00000000  0.00000000  0.75000000  1.0
  Ba  Bi1  1  0.50000000  0.50000000  0.50000000  1.0
  Ba  Bi1  1  0.00000000  0.00000000  0.50000000  1.0
  Ba  Bi1  1  0.50000000  0.50000000  0.25000000  1.0
  Ba  Bi1  1  0.00000000  0.25000000  0.00000000  1.0
  Ba  Bi1  1  0.50000000  0.25000000  0.75000000  1.0
  Ba  Bi1  1  0.00000000  0.50000000  0.75000000  1.0
  Ba  Bi1  1  0.25000000  0.25000000  0.75000000  1.0
  Ba  Bi1  1  0.50000000  0.25000000  0.25000000  1.0
  Ba  Bi1  1  0.25000000  0.00000000  0.50000000  1.0
  Ba  Bi1  1  0.00000000  0.25000000  0.75000000  1.0
  Ba  Bi1  1  0.50000000  0.00000000  0.25000000  1.0
  Ba  Bi1  1  0.00000000  0.50000000  0.25000000  1.0
  Ba  Bi1  1  0.75000000  0.00000000  0.50000000  1.0
  Ba  Bi1  1  0.25000000  0.25000000  0.50000000  1.0
  Ba  Bi1  1  0.00000000  0.75000000  0.50000000  1.0
  Ba  Bi1  1  0.00000000  0.50000000  0.50000000  1.0
  Ba  Bi1  1  0.00000000  0.50000000  0.00000000  1.0
  Ba  Bi1  1  0.00000000  0.75000000  0.25000000  1.0
  Ba  Bi1  1  0.00000000  0.25000000  0.50000000  1.0
  Ba  Bi1  1  0.75000000  0.25000000  0.00000000  1.0
  Ba  Bi1  1  0.75000000  0.00000000  0.00000000  1.0
  Ba  Bi1  1  0.50000000  0.50000000  0.00000000  1.0
  Ba  Bi1  1  0.75000000  0.50000000  0.00000000  1.0
  Ba  Bi1  1  0.00000000  0.25000000  0.25000000  1.0
  Ba  Bi1  1  0.75000000  0.00000000  0.75000000  1.0
  Ba  Bi1  1  0.25000000  0.50000000  0.25000000  1.0
  Ba  Bi1  1  0.25000000  0.00000000  0.75000000  1.0
  Ba  Bi1  1  0.75000000  0.75000000  0.00000000  1.0
  Ba  Bi1  1  0.25000000  0.00000000  0.25000000  1.0
  Ba  Bi1  1  0.50000000  0.75000000  0.00000000  1.0
  Ba  Bi1  1  0.25000000  0.50000000  0.50000000  1.0
  Ba  Bi1  1  0.25000000  0.50000000  0.75000000  1.0
  Ba  Bi1  1  0.25000000  0.25000000  0.25000000  1.0
  Ba  Bi1  1  0.75000000  0.25000000  0.75000000  1.0
  Ba  Bi1  1  0.25000000  0.50000000  0.00000000  1.0
  Ba  Bi1  1  0.75000000  0.75000000  0.75000000  1.0
  Ba  Bi1  1  0.00000000  0.75000000  0.00000000  1.0
  Ba  Bi1  1  0.75000000  0.25000000  0.25000000  1.0
  Ba  Bi1  1  0.50000000  0.75000000  0.50000000  1.0
  Ba  Bi1  1  0.75000000  0.00000000  0.25000000  1.0
  Bi  Bi1  1  0.00000000  0.75000000  0.75000000  1.0
  Bi  Bi1  1  0.50000000  0.25000000  0.50000000  1.0
  Bi  Bi1  1  0.50000000  0.00000000  0.75000000  1.0
  Bi  Bi1  1  0.25000000  0.25000000  0.00000000  1.0
  Bi  Bi1  1  0.25000000  0.75000000  0.75000000  1.0
  Bi  Bi1  1  0.00000000  0.00000000  0.00000000  1.0
  Bi  Bi1  1  0.50000000  0.00000000  0.00000000  1.0
  Bi  Bi1  1  0.00000000  0.00000000  0.25000000  1.0
  Bi  Bi1  1  0.50000000  0.25000000  0.00000000  1.0
  Bi  Bi1  1  0.25000000  0.75000000  0.00000000  1.0
  Bi  Bi1  1  0.50000000  0.50000000  0.75000000  1.0
  Bi  Bi1  1  0.50000000  0.00000000  0.50000000  1.0
  Bi  Bi1  1  0.25000000  0.75000000  0.25000000  1.0
  Fe  Bi2  1  0.62500000  0.37500000  0.12500000  1.0
  Fe  Bi2  1  0.87500000  0.12500000  0.87500000  1.0
  Fe  Bi2  1  0.87500000  0.37500000  0.62500000  1.0
  Fe  Bi2  1  0.37500000  0.62500000  0.37500000  1.0
  Fe  Bi2  1  0.62500000  0.12500000  0.62500000  1.0
  Fe  Bi2  1  0.12500000  0.87500000  0.87500000  1.0
  Fe  Bi2  1  0.37500000  0.37500000  0.87500000  1.0
  Fe  Bi2  1  0.62500000  0.37500000  0.37500000  1.0
  Fe  Bi2  1  0.12500000  0.37500000  0.37500000  1.0
  Fe  Bi2  1  0.12500000  0.37500000  0.62500000  1.0
  Fe  Bi2  1  0.37500000  0.12500000  0.12500000  1.0
  Fe  Bi2  1  0.37500000  0.87500000  0.87500000  1.0
  Fe  Bi2  1  0.87500000  0.87500000  0.87500000  1.0
  Fe  Bi2  1  0.12500000  0.37500000  0.12500000  1.0
  Fe  Bi2  1  0.12500000  0.87500000  0.62500000  1.0
  Fe  Bi2  1  0.62500000  0.12500000  0.37500000  1.0
  Fe  Bi2  1  0.12500000  0.12500000  0.12500000  1.0
  Fe  Bi2  1  0.37500000  0.12500000  0.37500000  1.0
  Fe  Bi2  1  0.87500000  0.37500000  0.12500000  1.0
  Fe  Bi2  1  0.12500000  0.62500000  0.62500000  1.0
  Fe  Bi2  1  0.12500000  0.12500000  0.87500000  1.0
  Fe  Bi2  1  0.37500000  0.37500000  0.12500000  1.0
  Fe  Bi2  1  0.62500000  0.12500000  0.12500000  1.0
  Fe  Bi2  1  0.12500000  0.37500000  0.87500000  1.0
  Fe  Bi2  1  0.12500000  0.12500000  0.37500000  1.0
  Fe  Bi2  1  0.62500000  0.87500000  0.12500000  1.0
  Fe  Bi2  1  0.37500000  0.12500000  0.62500000  1.0
  Fe  Bi2  1  0.37500000  0.62500000  0.87500000  1.0
  Fe  Bi2  1  0.62500000  0.37500000  0.62500000  1.0
  Fe  Bi2  1  0.37500000  0.87500000  0.12500000  1.0
  Fe  Bi2  1  0.62500000  0.87500000  0.37500000  1.0
  Fe  Bi2  1  0.87500000  0.87500000  0.12500000  1.0
  Fe  Bi2  1  0.62500000  0.87500000  0.87500000  1.0
  Fe  Bi2  1  0.62500000  0.12500000  0.87500000  1.0
  Fe  Bi2  1  0.87500000  0.37500000  0.87500000  1.0
  Fe  Bi2  1  0.87500000  0.62500000  0.37500000  1.0
  Fe  Bi2  1  0.62500000  0.62500000  0.62500000  1.0
  Fe  Bi2  1  0.37500000  0.12500000  0.87500000  1.0
  Fe  Bi2  1  0.87500000  0.87500000  0.62500000  1.0
  Fe  Bi2  1  0.37500000  0.62500000  0.12500000  1.0
  Fe  Bi2  1  0.87500000  0.87500000  0.37500000  1.0
  Fe  Bi2  1  0.37500000  0.87500000  0.62500000  1.0
  Fe  Bi2  1  0.12500000  0.87500000  0.12500000  1.0
  Fe  Bi2  1  0.37500000  0.62500000  0.62500000  1.0
  Fe  Bi2  1  0.37500000  0.37500000  0.37500000  1.0
  Fe  Bi2  1  0.62500000  0.62500000  0.87500000  1.0
  Fe  Bi2  1  0.62500000  0.62500000  0.12500000  1.0
  Fe  Bi2  1  0.37500000  0.37500000  0.62500000  1.0
  Fe  Bi2  1  0.12500000  0.62500000  0.12500000  1.0
  Fe  Bi2  1  0.12500000  0.12500000  0.62500000  1.0
  Fe  Bi2  1  0.12500000  0.62500000  0.37500000  1.0
  Bi  Bi2  1  0.87500000  0.12500000  0.62500000  1.0
  Bi  Bi2  1  0.62500000  0.37500000  0.87500000  1.0
  Bi  Bi2  1  0.87500000  0.62500000  0.62500000  1.0
  Bi  Bi2  1  0.87500000  0.12500000  0.37500000  1.0
  Bi  Bi2  1  0.12500000  0.87500000  0.37500000  1.0
  Bi  Bi2  1  0.62500000  0.62500000  0.37500000  1.0
  Bi  Bi2  1  0.87500000  0.12500000  0.12500000  1.0
  Bi  Bi2  1  0.12500000  0.62500000  0.87500000  1.0
  Bi  Bi2  1  0.37500000  0.87500000  0.37500000  1.0
  Bi  Bi2  1  0.87500000  0.37500000  0.37500000  1.0
  Bi  Bi2  1  0.87500000  0.62500000  0.12500000  1.0
  Bi  Bi2  1  0.62500000  0.87500000  0.62500000  1.0
  Bi  Bi2  1  0.87500000  0.62500000  0.87500000  1.0
