# generated using pymatgen
data_Ba17Sr5La8Pr42Mn72O216
_symmetry_space_group_name_H-M   'P 1'
_cell_length_a   16.67462279
_cell_length_b   15.69758271
_cell_length_c   16.81608073
_cell_angle_alpha   89.99959348
_cell_angle_beta   89.99736314
_cell_angle_gamma   89.97803942
_symmetry_Int_Tables_number   1
_chemical_formula_structural   Ba17Sr5La8Pr42Mn72O216
_chemical_formula_sum   'Ba17 Sr5 La8 Pr42 Mn72 O216'
_cell_volume   4401.63016504
_cell_formula_units_Z   1
loop_
 _symmetry_equiv_pos_site_id
 _symmetry_equiv_pos_as_xyz
  1  'x, y, z'
loop_
 _atom_site_type_symbol
 _atom_site_label
 _atom_site_symmetry_multiplicity
 _atom_site_fract_x
 _atom_site_fract_y
 _atom_site_fract_z
 _atom_site_occupancy
  Ba  Ba0  1  0.83086283  0.87494084  0.16274037  1
  Ba  Ba1  1  0.16637000  0.37500718  0.83194744  1
  Ba  Ba2  1  -0.00216752  0.87409117  0.66796872  1
  Ba  Ba3  1  -0.00127026  0.37515417  0.66681988  1
  Ba  Ba4  1  0.66887951  0.62518076  0.33389382  1
  Ba  Ba5  1  -0.00046766  0.12455619  0.99840638  1
  Ba  Ba6  1  0.33428183  0.37505105  0.66597009  1
  Ba  Ba7  1  0.00321329  0.12473789  0.33159468  1
  Ba  Ba8  1  0.49596636  0.37597910  0.16778965  1
  Ba  Ba9  1  0.33277661  0.12224095  0.99839015  1
  Ba  Ba10  1  -0.00445371  0.87343181  -0.00029777  1
  Ba  Ba11  1  0.00154397  0.12314520  0.66623034  1
  Ba  Ba12  1  0.49831737  0.87594211  0.50148704  1
  Ba  Ba13  1  0.50104245  0.12377556  0.50148242  1
  Ba  Ba14  1  0.50456072  0.62588850  0.50266344  1
  Ba  Ba15  1  0.83131087  0.37447066  0.16518212  1
  Ba  Ba16  1  0.16586886  0.37614454  0.49980876  1
  Sr  Sr17  1  0.49736556  0.37423991  0.49705823  1
  Sr  Sr18  1  0.17324522  0.62858319  0.16883453  1
  Sr  Sr19  1  0.50528668  0.62542857  0.83353029  1
  Sr  Sr20  1  0.32850862  0.87430548  0.00321445  1
  Sr  Sr21  1  0.16450996  0.12783639  0.83460048  1
  La  La22  1  0.32721686  0.87372677  0.33743020  1
  La  La23  1  0.66124714  0.87343624  0.00077511  1
  La  La24  1  0.49556488  0.87254900  0.16674949  1
  La  La25  1  0.49453904  0.37508752  0.83284499  1
  La  La26  1  0.17014563  0.62432630  0.83571475  1
  La  La27  1  0.00945271  0.62522613  0.66436830  1
  La  La28  1  0.16224948  0.87555875  0.16301445  1
  La  La29  1  0.16311740  0.37554912  0.16686680  1
  Pr  Pr30  1  -0.00399448  0.37398700  -0.00177301  1
  Pr  Pr31  1  0.67212131  0.62550879  0.65946926  1
  Pr  Pr32  1  0.50167696  0.12673534  0.83671557  1
  Pr  Pr33  1  0.33059326  0.37661084  0.34179787  1
  Pr  Pr34  1  0.83134820  0.37183972  0.49466794  1
  Pr  Pr35  1  0.50083084  0.12429077  0.17074600  1
  Pr  Pr36  1  0.49112924  0.87495677  0.83289918  1
  Pr  Pr37  1  0.50382927  0.62540833  0.17197080  1
  Pr  Pr38  1  0.82745917  0.87926209  0.83095679  1
  Pr  Pr39  1  0.67002595  0.12937173  0.99821420  1
  Pr  Pr40  1  0.34014722  0.62503768  0.99937630  1
  Pr  Pr41  1  0.00480570  0.62529020  1.00239006  1
  Pr  Pr42  1  0.65927882  0.37332726  0.66501393  1
  Pr  Pr43  1  0.66809233  0.12449468  0.32940825  1
  Pr  Pr44  1  0.16956175  0.12514607  0.50451442  1
  Pr  Pr45  1  0.33866627  0.62156297  0.66722778  1
  Pr  Pr46  1  0.66270777  0.87445859  0.33566413  1
  Pr  Pr47  1  0.33694227  0.12699398  0.33230018  1
  Pr  Pr48  1  -0.00626737  0.37617637  0.33984341  1
  Pr  Pr49  1  0.83839722  0.62559878  0.83278370  1
  Pr  Pr50  1  0.65854340  0.87588761  0.66928840  1
  Pr  Pr51  1  0.15855170  0.87506238  0.49828738  1
  Pr  Pr52  1  0.65920360  0.37479206  0.33699210  1
  Pr  Pr53  1  0.33450359  0.87310556  0.66916013  1
  Pr  Pr54  1  0.33033723  0.12701128  0.66842564  1
  Pr  Pr55  1  0.65688484  0.37693219  0.00158248  1
  Pr  Pr56  1  0.17038560  0.12209699  0.16685081  1
  Pr  Pr57  1  0.67086832  0.62134828  0.99979714  1
  Pr  Pr58  1  0.83215184  0.87738705  0.49651171  1
  Pr  Pr59  1  0.16522858  0.88149313  0.83426144  1
  Pr  Pr60  1  0.84351924  0.62560294  0.17029635  1
  Pr  Pr61  1  0.82921617  0.37157605  0.82875790  1
  Pr  Pr62  1  0.00930032  0.62355179  0.33028213  1
  Pr  Pr63  1  0.17622963  0.62602188  0.50277716  1
  Pr  Pr64  1  0.84032707  0.12512386  0.83249886  1
  Pr  Pr65  1  0.83844541  0.12245244  0.16639137  1
  Pr  Pr66  1  0.83782188  0.12484020  0.50082405  1
  Pr  Pr67  1  0.66941305  0.12494137  0.66261243  1
  Pr  Pr68  1  -0.00776837  0.87247498  0.33436197  1
  Pr  Pr69  1  0.32531829  0.37479143  0.00201421  1
  Pr  Pr70  1  0.34177276  0.62353056  0.33367828  1
  Pr  Pr71  1  0.84080092  0.62469825  0.50287945  1
  Mn  Mn72  1  0.00075353  0.00095481  0.16620050  1
  Mn  Mn73  1  0.00030186  -0.00131115  0.49761656  1
  Mn  Mn74  1  -0.00057404  -0.00164547  0.83326264  1
  Mn  Mn75  1  0.00210008  0.49851943  0.16720865  1
  Mn  Mn76  1  0.00042007  0.50214758  0.49917541  1
  Mn  Mn77  1  -0.00267999  0.50368637  0.83374494  1
  Mn  Mn78  1  0.33385709  -0.00095114  0.16790034  1
  Mn  Mn79  1  0.33081235  -0.00094841  0.50107262  1
  Mn  Mn80  1  0.33321076  -0.00191876  0.83406997  1
  Mn  Mn81  1  0.33195627  0.50116787  0.16774678  1
  Mn  Mn82  1  0.33541832  0.50140788  0.50025598  1
  Mn  Mn83  1  0.33610981  0.50401156  0.83525867  1
  Mn  Mn84  1  0.66480584  0.00071474  0.16468034  1
  Mn  Mn85  1  0.66880160  0.00016895  0.49884943  1
  Mn  Mn86  1  0.66518872  0.00176065  0.83438580  1
  Mn  Mn87  1  0.66681932  0.49950197  0.16561141  1
  Mn  Mn88  1  0.66969429  0.49854251  0.50005201  1
  Mn  Mn89  1  0.66739645  0.50015822  0.83111820  1
  Mn  Mn90  1  0.00102504  0.25141881  0.16617092  1
  Mn  Mn91  1  0.00054769  0.24965677  0.49834581  1
  Mn  Mn92  1  -0.00130525  0.25088505  0.83326281  1
  Mn  Mn93  1  0.00213224  0.74837766  0.16763593  1
  Mn  Mn94  1  0.00032647  0.74949771  0.49909087  1
  Mn  Mn95  1  -0.00124873  0.74934853  0.83350138  1
  Mn  Mn96  1  0.33202454  0.25034346  0.16763468  1
  Mn  Mn97  1  0.33356458  0.24827854  0.49929815  1
  Mn  Mn98  1  0.33361327  0.24840121  0.83453229  1
  Mn  Mn99  1  0.33327240  0.74976891  0.16728265  1
  Mn  Mn100  1  0.33240421  0.75127133  0.50260982  1
  Mn  Mn101  1  0.33368934  0.75043547  0.83616962  1
  Mn  Mn102  1  0.66570547  0.24989176  0.16475465  1
  Mn  Mn103  1  0.66774985  0.24864671  0.49833856  1
  Mn  Mn104  1  0.66603094  0.24996332  0.83174920  1
  Mn  Mn105  1  0.66597799  0.74975549  0.16529699  1
  Mn  Mn106  1  0.67058641  0.75153531  0.50070164  1
  Mn  Mn107  1  0.66638392  0.74821749  0.83373351  1
  Mn  Mn108  1  0.16495077  0.25226142  0.00099933  1
  Mn  Mn109  1  0.16837642  0.24901149  0.33135361  1
  Mn  Mn110  1  0.16717744  0.24854089  0.66776438  1
  Mn  Mn111  1  0.16735021  0.74742710  0.00138739  1
  Mn  Mn112  1  0.16718435  0.75016806  0.33379110  1
  Mn  Mn113  1  0.17045568  0.75123662  0.66870878  1
  Mn  Mn114  1  0.49836328  0.24950946  0.00070324  1
  Mn  Mn115  1  0.49973090  0.24863501  0.33370759  1
  Mn  Mn116  1  0.50034568  0.24918563  0.66844574  1
  Mn  Mn117  1  0.49998794  0.75009289  0.00092538  1
  Mn  Mn118  1  0.49993826  0.75108601  0.33298862  1
  Mn  Mn119  1  0.50177489  0.74967186  0.67097321  1
  Mn  Mn120  1  0.83114706  0.25241105  -0.00311665  1
  Mn  Mn121  1  0.83225660  0.24901518  0.33064377  1
  Mn  Mn122  1  0.83094523  0.25050360  0.66390949  1
  Mn  Mn123  1  0.83029127  0.74598028  -0.00083530  1
  Mn  Mn124  1  0.83394150  0.74915324  0.33349427  1
  Mn  Mn125  1  0.83113624  0.75074506  0.66726940  1
  Mn  Mn126  1  0.16584251  -0.00127634  -0.00082014  1
  Mn  Mn127  1  0.16772821  -0.00128343  0.33339663  1
  Mn  Mn128  1  0.16915701  -0.00159011  0.66614023  1
  Mn  Mn129  1  0.16664603  0.50181802  0.00253839  1
  Mn  Mn130  1  0.16846087  0.50220585  0.33117214  1
  Mn  Mn131  1  0.16851919  0.50197461  0.66875012  1
  Mn  Mn132  1  0.50031225  -0.00081387  0.00123958  1
  Mn  Mn133  1  0.49960501  -0.00008036  0.33247857  1
  Mn  Mn134  1  0.49930703  0.00009294  0.67065718  1
  Mn  Mn135  1  0.49917868  0.50219258  -0.00037043  1
  Mn  Mn136  1  0.50068558  0.49994200  0.33355242  1
  Mn  Mn137  1  0.50300606  0.49932945  0.66889648  1
  Mn  Mn138  1  0.82918204  0.00153126  -0.00229373  1
  Mn  Mn139  1  0.83242575  -0.00043370  0.33127535  1
  Mn  Mn140  1  0.83004883  -0.00063552  0.66481674  1
  Mn  Mn141  1  0.83223324  0.50092084  -0.00170352  1
  Mn  Mn142  1  0.83388819  0.50092096  0.33356540  1
  Mn  Mn143  1  0.83183392  0.49974048  0.66672310  1
  O  O144  1  0.16508261  0.12974685  0.02147338  1
  O  O145  1  0.17104891  0.12005622  0.36014398  1
  O  O146  1  0.17369838  0.12005248  0.68175580  1
  O  O147  1  0.16279285  0.62337964  0.02195597  1
  O  O148  1  0.15868314  0.62889096  0.35974247  1
  O  O149  1  0.16973884  0.62950518  0.68859266  1
  O  O150  1  0.50459230  0.12107335  0.02693639  1
  O  O151  1  0.49719571  0.12388836  0.34516359  1
  O  O152  1  0.50570531  0.12281631  0.69279052  1
  O  O153  1  0.49615835  0.62650984  0.02787013  1
  O  O154  1  0.49421167  0.62676489  0.34434259  1
  O  O155  1  0.50686694  0.62741130  0.68326356  1
  O  O156  1  0.82419431  0.13002772  0.02177980  1
  O  O157  1  0.82325376  0.12257886  0.35722524  1
  O  O158  1  0.82271752  0.12553334  0.68886928  1
  O  O159  1  0.82076837  0.62218954  0.02679536  1
  O  O160  1  0.83759264  0.62590704  0.35843325  1
  O  O161  1  0.82064062  0.62570790  0.68998710  1
  O  O162  1  0.17921883  0.37726324  0.31132092  1
  O  O163  1  0.16686523  0.37748534  0.65903294  1
  O  O164  1  0.17494421  0.37971028  0.98862653  1
  O  O165  1  0.17610824  0.87295403  0.30728440  1
  O  O166  1  0.17726340  0.87280209  0.64126325  1
  O  O167  1  0.16988321  0.86802880  0.97922894  1
  O  O168  1  0.50223439  0.37297020  0.32476053  1
  O  O169  1  0.50508441  0.37221384  0.64817022  1
  O  O170  1  0.50415317  0.37866834  0.97638851  1
  O  O171  1  0.50389875  0.87665832  0.31312866  1
  O  O172  1  0.50120258  0.87529539  0.65731293  1
  O  O173  1  0.50760218  0.87464928  0.97473716  1
  O  O174  1  0.84305840  0.37689155  0.32136025  1
  O  O175  1  0.82791241  0.37436286  0.63976565  1
  O  O176  1  0.83812864  0.37890306  0.97289061  1
  O  O177  1  0.83854427  0.87355982  0.31783212  1
  O  O178  1  0.82541743  0.87405709  0.64139928  1
  O  O179  1  0.82327950  0.87028812  0.97625522  1
  O  O180  1  0.00468037  0.37597950  0.19523926  1
  O  O181  1  -0.00727802  0.37614503  0.50848746  1
  O  O182  1  -0.00996384  0.38197463  0.85303071  1
  O  O183  1  0.00434435  0.87386897  0.18902387  1
  O  O184  1  -0.00056063  0.87285652  0.51224628  1
  O  O185  1  0.00109996  0.87106234  0.84311658  1
  O  O186  1  0.32499501  0.37488598  0.19589841  1
  O  O187  1  0.33658665  0.37551815  0.50578806  1
  O  O188  1  0.34177305  0.38066978  0.85674684  1
  O  O189  1  0.33308187  0.87424075  0.19305895  1
  O  O190  1  0.32492529  0.87430826  0.52451007  1
  O  O191  1  0.33836301  0.87258981  0.85543162  1
  O  O192  1  0.66658557  0.37189972  0.19160466  1
  O  O193  1  0.67533134  0.37205297  0.52068674  1
  O  O194  1  0.67502097  0.37469765  0.86037146  1
  O  O195  1  0.66411745  0.87771754  0.19126363  1
  O  O196  1  0.67750491  0.87694346  0.52365877  1
  O  O197  1  0.67680911  0.87963752  0.85975054  1
  O  O198  1  0.00328857  0.12797516  0.15529923  1
  O  O199  1  0.00105946  0.12255807  0.48805628  1
  O  O200  1  -0.00751140  0.12217409  0.82484644  1
  O  O201  1  -0.00172211  0.62184653  0.14793674  1
  O  O202  1  -0.00302041  0.62787076  0.47443777  1
  O  O203  1  -0.00856227  0.62759422  0.80812754  1
  O  O204  1  0.33566165  0.12371574  0.15388055  1
  O  O205  1  0.32499625  0.12139883  0.47655740  1
  O  O206  1  0.33976728  0.11836866  0.81353811  1
  O  O207  1  0.33788268  0.62687663  0.14286216  1
  O  O208  1  0.32910846  0.62851277  0.47916772  1
  O  O209  1  0.32947501  0.63019915  0.81132794  1
  O  O210  1  0.66262316  0.12518932  0.14187955  1
  O  O211  1  0.67377241  0.12411827  0.47397016  1
  O  O212  1  0.65698089  0.12476343  0.80417154  1
  O  O213  1  0.65862646  0.62567199  0.14445905  1
  O  O214  1  0.67397482  0.62593133  0.49139397  1
  O  O215  1  0.66719252  0.61980790  0.80248110  1
  O  O216  1  0.09716266  0.01227343  0.24280932  1
  O  O217  1  0.09359314  0.00747607  0.57197076  1
  O  O218  1  0.08572018  0.00416913  0.91124417  1
  O  O219  1  0.09167828  0.51733582  0.24442759  1
  O  O220  1  0.08877856  0.52438004  0.57672980  1
  O  O221  1  0.08465330  0.52184815  0.91537419  1
  O  O222  1  0.42204482  0.01601670  0.24408018  1
  O  O223  1  0.41255666  0.01276643  0.59038011  1
  O  O224  1  0.42865782  0.01264813  0.90891626  1
  O  O225  1  0.41857136  0.52012266  0.24407302  1
  O  O226  1  0.41680769  0.51574830  0.58695929  1
  O  O227  1  0.42001682  0.52427482  0.91674898  1
  O  O228  1  0.75040374  0.02306542  0.24499940  1
  O  O229  1  0.75245659  0.02414847  0.57849355  1
  O  O230  1  0.75082207  0.02860365  0.90844518  1
  O  O231  1  0.76135695  0.51783712  0.24126956  1
  O  O232  1  0.76125651  0.51772543  0.57453349  1
  O  O233  1  0.75567686  0.52247004  0.90632836  1
  O  O234  1  0.25314029  0.22340661  0.25193972  1
  O  O235  1  0.25082396  0.22990882  0.58152372  1
  O  O236  1  0.25152436  0.24396580  0.91972880  1
  O  O237  1  0.25929742  0.73034627  0.26367977  1
  O  O238  1  0.25633271  0.72536307  0.59068420  1
  O  O239  1  0.25273411  0.72609163  0.92127715  1
  O  O240  1  0.58457947  0.22869395  0.25225392  1
  O  O241  1  0.59181208  0.23501248  0.59237345  1
  O  O242  1  0.58734584  0.23034850  0.91702811  1
  O  O243  1  0.58381124  0.73952979  0.24625180  1
  O  O244  1  0.59696254  0.74335584  0.59629220  1
  O  O245  1  0.59099341  0.73076634  0.92750497  1
  O  O246  1  0.91226049  0.23369511  0.24440093  1
  O  O247  1  0.91055101  0.23591323  0.57838741  1
  O  O248  1  0.90893039  0.23999282  0.91126388  1
  O  O249  1  0.92449926  0.72985919  0.25842302  1
  O  O250  1  0.92074703  0.72647881  0.59142317  1
  O  O251  1  0.91724924  0.72393775  0.92453071  1
  O  O252  1  0.07609666  0.47776663  0.07810942  1
  O  O253  1  0.07425065  0.48672803  0.40142020  1
  O  O254  1  0.07768404  0.50172535  0.74785550  1
  O  O255  1  0.08459613  0.98572185  0.08477258  1
  O  O256  1  0.07965458  0.97401650  0.40652459  1
  O  O257  1  0.08931189  0.98532545  0.74970589  1
  O  O258  1  0.40369753  0.48432858  0.07475739  1
  O  O259  1  0.41151991  0.48926409  0.40960399  1
  O  O260  1  0.42032083  0.49266022  0.75448613  1
  O  O261  1  0.41530182  0.97878295  0.08277620  1
  O  O262  1  0.40498536  0.98621019  0.41052068  1
  O  O263  1  0.41310688  0.97766972  0.74934092  1
  O  O264  1  0.73966071  0.48271394  0.06864341  1
  O  O265  1  0.74631555  0.47638963  0.41016197  1
  O  O266  1  0.74236096  0.47486157  0.74108568  1
  O  O267  1  0.73687930  0.98855782  0.07166940  1
  O  O268  1  0.74954298  0.97594700  0.41157321  1
  O  O269  1  0.74172049  0.98019111  0.74523506  1
  O  O270  1  0.24418038  0.26865425  0.09093407  1
  O  O271  1  0.25344519  0.26166031  0.41029341  1
  O  O272  1  0.25430472  0.25066950  0.74903795  1
  O  O273  1  0.24612571  0.76584191  0.09169533  1
  O  O274  1  0.23856282  0.76725553  0.42676676  1
  O  O275  1  0.25014708  0.77468997  0.75617680  1
  O  O276  1  0.58204839  0.26487139  0.08054764  1
  O  O277  1  0.58651198  0.26387467  0.41587271  1
  O  O278  1  0.58174716  0.27377179  0.75563710  1
  O  O279  1  0.57638633  0.77130657  0.08799054  1
  O  O280  1  0.58750402  0.76672748  0.41688228  1
  O  O281  1  0.57868436  0.77318813  0.76117849  1
  O  O282  1  0.91878670  0.26648499  0.07615759  1
  O  O283  1  0.91280504  0.26193335  0.41720026  1
  O  O284  1  0.90599503  0.26238824  0.75320046  1
  O  O285  1  0.91050307  0.74959641  0.08716821  1
  O  O286  1  0.91050559  0.76873731  0.42286369  1
  O  O287  1  0.90037635  0.76483194  0.75974776  1
  O  O288  1  0.24542861  0.48288616  0.09178541  1
  O  O289  1  0.24953563  0.49475872  0.41507847  1
  O  O290  1  0.25210873  0.49938336  0.75443901  1
  O  O291  1  0.24466670  0.98599719  0.09346539  1
  O  O292  1  0.24091624  0.97513093  0.42266041  1
  O  O293  1  0.25221857  0.97591738  0.74858120  1
  O  O294  1  0.58115099  0.48762334  0.08021174  1
  O  O295  1  0.58532548  0.48276413  0.42065309  1
  O  O296  1  0.58207628  0.47318359  0.75692026  1
  O  O297  1  0.57666306  0.97659572  0.08929941  1
  O  O298  1  0.58853008  0.98626004  0.41297964  1
  O  O299  1  0.57793312  0.97618570  0.76196127  1
  O  O300  1  0.91621519  0.48935581  0.08284333  1
  O  O301  1  0.90761873  0.48627500  0.42571576  1
  O  O302  1  0.90079649  0.48785824  0.76018778  1
  O  O303  1  0.90787460  0.99817979  0.08357975  1
  O  O304  1  0.91409508  0.98216359  0.41612483  1
  O  O305  1  0.90561559  0.98752037  0.75330270  1
  O  O306  1  0.08001841  0.27662120  0.08159741  1
  O  O307  1  0.07876176  0.26734908  0.40432467  1
  O  O308  1  0.08052366  0.25319172  0.75152834  1
  O  O309  1  0.08414839  0.76167722  0.08451059  1
  O  O310  1  0.07820669  0.77314216  0.40753345  1
  O  O311  1  0.08893596  0.76099690  0.75074941  1
  O  O312  1  0.40544952  0.26918288  0.07751625  1
  O  O313  1  0.41330454  0.25997844  0.41160323  1
  O  O314  1  0.42243375  0.25935022  0.75490362  1
  O  O315  1  0.41501389  0.77017391  0.08116190  1
  O  O316  1  0.40496244  0.76495481  0.40980323  1
  O  O317  1  0.41371267  0.76738429  0.75085179  1
  O  O318  1  0.74115553  0.26832259  0.06943565  1
  O  O319  1  0.74765579  0.27215556  0.41013256  1
  O  O320  1  0.74320988  0.27051555  0.74320954  1
  O  O321  1  0.73642973  0.76185052  0.07083064  1
  O  O322  1  0.74842802  0.77298541  0.41166068  1
  O  O323  1  0.74134961  0.77188358  0.74100251  1
  O  O324  1  0.25756010  0.01985319  0.25954236  1
  O  O325  1  0.25339446  0.02282935  0.58541935  1
  O  O326  1  0.24802546  0.00572252  0.91160038  1
  O  O327  1  0.25791076  0.52478225  0.25692283  1
  O  O328  1  0.25405063  0.52214149  0.58533968  1
  O  O329  1  0.25664595  0.52150904  0.92382828  1
  O  O330  1  0.58751956  0.02193639  0.24923206  1
  O  O331  1  0.59153453  0.01119090  0.59522962  1
  O  O332  1  0.58977946  0.02292987  0.92307700  1
  O  O333  1  0.58299980  0.51139900  0.25013244  1
  O  O334  1  0.59799263  0.50885245  0.59439375  1
  O  O335  1  0.59205061  0.51753822  0.92000806  1
  O  O336  1  0.91365322  0.01427851  0.24832006  1
  O  O337  1  0.91017895  0.01028218  0.57730593  1
  O  O338  1  0.90716751  0.00644062  0.91192992  1
  O  O339  1  0.92507298  0.52062045  0.25792150  1
  O  O340  1  0.92129146  0.52636537  0.59386942  1
  O  O341  1  0.92068626  0.52766154  0.92311755  1
  O  O342  1  0.09636529  0.23720814  0.24018222  1
  O  O343  1  0.08897861  0.23646921  0.57545213  1
  O  O344  1  0.07946464  0.25091394  0.92003101  1
  O  O345  1  0.08809698  0.73328474  0.25058142  1
  O  O346  1  0.09128878  0.73238706  0.57585909  1
  O  O347  1  0.08536312  0.72615784  0.91700383  1
  O  O348  1  0.41875912  0.23127864  0.24718562  1
  O  O349  1  0.41339581  0.23043732  0.58984164  1
  O  O350  1  0.42527510  0.23538470  0.91218165  1
  O  O351  1  0.42074149  0.73322258  0.24270689  1
  O  O352  1  0.41561959  0.73848234  0.59001595  1
  O  O353  1  0.41897847  0.73098576  0.91747973  1
  O  O354  1  0.75002867  0.22591874  0.24580934  1
  O  O355  1  0.75275069  0.22604380  0.57719536  1
  O  O356  1  0.75106363  0.22612999  0.90669662  1
  O  O357  1  0.75954012  0.73219696  0.24013323  1
  O  O358  1  0.76040464  0.73069072  0.57606502  1
  O  O359  1  0.75393716  0.72415309  0.90846916  1
