# generated using pymatgen
data_Ba17Sr5La8Pr42Mn72O216
_symmetry_space_group_name_H-M   'P 1'
_cell_length_a   16.67188340
_cell_length_b   15.70780430
_cell_length_c   16.82098235
_cell_angle_alpha   89.98697392
_cell_angle_beta   89.97455410
_cell_angle_gamma   90.00294395
_symmetry_Int_Tables_number   1
_chemical_formula_structural   Ba17Sr5La8Pr42Mn72O216
_chemical_formula_sum   'Ba17 Sr5 La8 Pr42 Mn72 O216'
_cell_volume   4405.05612927
_cell_formula_units_Z   1
loop_
 _symmetry_equiv_pos_site_id
 _symmetry_equiv_pos_as_xyz
  1  'x, y, z'
loop_
 _atom_site_type_symbol
 _atom_site_label
 _atom_site_symmetry_multiplicity
 _atom_site_fract_x
 _atom_site_fract_y
 _atom_site_fract_z
 _atom_site_occupancy
  Ba  Ba0  1  0.83533566  0.37442722  0.16739131  1
  Ba  Ba1  1  0.33378670  0.62354701  0.66646039  1
  Ba  Ba2  1  0.16677545  0.62401811  0.83256112  1
  Ba  Ba3  1  0.33214486  0.87496947  0.33106701  1
  Ba  Ba4  1  -0.00380224  0.37432605  0.33525301  1
  Ba  Ba5  1  0.50032810  0.37173814  0.83092030  1
  Ba  Ba6  1  0.33238904  0.62502193  0.99886962  1
  Ba  Ba7  1  0.49929266  0.87608469  0.49715496  1
  Ba  Ba8  1  0.33143955  0.37305706  0.33344733  1
  Ba  Ba9  1  0.00041795  0.12507989  0.66583680  1
  Ba  Ba10  1  0.66766386  0.87592117  0.33335344  1
  Ba  Ba11  1  0.49791410  0.62573627  0.49890968  1
  Ba  Ba12  1  0.66906899  0.62456910  0.99915476  1
  Ba  Ba13  1  0.50030881  0.87822057  0.83377574  1
  Ba  Ba14  1  0.33288223  0.62327458  0.33366326  1
  Ba  Ba15  1  -0.00163786  0.62419020  0.66779080  1
  Ba  Ba16  1  0.16742480  0.87682381  0.16521722  1
  Sr  Sr17  1  0.83348676  0.62469679  0.83570964  1
  Sr  Sr18  1  0.49744424  0.87453641  0.16279598  1
  Sr  Sr19  1  0.33361629  0.87228571  0.00506830  1
  Sr  Sr20  1  -0.00240514  0.37385276  0.66758885  1
  Sr  Sr21  1  0.83626423  0.37509742  0.49826074  1
  La  La22  1  0.00071223  0.12759661  0.33536593  1
  La  La23  1  0.66508371  0.87440734  0.00533882  1
  La  La24  1  0.66384838  0.12558990  0.66483256  1
  La  La25  1  0.66619634  0.87344121  0.66746304  1
  La  La26  1  0.83663054  0.12480611  0.83422549  1
  La  La27  1  -0.00057824  0.87257489  0.00165002  1
  La  La28  1  0.49927693  0.62593687  0.83645757  1
  La  La29  1  0.17057800  0.87255624  0.83449159  1
  Pr  Pr30  1  0.33363909  0.87165640  0.66760959  1
  Pr  Pr31  1  0.66804488  0.37624605  0.33796189  1
  Pr  Pr32  1  0.16676969  0.37672185  0.16678257  1
  Pr  Pr33  1  0.32707041  0.37479367  0.00241850  1
  Pr  Pr34  1  0.16578701  0.87312594  0.49783431  1
  Pr  Pr35  1  0.66443993  0.62871393  0.32977450  1
  Pr  Pr36  1  0.83230557  0.37859908  0.83219263  1
  Pr  Pr37  1  0.49768775  0.12236271  0.49483360  1
  Pr  Pr38  1  0.66574623  0.37744652  0.00322899  1
  Pr  Pr39  1  0.66912468  0.12724144  0.99857100  1
  Pr  Pr40  1  0.33740626  0.12315023  0.32932321  1
  Pr  Pr41  1  0.82757942  0.62235229  0.50311250  1
  Pr  Pr42  1  0.83221954  0.87546058  0.16482472  1
  Pr  Pr43  1  0.00086359  0.87679055  0.33513815  1
  Pr  Pr44  1  0.17099769  0.12871065  0.50233403  1
  Pr  Pr45  1  0.16715740  0.12850185  0.83716531  1
  Pr  Pr46  1  0.33882754  0.12527765  0.66541473  1
  Pr  Pr47  1  0.00058470  0.87394726  0.67099598  1
  Pr  Pr48  1  0.16607898  0.62806549  0.16822862  1
  Pr  Pr49  1  -0.00106445  0.62347322  0.33445207  1
  Pr  Pr50  1  0.83324677  0.87063533  0.83280074  1
  Pr  Pr51  1  0.66291518  0.62418008  0.66805640  1
  Pr  Pr52  1  0.49726750  0.37613632  0.16060692  1
  Pr  Pr53  1  0.66731539  0.37608050  0.66766837  1
  Pr  Pr54  1  0.49922837  0.12365555  0.16640175  1
  Pr  Pr55  1  0.17010560  0.12357588  0.17115271  1
  Pr  Pr56  1  0.16596765  0.37805694  0.83216772  1
  Pr  Pr57  1  0.83824707  0.87512922  0.49975747  1
  Pr  Pr58  1  0.15808051  0.37704419  0.50035624  1
  Pr  Pr59  1  0.83133202  0.12816146  0.50360683  1
  Pr  Pr60  1  0.49760109  0.37521492  0.49650077  1
  Pr  Pr61  1  0.32882013  0.37661156  0.66636787  1
  Pr  Pr62  1  0.66692598  0.12336582  0.33148447  1
  Pr  Pr63  1  0.83140472  0.62560579  0.17038484  1
  Pr  Pr64  1  0.83439291  0.12459881  0.17249418  1
  Pr  Pr65  1  0.00221856  0.37678359  0.00510958  1
  Pr  Pr66  1  0.49786589  0.62856676  0.17000674  1
  Pr  Pr67  1  -0.00126081  0.62431344  0.99404679  1
  Pr  Pr68  1  0.16912359  0.62136065  0.50633894  1
  Pr  Pr69  1  0.50455982  0.12580916  0.83490333  1
  Pr  Pr70  1  0.33780324  0.12086259  0.99724155  1
  Pr  Pr71  1  0.00169689  0.12358448  0.99852233  1
  Mn  Mn72  1  -0.00088189  0.00094478  0.16712613  1
  Mn  Mn73  1  -0.00026950  0.00022680  0.50102370  1
  Mn  Mn74  1  0.00130153  0.00020220  0.83336692  1
  Mn  Mn75  1  0.00063959  0.50222070  0.16608011  1
  Mn  Mn76  1  -0.00223647  0.50086930  0.50055827  1
  Mn  Mn77  1  -0.00243355  0.49808982  0.83510948  1
  Mn  Mn78  1  0.33454124  0.00157745  0.16319437  1
  Mn  Mn79  1  0.33053224  0.00308677  0.49972073  1
  Mn  Mn80  1  0.33175509  0.00139805  0.83143421  1
  Mn  Mn81  1  0.33300103  0.49852104  0.16485706  1
  Mn  Mn82  1  0.33231972  0.49646364  0.50005232  1
  Mn  Mn83  1  0.33435571  0.49722205  0.83380280  1
  Mn  Mn84  1  0.66797290  0.00183793  0.16487241  1
  Mn  Mn85  1  0.66849101  0.00202639  0.50031368  1
  Mn  Mn86  1  0.67075022  0.00155968  0.83394215  1
  Mn  Mn87  1  0.66745817  0.49899995  0.16810150  1
  Mn  Mn88  1  0.66572589  0.49849492  0.50088629  1
  Mn  Mn89  1  0.66753794  0.49873198  0.83344716  1
  Mn  Mn90  1  0.00147776  0.24849697  0.16574208  1
  Mn  Mn91  1  -0.00139530  0.24883028  0.50135514  1
  Mn  Mn92  1  -0.00094313  0.24993363  0.83520191  1
  Mn  Mn93  1  -0.00173931  0.74932120  0.16721742  1
  Mn  Mn94  1  -0.00058142  0.75077290  0.49989581  1
  Mn  Mn95  1  0.00000248  0.75102156  0.83499014  1
  Mn  Mn96  1  0.33287050  0.24989893  0.16470995  1
  Mn  Mn97  1  0.33272324  0.24900008  0.50010543  1
  Mn  Mn98  1  0.33229645  0.24859088  0.83244375  1
  Mn  Mn99  1  0.33363057  0.74948667  0.16517706  1
  Mn  Mn100  1  0.33134642  0.75088558  0.50035329  1
  Mn  Mn101  1  0.33431907  0.75226955  0.83462130  1
  Mn  Mn102  1  0.66738501  0.24954727  0.16649505  1
  Mn  Mn103  1  0.66588312  0.24954438  0.49985697  1
  Mn  Mn104  1  0.67013679  0.24906357  0.83255449  1
  Mn  Mn105  1  0.66664988  0.75054488  0.16601054  1
  Mn  Mn106  1  0.66802982  0.74921292  0.50049307  1
  Mn  Mn107  1  0.66820485  0.75104099  0.83424387  1
  Mn  Mn108  1  0.16563991  0.24839366  0.00193350  1
  Mn  Mn109  1  0.16574180  0.24898776  0.33515661  1
  Mn  Mn110  1  0.16699740  0.24908613  0.66928258  1
  Mn  Mn111  1  0.16569792  0.75082000  0.00050490  1
  Mn  Mn112  1  0.16384366  0.74967102  0.33514163  1
  Mn  Mn113  1  0.16653524  0.75205316  0.66461904  1
  Mn  Mn114  1  0.50125363  0.25006671  -0.00106666  1
  Mn  Mn115  1  0.50226325  0.24992833  0.33018585  1
  Mn  Mn116  1  0.50018374  0.24791518  0.66237549  1
  Mn  Mn117  1  0.50070368  0.75018399  0.00032309  1
  Mn  Mn118  1  0.50021021  0.75026428  0.33195636  1
  Mn  Mn119  1  0.50065421  0.75177372  0.66759303  1
  Mn  Mn120  1  0.83524791  0.24839208  0.00002289  1
  Mn  Mn121  1  0.83137926  0.24892148  0.33609377  1
  Mn  Mn122  1  0.83211880  0.25209909  0.66785716  1
  Mn  Mn123  1  0.83406829  0.75109875  0.00102928  1
  Mn  Mn124  1  0.83447400  0.75068943  0.33484929  1
  Mn  Mn125  1  0.83153187  0.74859407  0.66607235  1
  Mn  Mn126  1  0.16635635  0.00292409  -0.00028736  1
  Mn  Mn127  1  0.16551977  0.00114465  0.33566769  1
  Mn  Mn128  1  0.16814070  0.00092086  0.66643448  1
  Mn  Mn129  1  0.16523435  0.49853642  0.00063918  1
  Mn  Mn130  1  0.16351175  0.50050232  0.33409660  1
  Mn  Mn131  1  0.16450279  0.49687334  0.66658512  1
  Mn  Mn132  1  0.50219495  0.00240084  -0.00074447  1
  Mn  Mn133  1  0.50075977  0.00128842  0.33085864  1
  Mn  Mn134  1  0.50045246  0.00149383  0.66522490  1
  Mn  Mn135  1  0.50049935  0.49836555  -0.00096775  1
  Mn  Mn136  1  0.50203891  0.49794062  0.33041684  1
  Mn  Mn137  1  0.50056548  0.49715535  0.66551543  1
  Mn  Mn138  1  0.83399372  0.00139230  0.00184169  1
  Mn  Mn139  1  0.83440370  0.00006111  0.33555175  1
  Mn  Mn140  1  0.83207417  -0.00075307  0.66748354  1
  Mn  Mn141  1  0.83458555  0.49885026  -0.00046863  1
  Mn  Mn142  1  0.83158894  0.50164630  0.33571844  1
  Mn  Mn143  1  0.83185470  0.49906089  0.66681336  1
  O  O144  1  0.15759558  0.12937665  0.02812486  1
  O  O145  1  0.16864959  0.12483563  0.35767379  1
  O  O146  1  0.17152336  0.12538839  0.69477972  1
  O  O147  1  0.15651220  0.62090967  0.02145436  1
  O  O148  1  0.15650905  0.62747881  0.35949600  1
  O  O149  1  0.16576620  0.62238930  0.67261687  1
  O  O150  1  0.50139179  0.12877944  0.02216389  1
  O  O151  1  0.49991450  0.12793616  0.35098492  1
  O  O152  1  0.49714328  0.12484041  0.69170959  1
  O  O153  1  0.50086223  0.61929940  0.02298755  1
  O  O154  1  0.50607776  0.62062895  0.33957260  1
  O  O155  1  0.50522800  0.62515379  0.69004687  1
  O  O156  1  0.83291611  0.12421624  0.02944397  1
  O  O157  1  0.82625925  0.12183999  0.35854592  1
  O  O158  1  0.82619473  0.12702762  0.69163197  1
  O  O159  1  0.84079241  0.62891710  0.02555290  1
  O  O160  1  0.82851132  0.62861665  0.35780311  1
  O  O161  1  0.82581241  0.62512581  0.68736342  1
  O  O162  1  0.16271270  0.37130695  0.31029610  1
  O  O163  1  0.16933503  0.37034415  0.64521744  1
  O  O164  1  0.16577594  0.36781274  0.97667590  1
  O  O165  1  0.15873607  0.87703857  0.32068170  1
  O  O166  1  0.17152191  0.88025569  0.64121230  1
  O  O167  1  0.16465473  0.88195996  0.98039137  1
  O  O168  1  0.50969035  0.37094560  0.30503049  1
  O  O169  1  0.50926669  0.36724222  0.63980664  1
  O  O170  1  0.50981161  0.37179881  0.98653114  1
  O  O171  1  0.50119339  0.88112463  0.31704186  1
  O  O172  1  0.50592020  0.88087463  0.65531663  1
  O  O173  1  0.50745858  0.88071508  0.99117590  1
  O  O174  1  0.82724371  0.37533410  0.32320052  1
  O  O175  1  0.82655295  0.37531533  0.64642478  1
  O  O176  1  0.83962747  0.36849847  0.97692010  1
  O  O177  1  0.84114482  0.87559367  0.30756256  1
  O  O178  1  0.83185455  0.87209066  0.64220501  1
  O  O179  1  0.83425705  0.87936938  0.97713594  1
  O  O180  1  0.00695277  0.37501016  0.18039768  1
  O  O181  1  0.00191702  0.37128701  0.51480456  1
  O  O182  1  -0.00369478  0.37064806  0.86121527  1
  O  O183  1  -0.00724492  0.87469402  0.19323344  1
  O  O184  1  -0.00457609  0.87726793  0.52648098  1
  O  O185  1  -0.00273030  0.87820546  0.85690639  1
  O  O186  1  0.33157416  0.37253667  0.17814420  1
  O  O187  1  0.34020909  0.36872155  0.52181615  1
  O  O188  1  0.32905489  0.36801155  0.85925340  1
  O  O189  1  0.33592252  0.87979605  0.17134748  1
  O  O190  1  0.32370836  0.88241873  0.52201706  1
  O  O191  1  0.32864100  0.88167451  0.85348867  1
  O  O192  1  0.66121027  0.37157718  0.19301720  1
  O  O193  1  0.65784991  0.37167027  0.52502067  1
  O  O194  1  0.67226128  0.37010634  0.85930656  1
  O  O195  1  0.66999713  0.87772981  0.17678979  1
  O  O196  1  0.67260023  0.87700885  0.52326802  1
  O  O197  1  0.67331868  0.88209652  0.86060005  1
  O  O198  1  -0.00161749  0.12432358  0.14180000  1
  O  O199  1  -0.00199064  0.12132122  0.48113960  1
  O  O200  1  0.00126740  0.12432532  0.81988654  1
  O  O201  1  0.00054385  0.62668962  0.13884358  1
  O  O202  1  0.00550981  0.63036030  0.47937631  1
  O  O203  1  -0.00176543  0.62602381  0.82612693  1
  O  O204  1  0.33291440  0.12938937  0.14214746  1
  O  O205  1  0.32466006  0.12809872  0.47305891  1
  O  O206  1  0.32416106  0.12618790  0.80707521  1
  O  O207  1  0.33528530  0.61958202  0.15678104  1
  O  O208  1  0.32272214  0.62013780  0.49304321  1
  O  O209  1  0.34003785  0.62483731  0.82392474  1
  O  O210  1  0.67747604  0.12656178  0.14138187  1
  O  O211  1  0.67794795  0.12755056  0.47554387  1
  O  O212  1  0.67440767  0.12586198  0.80888409  1
  O  O213  1  0.67326138  0.62519252  0.15530511  1
  O  O214  1  0.67524465  0.62240767  0.47563193  1
  O  O215  1  0.66745067  0.62167468  0.81241833  1
  O  O216  1  0.08553480  0.02340171  0.24983696  1
  O  O217  1  0.09237261  0.01510545  0.57658041  1
  O  O218  1  0.08882785  0.02263902  0.91358685  1
  O  O219  1  0.07926987  0.52659660  0.25045543  1
  O  O220  1  0.08481367  0.50790559  0.57924628  1
  O  O221  1  0.07564440  0.50644115  0.92728198  1
  O  O222  1  0.41808760  0.02444945  0.24549459  1
  O  O223  1  0.41620861  0.02473197  0.57646124  1
  O  O224  1  0.41905876  0.02646557  0.91022767  1
  O  O225  1  0.42733451  0.50664058  0.23764782  1
  O  O226  1  0.41907831  0.49836577  0.58125816  1
  O  O227  1  0.42274078  0.50947393  0.91223761  1
  O  O228  1  0.75089934  0.02031970  0.25091332  1
  O  O229  1  0.74480545  0.02045855  0.58980639  1
  O  O230  1  0.75118132  0.02614827  0.92036967  1
  O  O231  1  0.75147735  0.51994429  0.25212868  1
  O  O232  1  0.74707563  0.51925550  0.58553248  1
  O  O233  1  0.75383353  0.50483997  0.91281139  1
  O  O234  1  0.25176752  0.22723680  0.25126959  1
  O  O235  1  0.25650922  0.22971017  0.59087785  1
  O  O236  1  0.24881722  0.22461682  0.92517460  1
  O  O237  1  0.24221314  0.73491496  0.24794678  1
  O  O238  1  0.24362639  0.74115928  0.57907578  1
  O  O239  1  0.24770973  0.74801914  0.91342716  1
  O  O240  1  0.58683139  0.22147851  0.24781104  1
  O  O241  1  0.58113000  0.22048001  0.57625438  1
  O  O242  1  0.58830325  0.22585866  0.91452595  1
  O  O243  1  0.58473988  0.73196080  0.24569907  1
  O  O244  1  0.58788936  0.73734926  0.58780241  1
  O  O245  1  0.58186730  0.73626919  0.91196014  1
  O  O246  1  0.91581088  0.22712775  0.25162847  1
  O  O247  1  0.91076181  0.23539102  0.58195500  1
  O  O248  1  0.91761559  0.22358734  0.91880129  1
  O  O249  1  0.91572743  0.72269802  0.24985756  1
  O  O250  1  0.90733689  0.73462830  0.57323566  1
  O  O251  1  0.91945018  0.73888483  0.92455970  1
  O  O252  1  0.08921779  0.47868742  0.08872051  1
  O  O253  1  0.08394160  0.48663969  0.42023057  1
  O  O254  1  0.08389141  0.47903690  0.75507452  1
  O  O255  1  0.07521073  0.98728307  0.07343839  1
  O  O256  1  0.07711068  0.98217881  0.41472239  1
  O  O257  1  0.08375353  0.97625610  0.74409034  1
  O  O258  1  0.41427229  0.47517593  0.07703492  1
  O  O259  1  0.42019582  0.48290035  0.41620066  1
  O  O260  1  0.41280478  0.47951030  0.74239031  1
  O  O261  1  0.41887516  0.99766806  0.07954667  1
  O  O262  1  0.41099597  1.00103616  0.41312019  1
  O  O263  1  0.40593275  0.98890577  0.74074941  1
  O  O264  1  0.74697665  0.48218575  0.07950561  1
  O  O265  1  0.74490784  0.48113299  0.41808204  1
  O  O266  1  0.74883048  0.47680135  0.74941071  1
  O  O267  1  0.75303324  0.97957549  0.08367616  1
  O  O268  1  0.75958571  0.98344458  0.42649490  1
  O  O269  1  0.75611795  0.97656896  0.75640222  1
  O  O270  1  0.24493893  0.27046620  0.08329823  1
  O  O271  1  0.24090532  0.26749357  0.42897467  1
  O  O272  1  0.24542624  0.27411606  0.75538067  1
  O  O273  1  0.24635831  0.75308544  0.08346177  1
  O  O274  1  0.24111993  0.76283159  0.42164337  1
  O  O275  1  0.25088000  0.77145611  0.74756850  1
  O  O276  1  0.58345385  0.26716432  0.08792521  1
  O  O277  1  0.58468710  0.26889676  0.41425550  1
  O  O278  1  0.58928454  0.25865199  0.74074495  1
  O  O279  1  0.58721901  0.76347937  0.08120334  1
  O  O280  1  0.59072365  0.75357590  0.41343727  1
  O  O281  1  0.59070412  0.76259701  0.74541892  1
  O  O282  1  0.92281929  0.26196765  0.07743271  1
  O  O283  1  0.91107342  0.25064443  0.41939541  1
  O  O284  1  0.91147623  0.26626434  0.75590437  1
  O  O285  1  0.91306670  0.77431376  0.08809267  1
  O  O286  1  0.92153348  0.77276653  0.41204874  1
  O  O287  1  0.91711701  0.77174152  0.74851174  1
  O  O288  1  0.24883991  0.47763972  0.08081291  1
  O  O289  1  0.24314112  0.48442474  0.42177065  1
  O  O290  1  0.24864716  0.47695709  0.74977219  1
  O  O291  1  0.24980318  0.99955780  0.08031876  1
  O  O292  1  0.23896257  0.98785781  0.42695652  1
  O  O293  1  0.24574890  0.97732473  0.75242998  1
  O  O294  1  0.58152710  0.47897139  0.08747866  1
  O  O295  1  0.58259145  0.47586995  0.41728385  1
  O  O296  1  0.58956499  0.48321359  0.74483170  1
  O  O297  1  0.59228849  0.99479213  0.07712603  1
  O  O298  1  0.58839870  1.00204552  0.41342868  1
  O  O299  1  0.59469094  0.99263329  0.74561057  1
  O  O300  1  0.92601593  0.48633299  0.07727594  1
  O  O301  1  0.91409067  0.49986667  0.41688265  1
  O  O302  1  0.91313232  0.48026518  0.75278619  1
  O  O303  1  0.91218935  0.97870468  0.08667211  1
  O  O304  1  0.91866609  0.97843811  0.41382916  1
  O  O305  1  0.91705882  0.97809782  0.74860748  1
  O  O306  1  0.08683538  0.27274069  0.08172489  1
  O  O307  1  0.08168598  0.25658596  0.41787417  1
  O  O308  1  0.08438147  0.26781587  0.75696382  1
  O  O309  1  0.07545645  0.76607454  0.08105563  1
  O  O310  1  0.07927788  0.77480422  0.41669985  1
  O  O311  1  0.08473631  0.77378022  0.74835504  1
  O  O312  1  0.41264382  0.26926589  0.07889939  1
  O  O313  1  0.42142964  0.26079008  0.41820339  1
  O  O314  1  0.40916357  0.26398621  0.73602660  1
  O  O315  1  0.42017145  0.75772667  0.08281491  1
  O  O316  1  0.41280354  0.75612541  0.41717134  1
  O  O317  1  0.41413161  0.76650814  0.74745803  1
  O  O318  1  0.74316174  0.26754330  0.07459778  1
  O  O319  1  0.74416715  0.26854700  0.41545957  1
  O  O320  1  0.75047127  0.27518864  0.75131879  1
  O  O321  1  0.75297740  0.77039425  0.08466961  1
  O  O322  1  0.76090055  0.76613507  0.42710428  1
  O  O323  1  0.75104818  0.77398193  0.75093425  1
  O  O324  1  0.25288813  0.02267659  0.25234048  1
  O  O325  1  0.25370609  0.02819383  0.58858042  1
  O  O326  1  0.25035337  0.02733954  0.91759402  1
  O  O327  1  0.23944750  0.51140106  0.24226353  1
  O  O328  1  0.24547871  0.50016631  0.58079159  1
  O  O329  1  0.24642361  0.50020795  0.91723103  1
  O  O330  1  0.58481083  0.02548787  0.24372283  1
  O  O331  1  0.58268740  0.02486317  0.57767701  1
  O  O332  1  0.58572858  0.02691791  0.91321184  1
  O  O333  1  0.58953434  0.51905980  0.25225505  1
  O  O334  1  0.58832186  0.51638293  0.58717720  1
  O  O335  1  0.58294511  0.51273001  0.91328863  1
  O  O336  1  0.91646016  0.02570558  0.25388671  1
  O  O337  1  0.90719259  0.01488548  0.57618820  1
  O  O338  1  0.91699130  0.02115517  0.92298141  1
  O  O339  1  0.91557221  0.52434960  0.24690292  1
  O  O340  1  0.90987866  0.51468266  0.57874712  1
  O  O341  1  0.91609383  0.51645064  0.91817746  1
  O  O342  1  0.08494212  0.22414608  0.24785572  1
  O  O343  1  0.09203930  0.23574606  0.57898142  1
  O  O344  1  0.08513112  0.22854101  0.92150383  1
  O  O345  1  0.07903121  0.72718517  0.25097927  1
  O  O346  1  0.08314878  0.74329943  0.57948040  1
  O  O347  1  0.08038870  0.74188493  0.92141422  1
  O  O348  1  0.41968137  0.22909553  0.24543938  1
  O  O349  1  0.41927635  0.22348038  0.57746917  1
  O  O350  1  0.41830577  0.22401659  0.90997538  1
  O  O351  1  0.42126252  0.73908091  0.24338937  1
  O  O352  1  0.41321301  0.75144778  0.58728332  1
  O  O353  1  0.42219475  0.73938400  0.91293192  1
  O  O354  1  0.75113684  0.22770434  0.24954610  1
  O  O355  1  0.74641639  0.23074003  0.58562161  1
  O  O356  1  0.75559013  0.22558555  0.91603401  1
  O  O357  1  0.75161886  0.73337230  0.25197666  1
  O  O358  1  0.74534159  0.72723715  0.58799351  1
  O  O359  1  0.75657699  0.74295487  0.91440423  1
