# generated using pymatgen
data_Ba17Sr5La8Pr42Mn72O216
_symmetry_space_group_name_H-M   'P 1'
_cell_length_a   16.68655438
_cell_length_b   15.70821973
_cell_length_c   16.83400482
_cell_angle_alpha   89.99551206
_cell_angle_beta   89.99860200
_cell_angle_gamma   89.98258231
_symmetry_Int_Tables_number   1
_chemical_formula_structural   Ba17Sr5La8Pr42Mn72O216
_chemical_formula_sum   'Ba17 Sr5 La8 Pr42 Mn72 O216'
_cell_volume   4412.46284554
_cell_formula_units_Z   1
loop_
 _symmetry_equiv_pos_site_id
 _symmetry_equiv_pos_as_xyz
  1  'x, y, z'
loop_
 _atom_site_type_symbol
 _atom_site_label
 _atom_site_symmetry_multiplicity
 _atom_site_fract_x
 _atom_site_fract_y
 _atom_site_fract_z
 _atom_site_occupancy
  Ba  Ba0  1  0.67211299  0.12421409  0.99748966  1
  Ba  Ba1  1  0.33551239  0.12553137  0.66383338  1
  Ba  Ba2  1  0.33001470  0.87532951  0.33141309  1
  Ba  Ba3  1  0.00041808  0.37374597  0.66961214  1
  Ba  Ba4  1  0.00323605  0.62312980  0.66922430  1
  Ba  Ba5  1  -0.00510131  0.87446343  0.33291965  1
  Ba  Ba6  1  0.16736783  0.62426418  0.16681867  1
  Ba  Ba7  1  0.33565227  0.12415255  0.33172222  1
  Ba  Ba8  1  0.66260987  0.37508030  0.33651974  1
  Ba  Ba9  1  0.50303896  0.62462047  0.16488186  1
  Ba  Ba10  1  -0.00026789  0.12517841  0.33135243  1
  Ba  Ba11  1  0.16934149  0.62489525  0.50399534  1
  Ba  Ba12  1  0.82911365  0.87415516  0.49904904  1
  Ba  Ba13  1  0.33276687  0.37212082  -0.00342208  1
  Ba  Ba14  1  0.66418266  0.87620038  0.00027728  1
  Ba  Ba15  1  0.84143284  0.62475970  0.83562720  1
  Ba  Ba16  1  -0.00149375  0.37413286  0.33431239  1
  Sr  Sr17  1  0.49772505  0.37249494  0.82866235  1
  Sr  Sr18  1  0.33929553  0.12588686  0.99533272  1
  Sr  Sr19  1  0.49469505  0.37348392  0.50081851  1
  Sr  Sr20  1  0.16669481  0.37192261  0.83383517  1
  Sr  Sr21  1  0.66095008  0.37627215  0.66778967  1
  La  La22  1  0.83391048  0.12313701  0.16771441  1
  La  La23  1  0.33759776  0.62540541  0.33144556  1
  La  La24  1  0.66926581  0.62321468  0.33302845  1
  La  La25  1  0.65645221  0.87240747  0.67017121  1
  La  La26  1  0.50432666  0.12701792  0.49913850  1
  La  La27  1  0.33125331  0.37812592  0.33227741  1
  La  La28  1  0.66916269  0.12618433  0.66546018  1
  La  La29  1  0.34175525  0.62463833  0.99479749  1
  Pr  Pr30  1  -0.00998496  0.87232281  0.66761003  1
  Pr  Pr31  1  -0.00662995  0.87190795  0.00677847  1
  Pr  Pr32  1  0.00375868  0.62733281  0.33450981  1
  Pr  Pr33  1  0.17222431  0.61659072  0.83371982  1
  Pr  Pr34  1  0.67876277  0.62461657  0.99664892  1
  Pr  Pr35  1  0.00927355  0.12471906  1.00006644  1
  Pr  Pr36  1  0.15752733  0.87923198  0.83245802  1
  Pr  Pr37  1  0.83059349  0.37825742  0.49794238  1
  Pr  Pr38  1  0.48866058  0.87612199  0.16259780  1
  Pr  Pr39  1  0.33993570  0.62433148  0.66558934  1
  Pr  Pr40  1  -0.00331005  0.37860649  0.00413541  1
  Pr  Pr41  1  0.32108894  0.87681894  0.66673572  1
  Pr  Pr42  1  0.49185141  0.87697818  0.49760401  1
  Pr  Pr43  1  0.84542289  0.12506038  0.83725579  1
  Pr  Pr44  1  0.50515992  0.62411120  0.50001151  1
  Pr  Pr45  1  0.83900758  0.12927481  0.49875943  1
  Pr  Pr46  1  0.49428528  0.37321697  0.16253312  1
  Pr  Pr47  1  0.32448376  0.87607655  0.00353736  1
  Pr  Pr48  1  0.82354182  0.87460246  0.82973006  1
  Pr  Pr49  1  0.17603225  0.13062860  0.83356835  1
  Pr  Pr50  1  0.01662745  0.62516306  0.99419164  1
  Pr  Pr51  1  0.33017370  0.37509015  0.67375202  1
  Pr  Pr52  1  0.15893376  0.87642528  0.49786182  1
  Pr  Pr53  1  0.00601819  0.12533655  0.66328382  1
  Pr  Pr54  1  0.51310822  0.62351731  0.83785129  1
  Pr  Pr55  1  0.17394083  0.12764401  0.16952753  1
  Pr  Pr56  1  0.82753876  0.37382793  0.82945626  1
  Pr  Pr57  1  0.16747063  0.37301094  0.50227644  1
  Pr  Pr58  1  0.15798704  0.37043590  0.16305240  1
  Pr  Pr59  1  0.16798346  0.12414063  0.49770665  1
  Pr  Pr60  1  0.50522716  0.12597423  0.16558439  1
  Pr  Pr61  1  0.48927683  0.87798078  0.83153296  1
  Pr  Pr62  1  0.50816671  0.12879625  0.83439017  1
  Pr  Pr63  1  0.84209877  0.62130058  0.50268145  1
  Pr  Pr64  1  0.83603234  0.62657858  0.16767159  1
  Pr  Pr65  1  0.82427106  0.87770989  0.16860277  1
  Pr  Pr66  1  0.16010979  0.88179545  0.16691680  1
  Pr  Pr67  1  0.65850011  0.87429173  0.33646566  1
  Pr  Pr68  1  0.67650607  0.62243918  0.66524374  1
  Pr  Pr69  1  0.66814810  0.12654916  0.33086045  1
  Pr  Pr70  1  0.82620262  0.37100247  0.16654416  1
  Pr  Pr71  1  0.66131096  0.37645712  0.00192947  1
  Mn  Mn72  1  -0.00193208  -0.00016498  0.16371507  1
  Mn  Mn73  1  -0.00157975  0.00233747  0.50137495  1
  Mn  Mn74  1  0.00093402  -0.00012479  0.83383413  1
  Mn  Mn75  1  -0.00301596  0.50161155  0.16751127  1
  Mn  Mn76  1  0.00157065  0.49714179  0.50047511  1
  Mn  Mn77  1  0.00343747  0.49754622  0.83707206  1
  Mn  Mn78  1  0.33231980  0.00145371  0.16199142  1
  Mn  Mn79  1  0.33284669  0.00103814  0.49990215  1
  Mn  Mn80  1  0.33331745  0.00065715  0.83369632  1
  Mn  Mn81  1  0.33310198  0.49959217  0.16614287  1
  Mn  Mn82  1  0.33513009  0.49887022  0.50187998  1
  Mn  Mn83  1  0.33604729  0.50008348  0.83068361  1
  Mn  Mn84  1  0.66445816  0.00018519  0.16865286  1
  Mn  Mn85  1  0.66562407  0.00066504  0.50038677  1
  Mn  Mn86  1  0.66607724  -0.00024963  0.83054578  1
  Mn  Mn87  1  0.66741374  0.49938653  0.16567814  1
  Mn  Mn88  1  0.66468820  0.49988062  0.50138264  1
  Mn  Mn89  1  0.66828968  0.49849294  0.83369175  1
  Mn  Mn90  1  -0.00292325  0.25024634  0.16404493  1
  Mn  Mn91  1  -0.00014065  0.25009396  0.50208768  1
  Mn  Mn92  1  0.00241293  0.24889184  0.83499823  1
  Mn  Mn93  1  -0.00221186  0.74845581  0.16593325  1
  Mn  Mn94  1  0.00003602  0.75016990  0.50161349  1
  Mn  Mn95  1  0.00391465  0.75270200  0.83708427  1
  Mn  Mn96  1  0.33395730  0.24954296  0.16537899  1
  Mn  Mn97  1  0.33385813  0.25158814  0.49880487  1
  Mn  Mn98  1  0.33630996  0.24915019  0.83144383  1
  Mn  Mn99  1  0.33119381  0.74960111  0.16454918  1
  Mn  Mn100  1  0.33400474  0.75008632  0.50171258  1
  Mn  Mn101  1  0.33357532  0.75245285  0.83209550  1
  Mn  Mn102  1  0.66571633  0.25055251  0.16589653  1
  Mn  Mn103  1  0.66605085  0.25006120  0.50103169  1
  Mn  Mn104  1  0.66814906  0.25057768  0.83132177  1
  Mn  Mn105  1  0.66580455  0.75005897  0.16791392  1
  Mn  Mn106  1  0.66398394  0.74895089  0.50079991  1
  Mn  Mn107  1  0.66661799  0.75005404  0.83338367  1
  Mn  Mn108  1  0.16655519  0.24926164  -0.00052903  1
  Mn  Mn109  1  0.16829422  0.25187342  0.33297946  1
  Mn  Mn110  1  0.16758769  0.24832499  0.66709164  1
  Mn  Mn111  1  0.16968745  0.75165591  -0.00194864  1
  Mn  Mn112  1  0.16622359  0.74949242  0.33436144  1
  Mn  Mn113  1  0.16671031  0.75254117  0.66978610  1
  Mn  Mn114  1  0.50188938  0.24977584  -0.00223010  1
  Mn  Mn115  1  0.49894090  0.25087918  0.33293361  1
  Mn  Mn116  1  0.50110039  0.25087935  0.66556863  1
  Mn  Mn117  1  0.50045116  0.75071336  -0.00241360  1
  Mn  Mn118  1  0.49955542  0.75052281  0.33384822  1
  Mn  Mn119  1  0.49766504  0.74928461  0.66758194  1
  Mn  Mn120  1  0.83670033  0.25048200  -0.00205046  1
  Mn  Mn121  1  0.83114942  0.25078149  0.33364741  1
  Mn  Mn122  1  0.83137779  0.24872462  0.66856998  1
  Mn  Mn123  1  0.83591158  0.75118471  0.00256794  1
  Mn  Mn124  1  0.82940842  0.74730351  0.33438779  1
  Mn  Mn125  1  0.83183863  0.74928701  0.66540129  1
  Mn  Mn126  1  0.16642922  0.00202277  -0.00281669  1
  Mn  Mn127  1  0.16568687  0.00034003  0.33261526  1
  Mn  Mn128  1  0.16444438  -0.00039347  0.66643903  1
  Mn  Mn129  1  0.16969081  0.49749442  0.00097697  1
  Mn  Mn130  1  0.16648437  0.50000736  0.33485249  1
  Mn  Mn131  1  0.16931263  0.49854050  0.66945075  1
  Mn  Mn132  1  0.49865884  0.00078917  -0.00288705  1
  Mn  Mn133  1  0.50060676  0.00032127  0.33246472  1
  Mn  Mn134  1  0.49898049  -0.00091107  0.66526655  1
  Mn  Mn135  1  0.50233325  0.49915815  -0.00145012  1
  Mn  Mn136  1  0.49890498  0.49918061  0.33420005  1
  Mn  Mn137  1  0.50045193  0.50137641  0.66753543  1
  Mn  Mn138  1  0.83721505  0.00024995  -0.00119003  1
  Mn  Mn139  1  0.82857593  0.00050126  0.33379896  1
  Mn  Mn140  1  0.83125347  0.00144934  0.66771140  1
  Mn  Mn141  1  0.83603574  0.49790138  0.00167035  1
  Mn  Mn142  1  0.83219325  0.50158190  0.33360798  1
  Mn  Mn143  1  0.83299755  0.49706593  0.66639017  1
  O  O144  1  0.16272537  0.12463943  0.02541199  1
  O  O145  1  0.16866680  0.12722238  0.35129214  1
  O  O146  1  0.15977427  0.12089142  0.69030851  1
  O  O147  1  0.17098421  0.62514790  0.00835814  1
  O  O148  1  0.16275282  0.62398327  0.34716622  1
  O  O149  1  0.17353487  0.63052720  0.69070464  1
  O  O150  1  0.50115424  0.12398291  0.01993563  1
  O  O151  1  0.50666551  0.12396991  0.35391309  1
  O  O152  1  0.50452295  0.12039662  0.69018706  1
  O  O153  1  0.49599441  0.62482798  0.00742849  1
  O  O154  1  0.49697489  0.62467282  0.35512657  1
  O  O155  1  0.49036074  0.62894901  0.69558779  1
  O  O156  1  0.84214996  0.12518607  0.02338373  1
  O  O157  1  0.82391136  0.12440209  0.35238074  1
  O  O158  1  0.82879987  0.12522908  0.69580045  1
  O  O159  1  0.82893018  0.62202542  0.02317837  1
  O  O160  1  0.82271682  0.62414981  0.35800076  1
  O  O161  1  0.82911255  0.62466467  0.67780618  1
  O  O162  1  0.16953216  0.37589685  0.30800284  1
  O  O163  1  0.17698900  0.37091438  0.64839827  1
  O  O164  1  0.15608443  0.37230106  0.98476631  1
  O  O165  1  0.16304366  0.87469791  0.31149490  1
  O  O166  1  0.17062818  0.87705005  0.64374952  1
  O  O167  1  0.16624007  0.87775560  0.97557154  1
  O  O168  1  0.49352362  0.37525334  0.30747774  1
  O  O169  1  0.49752538  0.37885435  0.65015908  1
  O  O170  1  0.50911043  0.37550220  0.98012767  1
  O  O171  1  0.50811764  0.87668983  0.30785415  1
  O  O172  1  0.50565271  0.87235082  0.63970276  1
  O  O173  1  0.49338496  0.87631544  0.97671397  1
  O  O174  1  0.83124210  0.37867327  0.31194032  1
  O  O175  1  0.83004003  0.37083082  0.64228126  1
  O  O176  1  0.84159792  0.37291461  0.97214938  1
  O  O177  1  0.82290115  0.87359953  0.31320044  1
  O  O178  1  0.83630582  0.87491064  0.65675681  1
  O  O179  1  0.84338091  0.87878485  0.97315735  1
  O  O180  1  0.00749574  0.37622880  0.17744367  1
  O  O181  1  -0.00319748  0.37155762  0.51157587  1
  O  O182  1  0.00131867  0.37201913  0.85954766  1
  O  O183  1  0.01153385  0.87399830  0.17412763  1
  O  O184  1  0.00412847  0.88067915  0.52172318  1
  O  O185  1  0.00970699  0.87888324  0.86386069  1
  O  O186  1  0.34279602  0.37314124  0.18545353  1
  O  O187  1  0.33318324  0.37528697  0.52815309  1
  O  O188  1  0.33831650  0.37425700  0.83893696  1
  O  O189  1  0.33899688  0.87666898  0.17266170  1
  O  O190  1  0.34215855  0.87536285  0.52371650  1
  O  O191  1  0.33988323  0.87713307  0.85909668  1
  O  O192  1  0.67437169  0.37452903  0.18032946  1
  O  O193  1  0.67466588  0.37447868  0.51979926  1
  O  O194  1  0.67337891  0.37411648  0.85669372  1
  O  O195  1  0.67401381  0.87644741  0.19295691  1
  O  O196  1  0.66227988  0.87404219  0.52706347  1
  O  O197  1  0.67283759  0.87368341  0.84283753  1
  O  O198  1  -0.01207503  0.12470593  0.14277817  1
  O  O199  1  -0.00248080  0.12583525  0.49003564  1
  O  O200  1  -0.00670338  0.12137912  0.80589753  1
  O  O201  1  -0.01275502  0.62469390  0.13760453  1
  O  O202  1  -0.00382494  0.62144210  0.48318569  1
  O  O203  1  0.00919067  0.62672675  0.82774045  1
  O  O204  1  0.32498493  0.12453369  0.14668465  1
  O  O205  1  0.32698100  0.12598047  0.48765632  1
  O  O206  1  0.32723970  0.12278202  0.81989319  1
  O  O207  1  0.33139230  0.62635063  0.14065697  1
  O  O208  1  0.33650261  0.62383350  0.47645443  1
  O  O209  1  0.32370534  0.62960271  0.81020387  1
  O  O210  1  0.65801707  0.12606892  0.15280575  1
  O  O211  1  0.65822449  0.12355923  0.47508014  1
  O  O212  1  0.66187877  0.12453336  0.81108957  1
  O  O213  1  0.67160274  0.62251939  0.13924643  1
  O  O214  1  0.65495639  0.62620109  0.47615051  1
  O  O215  1  0.66350941  0.62606566  0.81263545  1
  O  O216  1  0.08761353  0.01639001  0.23480386  1
  O  O217  1  0.08772326  0.02191929  0.58032980  1
  O  O218  1  0.09423973  0.02555195  0.90373121  1
  O  O219  1  0.07737842  0.51584052  0.25128215  1
  O  O220  1  0.09135180  0.50024411  0.58385759  1
  O  O221  1  0.09332509  0.51609430  0.91490026  1
  O  O222  1  0.42886559  0.01337171  0.23500612  1
  O  O223  1  0.42788781  0.01377335  0.57338729  1
  O  O224  1  0.42628209  0.01872019  0.90247331  1
  O  O225  1  0.41595520  0.51580737  0.25192767  1
  O  O226  1  0.42528921  0.52377837  0.57648686  1
  O  O227  1  0.42442355  0.51915657  0.90419484  1
  O  O228  1  0.75017009  0.02291289  0.24599199  1
  O  O229  1  0.75404485  0.02507919  0.57282316  1
  O  O230  1  0.76633949  0.01294015  0.90534354  1
  O  O231  1  0.75506249  0.52041479  0.24273381  1
  O  O232  1  0.75022467  0.52033049  0.57793513  1
  O  O233  1  0.75502778  0.51208801  0.91764624  1
  O  O234  1  0.24946454  0.24062317  0.24785262  1
  O  O235  1  0.24169080  0.23561543  0.57489856  1
  O  O236  1  0.25075656  0.23574066  0.91673314  1
  O  O237  1  0.25671847  0.73449397  0.25885973  1
  O  O238  1  0.26374708  0.74051603  0.59983963  1
  O  O239  1  0.26878046  0.73938784  0.93024691  1
  O  O240  1  0.58345227  0.23257476  0.25224408  1
  O  O241  1  0.58751673  0.22927747  0.58658505  1
  O  O242  1  0.58755825  0.23637384  0.91451643  1
  O  O243  1  0.59565611  0.73503800  0.26379714  1
  O  O244  1  0.58941724  0.72636032  0.59618001  1
  O  O245  1  0.59312298  0.72939537  0.92458857  1
  O  O246  1  0.91121897  0.24034654  0.24301629  1
  O  O247  1  0.91636043  0.22672768  0.59143942  1
  O  O248  1  0.92746676  0.22631519  0.92385683  1
  O  O249  1  0.91555363  0.72728666  0.25542151  1
  O  O250  1  0.91900680  0.74059298  0.58638419  1
  O  O251  1  0.93755707  0.73800174  0.93337185  1
  O  O252  1  0.07444850  0.48880756  0.07802545  1
  O  O253  1  0.08525809  0.48496999  0.41956983  1
  O  O254  1  0.08670918  0.49134839  0.75588797  1
  O  O255  1  0.07574395  0.98607474  0.06938345  1
  O  O256  1  0.08350802  0.98941655  0.41942597  1
  O  O257  1  0.07289521  0.97590348  0.74194403  1
  O  O258  1  0.41939645  0.48568235  0.07955206  1
  O  O259  1  0.40876828  0.48194749  0.41112538  1
  O  O260  1  0.40558292  0.48991952  0.73592806  1
  O  O261  1  0.40751941  0.98503858  0.07136981  1
  O  O262  1  0.41786624  0.98791359  0.41406357  1
  O  O263  1  0.40989038  0.97576729  0.74058448  1
  O  O264  1  0.74693545  0.47655130  0.07533037  1
  O  O265  1  0.75010767  0.48864580  0.41948736  1
  O  O266  1  0.74578503  0.48340529  0.74766890  1
  O  O267  1  0.75184863  0.98825439  0.08739896  1
  O  O268  1  0.73490863  0.98673330  0.40610890  1
  O  O269  1  0.73935083  0.98323917  0.73832892  1
  O  O270  1  0.23885520  0.26431153  0.09108039  1
  O  O271  1  0.25224701  0.27602776  0.41724949  1
  O  O272  1  0.25062401  0.26067283  0.74841036  1
  O  O273  1  0.23803363  0.77640456  0.08848373  1
  O  O274  1  0.24428763  0.76917654  0.43221188  1
  O  O275  1  0.24117408  0.77735494  0.76238819  1
  O  O276  1  0.58197380  0.27125590  0.08696086  1
  O  O277  1  0.57654781  0.26044735  0.42256920  1
  O  O278  1  0.58063682  0.26052400  0.75134845  1
  O  O279  1  0.57454437  0.76983105  0.09694109  1
  O  O280  1  0.57451498  0.77127643  0.42675712  1
  O  O281  1  0.56888555  0.76818596  0.75895434  1
  O  O282  1  0.91170749  0.27543256  0.08482121  1
  O  O283  1  0.90924729  0.25965913  0.42575992  1
  O  O284  1  0.90745158  0.26358387  0.76274964  1
  O  O285  1  0.90691798  0.77385261  0.09402838  1
  O  O286  1  0.91038159  0.75053862  0.41937378  1
  O  O287  1  0.91505663  0.77214516  0.76408346  1
  O  O288  1  0.24022445  0.47804887  0.09204122  1
  O  O289  1  0.24718024  0.47650199  0.42622364  1
  O  O290  1  0.24699307  0.48430647  0.75607797  1
  O  O291  1  0.23993614  0.97951266  0.08510602  1
  O  O292  1  0.24298619  0.98677168  0.42656056  1
  O  O293  1  0.24209811  0.98044481  0.75660246  1
  O  O294  1  0.58239724  0.47793437  0.08829596  1
  O  O295  1  0.57395479  0.48907022  0.42665033  1
  O  O296  1  0.57525885  0.49107789  0.75766860  1
  O  O297  1  0.57143796  0.98477670  0.09710268  1
  O  O298  1  0.57709476  0.97722638  0.42499143  1
  O  O299  1  0.57317424  0.97707729  0.75173397  1
  O  O300  1  0.90616963  0.47516370  0.09435379  1
  O  O301  1  0.90913994  0.48969121  0.42117792  1
  O  O302  1  0.91258233  0.48309897  0.76257546  1
  O  O303  1  0.91184644  0.97519179  0.08651791  1
  O  O304  1  0.90792436  0.99788194  0.42321779  1
  O  O305  1  0.90958145  0.97815554  0.76480567  1
  O  O306  1  0.07378664  0.26275001  0.07558848  1
  O  O307  1  0.09223098  0.26052440  0.42393644  1
  O  O308  1  0.08438275  0.25569629  0.75400868  1
  O  O309  1  0.07478524  0.75956096  0.06888537  1
  O  O310  1  0.08084665  0.76295911  0.41884147  1
  O  O311  1  0.07648445  0.77721627  0.74659767  1
  O  O312  1  0.42015992  0.26029839  0.08385096  1
  O  O313  1  0.41206692  0.26753569  0.40939981  1
  O  O314  1  0.41447773  0.26294840  0.74195223  1
  O  O315  1  0.40752484  0.76521464  0.06910296  1
  O  O316  1  0.41643476  0.76421836  0.41657514  1
  O  O317  1  0.40411285  0.77521253  0.73793665  1
  O  O318  1  0.74960218  0.26926421  0.07632352  1
  O  O319  1  0.75140020  0.26085656  0.42343646  1
  O  O320  1  0.74618150  0.27013682  0.74610011  1
  O  O321  1  0.74807570  0.76518670  0.08636359  1
  O  O322  1  0.73464217  0.76268293  0.40495910  1
  O  O323  1  0.74028239  0.76338800  0.74089771  1
  O  O324  1  0.24700270  0.00966213  0.24337698  1
  O  O325  1  0.24894332  0.00871389  0.58558645  1
  O  O326  1  0.25439629  0.01474945  0.92285397  1
  O  O327  1  0.25788151  0.51249923  0.26341750  1
  O  O328  1  0.26433272  0.51353130  0.59548351  1
  O  O329  1  0.26012073  0.51634501  0.91961870  1
  O  O330  1  0.59091564  0.01867564  0.26038558  1
  O  O331  1  0.59037611  0.01965985  0.58993100  1
  O  O332  1  0.58445814  0.01264955  0.91375052  1
  O  O333  1  0.58975624  0.51449294  0.25784448  1
  O  O334  1  0.58784769  0.52463587  0.59228595  1
  O  O335  1  0.59481834  0.51836883  0.92580828  1
  O  O336  1  0.90926352  0.00764981  0.24558039  1
  O  O337  1  0.92222386  0.01821162  0.59564013  1
  O  O338  1  0.93050025  0.02290512  0.92406890  1
  O  O339  1  0.91749023  0.52804695  0.25513696  1
  O  O340  1  0.91415638  0.50865319  0.58000117  1
  O  O341  1  0.93228632  0.51297855  0.93534954  1
  O  O342  1  0.08831960  0.23563872  0.23746533  1
  O  O343  1  0.08326944  0.23130070  0.58617419  1
  O  O344  1  0.08858103  0.22237243  0.91343989  1
  O  O345  1  0.07622562  0.73359165  0.24782702  1
  O  O346  1  0.08794265  0.74816671  0.58421348  1
  O  O347  1  0.10308724  0.73528226  0.90362748  1
  O  O348  1  0.42508918  0.23317677  0.24056422  1
  O  O349  1  0.42513027  0.23538042  0.57341183  1
  O  O350  1  0.42423364  0.23274480  0.90820933  1
  O  O351  1  0.42110779  0.74102679  0.24757413  1
  O  O352  1  0.42471571  0.72681605  0.57758045  1
  O  O353  1  0.42778044  0.73322792  0.89685084  1
  O  O354  1  0.74931266  0.23089819  0.24538254  1
  O  O355  1  0.75222105  0.22343790  0.58230742  1
  O  O356  1  0.76533897  0.23472281  0.90546961  1
  O  O357  1  0.75467127  0.72710802  0.24403345  1
  O  O358  1  0.75096857  0.72508067  0.57187263  1
  O  O359  1  0.75798860  0.73942062  0.91794928  1
