# generated using pymatgen
data_Ba17Sr5La8Pr42Mn72O216
_symmetry_space_group_name_H-M   'P 1'
_cell_length_a   16.67987408
_cell_length_b   15.70415871
_cell_length_c   16.82361217
_cell_angle_alpha   90.00343641
_cell_angle_beta   89.97583543
_cell_angle_gamma   89.99170667
_symmetry_Int_Tables_number   1
_chemical_formula_structural   Ba17Sr5La8Pr42Mn72O216
_chemical_formula_sum   'Ba17 Sr5 La8 Pr42 Mn72 O216'
_cell_volume   4406.83355630
_cell_formula_units_Z   1
loop_
 _symmetry_equiv_pos_site_id
 _symmetry_equiv_pos_as_xyz
  1  'x, y, z'
loop_
 _atom_site_type_symbol
 _atom_site_label
 _atom_site_symmetry_multiplicity
 _atom_site_fract_x
 _atom_site_fract_y
 _atom_site_fract_z
 _atom_site_occupancy
  Ba  Ba0  1  0.33507267  0.62717714  0.99999086  1
  Ba  Ba1  1  0.16820168  0.37422321  0.83810678  1
  Ba  Ba2  1  0.83098625  0.87490511  0.49657804  1
  Ba  Ba3  1  0.16892348  0.62493231  0.50257492  1
  Ba  Ba4  1  0.16792110  0.12203246  0.17041661  1
  Ba  Ba5  1  0.83150599  0.62451739  0.83297017  1
  Ba  Ba6  1  0.16908911  0.12498798  0.50263415  1
  Ba  Ba7  1  0.50126920  0.37426661  0.16451236  1
  Ba  Ba8  1  0.16791215  0.37270986  0.16875498  1
  Ba  Ba9  1  0.33566879  0.37356554  0.33123276  1
  Ba  Ba10  1  0.16791173  0.62586383  0.83555771  1
  Ba  Ba11  1  0.83034110  0.87388900  0.16457935  1
  Ba  Ba12  1  0.33504906  0.62716561  0.33348437  1
  Ba  Ba13  1  0.16646952  0.12317700  0.83644919  1
  Ba  Ba14  1  -0.00024251  0.37518590  0.33459252  1
  Ba  Ba15  1  0.33392469  0.37536455  0.00252425  1
  Ba  Ba16  1  0.83045692  0.87422158  0.82879049  1
  Sr  Sr17  1  -0.00144558  0.87497278  0.66710494  1
  Sr  Sr18  1  0.83404307  0.62513525  0.16568169  1
  Sr  Sr19  1  0.66354102  0.87431756  0.33458794  1
  Sr  Sr20  1  0.33710775  0.12432491  0.33168543  1
  Sr  Sr21  1  0.50281940  0.12504493  0.83278503  1
  La  La22  1  0.66332799  0.37568784  0.66811413  1
  La  La23  1  0.50111644  0.12644391  0.16683296  1
  La  La24  1  0.67346020  0.62508605  0.66373595  1
  La  La25  1  0.00101321  0.12203833  0.66691633  1
  La  La26  1  0.32992975  0.37396661  0.66802461  1
  La  La27  1  0.16857354  0.62147661  0.17142923  1
  La  La28  1  0.00250601  0.37581671  0.66945307  1
  La  La29  1  0.66795261  0.37616156  0.00115724  1
  Pr  Pr30  1  0.49329971  0.87670346  0.82772540  1
  Pr  Pr31  1  0.15781681  0.87379498  0.50009439  1
  Pr  Pr32  1  0.49436261  0.37473066  0.83208234  1
  Pr  Pr33  1  -0.00106367  0.12332805  0.33044528  1
  Pr  Pr34  1  0.49931950  0.37437621  0.49327286  1
  Pr  Pr35  1  0.66975848  0.12502342  0.99725944  1
  Pr  Pr36  1  0.32284185  0.87674177  0.33777568  1
  Pr  Pr37  1  0.33673994  0.62315262  0.66341384  1
  Pr  Pr38  1  0.66548688  0.37568415  0.33312724  1
  Pr  Pr39  1  0.67089569  0.62820178  0.32996906  1
  Pr  Pr40  1  0.00539588  0.37590525  0.00604130  1
  Pr  Pr41  1  0.83146615  0.37548565  0.49574153  1
  Pr  Pr42  1  0.32291011  0.87695367  0.66896614  1
  Pr  Pr43  1  0.15825272  0.87329042  0.83287490  1
  Pr  Pr44  1  0.50470238  0.62403895  0.49963083  1
  Pr  Pr45  1  -0.00045242  0.62779054  0.32981955  1
  Pr  Pr46  1  0.50245423  0.62573168  0.83495034  1
  Pr  Pr47  1  0.83354084  0.12513367  0.16767500  1
  Pr  Pr48  1  0.83947263  0.62275160  0.50105651  1
  Pr  Pr49  1  0.00074086  0.12433926  0.99924578  1
  Pr  Pr50  1  0.66167269  0.87491929  0.66887560  1
  Pr  Pr51  1  0.49551113  0.87536911  0.49553721  1
  Pr  Pr52  1  0.83410266  0.12468959  0.83335786  1
  Pr  Pr53  1  0.67097336  0.12469783  0.66292961  1
  Pr  Pr54  1  0.00137483  0.62914272  0.66660761  1
  Pr  Pr55  1  0.49558554  0.87488337  0.16527381  1
  Pr  Pr56  1  0.33673223  0.12712321  0.66463617  1
  Pr  Pr57  1  0.66853952  0.62617958  0.99934875  1
  Pr  Pr58  1  -0.00135285  0.87373886  -0.00028102  1
  Pr  Pr59  1  0.83582840  0.37491418  0.16193797  1
  Pr  Pr60  1  0.66301713  0.87361696  -0.00019216  1
  Pr  Pr61  1  0.17349421  0.37452327  0.49561216  1
  Pr  Pr62  1  0.16265576  0.87321849  0.17062285  1
  Pr  Pr63  1  0.50351843  0.12549919  0.50000576  1
  Pr  Pr64  1  0.50313843  0.62114876  0.16826091  1
  Pr  Pr65  1  0.32276811  0.87782840  0.00058134  1
  Pr  Pr66  1  0.34058166  0.13013840  0.99922243  1
  Pr  Pr67  1  -0.00249180  0.87707431  0.33828547  1
  Pr  Pr68  1  0.00111557  0.62588430  0.99870736  1
  Pr  Pr69  1  0.66969185  0.12140062  0.32974251  1
  Pr  Pr70  1  0.83187918  0.37605642  0.83115626  1
  Pr  Pr71  1  0.83678307  0.12708829  0.49952509  1
  Mn  Mn72  1  -0.00273032  -0.00173348  0.16706517  1
  Mn  Mn73  1  -0.00118968  0.00143357  0.50067189  1
  Mn  Mn74  1  -0.00310341  0.00040837  0.83307953  1
  Mn  Mn75  1  -0.00139882  0.50187061  0.16698075  1
  Mn  Mn76  1  0.00019174  0.49909729  0.50240308  1
  Mn  Mn77  1  -0.00150399  0.49864372  0.83579687  1
  Mn  Mn78  1  0.33535027  -0.00320190  0.16805225  1
  Mn  Mn79  1  0.33571158  -0.00098255  0.50128152  1
  Mn  Mn80  1  0.33450226  0.00069136  0.83465859  1
  Mn  Mn81  1  0.33428467  0.50210476  0.16672126  1
  Mn  Mn82  1  0.33751224  0.50123264  0.50213152  1
  Mn  Mn83  1  0.33494684  0.49991131  0.83146418  1
  Mn  Mn84  1  0.66464526  -0.00119671  0.16458569  1
  Mn  Mn85  1  0.66583606  0.00090477  0.49881265  1
  Mn  Mn86  1  0.66416703  0.00200777  0.83180489  1
  Mn  Mn87  1  0.66965168  0.50065950  0.16629351  1
  Mn  Mn88  1  0.66730275  0.49936719  0.49858553  1
  Mn  Mn89  1  0.66454270  0.49871008  0.83339174  1
  Mn  Mn90  1  -0.00146594  0.24860058  0.16711030  1
  Mn  Mn91  1  -0.00064486  0.25054438  0.50291357  1
  Mn  Mn92  1  -0.00264218  0.25133554  0.83532516  1
  Mn  Mn93  1  -0.00167588  0.75043834  0.16665276  1
  Mn  Mn94  1  -0.00113157  0.74905173  0.49953574  1
  Mn  Mn95  1  -0.00212455  0.74908348  0.83301208  1
  Mn  Mn96  1  0.33486312  0.24660552  0.16677942  1
  Mn  Mn97  1  0.33718785  0.24730076  0.50111578  1
  Mn  Mn98  1  0.33534357  0.24789278  0.83212627  1
  Mn  Mn99  1  0.33502317  0.75282603  0.16714538  1
  Mn  Mn100  1  0.33636480  0.75186905  0.50199475  1
  Mn  Mn101  1  0.33462467  0.75291963  0.83234013  1
  Mn  Mn102  1  0.66887148  0.24861430  0.16532632  1
  Mn  Mn103  1  0.66712923  0.25015007  0.49866540  1
  Mn  Mn104  1  0.66578594  0.25042857  0.83219016  1
  Mn  Mn105  1  0.66523389  0.75139917  0.16595199  1
  Mn  Mn106  1  0.66607063  0.74915591  0.49889906  1
  Mn  Mn107  1  0.66294599  0.75041521  0.83249806  1
  Mn  Mn108  1  0.16613780  0.24656560  0.00247650  1
  Mn  Mn109  1  0.16735303  0.24919883  0.33620293  1
  Mn  Mn110  1  0.16657975  0.24958254  0.66773708  1
  Mn  Mn111  1  0.16479151  0.75330839  0.00287832  1
  Mn  Mn112  1  0.16423552  0.75027216  0.33464864  1
  Mn  Mn113  1  0.16693357  0.75088183  0.66869582  1
  Mn  Mn114  1  0.50391007  0.24751673  -0.00239451  1
  Mn  Mn115  1  0.50269336  0.24754738  0.33336922  1
  Mn  Mn116  1  0.50160400  0.24941462  0.66512887  1
  Mn  Mn117  1  0.50023131  0.75348986  -0.00206390  1
  Mn  Mn118  1  0.50180878  0.75153977  0.33179350  1
  Mn  Mn119  1  0.50061801  0.75067858  0.66508623  1
  Mn  Mn120  1  0.83390813  0.24933745  -0.00127039  1
  Mn  Mn121  1  0.83161531  0.25047197  0.33272229  1
  Mn  Mn122  1  0.83280382  0.25150330  0.66607104  1
  Mn  Mn123  1  0.83156063  0.75006612  -0.00142693  1
  Mn  Mn124  1  0.83213602  0.74885581  0.33141019  1
  Mn  Mn125  1  0.83208842  0.74962223  0.66337862  1
  Mn  Mn126  1  0.16490518  -0.00059811  0.00330627  1
  Mn  Mn127  1  0.16514120  0.00058126  0.33659078  1
  Mn  Mn128  1  0.16635938  -0.00002909  0.66935406  1
  Mn  Mn129  1  0.16650249  0.50145725  0.00298419  1
  Mn  Mn130  1  0.16689313  0.49957199  0.33620578  1
  Mn  Mn131  1  0.16691730  0.50018752  0.66767532  1
  Mn  Mn132  1  0.50061221  -0.00203064  -0.00257194  1
  Mn  Mn133  1  0.50096656  -0.00102189  0.33236563  1
  Mn  Mn134  1  0.50084798  0.00071015  0.66455552  1
  Mn  Mn135  1  0.50316056  0.50263879  -0.00099435  1
  Mn  Mn136  1  0.50284559  0.50085407  0.33348987  1
  Mn  Mn137  1  0.50099362  0.49943853  0.66570332  1
  Mn  Mn138  1  0.83157916  0.00004616  -0.00229078  1
  Mn  Mn139  1  0.83146570  0.00016182  0.33176160  1
  Mn  Mn140  1  0.83098019  0.00133338  0.66458464  1
  Mn  Mn141  1  0.83362133  0.50024606  0.00011137  1
  Mn  Mn142  1  0.83220574  0.50022939  0.33228418  1
  Mn  Mn143  1  0.83399775  0.49859487  0.66480110  1
  O  O144  1  0.15336131  0.11951882  0.01309670  1
  O  O145  1  0.15748243  0.12334047  0.34678657  1
  O  O146  1  0.16817371  0.12281356  0.67880841  1
  O  O147  1  0.15597853  0.63267255  0.02401311  1
  O  O148  1  0.15876324  0.62720114  0.34522359  1
  O  O149  1  0.16732527  0.62745898  0.67814892  1
  O  O150  1  0.50012980  0.11811190  0.02166742  1
  O  O151  1  0.50646213  0.12292831  0.35648696  1
  O  O152  1  0.49981786  0.12591828  0.68569014  1
  O  O153  1  0.50672266  0.63241744  0.02306134  1
  O  O154  1  0.50871373  0.62689286  0.35534424  1
  O  O155  1  0.49536252  0.62764263  0.69261189  1
  O  O156  1  0.82664022  0.12567266  0.02460660  1
  O  O157  1  0.82933527  0.12699577  0.35578654  1
  O  O158  1  0.82551975  0.13041289  0.69054205  1
  O  O159  1  0.82616321  0.62340286  0.01680431  1
  O  O160  1  0.82934639  0.62170655  0.35738084  1
  O  O161  1  0.82875631  0.62323328  0.67695916  1
  O  O162  1  0.16792705  0.37316994  0.32892819  1
  O  O163  1  0.16820383  0.37471294  0.64451028  1
  O  O164  1  0.16047738  0.37248251  0.99652387  1
  O  O165  1  0.16071894  0.87571652  0.31608326  1
  O  O166  1  0.17018940  0.87569171  0.64442620  1
  O  O167  1  0.16478098  0.87799851  0.97706978  1
  O  O168  1  0.50861848  0.37359555  0.32178156  1
  O  O169  1  0.50306974  0.37217762  0.63575886  1
  O  O170  1  0.50981472  0.37469228  0.97728965  1
  O  O171  1  0.50709716  0.87553700  0.30957237  1
  O  O172  1  0.51210467  0.87423793  0.63823385  1
  O  O173  1  0.51195345  0.87608988  0.96953467  1
  O  O174  1  0.82723254  0.37528768  0.30620943  1
  O  O175  1  0.83464297  0.37336934  0.63849636  1
  O  O176  1  0.83435610  0.37198328  0.97471844  1
  O  O177  1  0.84042750  0.87605155  0.32131833  1
  O  O178  1  0.82642852  0.87406822  0.65276139  1
  O  O179  1  0.83364586  0.87765626  0.98562427  1
  O  O180  1  -0.00993681  0.37491676  0.17723898  1
  O  O181  1  -0.01276753  0.37449987  0.52573302  1
  O  O182  1  -0.01318495  0.37288322  0.86111582  1
  O  O183  1  -0.00073807  0.87350670  0.19469845  1
  O  O184  1  0.00070272  0.87533708  0.51515154  1
  O  O185  1  0.00020567  0.87423209  0.85349235  1
  O  O186  1  0.33542549  0.37432464  0.17121804  1
  O  O187  1  0.34426975  0.37447495  0.52197498  1
  O  O188  1  0.34301438  0.37250167  0.84329265  1
  O  O189  1  0.34352289  0.87521941  0.19405248  1
  O  O190  1  0.34513300  0.87498646  0.52576564  1
  O  O191  1  0.34370098  0.87715716  0.85680688  1
  O  O192  1  0.67467083  0.37289183  0.19006037  1
  O  O193  1  0.66699680  0.37377540  0.52566336  1
  O  O194  1  0.66629574  0.37293374  0.85766947  1
  O  O195  1  0.66038954  0.87581412  0.18557506  1
  O  O196  1  0.66085710  0.87351483  0.52494046  1
  O  O197  1  0.65909869  0.87736540  0.85443084  1
  O  O198  1  -0.00812748  0.12289250  0.14411938  1
  O  O199  1  -0.00497434  0.12743301  0.47583481  1
  O  O200  1  -0.00634356  0.12810589  0.81102793  1
  O  O201  1  0.00472338  0.62810380  0.14310825  1
  O  O202  1  -0.00400025  0.62258410  0.47560819  1
  O  O203  1  0.00096860  0.62436604  0.81192293  1
  O  O204  1  0.34140580  0.11581502  0.14530445  1
  O  O205  1  0.34125984  0.11968249  0.48198523  1
  O  O206  1  0.33714648  0.12211044  0.80777016  1
  O  O207  1  0.33122330  0.63255645  0.15821877  1
  O  O208  1  0.33978750  0.63001221  0.49037938  1
  O  O209  1  0.34220691  0.62943360  0.80765693  1
  O  O210  1  0.66722054  0.12349137  0.14135973  1
  O  O211  1  0.66368799  0.12965258  0.47304273  1
  O  O212  1  0.66936392  0.12889040  0.80558463  1
  O  O213  1  0.65939075  0.62781353  0.14289491  1
  O  O214  1  0.66095374  0.62153197  0.47424782  1
  O  O215  1  0.65684860  0.62266170  0.80699748  1
  O  O216  1  0.07203123  0.01026736  0.25749885  1
  O  O217  1  0.07847506  0.01118198  0.58732570  1
  O  O218  1  0.07280186  0.00857874  0.92326287  1
  O  O219  1  0.08028380  0.51919918  0.24979066  1
  O  O220  1  0.07756592  0.51160472  0.59040205  1
  O  O221  1  0.07813206  0.51135548  0.92359453  1
  O  O222  1  0.42861206  0.01539183  0.24119805  1
  O  O223  1  0.42935706  0.01746525  0.57304785  1
  O  O224  1  0.42293669  0.01776355  0.91129329  1
  O  O225  1  0.42340616  0.51509768  0.24726064  1
  O  O226  1  0.42230200  0.52364624  0.58383437  1
  O  O227  1  0.42649895  0.51324837  0.90524765  1
  O  O228  1  0.75181224  0.02130346  0.24318440  1
  O  O229  1  0.75233485  0.02520890  0.57633966  1
  O  O230  1  0.75180240  0.02332423  0.90836197  1
  O  O231  1  0.74814159  0.52118349  0.25174588  1
  O  O232  1  0.75296811  0.51695298  0.57415223  1
  O  O233  1  0.74486003  0.50959290  0.92321190  1
  O  O234  1  0.25604049  0.23713632  0.25291121  1
  O  O235  1  0.26039306  0.23979547  0.58833259  1
  O  O236  1  0.25546341  0.23300620  0.92077754  1
  O  O237  1  0.24558367  0.74784014  0.25306094  1
  O  O238  1  0.26285772  0.74096665  0.59751945  1
  O  O239  1  0.25137520  0.74939072  0.92179161  1
  O  O240  1  0.58707014  0.22850132  0.25163485  1
  O  O241  1  0.58672569  0.22776347  0.58312896  1
  O  O242  1  0.58761199  0.22838412  0.91724700  1
  O  O243  1  0.58912692  0.72885963  0.25443514  1
  O  O244  1  0.59094938  0.72437098  0.59203569  1
  O  O245  1  0.58718225  0.72703735  0.92042952  1
  O  O246  1  0.91316803  0.22761193  0.24850033  1
  O  O247  1  0.91627428  0.22401074  0.58691539  1
  O  O248  1  0.91370002  0.22217671  0.91758947  1
  O  O249  1  0.91887900  0.72803640  0.25065939  1
  O  O250  1  0.91795548  0.72736964  0.57932928  1
  O  O251  1  0.91968235  0.73581629  0.91963522  1
  O  O252  1  0.07566078  0.49020057  0.08228067  1
  O  O253  1  0.08623328  0.48230937  0.42750983  1
  O  O254  1  0.07663467  0.48363294  0.74919772  1
  O  O255  1  0.08149110  0.97408171  0.08844997  1
  O  O256  1  0.08262987  0.97963647  0.42037456  1
  O  O257  1  0.08140997  0.98290105  0.75495483  1
  O  O258  1  0.42404657  0.50076846  0.08327581  1
  O  O259  1  0.42604364  0.49089477  0.42499650  1
  O  O260  1  0.41710458  0.47799114  0.74338587  1
  O  O261  1  0.41359556  0.97455214  0.07342680  1
  O  O262  1  0.41116722  0.97671203  0.40794979  1
  O  O263  1  0.41266112  0.97904706  0.73723337  1
  O  O264  1  0.75471345  0.47737357  0.08552555  1
  O  O265  1  0.74660085  0.47586107  0.41341576  1
  O  O266  1  0.74648740  0.47861863  0.74697581  1
  O  O267  1  0.73785280  0.98648976  0.07060035  1
  O  O268  1  0.74160956  0.99182827  0.40785428  1
  O  O269  1  0.73585468  0.98843666  0.73867832  1
  O  O270  1  0.25356185  0.24380528  0.08065252  1
  O  O271  1  0.25158638  0.26278719  0.42628542  1
  O  O272  1  0.25604344  0.26049998  0.74645571  1
  O  O273  1  0.24568171  0.77594160  0.08778919  1
  O  O274  1  0.24573893  0.77433272  0.42427651  1
  O  O275  1  0.24669923  0.77541371  0.75733004  1
  O  O276  1  0.59299687  0.25981700  0.07680265  1
  O  O277  1  0.58636830  0.27126914  0.41811662  1
  O  O278  1  0.58141174  0.27438210  0.74787721  1
  O  O279  1  0.57656920  0.77449643  0.08528407  1
  O  O280  1  0.57348678  0.76533958  0.42753956  1
  O  O281  1  0.57367726  0.77175738  0.75563521  1
  O  O282  1  0.91455372  0.26775114  0.08083473  1
  O  O283  1  0.90808271  0.26375849  0.42439761  1
  O  O284  1  0.91156651  0.27202608  0.75433662  1
  O  O285  1  0.92213187  0.76172632  0.07890545  1
  O  O286  1  0.92006678  0.75751297  0.41030914  1
  O  O287  1  0.91968147  0.75557757  0.74288251  1
  O  O288  1  0.24599535  0.50299136  0.08756296  1
  O  O289  1  0.25179413  0.48644045  0.42622838  1
  O  O290  1  0.25578860  0.48972724  0.74648633  1
  O  O291  1  0.24601276  0.97369612  0.09350698  1
  O  O292  1  0.24619935  0.97457834  0.42861940  1
  O  O293  1  0.24544969  0.97501294  0.76098405  1
  O  O294  1  0.59375879  0.48787862  0.07652263  1
  O  O295  1  0.58602853  0.47788339  0.41915905  1
  O  O296  1  0.57837476  0.47494206  0.75048084  1
  O  O297  1  0.57587246  0.97918068  0.08769871  1
  O  O298  1  0.57348003  0.98481818  0.42622373  1
  O  O299  1  0.57614873  0.98061816  0.75385273  1
  O  O300  1  0.91448308  0.48240978  0.08348554  1
  O  O301  1  0.90708670  0.48642257  0.42540897  1
  O  O302  1  0.91361714  0.47747276  0.75337097  1
  O  O303  1  0.92116040  0.98721690  0.07677279  1
  O  O304  1  0.92213738  0.99249770  0.40948505  1
  O  O305  1  0.91438772  0.99653981  0.74678072  1
  O  O306  1  0.07536179  0.25810565  0.08176707  1
  O  O307  1  0.08587727  0.26767152  0.43008685  1
  O  O308  1  0.07485549  0.26557733  0.74997277  1
  O  O309  1  0.08206783  0.77867963  0.08664255  1
  O  O310  1  0.08061837  0.77021218  0.41640753  1
  O  O311  1  0.08442276  0.76786141  0.75332847  1
  O  O312  1  0.42179611  0.24874105  0.08204726  1
  O  O313  1  0.42641637  0.25889857  0.42416849  1
  O  O314  1  0.41955833  0.26961656  0.74483795  1
  O  O315  1  0.41384340  0.77772670  0.07166226  1
  O  O316  1  0.41298833  0.77391601  0.40702196  1
  O  O317  1  0.41206705  0.77603654  0.73694024  1
  O  O318  1  0.75466642  0.27122067  0.08284768  1
  O  O319  1  0.74662467  0.27431284  0.41482616  1
  O  O320  1  0.74806409  0.27615035  0.74703478  1
  O  O321  1  0.73834493  0.76270836  0.07522459  1
  O  O322  1  0.74071843  0.75751782  0.40878490  1
  O  O323  1  0.73494626  0.76024734  0.73980244  1
  O  O324  1  0.25554106  0.00389479  0.26246902  1
  O  O325  1  0.26600700  0.01137498  0.59680389  1
  O  O326  1  0.26015877  0.01365596  0.93293921  1
  O  O327  1  0.24733509  0.51237914  0.24896566  1
  O  O328  1  0.26066560  0.50869224  0.58931181  1
  O  O329  1  0.25229388  0.50776888  0.91739089  1
  O  O330  1  0.58895611  0.02183646  0.25377341  1
  O  O331  1  0.59075795  0.02330065  0.58991138  1
  O  O332  1  0.59209171  0.02072835  0.92348166  1
  O  O333  1  0.58706442  0.51941972  0.25027122  1
  O  O334  1  0.58707308  0.52079364  0.58569646  1
  O  O335  1  0.58396956  0.52371160  0.91687911  1
  O  O336  1  0.91269288  0.02375572  0.24767033  1
  O  O337  1  0.91531900  0.02395952  0.58034491  1
  O  O338  1  0.91363397  0.02372987  0.91530568  1
  O  O339  1  0.91854175  0.52132025  0.25351435  1
  O  O340  1  0.92062367  0.52358660  0.58681398  1
  O  O341  1  0.91955525  0.51728998  0.92362854  1
  O  O342  1  0.07412773  0.23554557  0.25545004  1
  O  O343  1  0.07545447  0.23888947  0.59116735  1
  O  O344  1  0.07464080  0.23953700  0.92267553  1
  O  O345  1  0.08096858  0.73245947  0.24874547  1
  O  O346  1  0.08011440  0.73944322  0.58732973  1
  O  O347  1  0.07714316  0.74061478  0.92462828  1
  O  O348  1  0.42295405  0.23015828  0.24971233  1
  O  O349  1  0.42070793  0.22541862  0.58378656  1
  O  O350  1  0.41972058  0.23186874  0.91461474  1
  O  O351  1  0.43226007  0.73672362  0.23790257  1
  O  O352  1  0.43087172  0.73188184  0.57512659  1
  O  O353  1  0.42858502  0.73836461  0.90279228  1
  O  O354  1  0.74983307  0.22480838  0.24827834  1
  O  O355  1  0.75095650  0.22863946  0.57742207  1
  O  O356  1  0.75212428  0.22934326  0.91562084  1
  O  O357  1  0.75122907  0.73136289  0.24752470  1
  O  O358  1  0.75248544  0.72722857  0.57402506  1
  O  O359  1  0.74337537  0.73894825  0.91580388  1
