# generated using pymatgen
data_Ba17Sr5La8Pr42Mn72O216
_symmetry_space_group_name_H-M   'P 1'
_cell_length_a   16.67468378
_cell_length_b   15.70505955
_cell_length_c   16.81898366
_cell_angle_alpha   89.99554533
_cell_angle_beta   89.93651724
_cell_angle_gamma   90.00682500
_symmetry_Int_Tables_number   1
_chemical_formula_structural   Ba17Sr5La8Pr42Mn72O216
_chemical_formula_sum   'Ba17 Sr5 La8 Pr42 Mn72 O216'
_cell_volume   4404.50058245
_cell_formula_units_Z   1
loop_
 _symmetry_equiv_pos_site_id
 _symmetry_equiv_pos_as_xyz
  1  'x, y, z'
loop_
 _atom_site_type_symbol
 _atom_site_label
 _atom_site_symmetry_multiplicity
 _atom_site_fract_x
 _atom_site_fract_y
 _atom_site_fract_z
 _atom_site_occupancy
  Ba  Ba0  1  -0.00172486  0.37549855  0.33543189  1
  Ba  Ba1  1  0.33117591  0.62570397  0.66788730  1
  Ba  Ba2  1  0.83485515  0.12482985  0.16691349  1
  Ba  Ba3  1  0.66736403  0.87553828  0.00221623  1
  Ba  Ba4  1  -0.00174426  0.87691609  0.66442238  1
  Ba  Ba5  1  0.33517073  0.12490854  0.32911818  1
  Ba  Ba6  1  0.66667844  0.87474798  0.33379000  1
  Ba  Ba7  1  0.66498189  0.62374177  0.66448471  1
  Ba  Ba8  1  0.16573822  0.62440448  0.83082505  1
  Ba  Ba9  1  0.16864491  0.87299296  0.16671431  1
  Ba  Ba10  1  0.00272164  0.12579500  1.00186622  1
  Ba  Ba11  1  0.16923455  0.12387292  0.16485516  1
  Ba  Ba12  1  0.16421645  0.37438279  0.49638416  1
  Ba  Ba13  1  0.33186944  0.87287599  0.33443696  1
  Ba  Ba14  1  0.33363209  0.37697764  0.33511667  1
  Ba  Ba15  1  0.33520792  0.37582296  -0.00007438  1
  Ba  Ba16  1  0.50061493  0.62456665  0.83114070  1
  Sr  Sr17  1  0.83065937  0.62421502  0.50430734  1
  Sr  Sr18  1  0.66874657  0.12430073  1.00077651  1
  Sr  Sr19  1  0.50265392  0.12544117  0.16765380  1
  Sr  Sr20  1  0.33213141  0.62522469  0.33873788  1
  Sr  Sr21  1  0.16399690  0.87279678  0.49398700  1
  La  La22  1  0.16927530  0.87716596  0.82935101  1
  La  La23  1  0.49899666  0.62474406  0.16668160  1
  La  La24  1  0.50050148  0.37236720  0.16685309  1
  La  La25  1  0.49954381  0.37756154  0.49956638  1
  La  La26  1  0.17043970  0.62201458  0.16666034  1
  La  La27  1  0.83483147  0.62788164  0.83423495  1
  La  La28  1  0.83383245  0.87960293  0.83274720  1
  La  La29  1  0.00090154  0.62545942  0.33501076  1
  Pr  Pr30  1  0.49605302  0.62869422  0.50506904  1
  Pr  Pr31  1  0.66650964  0.12779022  0.66589929  1
  Pr  Pr32  1  0.33649301  0.86996861  0.00453959  1
  Pr  Pr33  1  0.83586303  0.12214864  0.84192549  1
  Pr  Pr34  1  0.50519946  0.87511828  0.83174075  1
  Pr  Pr35  1  0.00391358  0.37721446  0.00431898  1
  Pr  Pr36  1  0.33275053  0.62686789  0.99222503  1
  Pr  Pr37  1  0.33338987  0.12229910  0.99981119  1
  Pr  Pr38  1  0.83138195  0.62631379  0.17023420  1
  Pr  Pr39  1  0.33211756  0.12563023  0.66271288  1
  Pr  Pr40  1  0.33120345  0.37726862  0.66996166  1
  Pr  Pr41  1  0.16731162  0.12499223  0.49265787  1
  Pr  Pr42  1  0.00309077  0.12368716  0.66551989  1
  Pr  Pr43  1  0.50521680  0.37498379  0.83139002  1
  Pr  Pr44  1  0.83486672  0.36964836  0.83241088  1
  Pr  Pr45  1  0.49891042  0.87140907  0.49784895  1
  Pr  Pr46  1  0.83572362  0.37438689  0.16427508  1
  Pr  Pr47  1  -0.00269445  0.88004614  0.33849538  1
  Pr  Pr48  1  -0.00441528  0.37686004  0.66649436  1
  Pr  Pr49  1  0.49592339  0.12215983  0.49827342  1
  Pr  Pr50  1  0.66624323  0.37681207  0.66878792  1
  Pr  Pr51  1  0.17263182  0.37072473  0.16751871  1
  Pr  Pr52  1  0.82766927  0.37822701  0.49851705  1
  Pr  Pr53  1  0.00267659  0.62762215  0.99646041  1
  Pr  Pr54  1  0.49857929  0.87767259  0.16639724  1
  Pr  Pr55  1  0.66676601  0.12583626  0.32537484  1
  Pr  Pr56  1  0.66703919  0.37245957  0.33276377  1
  Pr  Pr57  1  0.00772874  0.12578510  0.32459682  1
  Pr  Pr58  1  0.16419161  0.62420297  0.50080827  1
  Pr  Pr59  1  0.33347696  0.87471189  0.66630382  1
  Pr  Pr60  1  0.00044030  0.87427585  0.00029315  1
  Pr  Pr61  1  0.82934803  0.87081005  0.49887652  1
  Pr  Pr62  1  0.50064267  0.12572156  0.84081518  1
  Pr  Pr63  1  0.66690553  0.62599343  0.99365984  1
  Pr  Pr64  1  0.16756668  0.37092298  0.82588759  1
  Pr  Pr65  1  0.83469941  0.87600306  0.16565823  1
  Pr  Pr66  1  0.66566943  0.62371924  0.33524274  1
  Pr  Pr67  1  0.66770894  0.37623623  0.00310333  1
  Pr  Pr68  1  0.83197224  0.12504096  0.49901306  1
  Pr  Pr69  1  -0.00020356  0.62699626  0.65927964  1
  Pr  Pr70  1  0.16592150  0.12330389  0.83691302  1
  Pr  Pr71  1  0.66743705  0.87294039  0.66959801  1
  Mn  Mn72  1  0.00096532  -0.00346243  0.16804714  1
  Mn  Mn73  1  -0.00364302  0.00255072  0.49821311  1
  Mn  Mn74  1  0.00068236  -0.00045920  0.83238110  1
  Mn  Mn75  1  -0.00053598  0.50143442  0.16542948  1
  Mn  Mn76  1  -0.00422744  0.49970383  0.50077055  1
  Mn  Mn77  1  -0.00140733  0.49910530  0.83369037  1
  Mn  Mn78  1  0.33655575  -0.00171693  0.16504710  1
  Mn  Mn79  1  0.33147704  0.00114614  0.50102257  1
  Mn  Mn80  1  0.33689634  0.00036552  0.83188220  1
  Mn  Mn81  1  0.33510461  0.50169685  0.16696501  1
  Mn  Mn82  1  0.33260182  0.50032670  0.50197093  1
  Mn  Mn83  1  0.33305929  0.49866540  0.83502679  1
  Mn  Mn84  1  0.66684468  0.00008628  0.16755338  1
  Mn  Mn85  1  0.66478603  0.00375766  0.50166975  1
  Mn  Mn86  1  0.66683279  0.00096127  0.83221177  1
  Mn  Mn87  1  0.66813992  0.50155563  0.16604033  1
  Mn  Mn88  1  0.66459777  0.49798699  0.49920629  1
  Mn  Mn89  1  0.66957818  0.49920493  0.83508559  1
  Mn  Mn90  1  0.00069783  0.25266985  0.16718951  1
  Mn  Mn91  1  -0.00474212  0.24554274  0.49964156  1
  Mn  Mn92  1  0.00055491  0.25217600  0.83178045  1
  Mn  Mn93  1  -0.00078888  0.74793492  0.16654984  1
  Mn  Mn94  1  -0.00337730  0.75099583  0.49839372  1
  Mn  Mn95  1  -0.00060215  0.75000575  0.83215065  1
  Mn  Mn96  1  0.33668382  0.25120871  0.16534986  1
  Mn  Mn97  1  0.33348183  0.24772581  0.50129400  1
  Mn  Mn98  1  0.33501081  0.24905246  0.83089844  1
  Mn  Mn99  1  0.33553116  0.74642934  0.16626014  1
  Mn  Mn100  1  0.33059818  0.75035062  0.50128933  1
  Mn  Mn101  1  0.33453862  0.75316161  0.83493610  1
  Mn  Mn102  1  0.66817388  0.25134693  0.16665240  1
  Mn  Mn103  1  0.66454543  0.24848399  0.49902767  1
  Mn  Mn104  1  0.66778049  0.24996363  0.83361201  1
  Mn  Mn105  1  0.66710188  0.74786005  0.16706337  1
  Mn  Mn106  1  0.66553299  0.75052602  0.50118934  1
  Mn  Mn107  1  0.66845883  0.75041115  0.83407685  1
  Mn  Mn108  1  0.16905550  0.25099474  -0.00357064  1
  Mn  Mn109  1  0.16675305  0.25080068  0.33185028  1
  Mn  Mn110  1  0.16525369  0.24732167  0.66432953  1
  Mn  Mn111  1  0.16683977  0.75028514  -0.00170374  1
  Mn  Mn112  1  0.16421677  0.74747374  0.33303499  1
  Mn  Mn113  1  0.16570282  0.75280332  0.66391763  1
  Mn  Mn114  1  0.50254839  0.24930607  0.00011871  1
  Mn  Mn115  1  0.50196136  0.25159724  0.33404694  1
  Mn  Mn116  1  0.49997374  0.24825316  0.66786329  1
  Mn  Mn117  1  0.50159518  0.75003606  0.00118677  1
  Mn  Mn118  1  0.50066908  0.74689253  0.33424706  1
  Mn  Mn119  1  0.49928039  0.75363519  0.66569356  1
  Mn  Mn120  1  0.83398166  0.25134554  -0.00189970  1
  Mn  Mn121  1  0.83198142  0.25121170  0.33531568  1
  Mn  Mn122  1  0.83267784  0.24793561  0.66708231  1
  Mn  Mn123  1  0.83566721  0.74889274  0.00252109  1
  Mn  Mn124  1  0.83271062  0.74715356  0.33442339  1
  Mn  Mn125  1  0.83226886  0.75109048  0.66747219  1
  Mn  Mn126  1  0.16918214  -0.00074264  -0.00359375  1
  Mn  Mn127  1  0.16596610  -0.00236972  0.33259892  1
  Mn  Mn128  1  0.16729770  0.00110428  0.66414247  1
  Mn  Mn129  1  0.16627828  0.49906394  0.00009155  1
  Mn  Mn130  1  0.16611725  0.50395932  0.33315332  1
  Mn  Mn131  1  0.16416233  0.49872762  0.66458351  1
  Mn  Mn132  1  0.50053919  0.00152278  0.00052408  1
  Mn  Mn133  1  0.50148526  -0.00119480  0.33377047  1
  Mn  Mn134  1  0.50100977  0.00238766  0.66814439  1
  Mn  Mn135  1  0.50254940  0.49865944  0.00101136  1
  Mn  Mn136  1  0.50144931  0.50202670  0.33426730  1
  Mn  Mn137  1  0.49832905  0.49656055  0.66552540  1
  Mn  Mn138  1  0.83434032  -0.00044001  0.00056603  1
  Mn  Mn139  1  0.83220984  -0.00020767  0.33614666  1
  Mn  Mn140  1  0.83042620  0.00452446  0.66691796  1
  Mn  Mn141  1  0.83501786  0.50100976  0.00044810  1
  Mn  Mn142  1  0.83151370  0.50190341  0.33404530  1
  Mn  Mn143  1  0.83308273  0.49730268  0.66823199  1
  O  O144  1  0.17056943  0.12470900  0.00719398  1
  O  O145  1  0.15776640  0.12261374  0.34385578  1
  O  O146  1  0.16037206  0.12507938  0.69298107  1
  O  O147  1  0.16106037  0.62319400  0.02008632  1
  O  O148  1  0.15776099  0.62639700  0.35349051  1
  O  O149  1  0.15345589  0.62432897  0.67503779  1
  O  O150  1  0.49446373  0.12535582  0.01733501  1
  O  O151  1  0.50956713  0.12837330  0.35430432  1
  O  O152  1  0.49675526  0.12616222  0.69830521  1
  O  O153  1  0.50246033  0.62209511  0.02007764  1
  O  O154  1  0.50943268  0.62356115  0.36078843  1
  O  O155  1  0.49572716  0.62360079  0.67072871  1
  O  O156  1  0.83003086  0.12634044  0.00751066  1
  O  O157  1  0.82357299  0.12618570  0.35599260  1
  O  O158  1  0.82326048  0.12801449  0.69823464  1
  O  O159  1  0.83445626  0.62364481  0.02737418  1
  O  O160  1  0.83156784  0.62400452  0.35616560  1
  O  O161  1  0.83654249  0.61940572  0.69054950  1
  O  O162  1  0.16675937  0.38207740  0.31536271  1
  O  O163  1  0.17376817  0.37106692  0.65196283  1
  O  O164  1  0.16253837  0.37590028  0.97155245  1
  O  O165  1  0.15911920  0.87047338  0.32691203  1
  O  O166  1  0.17704321  0.88013557  0.64481908  1
  O  O167  1  0.17349571  0.87612299  0.97531337  1
  O  O168  1  0.50747615  0.37965051  0.31074397  1
  O  O169  1  0.51097198  0.36850331  0.64345489  1
  O  O170  1  0.51090804  0.37329597  0.97569994  1
  O  O171  1  0.50091558  0.86832306  0.31130894  1
  O  O172  1  0.50982558  0.88277114  0.64120792  1
  O  O173  1  0.49515516  0.87852887  0.97536979  1
  O  O174  1  0.82683763  0.37979625  0.30869454  1
  O  O175  1  0.83935353  0.37007096  0.64089141  1
  O  O176  1  0.83466085  0.37831216  0.97470154  1
  O  O177  1  0.83847138  0.87025021  0.30998120  1
  O  O178  1  0.82746182  0.88420873  0.64195025  1
  O  O179  1  0.84189200  0.87168910  0.97713062  1
  O  O180  1  -0.00685682  0.37911791  0.17977546  1
  O  O181  1  -0.00847832  0.36910115  0.52362071  1
  O  O182  1  -0.00428257  0.37603767  0.85985639  1
  O  O183  1  -0.00848907  0.86766971  0.19403187  1
  O  O184  1  -0.00460905  0.87696440  0.51015310  1
  O  O185  1  -0.00526904  0.87250261  0.85439232  1
  O  O186  1  0.33195626  0.37987421  0.17678755  1
  O  O187  1  0.33300411  0.36852408  0.52232613  1
  O  O188  1  0.31926520  0.37122973  0.84395247  1
  O  O189  1  0.34032985  0.87058435  0.17531139  1
  O  O190  1  0.33020610  0.87985183  0.52052123  1
  O  O191  1  0.33204551  0.87958018  0.86051095  1
  O  O192  1  0.66878665  0.37933203  0.19036527  1
  O  O193  1  0.66490223  0.37028982  0.52663419  1
  O  O194  1  0.66434146  0.37335605  0.85804676  1
  O  O195  1  0.66606767  0.87135936  0.17826993  1
  O  O196  1  0.66468808  0.88327313  0.52657424  1
  O  O197  1  0.66274279  0.87608022  0.84516422  1
  O  O198  1  0.00155438  0.12714873  0.16090369  1
  O  O199  1  -0.01559899  0.12378457  0.47061044  1
  O  O200  1  0.00224537  0.12879318  0.81085716  1
  O  O201  1  -0.00626541  0.62400112  0.13708894  1
  O  O202  1  -0.00336570  0.62752856  0.48239699  1
  O  O203  1  -0.00503399  0.62317800  0.80483951  1
  O  O204  1  0.33976817  0.12335043  0.14550114  1
  O  O205  1  0.34375981  0.12441275  0.48768443  1
  O  O206  1  0.34612980  0.12458845  0.80421251  1
  O  O207  1  0.33862925  0.62340470  0.13820268  1
  O  O208  1  0.34806616  0.62588191  0.49398292  1
  O  O209  1  0.33658862  0.62621207  0.82534560  1
  O  O210  1  0.66546401  0.12819250  0.15186044  1
  O  O211  1  0.66720864  0.12761860  0.46905099  1
  O  O212  1  0.66946469  0.12668234  0.80911198  1
  O  O213  1  0.67266197  0.62247214  0.13639034  1
  O  O214  1  0.66334445  0.62001381  0.48073956  1
  O  O215  1  0.67651660  0.62491551  0.82133210  1
  O  O216  1  0.08019960  0.00547988  0.25182862  1
  O  O217  1  0.08010410  0.02589663  0.57722389  1
  O  O218  1  0.09105814  0.00872796  0.90837030  1
  O  O219  1  0.08114107  0.52340495  0.24545565  1
  O  O220  1  0.07693665  0.51338287  0.58484629  1
  O  O221  1  0.07502984  0.51451753  0.92354789  1
  O  O222  1  0.42496450  0.00568218  0.24300379  1
  O  O223  1  0.41558928  0.01869019  0.59158726  1
  O  O224  1  0.41601893  0.02408530  0.91639627  1
  O  O225  1  0.41940793  0.51977144  0.25256143  1
  O  O226  1  0.41035874  0.49473013  0.59185794  1
  O  O227  1  0.41775317  0.50950962  0.92323142  1
  O  O228  1  0.74932484  0.01174078  0.25630160  1
  O  O229  1  0.74664032  0.03025367  0.58514989  1
  O  O230  1  0.75314305  0.01190427  0.90812638  1
  O  O231  1  0.74799844  0.52544598  0.24957820  1
  O  O232  1  0.74973581  0.50248473  0.58318228  1
  O  O233  1  0.75268198  0.52004628  0.92250578  1
  O  O234  1  0.24903210  0.24892469  0.24673014  1
  O  O235  1  0.24699069  0.22278758  0.58351501  1
  O  O236  1  0.25556504  0.22397713  0.91221674  1
  O  O237  1  0.24962493  0.72922941  0.24454848  1
  O  O238  1  0.24286384  0.73449020  0.57876806  1
  O  O239  1  0.25199655  0.73689051  0.91730064  1
  O  O240  1  0.58908907  0.23950084  0.25454562  1
  O  O241  1  0.58126596  0.22237416  0.58252246  1
  O  O242  1  0.58348828  0.22968706  0.91428504  1
  O  O243  1  0.58701914  0.72310358  0.25094874  1
  O  O244  1  0.57570955  0.73946023  0.57706626  1
  O  O245  1  0.58714290  0.73634517  0.92111118  1
  O  O246  1  0.91873116  0.23789575  0.26037413  1
  O  O247  1  0.91680170  0.22028744  0.59020356  1
  O  O248  1  0.91417515  0.23677590  0.90934881  1
  O  O249  1  0.91588430  0.72333945  0.24813292  1
  O  O250  1  0.91621690  0.73437124  0.58589973  1
  O  O251  1  0.91763545  0.72595811  0.92039435  1
  O  O252  1  0.08458722  0.47750817  0.08442680  1
  O  O253  1  0.07876226  0.49844929  0.41699238  1
  O  O254  1  0.08254182  0.47384253  0.74934325  1
  O  O255  1  0.08142400  0.98088521  0.07416338  1
  O  O256  1  0.07339993  0.99224656  0.41109493  1
  O  O257  1  0.08782215  0.98573660  0.75050921  1
  O  O258  1  0.42869341  0.48576813  0.09144079  1
  O  O259  1  0.42527011  0.48849013  0.42816697  1
  O  O260  1  0.42025638  0.47330582  0.75307871  1
  O  O261  1  0.41708841  0.97764861  0.07883947  1
  O  O262  1  0.42022955  0.98650670  0.42478316  1
  O  O263  1  0.42096851  0.97130719  0.75226124  1
  O  O264  1  0.75443322  0.47601872  0.08531315  1
  O  O265  1  0.74532203  0.47788218  0.41598760  1
  O  O266  1  0.75255312  0.47269082  0.75115955  1
  O  O267  1  0.75599523  0.98524277  0.08788549  1
  O  O268  1  0.75435295  0.98393070  0.42720445  1
  O  O269  1  0.74636676  0.97964187  0.74577414  1
  O  O270  1  0.24723508  0.26280263  0.08186240  1
  O  O271  1  0.24652454  0.24863151  0.41906958  1
  O  O272  1  0.24987832  0.25972935  0.74843278  1
  O  O273  1  0.25729307  0.75668614  0.07567843  1
  O  O274  1  0.24710929  0.74929170  0.42176475  1
  O  O275  1  0.25543288  0.77309526  0.74940256  1
  O  O276  1  0.58858220  0.27262595  0.08327002  1
  O  O277  1  0.58440204  0.27494358  0.41756508  1
  O  O278  1  0.58513584  0.27017946  0.75067036  1
  O  O279  1  0.57975591  0.75952607  0.09021477  1
  O  O280  1  0.57985022  0.76392185  0.42083868  1
  O  O281  1  0.58248670  0.76887853  0.74623144  1
  O  O282  1  0.91672314  0.27065312  0.08269017  1
  O  O283  1  0.90235585  0.26484017  0.42950658  1
  O  O284  1  0.91740743  0.27204961  0.75055637  1
  O  O285  1  0.91816069  0.77365774  0.08327602  1
  O  O286  1  0.91360783  0.77005751  0.41658008  1
  O  O287  1  0.91008542  0.76491336  0.75760751  1
  O  O288  1  0.24292333  0.48838003  0.08858520  1
  O  O289  1  0.25218853  0.50340762  0.41794902  1
  O  O290  1  0.24888171  0.48362645  0.74638331  1
  O  O291  1  0.25938019  0.98930629  0.07061893  1
  O  O292  1  0.24003926  0.99761873  0.42267506  1
  O  O293  1  0.25708031  0.98372525  0.74837678  1
  O  O294  1  0.58873041  0.47799445  0.08289949  1
  O  O295  1  0.58849823  0.47727908  0.41139984  1
  O  O296  1  0.58413281  0.47894422  0.74707015  1
  O  O297  1  0.57661149  0.98677956  0.08854835  1
  O  O298  1  0.57714584  0.98586411  0.42780600  1
  O  O299  1  0.58398849  0.98284173  0.74876155  1
  O  O300  1  0.91736492  0.47829125  0.07985713  1
  O  O301  1  0.90757036  0.48526449  0.42621637  1
  O  O302  1  0.91488349  0.47307193  0.75274076  1
  O  O303  1  0.91905744  0.97691881  0.08753155  1
  O  O304  1  0.90926197  0.97778242  0.42229681  1
  O  O305  1  0.90920897  0.99200977  0.75487091  1
  O  O306  1  0.08411629  0.27338968  0.07957862  1
  O  O307  1  0.07803908  0.24909010  0.41545121  1
  O  O308  1  0.07911982  0.27351870  0.74445444  1
  O  O309  1  0.07767703  0.76471535  0.07698279  1
  O  O310  1  0.07164457  0.76074190  0.41031272  1
  O  O311  1  0.08899926  0.76930537  0.75190250  1
  O  O312  1  0.42522829  0.26563594  0.08545316  1
  O  O313  1  0.42546964  0.26228879  0.42552365  1
  O  O314  1  0.41831102  0.27893228  0.75043870  1
  O  O315  1  0.42178098  0.76777497  0.08514544  1
  O  O316  1  0.42053008  0.76182373  0.42472687  1
  O  O317  1  0.41969375  0.77751680  0.75327452  1
  O  O318  1  0.75170666  0.27484353  0.08325616  1
  O  O319  1  0.74653044  0.27528533  0.41662044  1
  O  O320  1  0.74835882  0.27609824  0.74646259  1
  O  O321  1  0.76015667  0.76308603  0.09277908  1
  O  O322  1  0.75150666  0.76330062  0.42342584  1
  O  O323  1  0.75148280  0.77169224  0.75187586  1
  O  O324  1  0.25243316  0.00330743  0.24818078  1
  O  O325  1  0.24899566  0.02812198  0.58383117  1
  O  O326  1  0.25293445  0.02442604  0.90875629  1
  O  O327  1  0.24781013  0.52041132  0.24679645  1
  O  O328  1  0.24075976  0.51569142  0.57770780  1
  O  O329  1  0.25225751  0.51703073  0.92337682  1
  O  O330  1  0.58831410  0.01555917  0.25502881  1
  O  O331  1  0.58222063  0.03195826  0.58611884  1
  O  O332  1  0.58085153  0.01846553  0.91314447  1
  O  O333  1  0.58551179  0.52524586  0.24616270  1
  O  O334  1  0.57258586  0.51008570  0.57237269  1
  O  O335  1  0.59002380  0.51358265  0.92266331  1
  O  O336  1  0.92056569  0.01247016  0.26340724  1
  O  O337  1  0.91400176  0.02742745  0.58721213  1
  O  O338  1  0.91627959  0.01210468  0.91489333  1
  O  O339  1  0.91516567  0.52197508  0.24803774  1
  O  O340  1  0.91934799  0.51545233  0.59255908  1
  O  O341  1  0.91438765  0.52564625  0.91727063  1
  O  O342  1  0.08406789  0.24612062  0.24793437  1
  O  O343  1  0.08015110  0.22361071  0.58061071  1
  O  O344  1  0.09249673  0.23927691  0.90377989  1
  O  O345  1  0.08145524  0.72403087  0.24351510  1
  O  O346  1  0.07896787  0.73348480  0.57751003  1
  O  O347  1  0.07743840  0.73897064  0.91898853  1
  O  O348  1  0.42474793  0.24528088  0.24890466  1
  O  O349  1  0.41496241  0.22990757  0.59066608  1
  O  O350  1  0.41917815  0.23366338  0.91281196  1
  O  O351  1  0.42123604  0.72762061  0.24848478  1
  O  O352  1  0.41406134  0.75365252  0.58710136  1
  O  O353  1  0.41207390  0.73898703  0.92463132  1
  O  O354  1  0.74772245  0.23997262  0.25452849  1
  O  O355  1  0.74831029  0.22775772  0.58061387  1
  O  O356  1  0.75329763  0.23721801  0.91011664  1
  O  O357  1  0.74856612  0.72545990  0.25290968  1
  O  O358  1  0.74831537  0.74531890  0.58532633  1
  O  O359  1  0.75417787  0.73122989  0.92216719  1
