# generated using pymatgen
data_Ba17Sr5La8Pr42Mn72O216
_symmetry_space_group_name_H-M   'P 1'
_cell_length_a   16.66748429
_cell_length_b   15.70557009
_cell_length_c   16.81210573
_cell_angle_alpha   89.99892981
_cell_angle_beta   90.01510904
_cell_angle_gamma   90.00068237
_symmetry_Int_Tables_number   1
_chemical_formula_structural   Ba17Sr5La8Pr42Mn72O216
_chemical_formula_sum   'Ba17 Sr5 La8 Pr42 Mn72 O216'
_cell_volume   4400.94414637
_cell_formula_units_Z   1
loop_
 _symmetry_equiv_pos_site_id
 _symmetry_equiv_pos_as_xyz
  1  'x, y, z'
loop_
 _atom_site_type_symbol
 _atom_site_label
 _atom_site_symmetry_multiplicity
 _atom_site_fract_x
 _atom_site_fract_y
 _atom_site_fract_z
 _atom_site_occupancy
  Ba  Ba0  1  0.66731410  0.37629263  0.66892353  1
  Ba  Ba1  1  -0.00051046  0.62668627  0.66193789  1
  Ba  Ba2  1  0.33139253  0.87419416  0.66756058  1
  Ba  Ba3  1  0.83377131  0.87365731  0.16255464  1
  Ba  Ba4  1  0.83328979  0.87527207  0.83111059  1
  Ba  Ba5  1  0.50069313  0.37639912  0.50194966  1
  Ba  Ba6  1  0.49982116  0.12552633  0.83786098  1
  Ba  Ba7  1  0.66770827  0.12510003  0.33086929  1
  Ba  Ba8  1  0.33202724  0.37583754  0.66889617  1
  Ba  Ba9  1  0.33449445  0.12475963  1.00196778  1
  Ba  Ba10  1  0.83443674  0.37437562  0.83058256  1
  Ba  Ba11  1  0.49765490  0.37603970  0.83213018  1
  Ba  Ba12  1  0.33298620  0.12562246  0.33252885  1
  Ba  Ba13  1  0.83486441  0.12338122  0.16669601  1
  Ba  Ba14  1  0.00085477  0.37532669  -0.00051738  1
  Ba  Ba15  1  0.33363851  0.62436400  0.33152342  1
  Ba  Ba16  1  0.49930607  0.12515273  0.17047257  1
  Sr  Sr17  1  -0.00164808  0.12446800  0.32671136  1
  Sr  Sr18  1  0.50083245  0.62543990  0.17199384  1
  Sr  Sr19  1  0.33526026  0.37553587  0.33833436  1
  Sr  Sr20  1  -0.00170517  0.12518118  0.99847440  1
  Sr  Sr21  1  0.16493518  0.62281666  0.16941965  1
  La  La22  1  0.16428045  0.87745442  0.83375664  1
  La  La23  1  0.66256825  0.87556359  0.00455608  1
  La  La24  1  0.00067682  0.37443312  0.66958643  1
  La  La25  1  0.49901588  0.87448885  0.49813680  1
  La  La26  1  0.16306944  0.12799018  0.16962053  1
  La  La27  1  -0.00115463  0.62588524  0.33085481  1
  La  La28  1  0.17015458  0.62435661  0.50310722  1
  La  La29  1  0.33558509  0.12586255  0.66669760  1
  Pr  Pr30  1  0.83404469  0.62199051  0.83197622  1
  Pr  Pr31  1  0.33519433  0.37339992  0.00134584  1
  Pr  Pr32  1  0.83189416  0.62480225  0.50182703  1
  Pr  Pr33  1  0.16706228  0.12531514  0.83814449  1
  Pr  Pr34  1  0.66233350  0.87581764  0.67077424  1
  Pr  Pr35  1  0.16741198  0.37641951  0.49653783  1
  Pr  Pr36  1  0.16935487  0.62587611  0.83556966  1
  Pr  Pr37  1  0.66714293  0.62336968  0.33195887  1
  Pr  Pr38  1  0.00054568  0.87555652  0.66600066  1
  Pr  Pr39  1  0.50078620  0.62379417  0.50407902  1
  Pr  Pr40  1  0.16572477  0.87321488  0.49559173  1
  Pr  Pr41  1  0.67157908  0.62758391  0.99825636  1
  Pr  Pr42  1  0.49459965  0.37556948  0.17150511  1
  Pr  Pr43  1  0.33627804  0.62530383  1.00243239  1
  Pr  Pr44  1  0.17433167  0.37653927  0.16759851  1
  Pr  Pr45  1  0.66582797  0.12731167  0.66664353  1
  Pr  Pr46  1  0.00193381  0.87905542  0.32920113  1
  Pr  Pr47  1  0.33538671  0.87669166  0.00218630  1
  Pr  Pr48  1  0.66923372  0.12446200  0.99952428  1
  Pr  Pr49  1  0.66835241  0.87792236  0.33279895  1
  Pr  Pr50  1  0.66716623  0.37130579  0.33694753  1
  Pr  Pr51  1  0.82934500  0.12715684  0.83561040  1
  Pr  Pr52  1  0.66903398  0.62351905  0.66751768  1
  Pr  Pr53  1  0.83614203  0.87218250  0.49305066  1
  Pr  Pr54  1  0.49389609  0.87542337  0.83339285  1
  Pr  Pr55  1  0.49789753  0.87435043  0.17017503  1
  Pr  Pr56  1  0.66259988  0.37530274  0.00219535  1
  Pr  Pr57  1  -0.00530180  0.12234254  0.66423431  1
  Pr  Pr58  1  0.33540718  0.87368628  0.33628906  1
  Pr  Pr59  1  0.83213317  0.12373818  0.49628511  1
  Pr  Pr60  1  0.83085828  0.37085443  0.16137940  1
  Pr  Pr61  1  0.17090624  0.87382884  0.16518919  1
  Pr  Pr62  1  0.16587784  0.37181401  0.83236422  1
  Pr  Pr63  1  0.00278790  0.87650737  0.00422062  1
  Pr  Pr64  1  0.50139418  0.12772431  0.50427962  1
  Pr  Pr65  1  0.16584638  0.12572239  0.50157937  1
  Pr  Pr66  1  0.83656178  0.37666087  0.49601693  1
  Pr  Pr67  1  0.50185231  0.62315572  0.83562359  1
  Pr  Pr68  1  0.33647769  0.62496207  0.66421560  1
  Pr  Pr69  1  0.83491173  0.62251805  0.16542916  1
  Pr  Pr70  1  0.00043904  0.62741128  0.99296633  1
  Pr  Pr71  1  0.00280256  0.37145391  0.33032110  1
  Mn  Mn72  1  0.00229985  -0.00061418  0.16512389  1
  Mn  Mn73  1  -0.00028999  0.00134284  0.49728051  1
  Mn  Mn74  1  0.00021632  0.00030557  0.83281432  1
  Mn  Mn75  1  0.00035050  0.50084677  0.16557413  1
  Mn  Mn76  1  0.00054701  0.49780309  0.49656959  1
  Mn  Mn77  1  0.00190324  0.50100949  0.83097616  1
  Mn  Mn78  1  0.33170899  -0.00207660  0.16875821  1
  Mn  Mn79  1  0.33223414  -0.00066856  0.50017048  1
  Mn  Mn80  1  0.33107209  -0.00140498  0.83412473  1
  Mn  Mn81  1  0.33340119  0.50054998  0.16782556  1
  Mn  Mn82  1  0.33349157  0.50120731  0.50055165  1
  Mn  Mn83  1  0.33046713  0.50438908  0.83496347  1
  Mn  Mn84  1  0.66548120  -0.00222699  0.16668842  1
  Mn  Mn85  1  0.66831449  -0.00158666  0.50271902  1
  Mn  Mn86  1  0.66578037  -0.00229582  0.83414019  1
  Mn  Mn87  1  0.66627814  0.50140169  0.16816351  1
  Mn  Mn88  1  0.66934841  0.50107439  0.49887942  1
  Mn  Mn89  1  0.66678885  0.50351891  0.83486103  1
  Mn  Mn90  1  0.00079206  0.25146956  0.16653473  1
  Mn  Mn91  1  -0.00052645  0.24761929  0.49899896  1
  Mn  Mn92  1  0.00112429  0.24778916  0.83110922  1
  Mn  Mn93  1  0.00213778  0.74739340  0.16350947  1
  Mn  Mn94  1  0.00041081  0.75167328  0.49524713  1
  Mn  Mn95  1  0.00028625  0.75082236  0.83118500  1
  Mn  Mn96  1  0.33258605  0.25222255  0.16897923  1
  Mn  Mn97  1  0.33219608  0.24794972  0.50059001  1
  Mn  Mn98  1  0.33115560  0.24990873  0.83467551  1
  Mn  Mn99  1  0.33289443  0.74972329  0.16737075  1
  Mn  Mn100  1  0.33291695  0.75045470  0.50066575  1
  Mn  Mn101  1  0.33147913  0.74851292  0.83520934  1
  Mn  Mn102  1  0.66552669  0.25368577  0.16757915  1
  Mn  Mn103  1  0.66877866  0.24913674  0.50006871  1
  Mn  Mn104  1  0.66688431  0.24977949  0.83389671  1
  Mn  Mn105  1  0.66596606  0.74663185  0.16701211  1
  Mn  Mn106  1  0.66815846  0.75055762  0.50127739  1
  Mn  Mn107  1  0.66533176  0.75087640  0.83386042  1
  Mn  Mn108  1  0.16693296  0.25115174  0.00111609  1
  Mn  Mn109  1  0.16474914  0.25000466  0.33455091  1
  Mn  Mn110  1  0.16440479  0.24694443  0.66716244  1
  Mn  Mn111  1  0.16819255  0.74833833  0.00132955  1
  Mn  Mn112  1  0.16448439  0.75010300  0.33160498  1
  Mn  Mn113  1  0.16571439  0.75173793  0.66713829  1
  Mn  Mn114  1  0.50124163  0.25349080  0.00305366  1
  Mn  Mn115  1  0.50044972  0.25143545  0.33597091  1
  Mn  Mn116  1  0.50000019  0.24873093  0.66897077  1
  Mn  Mn117  1  0.49955983  0.74722952  0.00229775  1
  Mn  Mn118  1  0.50303457  0.74967601  0.33494575  1
  Mn  Mn119  1  0.50120128  0.75035562  0.66842529  1
  Mn  Mn120  1  0.83248272  0.25010446  -0.00157748  1
  Mn  Mn121  1  0.83587184  0.25194832  0.33111696  1
  Mn  Mn122  1  0.83419869  0.24599505  0.66387109  1
  Mn  Mn123  1  0.83446531  0.74975047  -0.00295104  1
  Mn  Mn124  1  0.83383036  0.74849259  0.33106468  1
  Mn  Mn125  1  0.83152133  0.75243936  0.66308384  1
  Mn  Mn126  1  0.16677567  -0.00027072  0.00080071  1
  Mn  Mn127  1  0.16513043  -0.00090706  0.33199494  1
  Mn  Mn128  1  0.16395479  0.00081530  0.66697687  1
  Mn  Mn129  1  0.16840821  0.50220936  0.00153839  1
  Mn  Mn130  1  0.16448264  0.50031221  0.33359736  1
  Mn  Mn131  1  0.16664075  0.50043931  0.66728072  1
  Mn  Mn132  1  0.50091321  -0.00212676  0.00199360  1
  Mn  Mn133  1  0.50116903  -0.00335134  0.33557094  1
  Mn  Mn134  1  0.50033526  -0.00094727  0.66797300  1
  Mn  Mn135  1  0.49995905  0.50231217  0.00395002  1
  Mn  Mn136  1  0.50224066  0.50173983  0.33468341  1
  Mn  Mn137  1  0.50037913  0.50293132  0.66933007  1
  Mn  Mn138  1  0.83413228  0.00046550  -0.00362779  1
  Mn  Mn139  1  0.83461469  -0.00285844  0.33171069  1
  Mn  Mn140  1  0.83193754  -0.00047035  0.66298739  1
  Mn  Mn141  1  0.83257877  0.50004955  0.00049938  1
  Mn  Mn142  1  0.83514319  0.50122922  0.33087716  1
  Mn  Mn143  1  0.83404079  0.50122558  0.66415175  1
  O  O144  1  0.16532867  0.12193630  0.02548773  1
  O  O145  1  0.16216026  0.12218076  0.35617071  1
  O  O146  1  0.15913591  0.12275697  0.69421736  1
  O  O147  1  0.16294238  0.62648053  0.02318450  1
  O  O148  1  0.15658168  0.62606533  0.35902908  1
  O  O149  1  0.16938021  0.62949452  0.68943988  1
  O  O150  1  0.50800845  0.12824363  0.01411332  1
  O  O151  1  0.50157393  0.11829829  0.35686011  1
  O  O152  1  0.50587028  0.12005717  0.67846904  1
  O  O153  1  0.49386278  0.62490465  0.02596211  1
  O  O154  1  0.50918323  0.62838680  0.35979330  1
  O  O155  1  0.50375840  0.63015860  0.68964044  1
  O  O156  1  0.82782040  0.12516371  0.00982010  1
  O  O157  1  0.83892033  0.12076803  0.35248105  1
  O  O158  1  0.83781235  0.12043121  0.69061124  1
  O  O159  1  0.83381352  0.62468848  0.02169488  1
  O  O160  1  0.83722222  0.62547600  0.36023686  1
  O  O161  1  0.83038193  0.63151611  0.68716982  1
  O  O162  1  0.16160837  0.37677465  0.31354348  1
  O  O163  1  0.16069445  0.36929135  0.64041690  1
  O  O164  1  0.17537470  0.38072783  0.97496927  1
  O  O165  1  0.16085481  0.87418873  0.30896260  1
  O  O166  1  0.15862661  0.87720494  0.63970469  1
  O  O167  1  0.16721813  0.87175492  0.97664362  1
  O  O168  1  0.50729726  0.38111238  0.31857428  1
  O  O169  1  0.49894006  0.37939385  0.66015616  1
  O  O170  1  0.50133268  0.38060391  0.98638784  1
  O  O171  1  0.50503353  0.87085919  0.31540599  1
  O  O172  1  0.50589984  0.87273620  0.64328118  1
  O  O173  1  0.50251394  0.86733356  0.97527054  1
  O  O174  1  0.83046794  0.38293910  0.30611916  1
  O  O175  1  0.83887969  0.36972794  0.64135095  1
  O  O176  1  0.82532278  0.37727908  0.98679001  1
  O  O177  1  0.82776743  0.87057259  0.31896558  1
  O  O178  1  0.82900332  0.87696916  0.63700053  1
  O  O179  1  0.83626350  0.87414798  0.98708129  1
  O  O180  1  -0.00522822  0.37959144  0.18702850  1
  O  O181  1  -0.00206959  0.36787554  0.52760643  1
  O  O182  1  0.00579801  0.37516266  0.84263711  1
  O  O183  1  0.00682472  0.87088561  0.18513898  1
  O  O184  1  -0.00135436  0.87785611  0.52373307  1
  O  O185  1  0.00459061  0.87513965  0.85987102  1
  O  O186  1  0.32919018  0.37779514  0.18676252  1
  O  O187  1  0.32470370  0.37452697  0.51152660  1
  O  O188  1  0.32491731  0.38248012  0.85544190  1
  O  O189  1  0.32778873  0.87251358  0.19051086  1
  O  O190  1  0.32979930  0.87481381  0.51272426  1
  O  O191  1  0.33421817  0.87038612  0.85735407  1
  O  O192  1  0.67551047  0.38260544  0.19317046  1
  O  O193  1  0.67944288  0.37512498  0.51230074  1
  O  O194  1  0.66789884  0.38155077  0.85531683  1
  O  O195  1  0.66329934  0.86671537  0.18753560  1
  O  O196  1  0.67661672  0.87322900  0.52939661  1
  O  O197  1  0.66196292  0.87200576  0.86014389  1
  O  O198  1  0.00906581  0.12470237  0.15063946  1
  O  O199  1  0.00133400  0.12451591  0.47312532  1
  O  O200  1  0.00837436  0.12329754  0.80762832  1
  O  O201  1  0.00009641  0.62365205  0.13786166  1
  O  O202  1  0.00007539  0.62856718  0.47440375  1
  O  O203  1  0.00355241  0.62599376  0.81821152  1
  O  O204  1  0.32754726  0.12459576  0.15824643  1
  O  O205  1  0.33022923  0.12083263  0.48881756  1
  O  O206  1  0.32392242  0.12012882  0.81470444  1
  O  O207  1  0.33411449  0.62601373  0.14620803  1
  O  O208  1  0.33068523  0.62824383  0.48934385  1
  O  O209  1  0.32318480  0.62873881  0.80789632  1
  O  O210  1  0.66376126  0.12931023  0.14517098  1
  O  O211  1  0.65979182  0.12201089  0.48647311  1
  O  O212  1  0.67002079  0.11860010  0.81318156  1
  O  O213  1  0.66762027  0.62329480  0.14110894  1
  O  O214  1  0.66824648  0.62800269  0.47466524  1
  O  O215  1  0.66191832  0.63059786  0.81147633  1
  O  O216  1  0.08317655  0.01383803  0.25007854  1
  O  O217  1  0.07991124  0.02280515  0.58308227  1
  O  O218  1  0.08530803  0.01679004  0.91788544  1
  O  O219  1  0.07581362  0.51615177  0.25657931  1
  O  O220  1  0.09217608  0.51348515  0.57478066  1
  O  O221  1  0.08681049  0.52063820  0.91707976  1
  O  O222  1  0.41331640  -0.00329872  0.25324156  1
  O  O223  1  0.42115181  0.01739027  0.58300913  1
  O  O224  1  0.41761531  0.00013575  0.92010358  1
  O  O225  1  0.42275511  0.50814262  0.24574792  1
  O  O226  1  0.41969738  0.52352801  0.58461536  1
  O  O227  1  0.41524404  0.52570617  0.91534243  1
  O  O228  1  0.74864753  0.00266615  0.25155741  1
  O  O229  1  0.75140023  0.02740887  0.58163443  1
  O  O230  1  0.75203331  0.01800476  0.91019815  1
  O  O231  1  0.75199472  0.52812691  0.24981475  1
  O  O232  1  0.74915457  0.52345635  0.58307837  1
  O  O233  1  0.75022791  0.52739483  0.91663074  1
  O  O234  1  0.24058246  0.24101518  0.24363728  1
  O  O235  1  0.24706881  0.22399412  0.58764113  1
  O  O236  1  0.24325933  0.23611471  0.91392040  1
  O  O237  1  0.24344982  0.74022217  0.24744358  1
  O  O238  1  0.25081016  0.73248331  0.58888523  1
  O  O239  1  0.25220729  0.72595447  0.92209048  1
  O  O240  1  0.58444093  0.25118875  0.25017374  1
  O  O241  1  0.58342160  0.23297227  0.58286983  1
  O  O242  1  0.59266835  0.24240865  0.92914092  1
  O  O243  1  0.59056760  0.73043061  0.25779614  1
  O  O244  1  0.58713702  0.72869784  0.58446247  1
  O  O245  1  0.58446323  0.72512256  0.92270594  1
  O  O246  1  0.91961930  0.24553216  0.25215956  1
  O  O247  1  0.91357510  0.22129328  0.57634666  1
  O  O248  1  0.91522534  0.23206355  0.90693254  1
  O  O249  1  0.91575707  0.72740169  0.24124764  1
  O  O250  1  0.90925384  0.73883934  0.56798864  1
  O  O251  1  0.91611617  0.72751496  0.91138330  1
  O  O252  1  0.09132134  0.48219173  0.08983154  1
  O  O253  1  0.08116277  0.47429381  0.41646562  1
  O  O254  1  0.08335229  0.48040546  0.74558202  1
  O  O255  1  0.08852331  0.97561935  0.08462685  1
  O  O256  1  0.08464183  0.97556375  0.41788036  1
  O  O257  1  0.08128239  0.97536951  0.74854175  1
  O  O258  1  0.41355941  0.47924926  0.08181108  1
  O  O259  1  0.41927116  0.49607494  0.41835149  1
  O  O260  1  0.41134012  0.50411753  0.75045035  1
  O  O261  1  0.41657684  0.97582058  0.08621977  1
  O  O262  1  0.41962224  0.97548836  0.41683308  1
  O  O263  1  0.41661369  0.98563040  0.75357311  1
  O  O264  1  0.74587382  0.48318486  0.08330267  1
  O  O265  1  0.75778945  0.48360646  0.41659645  1
  O  O266  1  0.75047466  0.50095040  0.75207826  1
  O  O267  1  0.74068752  0.98861141  0.07397889  1
  O  O268  1  0.75217263  0.98052205  0.42023605  1
  O  O269  1  0.74032411  0.98403972  0.74067469  1
  O  O270  1  0.25391606  0.27281053  0.08124950  1
  O  O271  1  0.24309780  0.26164862  0.42192969  1
  O  O272  1  0.24187859  0.26196526  0.75493255  1
  O  O273  1  0.25214008  0.77131429  0.08064875  1
  O  O274  1  0.24544776  0.76915071  0.41542062  1
  O  O275  1  0.24018532  0.76763934  0.76054281  1
  O  O276  1  0.58136515  0.27914342  0.08881911  1
  O  O277  1  0.59075454  0.26430861  0.41552943  1
  O  O278  1  0.58643026  0.25386736  0.75110138  1
  O  O279  1  0.57846122  0.76896555  0.08731242  1
  O  O280  1  0.58598671  0.77513334  0.42300167  1
  O  O281  1  0.57955292  0.77379005  0.75497756  1
  O  O282  1  0.91154544  0.26286565  0.08500758  1
  O  O283  1  0.91844037  0.27513568  0.41618164  1
  O  O284  1  0.92551353  0.25771251  0.73677147  1
  O  O285  1  0.92835614  0.76113721  0.07239318  1
  O  O286  1  0.92212833  0.77234996  0.40852043  1
  O  O287  1  0.91816289  0.76932249  0.73824938  1
  O  O288  1  0.25320551  0.48097055  0.08091762  1
  O  O289  1  0.24185604  0.48936296  0.42264012  1
  O  O290  1  0.23857499  0.48705222  0.76180698  1
  O  O291  1  0.25267406  0.97568221  0.08045341  1
  O  O292  1  0.24839292  0.97653999  0.41149881  1
  O  O293  1  0.24223951  0.98393735  0.75320654  1
  O  O294  1  0.58334594  0.47778633  0.09092263  1
  O  O295  1  0.59487250  0.48787336  0.41190105  1
  O  O296  1  0.58232208  0.50009547  0.75362190  1
  O  O297  1  0.57863962  0.97470092  0.08725690  1
  O  O298  1  0.58599812  0.97289135  0.42233501  1
  O  O299  1  0.57896246  0.97455188  0.75623791  1
  O  O300  1  0.90905595  0.48719974  0.08952078  1
  O  O301  1  0.91995800  0.47546716  0.40800327  1
  O  O302  1  0.91909435  0.48921220  0.74127123  1
  O  O303  1  0.92616347  0.98799631  0.07492737  1
  O  O304  1  0.91779600  0.97539325  0.41508510  1
  O  O305  1  0.92185370  0.98357328  0.73566668  1
  O  O306  1  0.09290715  0.26787263  0.09109964  1
  O  O307  1  0.08315447  0.27316372  0.42077537  1
  O  O308  1  0.08465733  0.27010916  0.74844306  1
  O  O309  1  0.08788719  0.77205083  0.08371308  1
  O  O310  1  0.08200119  0.77662197  0.41457486  1
  O  O311  1  0.08082614  0.77389257  0.74648846  1
  O  O312  1  0.41742687  0.27247419  0.08658627  1
  O  O313  1  0.41849724  0.25503103  0.42076704  1
  O  O314  1  0.41039670  0.24936399  0.74819174  1
  O  O315  1  0.41461094  0.77424074  0.08049134  1
  O  O316  1  0.41802154  0.76935685  0.41587409  1
  O  O317  1  0.41876423  0.76221681  0.75637003  1
  O  O318  1  0.74275871  0.27109380  0.08083291  1
  O  O319  1  0.75708315  0.26533993  0.41849804  1
  O  O320  1  0.75373407  0.25103370  0.74826988  1
  O  O321  1  0.74224228  0.75915380  0.07463422  1
  O  O322  1  0.74951157  0.76891886  0.41912810  1
  O  O323  1  0.74061384  0.76587400  0.74037588  1
  O  O324  1  0.24012919  0.00995205  0.24215633  1
  O  O325  1  0.24374521  0.02082141  0.58480986  1
  O  O326  1  0.24396410  0.01077097  0.91334595  1
  O  O327  1  0.24316732  0.50998375  0.24742193  1
  O  O328  1  0.25366054  0.52045730  0.59140900  1
  O  O329  1  0.25223573  0.52991991  0.92144977  1
  O  O330  1  0.58322083  0.00023110  0.25305662  1
  O  O331  1  0.58847019  0.01272287  0.58845920  1
  O  O332  1  0.59354216  0.01088343  0.92758058  1
  O  O333  1  0.58910057  0.52066372  0.25328823  1
  O  O334  1  0.58412426  0.52317636  0.58209459  1
  O  O335  1  0.58571737  0.52455489  0.92260467  1
  O  O336  1  0.92176802  0.00231446  0.25163583  1
  O  O337  1  0.91392140  0.02234607  0.57513211  1
  O  O338  1  0.91503691  0.01999258  0.90706985  1
  O  O339  1  0.91473876  0.52697262  0.24888250  1
  O  O340  1  0.91003962  0.51353737  0.56885633  1
  O  O341  1  0.91718174  0.52092302  0.91570840  1
  O  O342  1  0.08173118  0.23960294  0.25363524  1
  O  O343  1  0.08081640  0.22254289  0.58323263  1
  O  O344  1  0.08505254  0.23367690  0.91439367  1
  O  O345  1  0.07660200  0.73056489  0.25345190  1
  O  O346  1  0.08875008  0.73841919  0.57265445  1
  O  O347  1  0.08675260  0.73067636  0.91843253  1
  O  O348  1  0.41612546  0.25089532  0.25125055  1
  O  O349  1  0.41634355  0.22892550  0.58414563  1
  O  O350  1  0.41336415  0.24899886  0.92174607  1
  O  O351  1  0.42086281  0.74390783  0.24626294  1
  O  O352  1  0.42185836  0.73027575  0.58404172  1
  O  O353  1  0.41780812  0.72531012  0.91765134  1
  O  O354  1  0.75200384  0.24607525  0.24768275  1
  O  O355  1  0.75067238  0.22308123  0.58264756  1
  O  O356  1  0.74967154  0.22972231  0.91517969  1
  O  O357  1  0.75168419  0.72369995  0.24852705  1
  O  O358  1  0.74932505  0.72383733  0.58112522  1
  O  O359  1  0.75206357  0.72627803  0.91036417  1
