# generated using pymatgen
data_Ba17Sr5La8Pr42Mn72O216
_symmetry_space_group_name_H-M   'P 1'
_cell_length_a   16.69097290
_cell_length_b   15.71770322
_cell_length_c   16.82941681
_cell_angle_alpha   90.00932544
_cell_angle_beta   90.05135257
_cell_angle_gamma   90.00305734
_symmetry_Int_Tables_number   1
_chemical_formula_structural   Ba17Sr5La8Pr42Mn72O216
_chemical_formula_sum   'Ba17 Sr5 La8 Pr42 Mn72 O216'
_cell_volume   4415.09062028
_cell_formula_units_Z   1
loop_
 _symmetry_equiv_pos_site_id
 _symmetry_equiv_pos_as_xyz
  1  'x, y, z'
loop_
 _atom_site_type_symbol
 _atom_site_label
 _atom_site_symmetry_multiplicity
 _atom_site_fract_x
 _atom_site_fract_y
 _atom_site_fract_z
 _atom_site_occupancy
  Ba  Ba0  1  0.66641571  0.62588861  0.66423709  1
  Ba  Ba1  1  0.33185480  0.62504048  0.66654944  1
  Ba  Ba2  1  0.82892166  0.12456938  0.16678176  1
  Ba  Ba3  1  0.50286180  0.37440673  0.49862145  1
  Ba  Ba4  1  0.00109564  0.12349927  1.00086657  1
  Ba  Ba5  1  -0.00178195  0.62542720  0.66570517  1
  Ba  Ba6  1  0.16610158  0.12586851  0.83606462  1
  Ba  Ba7  1  0.82729202  0.62530670  0.16734763  1
  Ba  Ba8  1  0.16859554  0.87306827  0.16478279  1
  Ba  Ba9  1  0.83593002  0.37497562  0.83221816  1
  Ba  Ba10  1  0.33663543  0.37544435  0.66851082  1
  Ba  Ba11  1  0.66237355  0.62484294  0.99834548  1
  Ba  Ba12  1  0.66459134  0.12488481  0.99981602  1
  Ba  Ba13  1  0.00001957  0.37701507  0.33463538  1
  Ba  Ba14  1  0.49949725  0.12393193  0.83710545  1
  Ba  Ba15  1  0.83827615  0.87464300  0.83200366  1
  Ba  Ba16  1  0.16539886  0.12385470  0.16894597  1
  Sr  Sr17  1  0.15791634  0.12624445  0.50353888  1
  Sr  Sr18  1  0.00719447  0.87596587  -0.00091959  1
  Sr  Sr19  1  0.17138644  0.37317194  0.83360301  1
  Sr  Sr20  1  -0.00837916  0.62711426  0.33253140  1
  Sr  Sr21  1  0.17031970  0.87630681  0.83572063  1
  La  La22  1  0.00751179  0.37490014  0.66848748  1
  La  La23  1  0.32486802  0.12723125  0.33576133  1
  La  La24  1  0.83058632  0.62198548  0.49723582  1
  La  La25  1  0.50342959  0.87444138  0.16490620  1
  La  La26  1  0.16158452  0.62161443  0.83192957  1
  La  La27  1  0.33863400  0.37236297  -0.00111016  1
  La  La28  1  0.84072690  0.87242475  0.50089157  1
  La  La29  1  0.17232050  0.87056052  0.49881523  1
  Pr  Pr30  1  0.67509700  0.37366748  0.33581396  1
  Pr  Pr31  1  0.01256333  0.87481601  0.67179543  1
  Pr  Pr32  1  0.34186091  0.87725398  0.67377014  1
  Pr  Pr33  1  0.83040675  0.12755028  0.49666936  1
  Pr  Pr34  1  0.49156493  0.12363865  0.50727788  1
  Pr  Pr35  1  0.84318303  0.37564369  0.16028808  1
  Pr  Pr36  1  0.67799826  0.87646436  0.33244035  1
  Pr  Pr37  1  0.67338886  0.37105157  0.00042610  1
  Pr  Pr38  1  0.33657770  0.87783725  0.33543408  1
  Pr  Pr39  1  0.00637144  0.87393168  0.33145763  1
  Pr  Pr40  1  0.51235382  0.87283200  0.49741106  1
  Pr  Pr41  1  0.50873988  0.87384714  0.83482673  1
  Pr  Pr42  1  0.01258030  0.37457141  0.00313681  1
  Pr  Pr43  1  0.83627760  0.37830742  0.49991980  1
  Pr  Pr44  1  0.49146683  0.12430259  0.16741928  1
  Pr  Pr45  1  0.49025772  0.62573205  0.16759866  1
  Pr  Pr46  1  0.32826831  0.12356389  0.99862073  1
  Pr  Pr47  1  0.15582173  0.62261342  0.50522787  1
  Pr  Pr48  1  0.32201900  0.62380152  0.33360434  1
  Pr  Pr49  1  0.84244761  0.87352966  0.15881936  1
  Pr  Pr50  1  0.32207996  0.12692557  0.66794057  1
  Pr  Pr51  1  -0.00609925  0.12356786  0.66773440  1
  Pr  Pr52  1  0.50746406  0.37542440  0.82934767  1
  Pr  Pr53  1  0.65615434  0.62483887  0.32579506  1
  Pr  Pr54  1  0.83244312  0.12410505  0.84121144  1
  Pr  Pr55  1  0.50571929  0.37529953  0.16725214  1
  Pr  Pr56  1  0.49119659  0.62369684  0.83600203  1
  Pr  Pr57  1  0.65309627  0.12502787  0.32630456  1
  Pr  Pr58  1  0.33586135  0.87992023  0.00228617  1
  Pr  Pr59  1  0.17346945  0.37844666  0.50010375  1
  Pr  Pr60  1  -0.00728339  0.62937591  0.99536353  1
  Pr  Pr61  1  -0.00660102  0.12294293  0.32560311  1
  Pr  Pr62  1  0.15436017  0.62577357  0.16807710  1
  Pr  Pr63  1  0.17318826  0.37675376  0.16562358  1
  Pr  Pr64  1  0.82858188  0.62586594  0.83677069  1
  Pr  Pr65  1  0.49333573  0.62449274  0.50265223  1
  Pr  Pr66  1  0.67612186  0.87584642  0.66828606  1
  Pr  Pr67  1  0.32638673  0.62772717  0.99717795  1
  Pr  Pr68  1  0.67390709  0.87876646  0.00096213  1
  Pr  Pr69  1  0.66557991  0.12580304  0.66774602  1
  Pr  Pr70  1  0.33371997  0.37200549  0.34018009  1
  Pr  Pr71  1  0.67161237  0.37418893  0.66756915  1
  Mn  Mn72  1  -0.00001713  -0.00103496  0.16705352  1
  Mn  Mn73  1  -0.00065634  -0.00023529  0.49995890  1
  Mn  Mn74  1  0.00299659  -0.00181843  0.83178394  1
  Mn  Mn75  1  0.00004666  0.50031973  0.16654236  1
  Mn  Mn76  1  -0.00095040  0.49913590  0.50009568  1
  Mn  Mn77  1  0.00078887  0.49980248  0.83400377  1
  Mn  Mn78  1  0.33373623  -0.00008494  0.17026917  1
  Mn  Mn79  1  0.33282833  -0.00164617  0.50415211  1
  Mn  Mn80  1  0.33559817  -0.00228455  0.83490008  1
  Mn  Mn81  1  0.33354413  0.50078138  0.16778862  1
  Mn  Mn82  1  0.33362704  0.50164364  0.49786508  1
  Mn  Mn83  1  0.33377468  0.50071344  0.83584197  1
  Mn  Mn84  1  0.66339346  -0.00054832  0.16829105  1
  Mn  Mn85  1  0.66895480  0.00162905  0.49747477  1
  Mn  Mn86  1  0.66827844  -0.00200576  0.83235444  1
  Mn  Mn87  1  0.66242110  0.49859124  0.16651937  1
  Mn  Mn88  1  0.66670463  0.50019422  0.49604292  1
  Mn  Mn89  1  0.66587035  0.50082155  0.83151529  1
  Mn  Mn90  1  0.00133300  0.25097270  0.16867226  1
  Mn  Mn91  1  -0.00101384  0.24823337  0.50074192  1
  Mn  Mn92  1  0.00173991  0.25201131  0.83304116  1
  Mn  Mn93  1  -0.00125153  0.74840528  0.16536207  1
  Mn  Mn94  1  -0.00047323  0.75195155  0.49933852  1
  Mn  Mn95  1  0.00269478  0.75030231  0.83165859  1
  Mn  Mn96  1  0.33419273  0.25223455  0.16992720  1
  Mn  Mn97  1  0.33101417  0.24777252  0.50114875  1
  Mn  Mn98  1  0.33597721  0.25032728  0.83489700  1
  Mn  Mn99  1  0.33311593  0.74765896  0.16738512  1
  Mn  Mn100  1  0.33499839  0.75219884  0.50031033  1
  Mn  Mn101  1  0.33345838  0.75135894  0.83482797  1
  Mn  Mn102  1  0.66358586  0.25085021  0.16881741  1
  Mn  Mn103  1  0.66788657  0.24704427  0.49803475  1
  Mn  Mn104  1  0.66790452  0.25071952  0.83268872  1
  Mn  Mn105  1  0.66217622  0.75131550  0.16613857  1
  Mn  Mn106  1  0.66893618  0.75111286  0.49554006  1
  Mn  Mn107  1  0.66581537  0.74964532  0.83109946  1
  Mn  Mn108  1  0.16960264  0.25258739  0.00092269  1
  Mn  Mn109  1  0.16376064  0.25032192  0.33703521  1
  Mn  Mn110  1  0.16554966  0.24880597  0.66735326  1
  Mn  Mn111  1  0.16788013  0.74839569  -0.00098417  1
  Mn  Mn112  1  0.16627297  0.74906125  0.33403820  1
  Mn  Mn113  1  0.16977310  0.75159737  0.66597486  1
  Mn  Mn114  1  0.49970230  0.25235071  0.00136845  1
  Mn  Mn115  1  0.49738225  0.24881618  0.33390346  1
  Mn  Mn116  1  0.50178814  0.24834934  0.66785147  1
  Mn  Mn117  1  0.49844678  0.75009070  0.00068054  1
  Mn  Mn118  1  0.49751827  0.75173344  0.33310977  1
  Mn  Mn119  1  0.50162546  0.75189488  0.66531495  1
  Mn  Mn120  1  0.83573267  0.25082235  -0.00159916  1
  Mn  Mn121  1  0.83155267  0.25038444  0.33361650  1
  Mn  Mn122  1  0.83463136  0.24743218  0.66547003  1
  Mn  Mn123  1  0.83310914  0.75045042  -0.00126911  1
  Mn  Mn124  1  0.83169816  0.75198663  0.33132760  1
  Mn  Mn125  1  0.83495299  0.74952596  0.66390143  1
  Mn  Mn126  1  0.16783743  -0.00180498  -0.00037122  1
  Mn  Mn127  1  0.16633903  -0.00198689  0.33810958  1
  Mn  Mn128  1  0.16738327  0.00049945  0.66549101  1
  Mn  Mn129  1  0.16877697  0.50129081  0.00171986  1
  Mn  Mn130  1  0.16477923  0.50180948  0.33265263  1
  Mn  Mn131  1  0.16746307  0.49947795  0.66792745  1
  Mn  Mn132  1  0.49970741  -0.00159463  0.00202537  1
  Mn  Mn133  1  0.49788995  -0.00148157  0.33545235  1
  Mn  Mn134  1  0.50182226  0.00004957  0.66639829  1
  Mn  Mn135  1  0.49846444  0.49874297  0.00018094  1
  Mn  Mn136  1  0.49686102  0.50117206  0.33176128  1
  Mn  Mn137  1  0.50240377  0.50049036  0.66635102  1
  Mn  Mn138  1  0.83514348  -0.00065790  -0.00078866  1
  Mn  Mn139  1  0.83334191  -0.00227274  0.33330719  1
  Mn  Mn140  1  0.83478704  0.00285624  0.66454254  1
  Mn  Mn141  1  0.83412062  0.49975938  -0.00165782  1
  Mn  Mn142  1  0.82968217  0.49983502  0.33125127  1
  Mn  Mn143  1  0.83426162  0.49980778  0.66519817  1
  O  O144  1  0.17836579  0.12814869  0.01105699  1
  O  O145  1  0.16784021  0.11952897  0.35387660  1
  O  O146  1  0.16828814  0.12437911  0.67931295  1
  O  O147  1  0.17773851  0.62254924  0.02624440  1
  O  O148  1  0.17131834  0.62723682  0.36159808  1
  O  O149  1  0.16687660  0.62827710  0.68332824  1
  O  O150  1  0.49690793  0.12621246  0.02482663  1
  O  O151  1  0.50586935  0.11870302  0.36290231  1
  O  O152  1  0.51254859  0.12213859  0.68110598  1
  O  O153  1  0.49712646  0.62383584  0.02425426  1
  O  O154  1  0.50874505  0.62915320  0.35886667  1
  O  O155  1  0.50254890  0.62783571  0.69036627  1
  O  O156  1  0.83360409  0.12559178  0.00736574  1
  O  O157  1  0.84126478  0.12209995  0.35280983  1
  O  O158  1  0.84096716  0.12497141  0.69550817  1
  O  O159  1  0.83897057  0.62431010  0.01051138  1
  O  O160  1  0.82651557  0.62786438  0.35221604  1
  O  O161  1  0.83448908  0.62135351  0.69072652  1
  O  O162  1  0.17229327  0.38085762  0.30990335  1
  O  O163  1  0.16355966  0.37105330  0.64443526  1
  O  O164  1  0.16340667  0.38028315  0.98429458  1
  O  O165  1  0.16636522  0.87192955  0.32177590  1
  O  O166  1  0.16605730  0.87689499  0.64304678  1
  O  O167  1  0.17275966  0.86977887  0.98654663  1
  O  O168  1  0.48596426  0.37762858  0.31060430  1
  O  O169  1  0.50703662  0.37302008  0.65503218  1
  O  O170  1  0.48963095  0.37754767  0.97474879  1
  O  O171  1  0.48667261  0.87548096  0.30766415  1
  O  O172  1  0.49469073  0.87826274  0.63985905  1
  O  O173  1  0.48684733  0.87235991  0.98008327  1
  O  O174  1  0.82280160  0.37478291  0.30748313  1
  O  O175  1  0.82821535  0.37097550  0.64141248  1
  O  O176  1  0.82631255  0.37635403  0.99132424  1
  O  O177  1  0.82614393  0.87543341  0.30537487  1
  O  O178  1  0.82677208  0.88051735  0.64280835  1
  O  O179  1  0.82643289  0.87422302  0.99199760  1
  O  O180  1  0.00329682  0.37717314  0.17679243  1
  O  O181  1  -0.01131923  0.37079183  0.52359593  1
  O  O182  1  0.00282184  0.37919376  0.85838106  1
  O  O183  1  -0.00369007  0.87287932  0.18480773  1
  O  O184  1  -0.00799237  0.87778055  0.52866945  1
  O  O185  1  0.00454113  0.87169868  0.84762442  1
  O  O186  1  0.33244348  0.37854847  0.19725842  1
  O  O187  1  0.32574197  0.37558780  0.50799640  1
  O  O188  1  0.33857246  0.37906765  0.85414739  1
  O  O189  1  0.33952139  0.86935825  0.19226338  1
  O  O190  1  0.32683275  0.87576860  0.52980601  1
  O  O191  1  0.33538926  0.87265007  0.85914680  1
  O  O192  1  0.65552617  0.37390741  0.19435419  1
  O  O193  1  0.67098695  0.36775800  0.52418929  1
  O  O194  1  0.66121090  0.37769583  0.85313897  1
  O  O195  1  0.65672993  0.87579546  0.19136337  1
  O  O196  1  0.66343461  0.87814710  0.52465239  1
  O  O197  1  0.66295772  0.87236674  0.85359568  1
  O  O198  1  -0.00165610  0.12609651  0.16297419  1
  O  O199  1  -0.00087494  0.12225738  0.47030232  1
  O  O200  1  -0.00354303  0.12478817  0.81167037  1
  O  O201  1  0.00125036  0.62216539  0.14281375  1
  O  O202  1  0.00679465  0.62795517  0.48240282  1
  O  O203  1  0.00424447  0.62461478  0.82126807  1
  O  O204  1  0.33927164  0.13067905  0.14283452  1
  O  O205  1  0.33945703  0.12021227  0.47843506  1
  O  O206  1  0.33536167  0.12018795  0.81468349  1
  O  O207  1  0.33980209  0.62259327  0.13953760  1
  O  O208  1  0.34171402  0.62896316  0.47725532  1
  O  O209  1  0.34116613  0.62759967  0.82264403  1
  O  O210  1  0.65618937  0.12517940  0.15574316  1
  O  O211  1  0.67540670  0.12301440  0.46706453  1
  O  O212  1  0.67238711  0.12406903  0.81441835  1
  O  O213  1  0.65509210  0.62576375  0.15539930  1
  O  O214  1  0.67522668  0.63092611  0.46848925  1
  O  O215  1  0.66639600  0.62572048  0.82162746  1
  O  O216  1  0.07339893  0.00704454  0.26415353  1
  O  O217  1  0.07113318  0.01608527  0.59017836  1
  O  O218  1  0.08363488  0.00324045  0.91836868  1
  O  O219  1  0.07913023  0.52274783  0.25472102  1
  O  O220  1  0.08164052  0.50570966  0.58360670  1
  O  O221  1  0.07836168  0.52123593  0.92959995  1
  O  O222  1  0.41078608  0.02506214  0.26053392  1
  O  O223  1  0.40909325  0.02300960  0.59318459  1
  O  O224  1  0.40909163  0.01395855  0.93147204  1
  O  O225  1  0.40776461  0.52837888  0.25650056  1
  O  O226  1  0.41883759  0.51385263  0.58237468  1
  O  O227  1  0.40716067  0.51962406  0.92997684  1
  O  O228  1  0.73456865  0.01357552  0.26323475  1
  O  O229  1  0.74618340  0.02662767  0.58713545  1
  O  O230  1  0.74953935  0.00933642  0.91500723  1
  O  O231  1  0.73242858  0.51312442  0.26154529  1
  O  O232  1  0.75297913  0.51256593  0.57802162  1
  O  O233  1  0.74924645  0.51235765  0.91394669  1
  O  O234  1  0.25245344  0.23907710  0.25317369  1
  O  O235  1  0.24711969  0.23263496  0.58132272  1
  O  O236  1  0.25509364  0.24517246  0.92332972  1
  O  O237  1  0.24472717  0.72330902  0.24077873  1
  O  O238  1  0.24139894  0.73407772  0.56775219  1
  O  O239  1  0.24326311  0.72720330  0.90876617  1
  O  O240  1  0.57027254  0.23187507  0.24217002  1
  O  O241  1  0.58337941  0.22418957  0.57481724  1
  O  O242  1  0.58050616  0.24881238  0.91536872  1
  O  O243  1  0.56780261  0.73481176  0.23982903  1
  O  O244  1  0.57680272  0.73660025  0.56444000  1
  O  O245  1  0.56922030  0.73952710  0.90419254  1
  O  O246  1  0.91026443  0.24358328  0.24958918  1
  O  O247  1  0.91140238  0.22230946  0.57881651  1
  O  O248  1  0.91311618  0.23640410  0.90513973  1
  O  O249  1  0.90990366  0.74341921  0.24690828  1
  O  O250  1  0.90736498  0.73461056  0.56873890  1
  O  O251  1  0.91497703  0.73134006  0.90982470  1
  O  O252  1  0.09573753  0.48497684  0.09220970  1
  O  O253  1  0.09355027  0.48513958  0.42699229  1
  O  O254  1  0.08816793  0.48555981  0.75664209  1
  O  O255  1  0.08586392  0.99125454  0.08421310  1
  O  O256  1  0.08748786  0.97417945  0.42603301  1
  O  O257  1  0.08912417  0.98192693  0.75043764  1
  O  O258  1  0.42541162  0.47918571  0.09474505  1
  O  O259  1  0.41772572  0.49193190  0.41512823  1
  O  O260  1  0.42767005  0.49070377  0.76552401  1
  O  O261  1  0.42443452  0.98319976  0.09423006  1
  O  O262  1  0.42301185  0.97578059  0.42795938  1
  O  O263  1  0.42343083  0.97544375  0.75989890  1
  O  O264  1  0.75137711  0.47916525  0.09225236  1
  O  O265  1  0.75397097  0.47606728  0.42003180  1
  O  O266  1  0.75008278  0.48404513  0.74357065  1
  O  O267  1  0.74924030  0.97984153  0.09237224  1
  O  O268  1  0.75896159  0.97732898  0.42389212  1
  O  O269  1  0.75053336  0.98905044  0.74473865  1
  O  O270  1  0.25595129  0.27559814  0.08587775  1
  O  O271  1  0.25052035  0.26617034  0.41406965  1
  O  O272  1  0.25477459  0.25545581  0.74748533  1
  O  O273  1  0.26540738  0.76241608  0.07205507  1
  O  O274  1  0.26365568  0.76883155  0.40853166  1
  O  O275  1  0.25955367  0.77095164  0.74144498  1
  O  O276  1  0.58616270  0.27598304  0.07928630  1
  O  O277  1  0.59277886  0.26391130  0.40399291  1
  O  O278  1  0.59111344  0.26707248  0.74383400  1
  O  O279  1  0.58841385  0.77551766  0.07344197  1
  O  O280  1  0.59099586  0.77592075  0.40409182  1
  O  O281  1  0.58843536  0.77666488  0.74028785  1
  O  O282  1  0.92230889  0.27111597  0.07869941  1
  O  O283  1  0.91346835  0.26286315  0.41977901  1
  O  O284  1  0.92680605  0.26591296  0.73738507  1
  O  O285  1  0.91965295  0.76450665  0.07943229  1
  O  O286  1  0.92302659  0.77123084  0.41043516  1
  O  O287  1  0.92599667  0.76664840  0.73794277  1
  O  O288  1  0.25945630  0.47622984  0.07989867  1
  O  O289  1  0.25666988  0.48598996  0.40498800  1
  O  O290  1  0.25250508  0.49296392  0.75306657  1
  O  O291  1  0.26095025  0.98781120  0.07833326  1
  O  O292  1  0.25708591  0.97796458  0.41618971  1
  O  O293  1  0.26232445  0.98496380  0.74149661  1
  O  O294  1  0.58810925  0.47281113  0.07371587  1
  O  O295  1  0.59200444  0.48530077  0.39954925  1
  O  O296  1  0.59003189  0.47930622  0.74339880  1
  O  O297  1  0.58659114  0.97623017  0.07825248  1
  O  O298  1  0.58972487  0.97483855  0.40566143  1
  O  O299  1  0.59023287  0.97713103  0.74317134  1
  O  O300  1  0.92486406  0.48103743  0.07538684  1
  O  O301  1  0.91306136  0.49223462  0.41748204  1
  O  O302  1  0.92375814  0.48142578  0.73959912  1
  O  O303  1  0.91711103  0.98268394  0.08329099  1
  O  O304  1  0.92411318  0.97456926  0.41055446  1
  O  O305  1  0.92920475  0.98506614  0.73390903  1
  O  O306  1  0.09190866  0.26991999  0.08871042  1
  O  O307  1  0.08967954  0.26974872  0.43216050  1
  O  O308  1  0.08621898  0.26928648  0.75261591  1
  O  O309  1  0.08694786  0.75148516  0.08313284  1
  O  O310  1  0.08539009  0.77188743  0.42288488  1
  O  O311  1  0.09111179  0.76558035  0.75235740  1
  O  O312  1  0.42251668  0.27376017  0.09331998  1
  O  O313  1  0.41361949  0.25796950  0.41532168  1
  O  O314  1  0.42581768  0.26304855  0.75992196  1
  O  O315  1  0.42591049  0.76489533  0.09594016  1
  O  O316  1  0.42489454  0.77436390  0.42442098  1
  O  O317  1  0.42314813  0.77143934  0.75979637  1
  O  O318  1  0.75015772  0.27113863  0.09373017  1
  O  O319  1  0.75637394  0.27112816  0.42366816  1
  O  O320  1  0.74849374  0.26107886  0.74249673  1
  O  O321  1  0.74969758  0.77008953  0.09110840  1
  O  O322  1  0.75634565  0.77731585  0.42016935  1
  O  O323  1  0.75029321  0.76292517  0.74619055  1
  O  O324  1  0.25237436  0.00952543  0.25646180  1
  O  O325  1  0.24684859  0.02008976  0.57962250  1
  O  O326  1  0.25359269  0.00788844  0.91858423  1
  O  O327  1  0.24170784  0.52497279  0.24122929  1
  O  O328  1  0.24183985  0.51369275  0.56924250  1
  O  O329  1  0.24478521  0.52111174  0.91433412  1
  O  O330  1  0.57053317  0.01739927  0.24297564  1
  O  O331  1  0.57976037  0.01916779  0.56967260  1
  O  O332  1  0.57952172  -0.00114032  0.91518240  1
  O  O333  1  0.56712819  0.51609446  0.23849300  1
  O  O334  1  0.57963071  0.51926604  0.56792303  1
  O  O335  1  0.56777972  0.51269349  0.90559936  1
  O  O336  1  0.91273011  0.00747544  0.25113210  1
  O  O337  1  0.90838988  0.02528117  0.57324237  1
  O  O338  1  0.91360128  0.01263706  0.90464023  1
  O  O339  1  0.90687411  0.50525666  0.24487989  1
  O  O340  1  0.90948310  0.51349325  0.57467102  1
  O  O341  1  0.91322268  0.52108717  0.90954904  1
  O  O342  1  0.07596129  0.23560298  0.26301336  1
  O  O343  1  0.07177971  0.23293492  0.59274828  1
  O  O344  1  0.08055057  0.24757654  0.92316562  1
  O  O345  1  0.07692816  0.73213247  0.25159212  1
  O  O346  1  0.08289646  0.74375096  0.58204305  1
  O  O347  1  0.08205583  0.72758021  0.92081472  1
  O  O348  1  0.41182643  0.22496573  0.25505612  1
  O  O349  1  0.41348731  0.22777205  0.58903303  1
  O  O350  1  0.40976565  0.23470733  0.93114825  1
  O  O351  1  0.40689005  0.72411043  0.26076301  1
  O  O352  1  0.41683138  0.73732903  0.58367800  1
  O  O353  1  0.40911332  0.73070425  0.92794944  1
  O  O354  1  0.73440709  0.23452585  0.26372448  1
  O  O355  1  0.74746216  0.22143995  0.58456847  1
  O  O356  1  0.74949389  0.24076587  0.91512191  1
  O  O357  1  0.73178394  0.73919369  0.25970407  1
  O  O358  1  0.75031309  0.73950142  0.57826093  1
  O  O359  1  0.75004204  0.73778725  0.91468008  1
