# generated using pymatgen
data_Ba17Sr5La8Pr42Mn72O216
_symmetry_space_group_name_H-M   'P 1'
_cell_length_a   16.67914211
_cell_length_b   15.70636842
_cell_length_c   16.81594948
_cell_angle_alpha   89.99114367
_cell_angle_beta   90.03623161
_cell_angle_gamma   89.99138359
_symmetry_Int_Tables_number   1
_chemical_formula_structural   Ba17Sr5La8Pr42Mn72O216
_chemical_formula_sum   'Ba17 Sr5 La8 Pr42 Mn72 O216'
_cell_volume   4405.25229912
_cell_formula_units_Z   1
loop_
 _symmetry_equiv_pos_site_id
 _symmetry_equiv_pos_as_xyz
  1  'x, y, z'
loop_
 _atom_site_type_symbol
 _atom_site_label
 _atom_site_symmetry_multiplicity
 _atom_site_fract_x
 _atom_site_fract_y
 _atom_site_fract_z
 _atom_site_occupancy
  Ba  Ba0  1  0.00261626  0.12419857  0.99708125  1
  Ba  Ba1  1  -0.00026335  0.37377546  0.33387171  1
  Ba  Ba2  1  0.66912802  0.37571859  -0.00092298  1
  Ba  Ba3  1  0.49814388  0.12315351  0.83524134  1
  Ba  Ba4  1  0.83434992  0.37710946  0.16641185  1
  Ba  Ba5  1  0.83477173  0.37385316  0.49806367  1
  Ba  Ba6  1  0.83573969  0.12306759  0.83576296  1
  Ba  Ba7  1  0.66433121  0.62567532  1.00053055  1
  Ba  Ba8  1  0.16385322  0.62661663  0.50069638  1
  Ba  Ba9  1  0.16843649  0.87494497  0.49830005  1
  Ba  Ba10  1  0.83598099  0.87538326  0.83389868  1
  Ba  Ba11  1  0.50102980  0.37429806  0.50093839  1
  Ba  Ba12  1  -0.00237343  0.62402700  0.66354965  1
  Ba  Ba13  1  0.83002388  0.62440623  0.49805071  1
  Ba  Ba14  1  0.16599974  0.37563329  0.50175354  1
  Ba  Ba15  1  0.33319846  0.37569306  0.00116962  1
  Ba  Ba16  1  0.66590199  0.12577740  0.99758529  1
  Sr  Sr17  1  0.66327202  0.62332982  0.32963399  1
  Sr  Sr18  1  0.82753010  0.62582077  0.17129828  1
  Sr  Sr19  1  0.83702596  0.87116251  0.16261301  1
  Sr  Sr20  1  0.83028145  0.12643365  0.50153590  1
  Sr  Sr21  1  -0.00268179  0.37643579  0.66369845  1
  La  La22  1  0.50442851  0.37540821  0.16661507  1
  La  La23  1  0.67465464  0.37423863  0.66532679  1
  La  La24  1  0.66476373  0.12406432  0.66523616  1
  La  La25  1  0.66307960  0.12780333  0.33098473  1
  La  La26  1  0.49577780  0.62201215  0.17030382  1
  La  La27  1  0.33934107  0.87398880  0.33846945  1
  La  La28  1  0.33442704  0.37601557  0.33865003  1
  La  La29  1  0.32875920  0.12527618  0.33736332  1
  Pr  Pr30  1  0.51163506  0.87383421  0.83217985  1
  Pr  Pr31  1  0.32461959  0.62493013  0.66628314  1
  Pr  Pr32  1  0.67487876  0.37844542  0.33595429  1
  Pr  Pr33  1  0.83910969  0.87415708  0.49763013  1
  Pr  Pr34  1  -0.00002387  0.87297431  0.33385328  1
  Pr  Pr35  1  0.50965587  0.87464491  0.16578464  1
  Pr  Pr36  1  0.82962664  0.62430128  0.83351533  1
  Pr  Pr37  1  0.49365425  0.12295483  0.50670162  1
  Pr  Pr38  1  0.00094039  0.12753117  0.33026335  1
  Pr  Pr39  1  0.50939817  0.87601612  0.49754888  1
  Pr  Pr40  1  0.67598357  0.87840291  0.00122693  1
  Pr  Pr41  1  -0.00035011  0.37332299  0.00299440  1
  Pr  Pr42  1  0.15732007  0.62435892  0.83435332  1
  Pr  Pr43  1  0.32621927  0.62544694  1.00108843  1
  Pr  Pr44  1  0.67637647  0.87637602  0.66540995  1
  Pr  Pr45  1  0.67997763  0.87359786  0.33236354  1
  Pr  Pr46  1  0.49131836  0.62430598  0.83794619  1
  Pr  Pr47  1  0.16704565  0.37190292  0.82838657  1
  Pr  Pr48  1  0.49503129  0.12717547  0.16658495  1
  Pr  Pr49  1  0.32594862  0.62425768  0.33651849  1
  Pr  Pr50  1  -0.00490654  0.12234894  0.66400517  1
  Pr  Pr51  1  -0.00806009  0.62703583  0.99801768  1
  Pr  Pr52  1  0.16588984  0.37488200  0.16424968  1
  Pr  Pr53  1  0.83399379  0.37131826  0.83233245  1
  Pr  Pr54  1  0.33681475  0.37708680  0.67686373  1
  Pr  Pr55  1  0.33105981  0.12495235  0.99843838  1
  Pr  Pr56  1  0.16984535  0.87662009  0.16211243  1
  Pr  Pr57  1  0.32303724  0.12527466  0.66662765  1
  Pr  Pr58  1  -0.00017581  0.87700657  0.00192597  1
  Pr  Pr59  1  0.00228125  0.87092192  0.66573725  1
  Pr  Pr60  1  0.16867693  0.87688809  0.82922789  1
  Pr  Pr61  1  0.16679269  0.12639177  0.83598205  1
  Pr  Pr62  1  0.15905257  0.12550114  0.50146456  1
  Pr  Pr63  1  -0.00339522  0.62115782  0.33308772  1
  Pr  Pr64  1  0.49345760  0.62573049  0.50180398  1
  Pr  Pr65  1  0.16551818  0.12798614  0.16646605  1
  Pr  Pr66  1  0.51235877  0.37508248  0.82999767  1
  Pr  Pr67  1  0.33955537  0.87560597  0.00493344  1
  Pr  Pr68  1  0.66254580  0.62744248  0.65966828  1
  Pr  Pr69  1  0.33714173  0.87281842  0.67150577  1
  Pr  Pr70  1  0.16492017  0.62249401  0.17037233  1
  Pr  Pr71  1  0.82717777  0.12548293  0.16802126  1
  Mn  Mn72  1  0.00123715  0.00024669  0.16732149  1
  Mn  Mn73  1  -0.00110570  0.00003782  0.49747889  1
  Mn  Mn74  1  0.00349558  -0.00252375  0.83107631  1
  Mn  Mn75  1  0.00122349  0.50173300  0.16392529  1
  Mn  Mn76  1  -0.00106369  0.49915128  0.49958456  1
  Mn  Mn77  1  -0.00010133  0.50057986  0.83515312  1
  Mn  Mn78  1  0.33374719  -0.00044272  0.16920936  1
  Mn  Mn79  1  0.33428696  -0.00081608  0.50266266  1
  Mn  Mn80  1  0.33399131  -0.00265621  0.83602988  1
  Mn  Mn81  1  0.33240244  0.49997475  0.17021836  1
  Mn  Mn82  1  0.33356251  0.50005452  0.50379308  1
  Mn  Mn83  1  0.33245037  0.50246270  0.83556238  1
  Mn  Mn84  1  0.66577954  -0.00053676  0.16714835  1
  Mn  Mn85  1  0.66578460  -0.00036617  0.49620371  1
  Mn  Mn86  1  0.66742383  -0.00212311  0.83251833  1
  Mn  Mn87  1  0.66485725  0.50112072  0.16737123  1
  Mn  Mn88  1  0.66336828  0.50196944  0.49836105  1
  Mn  Mn89  1  0.66734454  0.50209595  0.82861828  1
  Mn  Mn90  1  0.00021355  0.24846482  0.16514343  1
  Mn  Mn91  1  -0.00091072  0.24735384  0.49909172  1
  Mn  Mn92  1  0.00218030  0.25252325  0.83181530  1
  Mn  Mn93  1  0.00328161  0.75049311  0.16564224  1
  Mn  Mn94  1  -0.00099146  0.75199610  0.49873401  1
  Mn  Mn95  1  0.00111717  0.74994632  0.83378786  1
  Mn  Mn96  1  0.33291593  0.24862731  0.16999187  1
  Mn  Mn97  1  0.33265689  0.24895456  0.50323649  1
  Mn  Mn98  1  0.33420509  0.24988386  0.83541380  1
  Mn  Mn99  1  0.33360904  0.75179054  0.16942233  1
  Mn  Mn100  1  0.33608526  0.75198777  0.50287929  1
  Mn  Mn101  1  0.33259522  0.75062851  0.83680416  1
  Mn  Mn102  1  0.66458839  0.24801775  0.16671829  1
  Mn  Mn103  1  0.66404587  0.24806301  0.49742122  1
  Mn  Mn104  1  0.66757513  0.25000732  0.83153429  1
  Mn  Mn105  1  0.66524089  0.75041288  0.16661462  1
  Mn  Mn106  1  0.66477878  0.75067762  0.49681641  1
  Mn  Mn107  1  0.66639417  0.74840877  0.82937360  1
  Mn  Mn108  1  0.16792272  0.25107408  -0.00086192  1
  Mn  Mn109  1  0.16828887  0.24850192  0.33361049  1
  Mn  Mn110  1  0.16486176  0.24895213  0.66736046  1
  Mn  Mn111  1  0.16766561  0.75056979  -0.00056021  1
  Mn  Mn112  1  0.16691151  0.75082224  0.32940782  1
  Mn  Mn113  1  0.16807457  0.75210282  0.66776955  1
  Mn  Mn114  1  0.49821585  0.25135020  0.00063546  1
  Mn  Mn115  1  0.49866519  0.24788328  0.33425782  1
  Mn  Mn116  1  0.49943534  0.24909160  0.66761048  1
  Mn  Mn117  1  0.49836468  0.75036010  0.00086699  1
  Mn  Mn118  1  0.50013765  0.75135851  0.33357433  1
  Mn  Mn119  1  0.49989384  0.75084180  0.66766909  1
  Mn  Mn120  1  0.83550046  0.25051320  -0.00011659  1
  Mn  Mn121  1  0.83193975  0.24519110  0.33431917  1
  Mn  Mn122  1  0.83382405  0.24871088  0.66612321  1
  Mn  Mn123  1  0.83368885  0.74893412  0.00060955  1
  Mn  Mn124  1  0.83445596  0.75101686  0.33009201  1
  Mn  Mn125  1  0.83230666  0.75051821  0.66530710  1
  Mn  Mn126  1  0.16985019  -0.00269122  -0.00239876  1
  Mn  Mn127  1  0.16743090  -0.00089127  0.33050473  1
  Mn  Mn128  1  0.16611293  -0.00073721  0.66649920  1
  Mn  Mn129  1  0.16493166  0.50196564  0.00044649  1
  Mn  Mn130  1  0.16651620  0.50083456  0.33259455  1
  Mn  Mn131  1  0.16703321  0.49828019  0.66822372  1
  Mn  Mn132  1  0.49919297  -0.00314339  0.00111980  1
  Mn  Mn133  1  0.50054582  0.00036221  0.33390429  1
  Mn  Mn134  1  0.49884064  -0.00239913  0.66641519  1
  Mn  Mn135  1  0.49756609  0.50102543  0.00110023  1
  Mn  Mn136  1  0.49852402  0.50106013  0.33479072  1
  Mn  Mn137  1  0.50059367  0.50208824  0.66895597  1
  Mn  Mn138  1  0.83561821  -0.00154569  0.00296769  1
  Mn  Mn139  1  0.83371653  0.00073022  0.33296993  1
  Mn  Mn140  1  0.83331875  0.00192864  0.66345000  1
  Mn  Mn141  1  0.83398586  0.50338950  -0.00058931  1
  Mn  Mn142  1  0.83244473  0.50236233  0.33202145  1
  Mn  Mn143  1  0.83284675  0.49903908  0.66779476  1
  O  O144  1  0.17416549  0.11990766  0.02313149  1
  O  O145  1  0.16884606  0.12006642  0.35704358  1
  O  O146  1  0.16496857  0.12163115  0.69345882  1
  O  O147  1  0.17103980  0.62806249  0.02820158  1
  O  O148  1  0.17332579  0.62811220  0.34469149  1
  O  O149  1  0.17215211  0.62726921  0.68838315  1
  O  O150  1  0.49329036  0.11920619  0.02259096  1
  O  O151  1  0.50698452  0.12218619  0.36203487  1
  O  O152  1  0.51075831  0.12228315  0.67949828  1
  O  O153  1  0.49354747  0.62728146  0.02453218  1
  O  O154  1  0.50287161  0.63007834  0.35717226  1
  O  O155  1  0.51134636  0.62880734  0.69617641  1
  O  O156  1  0.83602703  0.11994721  0.02084155  1
  O  O157  1  0.82336312  0.12026411  0.35249522  1
  O  O158  1  0.83800060  0.12467254  0.67896679  1
  O  O159  1  0.84114510  0.62815234  0.01908946  1
  O  O160  1  0.83776859  0.62971638  0.33899105  1
  O  O161  1  0.82701130  0.62362902  0.68807919  1
  O  O162  1  0.17341824  0.37502779  0.30872818  1
  O  O163  1  0.17894349  0.37354465  0.66065479  1
  O  O164  1  0.16205015  0.38098455  0.97370551  1
  O  O165  1  0.16547339  0.87588639  0.30579512  1
  O  O166  1  0.17111625  0.87699180  0.65456825  1
  O  O167  1  0.17355199  0.87263725  0.97146199  1
  O  O168  1  0.48743300  0.37173869  0.31058834  1
  O  O169  1  0.49049196  0.37556493  0.65682086  1
  O  O170  1  0.49717591  0.38112732  0.97675290  1
  O  O171  1  0.48791104  0.87706192  0.30855019  1
  O  O172  1  0.48752774  0.87294971  0.64044610  1
  O  O173  1  0.48909552  0.87188904  0.97590426  1
  O  O174  1  0.82717202  0.37250099  0.32459675  1
  O  O175  1  0.82707460  0.37238356  0.65576499  1
  O  O176  1  0.84218789  0.38165224  0.97962048  1
  O  O177  1  0.83653778  0.87736337  0.31154038  1
  O  O178  1  0.82875065  0.88003085  0.64284544  1
  O  O179  1  0.83300454  0.87141139  0.99225175  1
  O  O180  1  0.00768375  0.37353975  0.17791285  1
  O  O181  1  0.00012812  0.36878090  0.50981760  1
  O  O182  1  0.00778949  0.38084465  0.85917273  1
  O  O183  1  0.00841161  0.87626036  0.19188967  1
  O  O184  1  -0.00622243  0.87861962  0.51988867  1
  O  O185  1  0.01169579  0.87077641  0.85740936  1
  O  O186  1  0.32728492  0.37004933  0.19640078  1
  O  O187  1  0.33408978  0.37061208  0.52825647  1
  O  O188  1  0.32155931  0.37685655  0.84393621  1
  O  O189  1  0.32465260  0.87589771  0.19659572  1
  O  O190  1  0.34066030  0.87589034  0.52573567  1
  O  O191  1  0.32279689  0.87255020  0.86282648  1
  O  O192  1  0.65796838  0.37066232  0.18993952  1
  O  O193  1  0.66558658  0.37521123  0.51965285  1
  O  O194  1  0.66569098  0.37859375  0.84035439  1
  O  O195  1  0.65935171  0.87693935  0.18982464  1
  O  O196  1  0.66230429  0.87550890  0.52263241  1
  O  O197  1  0.66237443  0.86981537  0.85408779  1
  O  O198  1  0.00746032  0.12439415  0.15182429  1
  O  O199  1  0.00694926  0.12005877  0.47701776  1
  O  O200  1  0.00990433  0.12396619  0.80914670  1
  O  O201  1  0.01284002  0.62778921  0.13993422  1
  O  O202  1  -0.00126993  0.63151531  0.48249228  1
  O  O203  1  0.00361410  0.62590167  0.81840942  1
  O  O204  1  0.33695586  0.12242128  0.14075378  1
  O  O205  1  0.33719072  0.12326416  0.48154283  1
  O  O206  1  0.33071112  0.12187860  0.81054765  1
  O  O207  1  0.33613175  0.63083334  0.14356922  1
  O  O208  1  0.33922466  0.62998623  0.48102330  1
  O  O209  1  0.34166034  0.62887903  0.80866042  1
  O  O210  1  0.66557013  0.12158656  0.15532300  1
  O  O211  1  0.65758742  0.12027117  0.47417262  1
  O  O212  1  0.66538550  0.12434875  0.81319926  1
  O  O213  1  0.65790664  0.62899893  0.15990774  1
  O  O214  1  0.65554291  0.62960169  0.48048973  1
  O  O215  1  0.66990290  0.62587739  0.80370615  1
  O  O216  1  0.08520346  0.02240168  0.24877108  1
  O  O217  1  0.07959131  0.01928554  0.58488113  1
  O  O218  1  0.09385911  0.01190069  0.90656204  1
  O  O219  1  0.08363145  0.52065441  0.24850683  1
  O  O220  1  0.08332909  0.50195677  0.59009607  1
  O  O221  1  0.07872876  0.52703908  0.92474808  1
  O  O222  1  0.41138771  0.02400892  0.26106347  1
  O  O223  1  0.40854787  0.02246260  0.59610840  1
  O  O224  1  0.40527679  0.01116610  0.93143269  1
  O  O225  1  0.40990983  0.52295850  0.26031332  1
  O  O226  1  0.41358969  0.52475674  0.59621312  1
  O  O227  1  0.40743265  0.52489331  0.92369051  1
  O  O228  1  0.74401726  0.01496831  0.25609807  1
  O  O229  1  0.73901743  0.01755695  0.58543309  1
  O  O230  1  0.74878296  0.00148431  0.92244911  1
  O  O231  1  0.74367154  0.50751759  0.25364987  1
  O  O232  1  0.73642990  0.51321021  0.59248715  1
  O  O233  1  0.75204488  0.51667221  0.91034656  1
  O  O234  1  0.24913949  0.22262367  0.24908735  1
  O  O235  1  0.24285409  0.22298151  0.58256355  1
  O  O236  1  0.25042582  0.22880386  0.91634737  1
  O  O237  1  0.24523139  0.73000677  0.24105728  1
  O  O238  1  0.25350159  0.73937923  0.58952656  1
  O  O239  1  0.24456498  0.72197191  0.91273103  1
  O  O240  1  0.57538425  0.22737991  0.24646584  1
  O  O241  1  0.57821957  0.22996061  0.57502188  1
  O  O242  1  0.57954869  0.24794327  0.90904672  1
  O  O243  1  0.56804412  0.74086838  0.23921802  1
  O  O244  1  0.57227716  0.73561628  0.57343027  1
  O  O245  1  0.57143991  0.73519809  0.89996194  1
  O  O246  1  0.91345952  0.22564785  0.24775008  1
  O  O247  1  0.91949679  0.23201643  0.58573394  1
  O  O248  1  0.92223623  0.24854954  0.91596026  1
  O  O249  1  0.92336087  0.73587607  0.24870177  1
  O  O250  1  0.90905207  0.74879341  0.57982936  1
  O  O251  1  0.91524501  0.73118249  0.91182661  1
  O  O252  1  0.08808695  0.47850950  0.08516515  1
  O  O253  1  0.08448587  0.49810317  0.41180466  1
  O  O254  1  0.09484920  0.48756591  0.76274288  1
  O  O255  1  0.08895330  0.97549090  0.07835642  1
  O  O256  1  0.08052729  0.98373187  0.40891277  1
  O  O257  1  0.08494942  0.97471817  0.74756656  1
  O  O258  1  0.41963233  0.48469650  0.09911728  1
  O  O259  1  0.41767273  0.49241176  0.42119192  1
  O  O260  1  0.42538890  0.48498546  0.76179605  1
  O  O261  1  0.42189767  0.97565729  0.09459008  1
  O  O262  1  0.42880223  0.98384255  0.42651348  1
  O  O263  1  0.41885342  0.97308691  0.76074788  1
  O  O264  1  0.75349925  0.49671959  0.08393562  1
  O  O265  1  0.74632606  0.49150690  0.41574371  1
  O  O266  1  0.75574567  0.48155452  0.75456981  1
  O  O267  1  0.75111583  0.98342169  0.08927637  1
  O  O268  1  0.75430133  0.97531575  0.42037765  1
  O  O269  1  0.74737683  0.98856359  0.74406753  1
  O  O270  1  0.24541299  0.26314865  0.09117575  1
  O  O271  1  0.25759089  0.26187760  0.41092671  1
  O  O272  1  0.25421687  0.25952886  0.74813858  1
  O  O273  1  0.25626024  0.77257572  0.07853108  1
  O  O274  1  0.25955471  0.76485711  0.40479873  1
  O  O275  1  0.25704887  0.76981137  0.75041688  1
  O  O276  1  0.57856622  0.26040528  0.08709142  1
  O  O277  1  0.58955672  0.26796557  0.40332753  1
  O  O278  1  0.58750973  0.26857682  0.74216858  1
  O  O279  1  0.58676706  0.77526543  0.07473479  1
  O  O280  1  0.58985959  0.77805523  0.40626159  1
  O  O281  1  0.58888455  0.77683619  0.73828314  1
  O  O282  1  0.92271059  0.26328540  0.08070676  1
  O  O283  1  0.91879974  0.24505708  0.41218239  1
  O  O284  1  0.91811269  0.26856221  0.75399963  1
  O  O285  1  0.92883168  0.76634579  0.07811627  1
  O  O286  1  0.91862501  0.77253458  0.41333157  1
  O  O287  1  0.92651743  0.76793671  0.74413103  1
  O  O288  1  0.24594738  0.48707965  0.08705400  1
  O  O289  1  0.25663759  0.48803557  0.40817415  1
  O  O290  1  0.25874847  0.49078483  0.74666729  1
  O  O291  1  0.25491141  0.97631123  0.07866778  1
  O  O292  1  0.26013519  0.98526441  0.40613135  1
  O  O293  1  0.25556472  0.98086094  0.74842484  1
  O  O294  1  0.58042761  0.48788306  0.08535297  1
  O  O295  1  0.58815128  0.48235757  0.40596824  1
  O  O296  1  0.59150099  0.48027574  0.73830355  1
  O  O297  1  0.58618411  0.97514462  0.07718928  1
  O  O298  1  0.59147690  0.97363102  0.40397402  1
  O  O299  1  0.58603366  0.97493768  0.74014347  1
  O  O300  1  0.92889325  0.49067080  0.07197220  1
  O  O301  1  0.91880472  0.50025631  0.40952460  1
  O  O302  1  0.91792086  0.48169438  0.75511958  1
  O  O303  1  0.92195047  0.97993409  0.08407630  1
  O  O304  1  0.91798614  0.97900873  0.41262590  1
  O  O305  1  0.92680754  0.98619162  0.74100324  1
  O  O306  1  0.08634415  0.26871759  0.08068489  1
  O  O307  1  0.08798717  0.25080784  0.41767659  1
  O  O308  1  0.08615727  0.27082141  0.75004814  1
  O  O309  1  0.09040509  0.77803958  0.08388215  1
  O  O310  1  0.07959636  0.76525157  0.40735100  1
  O  O311  1  0.09159512  0.76729441  0.75673909  1
  O  O312  1  0.42000192  0.26477024  0.09652830  1
  O  O313  1  0.41727223  0.25829206  0.41648552  1
  O  O314  1  0.41879426  0.26987024  0.75880985  1
  O  O315  1  0.42029706  0.77479858  0.09641184  1
  O  O316  1  0.42820763  0.76976633  0.42649429  1
  O  O317  1  0.42213634  0.77295169  0.76091169  1
  O  O318  1  0.75334918  0.25306922  0.08769294  1
  O  O319  1  0.74427528  0.25879527  0.41267369  1
  O  O320  1  0.75041974  0.26428431  0.74938133  1
  O  O321  1  0.74783209  0.76519732  0.08433881  1
  O  O322  1  0.75442560  0.77293214  0.42098720  1
  O  O323  1  0.74957514  0.76541500  0.74604287  1
  O  O324  1  0.24545842  0.02405370  0.24249357  1
  O  O325  1  0.24382276  0.02312784  0.58236945  1
  O  O326  1  0.24958511  0.02386322  0.91417570  1
  O  O327  1  0.24818862  0.52116565  0.24723853  1
  O  O328  1  0.25340861  0.51469881  0.58681877  1
  O  O329  1  0.24353011  0.52656208  0.91375863  1
  O  O330  1  0.57196356  0.01739448  0.24184722  1
  O  O331  1  0.57322801  0.01080355  0.56827756  1
  O  O332  1  0.57752118  -0.00033860  0.91299241  1
  O  O333  1  0.57074584  0.51117257  0.24506642  1
  O  O334  1  0.57490094  0.52329585  0.57810695  1
  O  O335  1  0.57470616  0.51495194  0.89889397  1
  O  O336  1  0.91370996  0.02496091  0.25178514  1
  O  O337  1  0.91454154  0.01736924  0.57920775  1
  O  O338  1  0.92495365  0.00100093  0.91747606  1
  O  O339  1  0.91935679  0.51863188  0.24434806  1
  O  O340  1  0.91205555  0.50425006  0.58485986  1
  O  O341  1  0.91331735  0.52431239  0.91235923  1
  O  O342  1  0.08469636  0.23029185  0.24934220  1
  O  O343  1  0.08082266  0.22575142  0.58637069  1
  O  O344  1  0.09261777  0.23738879  0.90737214  1
  O  O345  1  0.08391205  0.72776766  0.24829512  1
  O  O346  1  0.07874420  0.75040552  0.58695963  1
  O  O347  1  0.08071737  0.72796928  0.92262803  1
  O  O348  1  0.41308696  0.22243459  0.25512999  1
  O  O349  1  0.40993547  0.22605910  0.59280715  1
  O  O350  1  0.40869973  0.23352935  0.92626292  1
  O  O351  1  0.40674948  0.73075660  0.26284018  1
  O  O352  1  0.41380779  0.72403759  0.59655188  1
  O  O353  1  0.40612276  0.72923878  0.92729084  1
  O  O354  1  0.74655335  0.22982489  0.25103368  1
  O  O355  1  0.74084840  0.23189189  0.58603590  1
  O  O356  1  0.75357321  0.24822246  0.91239110  1
  O  O357  1  0.74300066  0.74443480  0.25431381  1
  O  O358  1  0.73600534  0.73866201  0.58826247  1
  O  O359  1  0.74956932  0.73351968  0.91032359  1
