# generated using pymatgen
data_Ba17Sr5La8Pr42Mn72O216
_symmetry_space_group_name_H-M   'P 1'
_cell_length_a   16.67506349
_cell_length_b   15.69921509
_cell_length_c   16.82434203
_cell_angle_alpha   89.98549912
_cell_angle_beta   90.04999558
_cell_angle_gamma   89.99261934
_symmetry_Int_Tables_number   1
_chemical_formula_structural   Ba17Sr5La8Pr42Mn72O216
_chemical_formula_sum   'Ba17 Sr5 La8 Pr42 Mn72 O216'
_cell_volume   4404.36539285
_cell_formula_units_Z   1
loop_
 _symmetry_equiv_pos_site_id
 _symmetry_equiv_pos_as_xyz
  1  'x, y, z'
loop_
 _atom_site_type_symbol
 _atom_site_label
 _atom_site_symmetry_multiplicity
 _atom_site_fract_x
 _atom_site_fract_y
 _atom_site_fract_z
 _atom_site_occupancy
  Ba  Ba0  1  0.50219437  0.12738464  0.50120686  1
  Ba  Ba1  1  0.67052932  0.62386289  0.99903624  1
  Ba  Ba2  1  0.66569732  0.87484524  0.00311353  1
  Ba  Ba3  1  0.82990876  0.37490740  0.50058127  1
  Ba  Ba4  1  0.49989220  0.87482969  0.83346655  1
  Ba  Ba5  1  0.16456425  0.87604573  0.16810311  1
  Ba  Ba6  1  0.33483497  0.62370403  1.00121869  1
  Ba  Ba7  1  -0.00266786  0.87562799  0.33237386  1
  Ba  Ba8  1  0.00042031  0.62264535  0.33219615  1
  Ba  Ba9  1  0.00073085  0.87705420  0.00058655  1
  Ba  Ba10  1  0.33085025  0.37667913  0.00035541  1
  Ba  Ba11  1  0.66687048  0.37513010  0.00061016  1
  Ba  Ba12  1  0.16576494  0.37319389  0.83050289  1
  Ba  Ba13  1  -0.00118381  0.12556543  0.33115568  1
  Ba  Ba14  1  0.00262509  0.62461367  0.66356618  1
  Ba  Ba15  1  0.16855729  0.12433073  0.16830792  1
  Ba  Ba16  1  0.33215955  0.87757701  0.66819297  1
  Sr  Sr17  1  0.66257155  0.87252393  0.33444495  1
  Sr  Sr18  1  0.49297434  0.37472906  0.49843556  1
  Sr  Sr19  1  0.00492085  0.12276973  1.00004965  1
  Sr  Sr20  1  0.16984263  0.62725746  0.50048388  1
  Sr  Sr21  1  0.66875196  0.62376920  0.33208061  1
  La  La22  1  0.66886081  0.62653633  0.66524401  1
  La  La23  1  0.17063211  0.62603846  0.83398809  1
  La  La24  1  -0.00269296  0.37182142  -0.00292763  1
  La  La25  1  0.65981382  0.37782287  0.33772155  1
  La  La26  1  -0.00857034  0.37779861  0.66908852  1
  La  La27  1  0.50193241  0.62830421  0.83572870  1
  La  La28  1  0.15810311  0.37497899  0.16253249  1
  La  La29  1  0.33556986  0.62464913  0.66468995  1
  Pr  Pr30  1  0.00515093  0.62670775  0.99721763  1
  Pr  Pr31  1  0.83353402  0.37539831  0.16670200  1
  Pr  Pr32  1  0.49755753  0.87281675  0.16290874  1
  Pr  Pr33  1  0.49501136  0.37735002  0.16504201  1
  Pr  Pr34  1  0.33881180  0.62581278  0.32950769  1
  Pr  Pr35  1  0.83403813  0.12078257  0.16681294  1
  Pr  Pr36  1  0.67340222  0.12357205  0.66412510  1
  Pr  Pr37  1  0.34139072  0.12484897  0.33076728  1
  Pr  Pr38  1  -0.00137697  0.87202669  0.66867610  1
  Pr  Pr39  1  0.49530454  0.38120585  0.83211020  1
  Pr  Pr40  1  0.83336127  0.62752844  0.16636154  1
  Pr  Pr41  1  0.84084751  0.62432815  0.83691824  1
  Pr  Pr42  1  0.82666486  0.37689195  0.82744589  1
  Pr  Pr43  1  0.17275436  0.12068567  0.49927151  1
  Pr  Pr44  1  0.17212224  0.62752503  0.16840578  1
  Pr  Pr45  1  0.49292028  0.87523993  0.49609622  1
  Pr  Pr46  1  0.15978161  0.37752604  0.49834272  1
  Pr  Pr47  1  0.50734068  0.12796106  0.17101913  1
  Pr  Pr48  1  0.65982887  0.37118108  0.66977342  1
  Pr  Pr49  1  0.50457512  0.62337665  0.50035289  1
  Pr  Pr50  1  0.32619601  0.37370675  0.33660829  1
  Pr  Pr51  1  0.16357395  0.87517538  0.83320895  1
  Pr  Pr52  1  0.33227708  0.37184239  0.66898209  1
  Pr  Pr53  1  0.33631182  0.12575497  1.00080520  1
  Pr  Pr54  1  0.82996248  0.87415490  0.83261294  1
  Pr  Pr55  1  0.66846895  0.12709364  0.33462297  1
  Pr  Pr56  1  0.33123070  0.87484825  0.00336171  1
  Pr  Pr57  1  0.15719507  0.87133169  0.49627470  1
  Pr  Pr58  1  0.00695440  0.12899990  0.66185861  1
  Pr  Pr59  1  0.50324593  0.12389551  0.83587978  1
  Pr  Pr60  1  0.83629903  0.62731029  0.50060052  1
  Pr  Pr61  1  0.32471826  0.87641080  0.33846521  1
  Pr  Pr62  1  0.66342914  0.87872701  0.66998732  1
  Pr  Pr63  1  0.83530179  0.87394153  0.16573085  1
  Pr  Pr64  1  0.51026656  0.62217869  0.16700984  1
  Pr  Pr65  1  0.82807634  0.87151891  0.49558465  1
  Pr  Pr66  1  0.67069263  0.12498105  0.99880772  1
  Pr  Pr67  1  -0.00686348  0.37189737  0.33384416  1
  Pr  Pr68  1  0.33975216  0.12605526  0.66694525  1
  Pr  Pr69  1  0.83795800  0.12279472  0.50184284  1
  Pr  Pr70  1  0.84019632  0.12619987  0.83803734  1
  Pr  Pr71  1  0.17531678  0.12413748  0.83918867  1
  Mn  Mn72  1  -0.00148179  0.00078519  0.16592824  1
  Mn  Mn73  1  -0.00104465  0.00180199  0.50249436  1
  Mn  Mn74  1  0.00029017  -0.00006373  0.82975770  1
  Mn  Mn75  1  -0.00175911  0.49951249  0.16361822  1
  Mn  Mn76  1  -0.00073290  0.49853333  0.49860386  1
  Mn  Mn77  1  0.00013801  0.50007151  0.83289839  1
  Mn  Mn78  1  0.33699824  0.00036394  0.16815658  1
  Mn  Mn79  1  0.33292886  0.00055840  0.50166886  1
  Mn  Mn80  1  0.33425576  0.00147246  0.83518496  1
  Mn  Mn81  1  0.33384691  0.50072274  0.17011644  1
  Mn  Mn82  1  0.33192475  0.50015945  0.49900658  1
  Mn  Mn83  1  0.33325165  0.49988997  0.82997032  1
  Mn  Mn84  1  0.66611660  -0.00009107  0.16984984  1
  Mn  Mn85  1  0.66698543  -0.00161050  0.50026546  1
  Mn  Mn86  1  0.66844557  0.00195469  0.83300484  1
  Mn  Mn87  1  0.66859651  0.49887641  0.16971531  1
  Mn  Mn88  1  0.66438220  0.50081694  0.49997439  1
  Mn  Mn89  1  0.66724783  0.49979732  0.83034125  1
  Mn  Mn90  1  -0.00260994  0.25015957  0.16552430  1
  Mn  Mn91  1  0.00027061  0.24996365  0.49901726  1
  Mn  Mn92  1  -0.00082444  0.24794347  0.83135015  1
  Mn  Mn93  1  -0.00090710  0.74799489  0.16467958  1
  Mn  Mn94  1  -0.00124752  0.74922188  0.50045960  1
  Mn  Mn95  1  0.00090642  0.75098167  0.83253627  1
  Mn  Mn96  1  0.33479182  0.25110050  0.16876780  1
  Mn  Mn97  1  0.33044382  0.25044461  0.50105679  1
  Mn  Mn98  1  0.33599892  0.24940372  0.83287906  1
  Mn  Mn99  1  0.33551839  0.75044675  0.16873876  1
  Mn  Mn100  1  0.33383518  0.74861901  0.49928541  1
  Mn  Mn101  1  0.33297673  0.75047564  0.83271514  1
  Mn  Mn102  1  0.66823235  0.25029967  0.16839992  1
  Mn  Mn103  1  0.66636281  0.25066471  0.50101214  1
  Mn  Mn104  1  0.66603845  0.24853346  0.83349959  1
  Mn  Mn105  1  0.66664600  0.74973540  0.17042294  1
  Mn  Mn106  1  0.66452546  0.74915291  0.49988579  1
  Mn  Mn107  1  0.66913914  0.75083312  0.83087052  1
  Mn  Mn108  1  0.16622064  0.24984972  -0.00006974  1
  Mn  Mn109  1  0.16746474  0.25195639  0.33322332  1
  Mn  Mn110  1  0.16714050  0.24798327  0.66398205  1
  Mn  Mn111  1  0.16815897  0.74935809  0.00012972  1
  Mn  Mn112  1  0.16715856  0.74762953  0.33553608  1
  Mn  Mn113  1  0.16806676  0.75135071  0.66595471  1
  Mn  Mn114  1  0.50065268  0.24971877  0.00241935  1
  Mn  Mn115  1  0.49920382  0.25139073  0.33406002  1
  Mn  Mn116  1  0.50162473  0.25112738  0.66862648  1
  Mn  Mn117  1  0.50009400  0.74993173  0.00038380  1
  Mn  Mn118  1  0.49965277  0.75030739  0.33247148  1
  Mn  Mn119  1  0.50138245  0.74820387  0.66486687  1
  Mn  Mn120  1  0.83473864  0.24967872  -0.00042821  1
  Mn  Mn121  1  0.82918216  0.24967664  0.33224898  1
  Mn  Mn122  1  0.83302039  0.24778213  0.66822579  1
  Mn  Mn123  1  0.83495176  0.74958355  -0.00000706  1
  Mn  Mn124  1  0.82999226  0.74921319  0.33314720  1
  Mn  Mn125  1  0.83184555  0.75146272  0.66568803  1
  Mn  Mn126  1  0.16880197  0.00266213  -0.00033219  1
  Mn  Mn127  1  0.16692103  0.00085854  0.33627819  1
  Mn  Mn128  1  0.16546925  0.00241730  0.66836204  1
  Mn  Mn129  1  0.16476795  0.49900134  0.00030223  1
  Mn  Mn130  1  0.16771958  0.49888617  0.33174711  1
  Mn  Mn131  1  0.16855738  0.49934834  0.66304989  1
  Mn  Mn132  1  0.49997894  0.00186487  0.00353167  1
  Mn  Mn133  1  0.50061223  -0.00154291  0.33218430  1
  Mn  Mn134  1  0.50214544  0.00156235  0.66670684  1
  Mn  Mn135  1  0.50099020  0.49960747  -0.00022107  1
  Mn  Mn136  1  0.49803897  0.50024978  0.33488499  1
  Mn  Mn137  1  0.50073365  0.49942043  0.66462578  1
  Mn  Mn138  1  0.83382392  0.00131460  0.00012621  1
  Mn  Mn139  1  0.82846371  -0.00124226  0.33452379  1
  Mn  Mn140  1  0.83578449  -0.00035423  0.66685512  1
  Mn  Mn141  1  0.83648737  0.49805648  -0.00087096  1
  Mn  Mn142  1  0.83061391  0.50030350  0.33221491  1
  Mn  Mn143  1  0.82977122  0.50162811  0.66607406  1
  O  O144  1  0.17470914  0.12773571  0.00982728  1
  O  O145  1  0.17422930  0.12793535  0.35508530  1
  O  O146  1  0.15691372  0.12513322  0.69626859  1
  O  O147  1  0.16221872  0.61994709  0.02216572  1
  O  O148  1  0.17604427  0.62236518  0.35011298  1
  O  O149  1  0.17173095  0.62512665  0.68894857  1
  O  O150  1  0.49897263  0.12607281  0.02800305  1
  O  O151  1  0.49944651  0.12540831  0.34706252  1
  O  O152  1  0.50040977  0.12953982  0.68948780  1
  O  O153  1  0.50277572  0.62328388  0.01894173  1
  O  O154  1  0.49453254  0.62606481  0.35892298  1
  O  O155  1  0.50227250  0.62081099  0.69055080  1
  O  O156  1  0.82795319  0.12632023  0.02218977  1
  O  O157  1  0.82503468  0.12343142  0.35906567  1
  O  O158  1  0.83435738  0.12057902  0.69476738  1
  O  O159  1  0.84287873  0.62084793  0.02051874  1
  O  O160  1  0.83079710  0.62289665  0.35739378  1
  O  O161  1  0.82642021  0.62590421  0.69311125  1
  O  O162  1  0.17543299  0.37557366  0.30593787  1
  O  O163  1  0.17886628  0.37014902  0.64143400  1
  O  O164  1  0.15886762  0.37418456  0.98853571  1
  O  O165  1  0.17205001  0.87425746  0.32787520  1
  O  O166  1  0.16339839  0.88138005  0.64115464  1
  O  O167  1  0.17432279  0.87900656  0.97805307  1
  O  O168  1  0.49704405  0.37412884  0.30917859  1
  O  O169  1  0.50345132  0.37551606  0.64640083  1
  O  O170  1  0.49973147  0.37321510  0.97705476  1
  O  O171  1  0.49676342  0.87476656  0.30640609  1
  O  O172  1  0.50790552  0.87299676  0.64241332  1
  O  O173  1  0.49491117  0.87776731  0.98957539  1
  O  O174  1  0.82827715  0.37549023  0.31092114  1
  O  O175  1  0.83128286  0.37335057  0.65774862  1
  O  O176  1  0.83804739  0.37303174  0.97098736  1
  O  O177  1  0.82562632  0.87561711  0.31103448  1
  O  O178  1  0.83232377  0.88060748  0.63836442  1
  O  O179  1  0.83204358  0.87821875  0.97753657  1
  O  O180  1  0.00132282  0.37703908  0.18928169  1
  O  O181  1  0.00519287  0.37198882  0.52314445  1
  O  O182  1  -0.00636452  0.37758814  0.85223052  1
  O  O183  1  -0.00732348  0.87360018  0.17482081  1
  O  O184  1  0.00257908  0.87958618  0.52315919  1
  O  O185  1  0.00504456  0.87549296  0.84641029  1
  O  O186  1  0.34362679  0.37701200  0.19285569  1
  O  O187  1  0.32916306  0.37368952  0.52577680  1
  O  O188  1  0.34242746  0.37347729  0.84312463  1
  O  O189  1  0.34495333  0.87411495  0.19341943  1
  O  O190  1  0.34285287  0.87322935  0.51286706  1
  O  O191  1  0.32950708  0.88001332  0.85731169  1
  O  O192  1  0.67800686  0.37325089  0.19339997  1
  O  O193  1  0.66435131  0.37636314  0.52600195  1
  O  O194  1  0.67493512  0.37237542  0.84463794  1
  O  O195  1  0.66768304  0.87491395  0.18532153  1
  O  O196  1  0.67317646  0.87256892  0.52759239  1
  O  O197  1  0.67620445  0.87839877  0.84563212  1
  O  O198  1  -0.01257262  0.12845887  0.15220426  1
  O  O199  1  -0.00870469  0.12673830  0.48762942  1
  O  O200  1  -0.00900345  0.12035689  0.80316536  1
  O  O201  1  -0.01025846  0.62080577  0.14204081  1
  O  O202  1  -0.00967347  0.62052630  0.49007608  1
  O  O203  1  -0.00282981  0.62621795  0.81887017  1
  O  O204  1  0.34013938  0.12530404  0.14531130  1
  O  O205  1  0.32580717  0.12695707  0.47398274  1
  O  O206  1  0.33047007  0.12598331  0.81082239  1
  O  O207  1  0.32171223  0.62574758  0.15765730  1
  O  O208  1  0.33671578  0.62579979  0.47342530  1
  O  O209  1  0.32911304  0.62266578  0.81037667  1
  O  O210  1  0.66127650  0.12765738  0.14210400  1
  O  O211  1  0.67124159  0.12427867  0.47826810  1
  O  O212  1  0.66253417  0.12618565  0.80799674  1
  O  O213  1  0.66093633  0.62306095  0.15595100  1
  O  O214  1  0.65841510  0.62578631  0.47942724  1
  O  O215  1  0.66906619  0.62404813  0.80986050  1
  O  O216  1  0.08353738  0.00716904  0.25052144  1
  O  O217  1  0.08812571  0.02527099  0.58263103  1
  O  O218  1  0.09253621  0.01613761  0.90310243  1
  O  O219  1  0.09614736  0.51532603  0.23539760  1
  O  O220  1  0.09286435  0.50618188  0.57429609  1
  O  O221  1  0.08507387  0.52103053  0.91249860  1
  O  O222  1  0.42542217  0.02232886  0.24305546  1
  O  O223  1  0.41630768  0.01560762  0.58311867  1
  O  O224  1  0.42010141  0.02599256  0.91856566  1
  O  O225  1  0.42307688  0.52498064  0.24716147  1
  O  O226  1  0.42292802  0.52094909  0.57876444  1
  O  O227  1  0.42308127  0.51404500  0.90365454  1
  O  O228  1  0.74708171  0.02561594  0.25129460  1
  O  O229  1  0.75973341  0.02405376  0.58358520  1
  O  O230  1  0.75245545  0.02483902  0.91454779  1
  O  O231  1  0.75409134  0.52037755  0.24637745  1
  O  O232  1  0.75115724  0.52537415  0.57836838  1
  O  O233  1  0.76273275  0.51299333  0.90454338  1
  O  O234  1  0.26393783  0.23701948  0.26363217  1
  O  O235  1  0.25155859  0.22051264  0.58613644  1
  O  O236  1  0.25701527  0.23263597  0.91714695  1
  O  O237  1  0.25765284  0.73810495  0.25795573  1
  O  O238  1  0.25781545  0.73254770  0.58868121  1
  O  O239  1  0.24780866  0.73670830  0.91450076  1
  O  O240  1  0.58994931  0.23276323  0.25536261  1
  O  O241  1  0.59480032  0.23542335  0.59830227  1
  O  O242  1  0.58776582  0.22523463  0.92172951  1
  O  O243  1  0.58351431  0.73222456  0.25520233  1
  O  O244  1  0.58467408  0.72697532  0.58389545  1
  O  O245  1  0.58520639  0.73710137  0.91023583  1
  O  O246  1  0.90845876  0.24282452  0.24359407  1
  O  O247  1  0.92074009  0.23368622  0.59316216  1
  O  O248  1  0.91773030  0.22828187  0.92029496  1
  O  O249  1  0.91214465  0.73641074  0.24471678  1
  O  O250  1  0.91041125  0.74036558  0.58206571  1
  O  O251  1  0.92134128  0.73142171  0.91829442  1
  O  O252  1  0.07353750  0.48189022  0.07510069  1
  O  O253  1  0.07988299  0.47468324  0.40437614  1
  O  O254  1  0.07639942  0.48261589  0.74028267  1
  O  O255  1  0.08426471  0.99909895  0.07670603  1
  O  O256  1  0.08386905  0.99139192  0.42524035  1
  O  O257  1  0.07652140  0.97773920  0.74093708  1
  O  O258  1  0.41760598  0.48915867  0.08926702  1
  O  O259  1  0.40581620  0.48149917  0.40903969  1
  O  O260  1  0.41536011  0.48066193  0.74117892  1
  O  O261  1  0.41322953  0.97901704  0.08126427  1
  O  O262  1  0.41067046  0.98366742  0.40599775  1
  O  O263  1  0.41497868  0.99815692  0.75164937  1
  O  O264  1  0.75644543  0.48743950  0.08587868  1
  O  O265  1  0.73846632  0.48524206  0.41087577  1
  O  O266  1  0.74179488  0.48111220  0.74114305  1
  O  O267  1  0.75081563  0.99019293  0.09058668  1
  O  O268  1  0.74530342  0.97857987  0.41721049  1
  O  O269  1  0.75279834  0.98130305  0.74347017  1
  O  O270  1  0.24609433  0.26693237  0.09683242  1
  O  O271  1  0.24228922  0.27383440  0.42420353  1
  O  O272  1  0.25480301  0.25889472  0.74414462  1
  O  O273  1  0.25356396  0.76584775  0.08310589  1
  O  O274  1  0.24676778  0.76906094  0.42515062  1
  O  O275  1  0.24176483  0.76736699  0.75717219  1
  O  O276  1  0.57820053  0.26852476  0.09637564  1
  O  O277  1  0.57738956  0.26933346  0.41733841  1
  O  O278  1  0.57760183  0.27213224  0.75972559  1
  O  O279  1  0.57605387  0.76053184  0.09420791  1
  O  O280  1  0.57330292  0.77032516  0.42598529  1
  O  O281  1  0.59021053  0.76175779  0.74254577  1
  O  O282  1  0.91415381  0.27482401  0.08261628  1
  O  O283  1  0.91464538  0.26432378  0.41131232  1
  O  O284  1  0.90754979  0.26769811  0.75768961  1
  O  O285  1  0.91031928  0.76275430  0.08707915  1
  O  O286  1  0.90742184  0.76361644  0.42250993  1
  O  O287  1  0.91331197  0.77129006  0.75267563  1
  O  O288  1  0.23968111  0.48693799  0.09637189  1
  O  O289  1  0.24223286  0.47612338  0.42134051  1
  O  O290  1  0.25423627  0.48480634  0.74376469  1
  O  O291  1  0.25740912  0.98643871  0.08222339  1
  O  O292  1  0.24402045  0.98126475  0.42984639  1
  O  O293  1  0.23688780  0.98807548  0.76173460  1
  O  O294  1  0.57940883  0.48365926  0.09481612  1
  O  O295  1  0.57420244  0.48290949  0.42255455  1
  O  O296  1  0.57985444  0.47798362  0.74990895  1
  O  O297  1  0.57482446  0.98785123  0.09528527  1
  O  O298  1  0.57385174  0.97777626  0.42170619  1
  O  O299  1  0.58763123  0.98847815  0.74894779  1
  O  O300  1  0.91516913  0.47093679  0.08175140  1
  O  O301  1  0.91641501  0.48148707  0.40982342  1
  O  O302  1  0.90808039  0.48514447  0.75728604  1
  O  O303  1  0.90892714  0.98893523  0.08700165  1
  O  O304  1  0.90509891  0.98610272  0.42809082  1
  O  O305  1  0.91232997  0.97098859  0.74918717  1
  O  O306  1  0.07548754  0.26479768  0.07984982  1
  O  O307  1  0.08154284  0.27441142  0.40989245  1
  O  O308  1  0.07233745  0.26723184  0.73171463  1
  O  O309  1  0.08145368  0.74968719  0.08059739  1
  O  O310  1  0.08323710  0.75962078  0.41907317  1
  O  O311  1  0.08168403  0.77067150  0.74708165  1
  O  O312  1  0.41696195  0.26654683  0.08609212  1
  O  O313  1  0.40583366  0.26541487  0.41085839  1
  O  O314  1  0.41812480  0.26853804  0.74936733  1
  O  O315  1  0.41313539  0.76885632  0.08338398  1
  O  O316  1  0.41086010  0.77022849  0.40760024  1
  O  O317  1  0.41583642  0.75307469  0.74481657  1
  O  O318  1  0.75358727  0.26297463  0.08689294  1
  O  O319  1  0.73936178  0.26548283  0.40687490  1
  O  O320  1  0.74233489  0.26198091  0.74268989  1
  O  O321  1  0.75326528  0.75878144  0.08797773  1
  O  O322  1  0.74634443  0.76516825  0.41952657  1
  O  O323  1  0.74997436  0.77457706  0.74421659  1
  O  O324  1  0.26441820  0.01135312  0.26161482  1
  O  O325  1  0.25199396  0.02714429  0.59433870  1
  O  O326  1  0.25824417  0.02270401  0.92175440  1
  O  O327  1  0.26125942  0.51413829  0.26150577  1
  O  O328  1  0.25777261  0.52071407  0.58514057  1
  O  O329  1  0.24675408  0.51230287  0.91233162  1
  O  O330  1  0.58818365  0.02205967  0.25601008  1
  O  O331  1  0.59538904  0.01456962  0.59042316  1
  O  O332  1  0.58518957  0.02399072  0.92258480  1
  O  O333  1  0.58417312  0.51006226  0.25680089  1
  O  O334  1  0.58704433  0.52148526  0.58813586  1
  O  O335  1  0.58403265  0.51085201  0.90866259  1
  O  O336  1  0.90598365  0.01045686  0.24811192  1
  O  O337  1  0.92138579  0.02219253  0.59241751  1
  O  O338  1  0.91743790  0.01786071  0.91175510  1
  O  O339  1  0.91263282  0.50999917  0.24214081  1
  O  O340  1  0.91144246  0.50940644  0.58611736  1
  O  O341  1  0.92357125  0.51982473  0.92145336  1
  O  O342  1  0.08564611  0.24669634  0.24715380  1
  O  O343  1  0.09274965  0.22799587  0.57497479  1
  O  O344  1  0.08584438  0.23013414  0.90413574  1
  O  O345  1  0.08929809  0.73280575  0.24300093  1
  O  O346  1  0.08871819  0.74410350  0.58040228  1
  O  O347  1  0.08716411  0.73163338  0.91205542  1
  O  O348  1  0.42332940  0.22989783  0.24621939  1
  O  O349  1  0.41184262  0.23761286  0.58870083  1
  O  O350  1  0.42062352  0.22516126  0.91323555  1
  O  O351  1  0.42339372  0.72419146  0.24395353  1
  O  O352  1  0.42302577  0.72789167  0.57522663  1
  O  O353  1  0.42017077  0.73553901  0.91079024  1
  O  O354  1  0.75024633  0.22202780  0.24788951  1
  O  O355  1  0.75795008  0.22524382  0.58184261  1
  O  O356  1  0.75261666  0.22743557  0.91294581  1
  O  O357  1  0.75268621  0.73080997  0.24715104  1
  O  O358  1  0.74998097  0.72699881  0.57972625  1
  O  O359  1  0.76147017  0.73531093  0.90627713  1
