# generated using pymatgen
data_Ba17Sr5La8Pr42Mn72O216
_symmetry_space_group_name_H-M   'P 1'
_cell_length_a   16.67124258
_cell_length_b   15.70307114
_cell_length_c   16.81800373
_cell_angle_alpha   90.00186373
_cell_angle_beta   90.02930164
_cell_angle_gamma   89.97899871
_symmetry_Int_Tables_number   1
_chemical_formula_structural   Ba17Sr5La8Pr42Mn72O216
_chemical_formula_sum   'Ba17 Sr5 La8 Pr42 Mn72 O216'
_cell_volume   4402.77941804
_cell_formula_units_Z   1
loop_
 _symmetry_equiv_pos_site_id
 _symmetry_equiv_pos_as_xyz
  1  'x, y, z'
loop_
 _atom_site_type_symbol
 _atom_site_label
 _atom_site_symmetry_multiplicity
 _atom_site_fract_x
 _atom_site_fract_y
 _atom_site_fract_z
 _atom_site_occupancy
  Ba  Ba0  1  0.66679503  0.62566114  1.00108557  1
  Ba  Ba1  1  -0.00297565  0.87682809  0.33578079  1
  Ba  Ba2  1  0.33349916  0.87626082  0.00194407  1
  Ba  Ba3  1  0.67044544  0.37481914  0.66983541  1
  Ba  Ba4  1  0.33150309  0.12460654  0.66479554  1
  Ba  Ba5  1  -0.00050283  0.62507901  0.99868030  1
  Ba  Ba6  1  0.49781035  0.87583720  0.16816424  1
  Ba  Ba7  1  0.33448976  0.62310584  0.33236784  1
  Ba  Ba8  1  0.50311340  0.37309241  0.83412777  1
  Ba  Ba9  1  0.83260006  0.87670459  0.16786594  1
  Ba  Ba10  1  0.66792523  0.87540889  0.66413498  1
  Ba  Ba11  1  0.17030534  0.37406671  0.16387326  1
  Ba  Ba12  1  0.00176788  0.37579109  -0.00020425  1
  Ba  Ba13  1  -0.00070769  0.12537136  0.33667994  1
  Ba  Ba14  1  0.16532566  0.12328379  0.83162544  1
  Ba  Ba15  1  0.33393025  0.62474245  0.66328044  1
  Ba  Ba16  1  0.50296848  0.62444093  0.83409609  1
  Sr  Sr17  1  0.50359310  0.12470774  0.83404112  1
  Sr  Sr18  1  0.82953161  0.87230259  0.49377874  1
  Sr  Sr19  1  0.33682894  0.37335857  -0.00204635  1
  Sr  Sr20  1  0.83024853  0.62746807  0.49800328  1
  Sr  Sr21  1  0.15950596  0.12280486  0.50592192  1
  La  La22  1  0.16745843  0.62448457  0.83695390  1
  La  La23  1  0.16746574  0.87385687  0.83352830  1
  La  La24  1  0.66276529  0.87404889  0.00175290  1
  La  La25  1  0.17335709  0.37492437  0.83532483  1
  La  La26  1  0.16847529  0.12600913  0.16704640  1
  La  La27  1  0.33338642  0.12594718  0.99561533  1
  La  La28  1  0.00725126  0.37598785  0.33504563  1
  La  La29  1  0.66676571  0.12465498  0.33333244  1
  Pr  Pr30  1  0.83520886  0.37307227  0.16343698  1
  Pr  Pr31  1  0.50415467  0.62585760  0.50452961  1
  Pr  Pr32  1  0.83085420  0.12530718  0.83096425  1
  Pr  Pr33  1  -0.00406743  0.12658592  0.66014636  1
  Pr  Pr34  1  0.83622030  0.87006857  0.83023365  1
  Pr  Pr35  1  0.66298210  0.12727218  0.66586124  1
  Pr  Pr36  1  -0.00184837  0.62822750  0.32895528  1
  Pr  Pr37  1  0.50528414  0.62594862  0.16608472  1
  Pr  Pr38  1  0.33051271  0.87610068  0.66978585  1
  Pr  Pr39  1  0.67055554  0.62550535  0.32984670  1
  Pr  Pr40  1  0.33293052  0.12554111  0.33317049  1
  Pr  Pr41  1  0.49979823  0.12393675  0.50570749  1
  Pr  Pr42  1  0.33514541  0.37458429  0.33114344  1
  Pr  Pr43  1  0.49860610  0.37672459  0.16075816  1
  Pr  Pr44  1  0.16581868  0.87544200  0.49902678  1
  Pr  Pr45  1  0.00604123  0.37487565  0.67138844  1
  Pr  Pr46  1  0.66040888  0.87374470  0.34308942  1
  Pr  Pr47  1  -0.00003302  0.87584127  0.66530610  1
  Pr  Pr48  1  0.33783385  0.37305126  0.67131989  1
  Pr  Pr49  1  0.32499873  0.87503909  0.33217865  1
  Pr  Pr50  1  0.00170199  0.87748896  0.00472008  1
  Pr  Pr51  1  0.82852917  0.62567236  0.83442254  1
  Pr  Pr52  1  0.66522760  0.37586166  -0.00024297  1
  Pr  Pr53  1  0.17026188  0.62335405  0.16575804  1
  Pr  Pr54  1  0.83699952  0.37523548  0.49837577  1
  Pr  Pr55  1  0.66693042  0.62300391  0.66670479  1
  Pr  Pr56  1  0.49882337  0.12464425  0.16681917  1
  Pr  Pr57  1  0.83431583  0.12749247  0.16995284  1
  Pr  Pr58  1  0.49583789  0.87361203  0.83383164  1
  Pr  Pr59  1  0.83853879  0.38044609  0.83063213  1
  Pr  Pr60  1  0.48881603  0.87536523  0.49468725  1
  Pr  Pr61  1  -0.00421449  0.12648938  0.99948942  1
  Pr  Pr62  1  0.66716638  0.37477327  0.33990780  1
  Pr  Pr63  1  0.16397433  0.87419184  0.16618927  1
  Pr  Pr64  1  -0.00539165  0.62511521  0.66558385  1
  Pr  Pr65  1  0.33511123  0.62335038  0.99758706  1
  Pr  Pr66  1  0.16002247  0.62631182  0.50398837  1
  Pr  Pr67  1  0.83093655  0.12037181  0.50253476  1
  Pr  Pr68  1  0.66714328  0.12102911  0.99999264  1
  Pr  Pr69  1  0.17612392  0.37388952  0.49778830  1
  Pr  Pr70  1  0.49659593  0.37521848  0.50079834  1
  Pr  Pr71  1  0.83740381  0.62300564  0.16926814  1
  Mn  Mn72  1  0.00006287  0.00102824  0.16588988  1
  Mn  Mn73  1  -0.00326140  -0.00075356  0.50197175  1
  Mn  Mn74  1  -0.00147961  -0.00027774  0.83416784  1
  Mn  Mn75  1  0.00051993  0.50114215  0.16861247  1
  Mn  Mn76  1  -0.00151819  0.49996494  0.50103142  1
  Mn  Mn77  1  0.00196596  0.50038167  0.83064083  1
  Mn  Mn78  1  0.33265887  0.00212834  0.16770200  1
  Mn  Mn79  1  0.33020018  -0.00024277  0.49872176  1
  Mn  Mn80  1  0.33474113  0.00063000  0.83360944  1
  Mn  Mn81  1  0.33518960  0.50022735  0.16397859  1
  Mn  Mn82  1  0.33379516  0.50006863  0.49840487  1
  Mn  Mn83  1  0.33374051  0.49985993  0.83214734  1
  Mn  Mn84  1  0.66655703  0.00115123  0.16786904  1
  Mn  Mn85  1  0.66342931  0.00098680  0.50065670  1
  Mn  Mn86  1  0.66885714  -0.00064132  0.83397860  1
  Mn  Mn87  1  0.66716170  0.49749706  0.16952074  1
  Mn  Mn88  1  0.66690390  0.49889017  0.49971628  1
  Mn  Mn89  1  0.67029694  0.49951869  0.83385209  1
  Mn  Mn90  1  0.00002349  0.24931539  0.16721736  1
  Mn  Mn91  1  -0.00167641  0.25349452  0.50192462  1
  Mn  Mn92  1  0.00026302  0.24818123  0.83144704  1
  Mn  Mn93  1  -0.00020815  0.75026501  0.16581774  1
  Mn  Mn94  1  -0.00286170  0.74803338  0.49965044  1
  Mn  Mn95  1  0.00073278  0.75163869  0.83218441  1
  Mn  Mn96  1  0.33535660  0.24785094  0.16581168  1
  Mn  Mn97  1  0.33323640  0.25058555  0.49891579  1
  Mn  Mn98  1  0.33473882  0.24872003  0.83345429  1
  Mn  Mn99  1  0.33268348  0.74849190  0.16608319  1
  Mn  Mn100  1  0.33136423  0.74934233  0.49833838  1
  Mn  Mn101  1  0.33359280  0.75043636  0.83270205  1
  Mn  Mn102  1  0.66594151  0.25068720  0.16831857  1
  Mn  Mn103  1  0.66686774  0.25142100  0.50068429  1
  Mn  Mn104  1  0.67071865  0.24731953  0.83494974  1
  Mn  Mn105  1  0.66719848  0.75090216  0.16888456  1
  Mn  Mn106  1  0.66438687  0.74774623  0.49998231  1
  Mn  Mn107  1  0.66853070  0.75400083  0.83359518  1
  Mn  Mn108  1  0.16769736  0.24850517  -0.00041565  1
  Mn  Mn109  1  0.16810576  0.24933839  0.33518028  1
  Mn  Mn110  1  0.16456512  0.25168513  0.66509315  1
  Mn  Mn111  1  0.16736772  0.75047673  0.00026540  1
  Mn  Mn112  1  0.16567412  0.74892662  0.33429411  1
  Mn  Mn113  1  0.16399076  0.74973459  0.66693639  1
  Mn  Mn114  1  0.50292231  0.24877461  0.00168638  1
  Mn  Mn115  1  0.49961084  0.25032792  0.33292346  1
  Mn  Mn116  1  0.50083106  0.24809673  0.66695292  1
  Mn  Mn117  1  0.49969078  0.75013113  0.00061046  1
  Mn  Mn118  1  0.49874158  0.74822620  0.33472719  1
  Mn  Mn119  1  0.50098458  0.75200307  0.66454380  1
  Mn  Mn120  1  0.83191203  0.24921513  -0.00072549  1
  Mn  Mn121  1  0.83265652  0.25226014  0.33316634  1
  Mn  Mn122  1  0.83468664  0.24959174  0.66572311  1
  Mn  Mn123  1  0.83346236  0.75173630  -0.00094275  1
  Mn  Mn124  1  0.83070538  0.74907363  0.33375037  1
  Mn  Mn125  1  0.83413587  0.75047992  0.66354269  1
  Mn  Mn126  1  0.16570551  0.00059527  0.00156284  1
  Mn  Mn127  1  0.16693437  0.00219719  0.33488000  1
  Mn  Mn128  1  0.16335886  -0.00171502  0.66626472  1
  Mn  Mn129  1  0.16946233  0.50005805  -0.00017258  1
  Mn  Mn130  1  0.16704271  0.50002317  0.33563093  1
  Mn  Mn131  1  0.16529573  0.50038787  0.66586577  1
  Mn  Mn132  1  0.50197402  0.00241008  0.00004727  1
  Mn  Mn133  1  0.49756648  0.00258095  0.33533784  1
  Mn  Mn134  1  0.50044888  -0.00192751  0.66643607  1
  Mn  Mn135  1  0.49986889  0.49799425  0.00070208  1
  Mn  Mn136  1  0.50169391  0.49779788  0.33277636  1
  Mn  Mn137  1  0.50172143  0.50070794  0.66544563  1
  Mn  Mn138  1  0.83331475  0.00125155  -0.00251460  1
  Mn  Mn139  1  0.82915273  0.00159821  0.33439207  1
  Mn  Mn140  1  0.83389517  -0.00254045  0.66662094  1
  Mn  Mn141  1  0.83201386  0.49940908  0.00040063  1
  Mn  Mn142  1  0.83389104  0.49840115  0.33282903  1
  Mn  Mn143  1  0.83571835  0.50244109  0.66339032  1
  O  O144  1  0.17109778  0.12231925  0.02007514  1
  O  O145  1  0.17710632  0.12597634  0.35637314  1
  O  O146  1  0.15468664  0.12461013  0.67394006  1
  O  O147  1  0.17606833  0.62658818  0.01866045  1
  O  O148  1  0.16231153  0.62257754  0.36113968  1
  O  O149  1  0.15992935  0.62578097  0.69291850  1
  O  O150  1  0.51235753  0.12650834  0.02267293  1
  O  O151  1  0.49337641  0.12880814  0.36388845  1
  O  O152  1  0.50402563  0.12228398  0.68179614  1
  O  O153  1  0.49656662  0.62100325  0.01880063  1
  O  O154  1  0.50497204  0.61986503  0.36114054  1
  O  O155  1  0.50416559  0.62721881  0.67597359  1
  O  O156  1  0.83507638  0.12614665  0.02700134  1
  O  O157  1  0.82727674  0.12977823  0.35785590  1
  O  O158  1  0.83799503  0.12142893  0.68729298  1
  O  O159  1  0.83246391  0.62535326  0.02452031  1
  O  O160  1  0.83384352  0.62099312  0.34952010  1
  O  O161  1  0.83637293  0.62736879  0.69054381  1
  O  O162  1  0.16504679  0.37514603  0.32115083  1
  O  O163  1  0.15971089  0.37853720  0.64061087  1
  O  O164  1  0.16803420  0.37491259  0.98214205  1
  O  O165  1  0.16967951  0.87651276  0.31040145  1
  O  O166  1  0.16424148  0.87208318  0.64247257  1
  O  O167  1  0.15846149  0.87616289  0.98009880  1
  O  O168  1  0.50217126  0.37184954  0.30308949  1
  O  O169  1  0.49682702  0.37441584  0.64672706  1
  O  O170  1  0.50024523  0.37209554  0.99299569  1
  O  O171  1  0.50806497  0.87789875  0.32366930  1
  O  O172  1  0.49755234  0.87509967  0.63910003  1
  O  O173  1  0.50507256  0.88002239  0.98245261  1
  O  O174  1  0.82473125  0.37577594  0.30703662  1
  O  O175  1  0.84003669  0.37829701  0.64245381  1
  O  O176  1  0.82554645  0.37042418  0.97399465  1
  O  O177  1  0.82031855  0.87439060  0.32713685  1
  O  O178  1  0.84127179  0.87380206  0.64303449  1
  O  O179  1  0.83720768  0.88009096  0.97345108  1
  O  O180  1  -0.00485123  0.37656567  0.18818967  1
  O  O181  1  -0.01127081  0.37873636  0.52833410  1
  O  O182  1  -0.01037275  0.37254932  0.84264727  1
  O  O183  1  0.00913860  0.87488214  0.17882058  1
  O  O184  1  -0.00010922  0.87223564  0.52026289  1
  O  O185  1  -0.00599564  0.87696462  0.86187455  1
  O  O186  1  0.34447985  0.37196638  0.18766675  1
  O  O187  1  0.33192067  0.37530441  0.52581770  1
  O  O188  1  0.32933275  0.37552363  0.84605200  1
  O  O189  1  0.33002366  0.87620051  0.18868027  1
  O  O190  1  0.33372695  0.87307068  0.52385720  1
  O  O191  1  0.33458907  0.87574419  0.84373591  1
  O  O192  1  0.66472433  0.37289517  0.19811965  1
  O  O193  1  0.66977682  0.37440810  0.51507886  1
  O  O194  1  0.67919413  0.36916359  0.85351228  1
  O  O195  1  0.66650861  0.87435766  0.19629767  1
  O  O196  1  0.66350999  0.87516900  0.50553631  1
  O  O197  1  0.67969088  0.87895517  0.85721988  1
  O  O198  1  -0.00585310  0.12381758  0.14616697  1
  O  O199  1  -0.00144790  0.12802776  0.49404927  1
  O  O200  1  -0.00470218  0.12243331  0.80402732  1
  O  O201  1  -0.00810451  0.62611480  0.15665849  1
  O  O202  1  0.00780227  0.62143086  0.47255787  1
  O  O203  1  0.00794267  0.62728684  0.80858815  1
  O  O204  1  0.32843746  0.12480912  0.14496405  1
  O  O205  1  0.33868216  0.12613789  0.47656429  1
  O  O206  1  0.33609896  0.12244603  0.82362029  1
  O  O207  1  0.32433228  0.62520000  0.14453383  1
  O  O208  1  0.33263337  0.62571439  0.48718622  1
  O  O209  1  0.32645519  0.62610449  0.82092653  1
  O  O210  1  0.66566588  0.12954883  0.14253806  1
  O  O211  1  0.66523389  0.12893670  0.47834753  1
  O  O212  1  0.67330016  0.12165172  0.80854031  1
  O  O213  1  0.66212982  0.62304812  0.15658715  1
  O  O214  1  0.65819162  0.62048965  0.47447211  1
  O  O215  1  0.67518492  0.63003573  0.81295513  1
  O  O216  1  0.09366953  0.01756929  0.24554779  1
  O  O217  1  0.07241130  0.00695765  0.59329216  1
  O  O218  1  0.07258609  0.01633843  0.92448755  1
  O  O219  1  0.08016810  0.51982770  0.25896991  1
  O  O220  1  0.07613181  0.52382868  0.59034925  1
  O  O221  1  0.08790125  0.51067744  0.91158542  1
  O  O222  1  0.41920797  0.02428775  0.24837800  1
  O  O223  1  0.42203728  0.01175221  0.57024397  1
  O  O224  1  0.42438576  0.01480850  0.91599895  1
  O  O225  1  0.42658561  0.51623257  0.24273663  1
  O  O226  1  0.42402473  0.50940162  0.57120291  1
  O  O227  1  0.41020384  0.51210531  0.92213166  1
  O  O228  1  0.75023174  0.02624862  0.24562620  1
  O  O229  1  0.74942182  0.02048812  0.58159373  1
  O  O230  1  0.75275356  0.02621635  0.91581781  1
  O  O231  1  0.75377946  0.52016302  0.24805649  1
  O  O232  1  0.74741803  0.52122702  0.58818105  1
  O  O233  1  0.75486319  0.51436551  0.91382332  1
  O  O234  1  0.25248277  0.23135629  0.24738423  1
  O  O235  1  0.23960222  0.24251745  0.57450496  1
  O  O236  1  0.24896436  0.23996252  0.91531381  1
  O  O237  1  0.24751767  0.73682217  0.24849024  1
  O  O238  1  0.24065544  0.73718987  0.57692425  1
  O  O239  1  0.25152008  0.73470108  0.91968649  1
  O  O240  1  0.57939280  0.22401969  0.24920421  1
  O  O241  1  0.58088515  0.23061353  0.58055997  1
  O  O242  1  0.58948933  0.23539456  0.92136270  1
  O  O243  1  0.58847185  0.73029527  0.26059521  1
  O  O244  1  0.58902720  0.72760775  0.58713865  1
  O  O245  1  0.58721449  0.75181924  0.91877821  1
  O  O246  1  0.90757231  0.23816902  0.24407905  1
  O  O247  1  0.90383529  0.23258925  0.57207977  1
  O  O248  1  0.91256036  0.22779206  0.90990978  1
  O  O249  1  0.91596838  0.73446161  0.25098912  1
  O  O250  1  0.91866954  0.72809591  0.58410305  1
  O  O251  1  0.91289252  0.73373021  0.90527014  1
  O  O252  1  0.08886052  0.50026951  0.08977813  1
  O  O253  1  0.08517147  0.47528364  0.42755681  1
  O  O254  1  0.08907560  0.47703217  0.75309812  1
  O  O255  1  0.08304579  0.98399031  0.08393167  1
  O  O256  1  0.08539472  0.98755665  0.42555733  1
  O  O257  1  0.08399568  0.97349212  0.75674856  1
  O  O258  1  0.42068239  0.48742220  0.08693004  1
  O  O259  1  0.41769906  0.47207497  0.40970283  1
  O  O260  1  0.41470472  0.48601695  0.74304980  1
  O  O261  1  0.41462442  1.00246209  0.08162948  1
  O  O262  1  0.40671716  0.97840807  0.40792536  1
  O  O263  1  0.41582175  0.97701100  0.74353601  1
  O  O264  1  0.74471765  0.47314935  0.08635530  1
  O  O265  1  0.75057350  0.48043598  0.41547330  1
  O  O266  1  0.76441112  0.48883030  0.75549014  1
  O  O267  1  0.74706300  0.98716848  0.07295040  1
  O  O268  1  0.73430235  0.99195210  0.40942014  1
  O  O269  1  0.75884126  0.98476009  0.75470876  1
  O  O270  1  0.26086979  0.25751105  0.07841235  1
  O  O271  1  0.25763188  0.27258980  0.41114867  1
  O  O272  1  0.25068116  0.26994943  0.74132581  1
  O  O273  1  0.24113123  0.76553766  0.09105605  1
  O  O274  1  0.24765555  0.77341370  0.41667335  1
  O  O275  1  0.24743841  0.77076618  0.74880486  1
  O  O276  1  0.58869768  0.27475901  0.08504292  1
  O  O277  1  0.58386578  0.27106268  0.41224104  1
  O  O278  1  0.59146298  0.25206503  0.74821917  1
  O  O279  1  0.58222361  0.75973131  0.08883149  1
  O  O280  1  0.57158770  0.76452791  0.42684138  1
  O  O281  1  0.58026849  0.77015678  0.75766057  1
  O  O282  1  0.91230953  0.26451850  0.08285140  1
  O  O283  1  0.92146993  0.27676999  0.41267449  1
  O  O284  1  0.92717205  0.26391548  0.73644849  1
  O  O285  1  0.91938099  0.76765397  0.07562075  1
  O  O286  1  0.91162871  0.75578670  0.41822944  1
  O  O287  1  0.92181917  0.77020313  0.74611876  1
  O  O288  1  0.25886985  0.49019323  0.07365256  1
  O  O289  1  0.25448456  0.47731954  0.41322690  1
  O  O290  1  0.25117296  0.47830332  0.74358396  1
  O  O291  1  0.24070810  0.98664911  0.09753243  1
  O  O292  1  0.24753076  0.97460439  0.41793472  1
  O  O293  1  0.24723789  0.98035224  0.74581183  1
  O  O294  1  0.58257746  0.48034159  0.09059979  1
  O  O295  1  0.58054450  0.47202526  0.41722124  1
  O  O296  1  0.59210047  0.49662072  0.74855390  1
  O  O297  1  0.58632906  0.98716001  0.08455232  1
  O  O298  1  0.57041829  0.98998635  0.42724852  1
  O  O299  1  0.57959191  0.98153873  0.76127125  1
  O  O300  1  0.90737805  0.48524744  0.08880867  1
  O  O301  1  0.91752679  0.47491461  0.41286060  1
  O  O302  1  0.92643230  0.48761730  0.73846540  1
  O  O303  1  0.92232277  0.98779202  0.07137198  1
  O  O304  1  0.90733066  0.99433933  0.42501092  1
  O  O305  1  0.92078174  0.97462564  0.74845623  1
  O  O306  1  0.08660037  0.24913182  0.08577767  1
  O  O307  1  0.08603387  0.27115609  0.42786371  1
  O  O308  1  0.08980257  0.27295589  0.75631913  1
  O  O309  1  0.08345330  0.76552031  0.08158749  1
  O  O310  1  0.08708523  0.76431479  0.42430271  1
  O  O311  1  0.08243654  0.77762073  0.75030617  1
  O  O312  1  0.42870949  0.25487215  0.09577179  1
  O  O313  1  0.41893506  0.27846272  0.41428602  1
  O  O314  1  0.41528225  0.26248296  0.74462355  1
  O  O315  1  0.41149198  0.75010913  0.08094231  1
  O  O316  1  0.40913496  0.77266122  0.40868417  1
  O  O317  1  0.41525038  0.77172511  0.74355889  1
  O  O318  1  0.74991537  0.27246778  0.08830781  1
  O  O319  1  0.75428662  0.27162154  0.42009020  1
  O  O320  1  0.76723064  0.26150750  0.76066047  1
  O  O321  1  0.74472754  0.76935612  0.07776394  1
  O  O322  1  0.73564030  0.75610240  0.40755801  1
  O  O323  1  0.75716725  0.76475597  0.75239840  1
  O  O324  1  0.25857411  0.01851505  0.25838330  1
  O  O325  1  0.24489891  0.00629113  0.57810566  1
  O  O326  1  0.25244060  0.01077727  0.92379008  1
  O  O327  1  0.24760776  0.51215949  0.24161773  1
  O  O328  1  0.23687549  0.51406931  0.57560986  1
  O  O329  1  0.24645404  0.51594640  0.91052389  1
  O  O330  1  0.58299097  0.02473195  0.25851880  1
  O  O331  1  0.58743215  0.02215029  0.58786522  1
  O  O332  1  0.59227314  0.01498805  0.92272128  1
  O  O333  1  0.58822465  0.51926767  0.25635500  1
  O  O334  1  0.58429270  0.51879767  0.58181597  1
  O  O335  1  0.58694353  0.49942820  0.92282175  1
  O  O336  1  0.91333756  0.01430624  0.24419844  1
  O  O337  1  0.91423720  0.02019251  0.58488027  1
  O  O338  1  0.91333785  0.02767070  0.91244116  1
  O  O339  1  0.91703188  0.51789800  0.25349181  1
  O  O340  1  0.91340834  0.52502184  0.57747102  1
  O  O341  1  0.91329704  0.51399841  0.90268749  1
  O  O342  1  0.08480852  0.23760407  0.25380667  1
  O  O343  1  0.06753104  0.24306987  0.59612096  1
  O  O344  1  0.07461213  0.23338565  0.92068629  1
  O  O345  1  0.08521976  0.72703171  0.25063809  1
  O  O346  1  0.07850454  0.72750681  0.58709045  1
  O  O347  1  0.09075366  0.73841780  0.90910915  1
  O  O348  1  0.41430240  0.22461852  0.25438282  1
  O  O349  1  0.41990880  0.23867962  0.57513466  1
  O  O350  1  0.41681709  0.23250397  0.92601508  1
  O  O351  1  0.42500630  0.73092520  0.24313455  1
  O  O352  1  0.42460295  0.73901722  0.56985496  1
  O  O353  1  0.41748550  0.74129675  0.91483110  1
  O  O354  1  0.74477624  0.22819277  0.25161071  1
  O  O355  1  0.74653548  0.22719320  0.59070991  1
  O  O356  1  0.74840033  0.22101917  0.92173955  1
  O  O357  1  0.75394453  0.72571128  0.24572213  1
  O  O358  1  0.74822885  0.73074950  0.58235493  1
  O  O359  1  0.75627417  0.73794063  0.91143930  1
