# generated using pymatgen
data_Ba17Sr5La8Pr42Mn72O216
_symmetry_space_group_name_H-M   'P 1'
_cell_length_a   16.68004525
_cell_length_b   15.70213037
_cell_length_c   16.82559957
_cell_angle_alpha   90.00727393
_cell_angle_beta   90.02962372
_cell_angle_gamma   90.01881221
_symmetry_Int_Tables_number   1
_chemical_formula_structural   Ba17Sr5La8Pr42Mn72O216
_chemical_formula_sum   'Ba17 Sr5 La8 Pr42 Mn72 O216'
_cell_volume   4406.82969560
_cell_formula_units_Z   1
loop_
 _symmetry_equiv_pos_site_id
 _symmetry_equiv_pos_as_xyz
  1  'x, y, z'
loop_
 _atom_site_type_symbol
 _atom_site_label
 _atom_site_symmetry_multiplicity
 _atom_site_fract_x
 _atom_site_fract_y
 _atom_site_fract_z
 _atom_site_occupancy
  Ba  Ba0  1  0.49825767  0.62422411  0.16461702  1
  Ba  Ba1  1  0.66372261  0.62355930  0.66737359  1
  Ba  Ba2  1  0.16720585  0.87548730  0.83264683  1
  Ba  Ba3  1  0.66836743  0.37511543  0.66588871  1
  Ba  Ba4  1  0.16485069  0.37439414  0.83245366  1
  Ba  Ba5  1  0.33346107  0.12648898  0.66736598  1
  Ba  Ba6  1  0.83702374  0.12394990  0.50361814  1
  Ba  Ba7  1  0.33128922  0.87370055  0.33272318  1
  Ba  Ba8  1  0.33414989  0.37538824  0.33401434  1
  Ba  Ba9  1  0.33339371  0.87663371  0.00031036  1
  Ba  Ba10  1  0.00181107  0.62650545  0.66571777  1
  Ba  Ba11  1  -0.00359449  0.62691713  0.99904603  1
  Ba  Ba12  1  0.66734956  0.37579354  0.33295204  1
  Ba  Ba13  1  0.66949015  0.12589198  0.66479324  1
  Ba  Ba14  1  -0.00027942  0.37387978  0.33265351  1
  Ba  Ba15  1  0.49961770  0.87369837  0.50042510  1
  Ba  Ba16  1  0.50086766  0.37532886  0.16782678  1
  Sr  Sr17  1  0.49358090  0.62337798  0.49863752  1
  Sr  Sr18  1  0.65952436  0.62479082  0.99730794  1
  Sr  Sr19  1  0.16680128  0.87386725  0.15959231  1
  Sr  Sr20  1  0.33358342  0.62791639  0.33102037  1
  Sr  Sr21  1  0.00098854  0.87449180  0.00376533  1
  La  La22  1  0.83048670  0.62662902  0.16943348  1
  La  La23  1  0.66755881  0.87136885  0.33453811  1
  La  La24  1  0.66527918  0.12381329  0.33359725  1
  La  La25  1  0.50155414  0.37472373  0.83366572  1
  La  La26  1  0.82560209  0.62414320  0.83900563  1
  La  La27  1  0.16245074  0.62525757  0.83588303  1
  La  La28  1  0.17189803  0.12137886  0.16674462  1
  La  La29  1  0.50071175  0.12579501  0.83213619  1
  Pr  Pr30  1  0.32819659  0.62482898  0.66554386  1
  Pr  Pr31  1  0.16772759  0.63090995  0.16697249  1
  Pr  Pr32  1  0.17062552  0.62267456  0.49564571  1
  Pr  Pr33  1  0.83322058  0.12696504  0.83659982  1
  Pr  Pr34  1  0.00054936  0.87694990  0.66987704  1
  Pr  Pr35  1  0.16693694  0.37891356  0.16147800  1
  Pr  Pr36  1  0.16397587  0.87409540  0.49695163  1
  Pr  Pr37  1  -0.00135753  0.37425188  0.66665083  1
  Pr  Pr38  1  0.33866459  0.87486266  0.66984746  1
  Pr  Pr39  1  0.83178790  0.87284118  0.50300997  1
  Pr  Pr40  1  0.33862766  0.12284620  0.33502697  1
  Pr  Pr41  1  0.00506401  0.12341687  0.99803861  1
  Pr  Pr42  1  0.33468693  0.37347106  0.00768198  1
  Pr  Pr43  1  0.66955706  0.87335585  0.00171883  1
  Pr  Pr44  1  0.50792750  0.37477851  0.49522642  1
  Pr  Pr45  1  0.32834183  0.62392662  0.99946861  1
  Pr  Pr46  1  0.65808598  0.62510151  0.33179982  1
  Pr  Pr47  1  0.17291930  0.12495150  0.83546695  1
  Pr  Pr48  1  0.00775260  0.12419420  0.66542780  1
  Pr  Pr49  1  0.83555900  0.87524096  0.16396871  1
  Pr  Pr50  1  0.49324934  0.62380474  0.83736929  1
  Pr  Pr51  1  0.67595459  0.87591032  0.66916415  1
  Pr  Pr52  1  0.50531993  0.87465794  0.82574048  1
  Pr  Pr53  1  0.00327733  0.12452937  0.33025570  1
  Pr  Pr54  1  0.83317937  0.62093566  0.50349410  1
  Pr  Pr55  1  0.83517093  0.12265239  0.17548129  1
  Pr  Pr56  1  0.83345317  0.37412952  0.16676774  1
  Pr  Pr57  1  0.33591866  0.37553265  0.66613048  1
  Pr  Pr58  1  -0.00009208  0.37618604  0.00654858  1
  Pr  Pr59  1  -0.00027097  0.62568193  0.32724048  1
  Pr  Pr60  1  0.83459459  0.37844149  0.83440608  1
  Pr  Pr61  1  0.49747994  0.12378745  0.16859888  1
  Pr  Pr62  1  -0.00139946  0.87808667  0.33188707  1
  Pr  Pr63  1  0.17055192  0.12712500  0.49794929  1
  Pr  Pr64  1  0.33275102  0.12668146  0.99649770  1
  Pr  Pr65  1  0.82902960  0.37600247  0.49992841  1
  Pr  Pr66  1  0.16653220  0.37569557  0.49579886  1
  Pr  Pr67  1  0.67261723  0.37801429  0.00558882  1
  Pr  Pr68  1  0.83729232  0.87133119  0.83474280  1
  Pr  Pr69  1  0.66453141  0.12714359  0.99602681  1
  Pr  Pr70  1  0.50059214  0.87132912  0.16356962  1
  Pr  Pr71  1  0.49983112  0.12800846  0.50275071  1
  Mn  Mn72  1  -0.00009312  0.00078569  0.16505573  1
  Mn  Mn73  1  0.00199094  -0.00125585  0.50046938  1
  Mn  Mn74  1  -0.00103141  0.00117689  0.83336391  1
  Mn  Mn75  1  -0.00080268  0.50103844  0.16641410  1
  Mn  Mn76  1  0.00107327  0.50076546  0.49854574  1
  Mn  Mn77  1  -0.00173969  0.49936015  0.83394111  1
  Mn  Mn78  1  0.33473984  0.00063689  0.16640997  1
  Mn  Mn79  1  0.33168141  -0.00038829  0.50066168  1
  Mn  Mn80  1  0.33617168  0.00106628  0.83397721  1
  Mn  Mn81  1  0.33112880  0.50007182  0.16677050  1
  Mn  Mn82  1  0.33302185  0.50032077  0.50135313  1
  Mn  Mn83  1  0.33291212  0.49771301  0.83293010  1
  Mn  Mn84  1  0.66706107  0.00030047  0.16509709  1
  Mn  Mn85  1  0.66755919  -0.00244773  0.49972984  1
  Mn  Mn86  1  0.66862111  0.00100420  0.83445936  1
  Mn  Mn87  1  0.66846419  0.50149305  0.16679749  1
  Mn  Mn88  1  0.66587549  0.50272076  0.49907759  1
  Mn  Mn89  1  0.66432698  0.49882700  0.83597730  1
  Mn  Mn90  1  -0.00001141  0.24830202  0.16525511  1
  Mn  Mn91  1  0.00214147  0.24971931  0.50120898  1
  Mn  Mn92  1  -0.00146274  0.24933378  0.83372968  1
  Mn  Mn93  1  -0.00083782  0.75019286  0.16597184  1
  Mn  Mn94  1  0.00038741  0.75096171  0.49622106  1
  Mn  Mn95  1  -0.00089264  0.75109999  0.83341752  1
  Mn  Mn96  1  0.33221966  0.24774708  0.16709978  1
  Mn  Mn97  1  0.33263179  0.25080800  0.50000911  1
  Mn  Mn98  1  0.33372965  0.25247845  0.83463771  1
  Mn  Mn99  1  0.33302709  0.75098362  0.16582310  1
  Mn  Mn100  1  0.33099587  0.74828860  0.50115302  1
  Mn  Mn101  1  0.33519229  0.74895330  0.83220974  1
  Mn  Mn102  1  0.66823852  0.24756400  0.16467885  1
  Mn  Mn103  1  0.66852369  0.24904492  0.49911924  1
  Mn  Mn104  1  0.66792624  0.24987102  0.83510333  1
  Mn  Mn105  1  0.66763421  0.75015355  0.16676935  1
  Mn  Mn106  1  0.66708018  0.74903468  0.50079110  1
  Mn  Mn107  1  0.66509202  0.75152950  0.83429874  1
  Mn  Mn108  1  0.16493971  0.24959339  -0.00041546  1
  Mn  Mn109  1  0.16703500  0.24810104  0.33146235  1
  Mn  Mn110  1  0.16644582  0.25086754  0.66477417  1
  Mn  Mn111  1  0.16553368  0.74989473  -0.00029976  1
  Mn  Mn112  1  0.16385718  0.75185072  0.33145801  1
  Mn  Mn113  1  0.16754378  0.74947569  0.66352889  1
  Mn  Mn114  1  0.50108801  0.24843981  -0.00024296  1
  Mn  Mn115  1  0.50092153  0.24793820  0.33466694  1
  Mn  Mn116  1  0.49971595  0.25210817  0.66602957  1
  Mn  Mn117  1  0.49885996  0.75130977  -0.00336607  1
  Mn  Mn118  1  0.49917359  0.74985374  0.33229919  1
  Mn  Mn119  1  0.50007969  0.74794824  0.66685777  1
  Mn  Mn120  1  0.83417226  0.24735420  0.00307772  1
  Mn  Mn121  1  0.83422400  0.24883959  0.33529930  1
  Mn  Mn122  1  0.83734316  0.25117816  0.66964711  1
  Mn  Mn123  1  0.82997037  0.75159169  0.00115621  1
  Mn  Mn124  1  0.83468946  0.75122814  0.33595365  1
  Mn  Mn125  1  0.83551153  0.74859656  0.66745185  1
  Mn  Mn126  1  0.16580251  0.00030725  0.00037536  1
  Mn  Mn127  1  0.16573771  -0.00071081  0.33202350  1
  Mn  Mn128  1  0.16823471  -0.00012624  0.66388159  1
  Mn  Mn129  1  0.16557296  0.49972200  -0.00150780  1
  Mn  Mn130  1  0.16576382  0.50044267  0.33083793  1
  Mn  Mn131  1  0.16638103  0.49957823  0.66465798  1
  Mn  Mn132  1  0.50242448  0.00039682  0.00020842  1
  Mn  Mn133  1  0.50144194  -0.00014596  0.33266760  1
  Mn  Mn134  1  0.50166516  0.00076275  0.66549013  1
  Mn  Mn135  1  0.49837848  0.50007351  -0.00183364  1
  Mn  Mn136  1  0.49854846  0.50082339  0.33452018  1
  Mn  Mn137  1  0.49790335  0.49930073  0.66651211  1
  Mn  Mn138  1  0.83348196  0.00272179  0.00304013  1
  Mn  Mn139  1  0.83374362  -0.00165152  0.33524592  1
  Mn  Mn140  1  0.83707811  -0.00069287  0.67008146  1
  Mn  Mn141  1  0.83078225  0.50049457  0.00166145  1
  Mn  Mn142  1  0.83401342  0.50186583  0.33595226  1
  Mn  Mn143  1  0.83543118  0.50022332  0.66823013  1
  O  O144  1  0.16611088  0.12678436  0.01926132  1
  O  O145  1  0.15847195  0.12318310  0.35538291  1
  O  O146  1  0.16098468  0.12498826  0.69271172  1
  O  O147  1  0.17275857  0.62090370  0.01985796  1
  O  O148  1  0.15891003  0.62912857  0.35254690  1
  O  O149  1  0.17442586  0.62210955  0.69312830  1
  O  O150  1  0.51063667  0.12420061  0.02647474  1
  O  O151  1  0.50127018  0.12308250  0.35672514  1
  O  O152  1  0.50297146  0.12762911  0.68639823  1
  O  O153  1  0.50159204  0.62557045  0.00714012  1
  O  O154  1  0.50372397  0.62731087  0.34532801  1
  O  O155  1  0.49333969  0.62142621  0.69154424  1
  O  O156  1  0.83101316  0.12696719  0.03323932  1
  O  O157  1  0.83738676  0.12227162  0.34681602  1
  O  O158  1  0.84269953  0.12397702  0.69139919  1
  O  O159  1  0.82789483  0.62707541  0.02272739  1
  O  O160  1  0.84495792  0.63060869  0.36148391  1
  O  O161  1  0.83479195  0.62503622  0.69250328  1
  O  O162  1  0.16683033  0.37005198  0.30475087  1
  O  O163  1  0.16327020  0.37555119  0.63972579  1
  O  O164  1  0.16135095  0.37325532  0.98918752  1
  O  O165  1  0.15851989  0.87706685  0.30875290  1
  O  O166  1  0.16417156  0.87737106  0.64101291  1
  O  O167  1  0.16262822  0.87909393  0.99182454  1
  O  O168  1  0.50118789  0.37217460  0.32831961  1
  O  O169  1  0.49062899  0.37579388  0.64164027  1
  O  O170  1  0.48974321  0.37233722  0.97914651  1
  O  O171  1  0.50657161  0.87755714  0.30909308  1
  O  O172  1  0.48788741  0.87493767  0.65955331  1
  O  O173  1  0.50435604  0.87882388  0.97197332  1
  O  O174  1  0.83250046  0.37313461  0.30993819  1
  O  O175  1  0.84247987  0.37687040  0.64547527  1
  O  O176  1  0.83241304  0.36780802  0.97742435  1
  O  O177  1  0.83221571  0.87498115  0.30609160  1
  O  O178  1  0.83577880  0.87282122  0.64830719  1
  O  O179  1  0.82846910  0.88024022  0.97779786  1
  O  O180  1  0.00604948  0.37383361  0.17638736  1
  O  O181  1  0.01102414  0.37316828  0.52398281  1
  O  O182  1  -0.00654973  0.37147276  0.86377290  1
  O  O183  1  -0.00271494  0.87621547  0.18744650  1
  O  O184  1  0.00958231  0.87566922  0.52712700  1
  O  O185  1  -0.00546506  0.87793692  0.85455796  1
  O  O186  1  0.32503277  0.37279202  0.17536594  1
  O  O187  1  0.32526063  0.37627707  0.52196744  1
  O  O188  1  0.33874012  0.37499661  0.86383246  1
  O  O189  1  0.33628174  0.87966291  0.17551891  1
  O  O190  1  0.32264358  0.87303721  0.52474032  1
  O  O191  1  0.34617180  0.87687199  0.84243253  1
  O  O192  1  0.67526224  0.37385978  0.17780182  1
  O  O193  1  0.66325855  0.37681283  0.50683347  1
  O  O194  1  0.66925019  0.37135820  0.86000858  1
  O  O195  1  0.66609836  0.87835079  0.19145052  1
  O  O196  1  0.67118844  0.87243575  0.52355392  1
  O  O197  1  0.66552454  0.87902965  0.85835232  1
  O  O198  1  -0.01139456  0.12540534  0.14225589  1
  O  O199  1  0.00351315  0.12236383  0.47362665  1
  O  O200  1  -0.01001743  0.12550167  0.80788950  1
  O  O201  1  -0.00856605  0.62485170  0.15456121  1
  O  O202  1  -0.00599027  0.63000295  0.47064172  1
  O  O203  1  -0.00335442  0.62571723  0.82326750  1
  O  O204  1  0.33818250  0.12447346  0.14203240  1
  O  O205  1  0.32949255  0.12549693  0.47946281  1
  O  O206  1  0.32762789  0.12708653  0.82376711  1
  O  O207  1  0.32517071  0.62240652  0.14548818  1
  O  O208  1  0.32797863  0.62401467  0.48199829  1
  O  O209  1  0.33612627  0.62053385  0.80869558  1
  O  O210  1  0.66985958  0.12229165  0.13738519  1
  O  O211  1  0.66392061  0.12183218  0.48080135  1
  O  O212  1  0.66978269  0.12457486  0.82031183  1
  O  O213  1  0.67564023  0.62556496  0.14660818  1
  O  O214  1  0.67846019  0.62783675  0.47814487  1
  O  O215  1  0.66789577  0.62567169  0.82582550  1
  O  O216  1  0.08344188  0.02386622  0.24533896  1
  O  O217  1  0.08868171  0.02389418  0.57640616  1
  O  O218  1  0.08457576  0.02591536  0.91025476  1
  O  O219  1  0.08059741  0.52179305  0.24803050  1
  O  O220  1  0.08841462  0.51888970  0.57430690  1
  O  O221  1  0.08382832  0.51256908  0.91436899  1
  O  O222  1  0.41757844  0.02333049  0.25113747  1
  O  O223  1  0.41858312  0.01359005  0.58190880  1
  O  O224  1  0.41758397  0.02650945  0.92465680  1
  O  O225  1  0.41016343  0.50943400  0.25319134  1
  O  O226  1  0.40529223  0.51458030  0.59509528  1
  O  O227  1  0.41069362  0.52168681  0.91726773  1
  O  O228  1  0.74813278  0.02059913  0.24788564  1
  O  O229  1  0.75520947  0.00196098  0.58745902  1
  O  O230  1  0.75189858  0.02456782  0.92225259  1
  O  O231  1  0.75180544  0.52613848  0.25597044  1
  O  O232  1  0.75368261  0.51078305  0.58153159  1
  O  O233  1  0.74095139  0.50963685  0.92747551  1
  O  O234  1  0.25216642  0.22106645  0.25278183  1
  O  O235  1  0.24575327  0.23738862  0.57835032  1
  O  O236  1  0.25178687  0.23348196  0.92263202  1
  O  O237  1  0.24389802  0.73423610  0.24794298  1
  O  O238  1  0.24713900  0.72493553  0.58177340  1
  O  O239  1  0.24792492  0.72861909  0.90948006  1
  O  O240  1  0.58396619  0.22579081  0.24737223  1
  O  O241  1  0.57992289  0.23948784  0.57699243  1
  O  O242  1  0.58316424  0.23089051  0.91637389  1
  O  O243  1  0.58793717  0.73845494  0.24805708  1
  O  O244  1  0.57641565  0.73677783  0.57947228  1
  O  O245  1  0.56943243  0.73990012  0.90207014  1
  O  O246  1  0.91909966  0.23037517  0.25117632  1
  O  O247  1  0.93040422  0.23771240  0.59658487  1
  O  O248  1  0.91518483  0.22286653  0.92455841  1
  O  O249  1  0.91546835  0.73344433  0.25204200  1
  O  O250  1  0.91327724  0.73809237  0.57239943  1
  O  O251  1  0.90148513  0.73988149  0.91029818  1
  O  O252  1  0.08504376  0.48462661  0.08394737  1
  O  O253  1  0.08731116  0.48681412  0.41709167  1
  O  O254  1  0.08180003  0.48483344  0.74238360  1
  O  O255  1  0.07680351  0.99565435  0.07915341  1
  O  O256  1  0.07762844  0.97886223  0.41007057  1
  O  O257  1  0.07713160  0.98719732  0.73861053  1
  O  O258  1  0.41074092  0.48842537  0.07677334  1
  O  O259  1  0.42226509  0.48562321  0.43187859  1
  O  O260  1  0.41885272  0.47390861  0.75638360  1
  O  O261  1  0.42972565  0.98796869  0.09093710  1
  O  O262  1  0.41286511  0.99521434  0.41634366  1
  O  O263  1  0.42627899  0.99334047  0.75710083  1
  O  O264  1  0.75779381  0.47905777  0.09026761  1
  O  O265  1  0.75746019  0.48931423  0.42253139  1
  O  O266  1  0.75725659  0.48758013  0.76253826  1
  O  O267  1  0.75039945  0.97573706  0.08501395  1
  O  O268  1  0.75139777  0.97717462  0.41684031  1
  O  O269  1  0.75435628  0.97821452  0.75442683  1
  O  O270  1  0.24161477  0.26393985  0.08762012  1
  O  O271  1  0.24541733  0.26123281  0.41930829  1
  O  O272  1  0.24991507  0.26662223  0.74446644  1
  O  O273  1  0.25062479  0.75463642  0.08187165  1
  O  O274  1  0.23800511  0.76350133  0.42186734  1
  O  O275  1  0.26536516  0.76486770  0.74044531  1
  O  O276  1  0.59037981  0.26572577  0.07533438  1
  O  O277  1  0.58120688  0.25476846  0.41882322  1
  O  O278  1  0.57726850  0.26501700  0.75583973  1
  O  O279  1  0.58599140  0.77225155  0.07524086  1
  O  O280  1  0.59318537  0.76045861  0.40818040  1
  O  O281  1  0.59183348  0.77397527  0.74288603  1
  O  O282  1  0.91333193  0.27448284  0.08358463  1
  O  O283  1  0.91388576  0.26822349  0.42957553  1
  O  O284  1  0.91457399  0.27568947  0.75803021  1
  O  O285  1  0.91333158  0.76905583  0.08674728  1
  O  O286  1  0.91794154  0.78197160  0.41458320  1
  O  O287  1  0.91987609  0.77242099  0.74753552  1
  O  O288  1  0.24984136  0.47938001  0.07807655  1
  O  O289  1  0.24573270  0.48778384  0.41981549  1
  O  O290  1  0.25890596  0.48034702  0.74212452  1
  O  O291  1  0.24714718  0.99822590  0.08785671  1
  O  O292  1  0.23986773  0.98744217  0.42175449  1
  O  O293  1  0.25393103  0.98488596  0.74241305  1
  O  O294  1  0.59005971  0.48503018  0.07265471  1
  O  O295  1  0.58522590  0.49796135  0.41640673  1
  O  O296  1  0.58011872  0.48404970  0.75129933  1
  O  O297  1  0.58788316  0.97461568  0.07989563  1
  O  O298  1  0.59183712  0.98591527  0.40422636  1
  O  O299  1  0.58851522  0.97832886  0.74440584  1
  O  O300  1  0.91757746  0.47797384  0.08174705  1
  O  O301  1  0.91365412  0.48180749  0.42246211  1
  O  O302  1  0.91933670  0.47603987  0.74969421  1
  O  O303  1  0.91113537  0.98134310  0.08975060  1
  O  O304  1  0.91669507  0.97395694  0.42409477  1
  O  O305  1  0.91389658  0.97626608  0.75643016  1
  O  O306  1  0.07615065  0.26143343  0.07477364  1
  O  O307  1  0.08716225  0.26342887  0.41847576  1
  O  O308  1  0.07527905  0.26428028  0.73898451  1
  O  O309  1  0.08340343  0.75720736  0.08758397  1
  O  O310  1  0.07712016  0.77495304  0.40947983  1
  O  O311  1  0.08393870  0.76425566  0.74158569  1
  O  O312  1  0.41003679  0.25879539  0.07586696  1
  O  O313  1  0.41914380  0.25770480  0.42219643  1
  O  O314  1  0.41547716  0.27109133  0.75025979  1
  O  O315  1  0.42500011  0.76515509  0.08559334  1
  O  O316  1  0.41411237  0.75591266  0.42127292  1
  O  O317  1  0.43006317  0.75945591  0.76297766  1
  O  O318  1  0.75444327  0.27201717  0.08218583  1
  O  O319  1  0.75155705  0.26039190  0.41858734  1
  O  O320  1  0.75742041  0.26267935  0.76035673  1
  O  O321  1  0.75259554  0.77519846  0.08905893  1
  O  O322  1  0.75588122  0.77313160  0.41923485  1
  O  O323  1  0.75368140  0.77064671  0.75815573  1
  O  O324  1  0.25268335  0.02414253  0.25490233  1
  O  O325  1  0.24573126  0.01810146  0.57900798  1
  O  O326  1  0.24932227  0.01859790  0.91710512  1
  O  O327  1  0.23987485  0.51572842  0.24061121  1
  O  O328  1  0.24720019  0.52051849  0.58167578  1
  O  O329  1  0.24812215  0.52108155  0.91297233  1
  O  O330  1  0.58258567  0.02506119  0.24240331  1
  O  O331  1  0.57909702  0.01344681  0.57689828  1
  O  O332  1  0.58159442  0.02302151  0.91466063  1
  O  O333  1  0.58924961  0.51364783  0.24860748  1
  O  O334  1  0.57510522  0.50836789  0.57685225  1
  O  O335  1  0.57168952  0.50725504  0.90759143  1
  O  O336  1  0.92189747  0.01641723  0.25459328  1
  O  O337  1  0.92936388  0.00975705  0.59568211  1
  O  O338  1  0.91543984  0.02600445  0.92335390  1
  O  O339  1  0.91334490  0.51755289  0.25042556  1
  O  O340  1  0.91477316  0.51377977  0.57897596  1
  O  O341  1  0.90121909  0.51218389  0.91117100  1
  O  O342  1  0.08538150  0.22446779  0.24536986  1
  O  O343  1  0.08768258  0.22394402  0.57944287  1
  O  O344  1  0.08522223  0.22407934  0.91018769  1
  O  O345  1  0.08021148  0.72911271  0.24940335  1
  O  O346  1  0.08889070  0.73266537  0.56715798  1
  O  O347  1  0.08516656  0.73710288  0.91202397  1
  O  O348  1  0.41850629  0.22737630  0.25136494  1
  O  O349  1  0.41949396  0.23723442  0.57868874  1
  O  O350  1  0.42192220  0.22500501  0.91743188  1
  O  O351  1  0.41474128  0.74404712  0.24936679  1
  O  O352  1  0.40690516  0.73703371  0.59700767  1
  O  O353  1  0.40816417  0.72674738  0.92198133  1
  O  O354  1  0.75030701  0.22628633  0.24569296  1
  O  O355  1  0.75623053  0.24750212  0.58219049  1
  O  O356  1  0.75269801  0.22635613  0.92434993  1
  O  O357  1  0.75117477  0.72860769  0.25831283  1
  O  O358  1  0.75292421  0.73770230  0.58360054  1
  O  O359  1  0.74046046  0.74033959  0.92348436  1
