# generated using pymatgen
data_Ba17Sr5La8Pr42Mn72O216
_symmetry_space_group_name_H-M   'P 1'
_cell_length_a   16.67019834
_cell_length_b   15.70646168
_cell_length_c   16.82145243
_cell_angle_alpha   90.00708909
_cell_angle_beta   89.95984581
_cell_angle_gamma   89.99515755
_symmetry_Int_Tables_number   1
_chemical_formula_structural   Ba17Sr5La8Pr42Mn72O216
_chemical_formula_sum   'Ba17 Sr5 La8 Pr42 Mn72 O216'
_cell_volume   4404.35692457
_cell_formula_units_Z   1
loop_
 _symmetry_equiv_pos_site_id
 _symmetry_equiv_pos_as_xyz
  1  'x, y, z'
loop_
 _atom_site_type_symbol
 _atom_site_label
 _atom_site_symmetry_multiplicity
 _atom_site_fract_x
 _atom_site_fract_y
 _atom_site_fract_z
 _atom_site_occupancy
  Ba  Ba0  1  0.66656951  0.37533003  0.00083723  1
  Ba  Ba1  1  0.66500463  0.12508061  0.33383060  1
  Ba  Ba2  1  0.32862556  0.12571123  0.33257996  1
  Ba  Ba3  1  0.83568027  0.12302839  0.83173803  1
  Ba  Ba4  1  0.00208157  0.12459271  0.99976358  1
  Ba  Ba5  1  0.66416918  0.62504986  0.33270838  1
  Ba  Ba6  1  0.33281406  0.37465759  0.66921559  1
  Ba  Ba7  1  0.50124756  0.62737895  0.83643905  1
  Ba  Ba8  1  0.66873477  0.12351937  0.66422995  1
  Ba  Ba9  1  0.16954428  0.37553375  0.83278039  1
  Ba  Ba10  1  0.83653151  0.87443323  0.83193320  1
  Ba  Ba11  1  0.49912753  0.37595318  0.16709342  1
  Ba  Ba12  1  0.16346374  0.12486595  0.49794613  1
  Ba  Ba13  1  0.83394325  0.87331161  0.16534240  1
  Ba  Ba14  1  0.66971439  0.87474125  0.66599414  1
  Ba  Ba15  1  0.33151453  0.87501803  0.66961157  1
  Ba  Ba16  1  0.49780103  0.37533326  0.50199691  1
  Sr  Sr17  1  0.49989954  0.62479493  0.16893192  1
  Sr  Sr18  1  0.33559174  0.12531209  1.00222801  1
  Sr  Sr19  1  0.16556878  0.62396103  0.17055983  1
  Sr  Sr20  1  -0.00119812  0.62617389  0.32674166  1
  Sr  Sr21  1  -0.00024710  0.87227899  0.33297428  1
  La  La22  1  0.17176403  0.62538454  0.83572360  1
  La  La23  1  0.00315834  0.37275448  0.00075468  1
  La  La24  1  0.33239619  0.62238443  0.33199492  1
  La  La25  1  0.16623112  0.37639552  0.49996285  1
  La  La26  1  0.83239912  0.37695252  0.16300098  1
  La  La27  1  0.00203582  0.87572148  0.66346865  1
  La  La28  1  0.00071254  0.62462147  0.66390823  1
  La  La29  1  0.50003749  0.12063338  0.83373990  1
  Pr  Pr30  1  0.49946245  0.62551728  0.50725027  1
  Pr  Pr31  1  0.67040167  0.62836530  0.66246213  1
  Pr  Pr32  1  0.33216628  0.12802985  0.66421578  1
  Pr  Pr33  1  0.49979209  0.37339070  0.83054625  1
  Pr  Pr34  1  -0.00461388  0.12425122  0.32601858  1
  Pr  Pr35  1  0.33373641  0.62248415  0.66655633  1
  Pr  Pr36  1  0.83398590  0.87650646  0.49256625  1
  Pr  Pr37  1  0.00024733  0.62884080  0.99681748  1
  Pr  Pr38  1  0.00078318  0.37782907  0.33231043  1
  Pr  Pr39  1  0.33322675  0.87309781  0.34098508  1
  Pr  Pr40  1  0.65973929  0.37865927  0.33366241  1
  Pr  Pr41  1  0.66422331  0.37508517  0.67361489  1
  Pr  Pr42  1  0.16627112  0.87621477  0.83432711  1
  Pr  Pr43  1  0.66771339  0.62474664  1.00221489  1
  Pr  Pr44  1  0.49791607  0.12934137  0.16989037  1
  Pr  Pr45  1  -0.00038394  0.12479992  0.66549630  1
  Pr  Pr46  1  0.83342155  0.62597264  0.49840971  1
  Pr  Pr47  1  0.50596293  0.87805689  0.49762664  1
  Pr  Pr48  1  0.66713434  0.87436559  0.00012667  1
  Pr  Pr49  1  0.16230273  0.12418241  0.17224865  1
  Pr  Pr50  1  0.49413925  0.12592315  0.50600583  1
  Pr  Pr51  1  0.00133676  0.87976196  0.00428580  1
  Pr  Pr52  1  0.83477890  0.12338403  0.50318467  1
  Pr  Pr53  1  0.50514688  0.87600712  0.83110075  1
  Pr  Pr54  1  0.83143579  0.37377207  0.49493053  1
  Pr  Pr55  1  0.33739393  0.37764180  0.00115919  1
  Pr  Pr56  1  0.83673049  0.37096402  0.82965973  1
  Pr  Pr57  1  0.00129709  0.37302788  0.66831948  1
  Pr  Pr58  1  0.66995840  0.87101889  0.33712057  1
  Pr  Pr59  1  0.33657812  0.87170119  0.00397166  1
  Pr  Pr60  1  0.16740938  0.87429403  0.49416221  1
  Pr  Pr61  1  0.82644273  0.12501719  0.16500648  1
  Pr  Pr62  1  0.16379853  0.62769477  0.50066403  1
  Pr  Pr63  1  0.17229289  0.37612298  0.16402019  1
  Pr  Pr64  1  0.16718978  0.87415570  0.16754588  1
  Pr  Pr65  1  0.66645777  0.12476809  0.99641058  1
  Pr  Pr66  1  0.83150644  0.62684220  0.83282351  1
  Pr  Pr67  1  0.17131350  0.12472664  0.83603830  1
  Pr  Pr68  1  0.82925716  0.62457694  0.16953310  1
  Pr  Pr69  1  0.33618424  0.62246371  1.00183627  1
  Pr  Pr70  1  0.50171922  0.87696508  0.16984687  1
  Pr  Pr71  1  0.33084992  0.37636690  0.33795329  1
  Mn  Mn72  1  -0.00000493  -0.00118428  0.16687337  1
  Mn  Mn73  1  -0.00051915  -0.00021743  0.49765311  1
  Mn  Mn74  1  0.00416192  -0.00251209  0.83280720  1
  Mn  Mn75  1  -0.00035473  0.50067062  0.16487767  1
  Mn  Mn76  1  -0.00096856  0.50086610  0.49789608  1
  Mn  Mn77  1  -0.00004241  0.50246982  0.83248278  1
  Mn  Mn78  1  0.33193550  -0.00163821  0.16730980  1
  Mn  Mn79  1  0.33175444  -0.00058675  0.50280901  1
  Mn  Mn80  1  0.33394903  -0.00076856  0.83691925  1
  Mn  Mn81  1  0.33307441  0.50223685  0.16837009  1
  Mn  Mn82  1  0.33014035  0.50211266  0.49956562  1
  Mn  Mn83  1  0.33499088  0.50176845  0.83533517  1
  Mn  Mn84  1  0.66493364  -0.00091361  0.16558026  1
  Mn  Mn85  1  0.66716556  0.00020120  0.49683407  1
  Mn  Mn86  1  0.66762397  0.00021689  0.83425744  1
  Mn  Mn87  1  0.66620144  0.50091342  0.16700966  1
  Mn  Mn88  1  0.66735773  0.49971031  0.50182693  1
  Mn  Mn89  1  0.66883155  0.50009456  0.83378114  1
  Mn  Mn90  1  -0.00135210  0.25212898  0.16751201  1
  Mn  Mn91  1  -0.00097174  0.25267560  0.49781357  1
  Mn  Mn92  1  0.00252138  0.25057060  0.83291015  1
  Mn  Mn93  1  0.00164541  0.74893913  0.16490029  1
  Mn  Mn94  1  -0.00094519  0.74725639  0.49722578  1
  Mn  Mn95  1  0.00283518  0.74878148  0.83169944  1
  Mn  Mn96  1  0.33112520  0.24977519  0.16521013  1
  Mn  Mn97  1  0.33031309  0.25046937  0.50031815  1
  Mn  Mn98  1  0.33602280  0.24568120  0.83545356  1
  Mn  Mn99  1  0.33316532  0.75079109  0.17066516  1
  Mn  Mn100  1  0.33236602  0.74974681  0.50159198  1
  Mn  Mn101  1  0.33311315  0.75135958  0.83747313  1
  Mn  Mn102  1  0.66641287  0.24913678  0.16603021  1
  Mn  Mn103  1  0.66735050  0.25187917  0.49879023  1
  Mn  Mn104  1  0.66732624  0.24895325  0.83436967  1
  Mn  Mn105  1  0.66430138  0.75186684  0.16727642  1
  Mn  Mn106  1  0.66696117  0.74877488  0.49940494  1
  Mn  Mn107  1  0.66856075  0.74789541  0.83379903  1
  Mn  Mn108  1  0.17042001  0.24984424  0.00111521  1
  Mn  Mn109  1  0.16228312  0.25311430  0.33189773  1
  Mn  Mn110  1  0.16503274  0.24856643  0.66719092  1
  Mn  Mn111  1  0.16838166  0.74901868  0.00194462  1
  Mn  Mn112  1  0.16528953  0.74823811  0.33221809  1
  Mn  Mn113  1  0.16579155  0.75018547  0.66717912  1
  Mn  Mn114  1  0.49894898  0.24698954  -0.00036155  1
  Mn  Mn115  1  0.49765610  0.24992732  0.33477672  1
  Mn  Mn116  1  0.50078839  0.24904746  0.66827364  1
  Mn  Mn117  1  0.50063133  0.75164734  0.00391424  1
  Mn  Mn118  1  0.49729704  0.75040938  0.33485213  1
  Mn  Mn119  1  0.49909596  0.75075203  0.66872985  1
  Mn  Mn120  1  0.83440746  0.25128308  -0.00138647  1
  Mn  Mn121  1  0.83284114  0.25206415  0.33067671  1
  Mn  Mn122  1  0.83499642  0.25199136  0.66201550  1
  Mn  Mn123  1  0.83476300  0.74890204  -0.00101630  1
  Mn  Mn124  1  0.83446127  0.74847843  0.33139374  1
  Mn  Mn125  1  0.83697087  0.74790080  0.66439134  1
  Mn  Mn126  1  0.17140415  -0.00028291  0.00114969  1
  Mn  Mn127  1  0.16331633  -0.00186440  0.33251168  1
  Mn  Mn128  1  0.16499752  -0.00110068  0.66805502  1
  Mn  Mn129  1  0.16656387  0.50165336  0.00235925  1
  Mn  Mn130  1  0.16395690  0.50100431  0.33256727  1
  Mn  Mn131  1  0.16492497  0.50329992  0.66617109  1
  Mn  Mn132  1  0.49976311  -0.00181859  0.00172795  1
  Mn  Mn133  1  0.49781741  0.00043489  0.33278889  1
  Mn  Mn134  1  0.49870334  -0.00194519  0.66763474  1
  Mn  Mn135  1  0.50088721  0.50209800  0.00119176  1
  Mn  Mn136  1  0.49780466  0.50101354  0.33539137  1
  Mn  Mn137  1  0.50126424  0.50160055  0.66943690  1
  Mn  Mn138  1  0.83320386  -0.00139581  0.00001085  1
  Mn  Mn139  1  0.83290906  0.00078882  0.33160996  1
  Mn  Mn140  1  0.83653053  -0.00066639  0.66306576  1
  Mn  Mn141  1  0.83614589  0.50231676  -0.00179942  1
  Mn  Mn142  1  0.83399448  0.49911680  0.33086364  1
  Mn  Mn143  1  0.83496775  0.49900424  0.66506348  1
  O  O144  1  0.17150458  0.12374906  0.02912086  1
  O  O145  1  0.15255010  0.12751993  0.33990484  1
  O  O146  1  0.15520512  0.11941896  0.69083731  1
  O  O147  1  0.16468608  0.62520658  0.02360048  1
  O  O148  1  0.16541754  0.62385164  0.35716834  1
  O  O149  1  0.15903833  0.62717304  0.69002620  1
  O  O150  1  0.50254761  0.11839289  0.02771826  1
  O  O151  1  0.49786157  0.12292703  0.36040324  1
  O  O152  1  0.49206716  0.12300247  0.68640603  1
  O  O153  1  0.49672631  0.63102074  0.02033155  1
  O  O154  1  0.49280159  0.62755076  0.36226960  1
  O  O155  1  0.49540072  0.62696230  0.67959750  1
  O  O156  1  0.82715565  0.12284244  0.01967341  1
  O  O157  1  0.83862716  0.12970957  0.35925257  1
  O  O158  1  0.84017112  0.12818945  0.67360274  1
  O  O159  1  0.83725038  0.62561242  0.02563364  1
  O  O160  1  0.83482121  0.62245073  0.35479608  1
  O  O161  1  0.83464983  0.62002752  0.69002732  1
  O  O162  1  0.17005492  0.37792843  0.30968512  1
  O  O163  1  0.16208791  0.38095862  0.64508287  1
  O  O164  1  0.16684225  0.37776352  0.98764327  1
  O  O165  1  0.17294178  0.87115257  0.31359082  1
  O  O166  1  0.16303750  0.87300200  0.63820246  1
  O  O167  1  0.16996999  0.87245385  0.97596329  1
  O  O168  1  0.49710570  0.37485361  0.32463880  1
  O  O169  1  0.50850834  0.37613094  0.65838239  1
  O  O170  1  0.49272269  0.37239609  0.97645622  1
  O  O171  1  0.49122289  0.87590902  0.31267975  1
  O  O172  1  0.50050380  0.87311513  0.64370132  1
  O  O173  1  0.50015742  0.87535514  0.97388755  1
  O  O174  1  0.84256521  0.37502852  0.30482779  1
  O  O175  1  0.84112012  0.37806956  0.63799923  1
  O  O176  1  0.83878887  0.38201784  0.97369407  1
  O  O177  1  0.82918472  0.87295914  0.32195330  1
  O  O178  1  0.84522463  0.87160971  0.63899129  1
  O  O179  1  0.83353607  0.87122227  0.98881337  1
  O  O180  1  -0.01091614  0.37646080  0.18887694  1
  O  O181  1  -0.00512599  0.37855490  0.52622728  1
  O  O182  1  -0.00501038  0.38261866  0.85620997  1
  O  O183  1  0.00433342  0.87404842  0.18185919  1
  O  O184  1  -0.00666367  0.86929953  0.52074347  1
  O  O185  1  0.00851085  0.86964486  0.85992706  1
  O  O186  1  0.32599278  0.37636564  0.19280050  1
  O  O187  1  0.32213084  0.37758560  0.51203246  1
  O  O188  1  0.34103399  0.37242767  0.85586484  1
  O  O189  1  0.33276217  0.87366727  0.19797698  1
  O  O190  1  0.32104676  0.87333400  0.51447111  1
  O  O191  1  0.32364389  0.87563220  0.86120285  1
  O  O192  1  0.67288052  0.37471580  0.18673506  1
  O  O193  1  0.67303814  0.37954924  0.52909832  1
  O  O194  1  0.66832068  0.37583643  0.84517706  1
  O  O195  1  0.66087580  0.87732867  0.19368194  1
  O  O196  1  0.66557381  0.87324595  0.50981038  1
  O  O197  1  0.66045945  0.87507847  0.85509580  1
  O  O198  1  0.01244744  0.12623969  0.15766079  1
  O  O199  1  -0.00515111  0.13123181  0.47029430  1
  O  O200  1  0.01196981  0.12078734  0.81088838  1
  O  O201  1  0.00093746  0.62362861  0.14045389  1
  O  O202  1  0.00387257  0.62298794  0.47459745  1
  O  O203  1  0.00281704  0.62533570  0.80675670  1
  O  O204  1  0.32937513  0.12207618  0.14989228  1
  O  O205  1  0.34076440  0.12393256  0.49054628  1
  O  O206  1  0.33840153  0.12006713  0.80894158  1
  O  O207  1  0.33306630  0.62894290  0.14392982  1
  O  O208  1  0.33446813  0.62709344  0.47667399  1
  O  O209  1  0.33146195  0.62965655  0.81285732  1
  O  O210  1  0.66776241  0.12199144  0.14296373  1
  O  O211  1  0.67425235  0.12335713  0.48876492  1
  O  O212  1  0.66267826  0.12451952  0.82260777  1
  O  O213  1  0.66992074  0.62717222  0.14779600  1
  O  O214  1  0.66883293  0.62423236  0.48746886  1
  O  O215  1  0.67479304  0.62078634  0.80667569  1
  O  O216  1  0.07691427  0.01070447  0.25377776  1
  O  O217  1  0.07602263  0.01242041  0.59044873  1
  O  O218  1  0.09440042  0.01124277  0.91222305  1
  O  O219  1  0.07956809  0.50913988  0.25104564  1
  O  O220  1  0.08510568  0.52169130  0.57692484  1
  O  O221  1  0.08303393  0.52204736  0.91711953  1
  O  O222  1  0.41662998  0.01624587  0.24671734  1
  O  O223  1  0.41503669  0.01665494  0.58637444  1
  O  O224  1  0.41990175  0.01491688  0.91822300  1
  O  O225  1  0.41315354  0.51855081  0.25092741  1
  O  O226  1  0.41478428  0.52030008  0.58257061  1
  O  O227  1  0.41159986  0.51527147  0.92390451  1
  O  O228  1  0.75252947  0.01662614  0.24395545  1
  O  O229  1  0.75951523  0.00583247  0.57287877  1
  O  O230  1  0.74432492  0.00929029  0.92189258  1
  O  O231  1  0.75303654  0.51209768  0.24590979  1
  O  O232  1  0.75264734  0.52382618  0.58355992  1
  O  O233  1  0.75305449  0.52564022  0.91653278  1
  O  O234  1  0.23503145  0.23833455  0.23845245  1
  O  O235  1  0.24879056  0.23488685  0.58719251  1
  O  O236  1  0.25414466  0.22928624  0.91480338  1
  O  O237  1  0.24985561  0.72992404  0.25282786  1
  O  O238  1  0.24920112  0.72370765  0.58472019  1
  O  O239  1  0.25085180  0.72518884  0.92233956  1
  O  O240  1  0.57860594  0.23603041  0.24645867  1
  O  O241  1  0.57622391  0.23352634  0.58065612  1
  O  O242  1  0.58016089  0.22902980  0.91789718  1
  O  O243  1  0.57658731  0.74327653  0.24805035  1
  O  O244  1  0.58375575  0.73048364  0.58082897  1
  O  O245  1  0.59240078  0.73590983  0.92850199  1
  O  O246  1  0.91157486  0.22467177  0.24453192  1
  O  O247  1  0.91813506  0.23062333  0.57863110  1
  O  O248  1  0.91864302  0.24543883  0.91247436  1
  O  O249  1  0.91437609  0.73062172  0.24254745  1
  O  O250  1  0.91601446  0.72160063  0.57848440  1
  O  O251  1  0.91759865  0.72659379  0.90970082  1
  O  O252  1  0.08340395  0.47708356  0.08599857  1
  O  O253  1  0.08069565  0.47496255  0.41668536  1
  O  O254  1  0.07510397  0.48623878  0.74083953  1
  O  O255  1  0.08862217  0.97880570  0.08459938  1
  O  O256  1  0.08471989  0.97763732  0.42118157  1
  O  O257  1  0.08508674  0.97050176  0.75022461  1
  O  O258  1  0.41001399  0.48738635  0.07968768  1
  O  O259  1  0.40487518  0.48812667  0.41143970  1
  O  O260  1  0.42236250  0.48655931  0.75632721  1
  O  O261  1  0.41741636  0.97429890  0.08448744  1
  O  O262  1  0.41873769  0.97751676  0.42150366  1
  O  O263  1  0.42024775  0.98058278  0.76048051  1
  O  O264  1  0.75817437  0.49118099  0.08666577  1
  O  O265  1  0.74958106  0.47579013  0.41600319  1
  O  O266  1  0.75327133  0.47559406  0.74709899  1
  O  O267  1  0.74275368  0.98517311  0.07989159  1
  O  O268  1  0.74854025  0.98010626  0.41282988  1
  O  O269  1  0.75510629  0.99140536  0.74591576  1
  O  O270  1  0.25323597  0.27537638  0.08097782  1
  O  O271  1  0.24576416  0.26823017  0.41123972  1
  O  O272  1  0.25157047  0.24802999  0.75055776  1
  O  O273  1  0.25314827  0.77443054  0.08681312  1
  O  O274  1  0.25011457  0.76538608  0.41735416  1
  O  O275  1  0.24495275  0.76238360  0.76039746  1
  O  O276  1  0.58326046  0.25295511  0.08212474  1
  O  O277  1  0.58950858  0.26698598  0.41383200  1
  O  O278  1  0.58557659  0.26655361  0.75033134  1
  O  O279  1  0.58181256  0.77590173  0.08573131  1
  O  O280  1  0.58096394  0.77094574  0.41472862  1
  O  O281  1  0.58259816  0.76314065  0.75583306  1
  O  O282  1  0.92101080  0.26862629  0.08096430  1
  O  O283  1  0.91783302  0.27678313  0.41325340  1
  O  O284  1  0.91768139  0.27070660  0.74502035  1
  O  O285  1  0.92768210  0.76195485  0.07035814  1
  O  O286  1  0.91413202  0.76339950  0.41843819  1
  O  O287  1  0.92627239  0.76052656  0.73962708  1
  O  O288  1  0.25110285  0.48178621  0.08567539  1
  O  O289  1  0.24386437  0.48466549  0.41888662  1
  O  O290  1  0.25081596  0.50016815  0.74984427  1
  O  O291  1  0.25279613  0.97110994  0.08310466  1
  O  O292  1  0.24918492  0.98321928  0.41470031  1
  O  O293  1  0.24217205  0.98828229  0.75934991  1
  O  O294  1  0.58596619  0.49781601  0.08307657  1
  O  O295  1  0.58607444  0.48685164  0.41842565  1
  O  O296  1  0.58715134  0.48280214  0.75196570  1
  O  O297  1  0.58294744  0.97255440  0.08153571  1
  O  O298  1  0.58496030  0.97621360  0.40899705  1
  O  O299  1  0.57923634  0.98723836  0.75544001  1
  O  O300  1  0.92190213  0.47974808  0.07586853  1
  O  O301  1  0.91549831  0.47902361  0.41626838  1
  O  O302  1  0.91435266  0.47757999  0.74942507  1
  O  O303  1  0.92207361  0.98945157  0.08110298  1
  O  O304  1  0.91313826  0.98366586  0.41682719  1
  O  O305  1  0.92690983  0.98823539  0.73882568  1
  O  O306  1  0.08670497  0.27084967  0.09337119  1
  O  O307  1  0.08248324  0.27950850  0.41973909  1
  O  O308  1  0.07857594  0.26748847  0.74541935  1
  O  O309  1  0.08696348  0.77321840  0.08107392  1
  O  O310  1  0.08756823  0.76790231  0.42132557  1
  O  O311  1  0.08495773  0.77305486  0.75086400  1
  O  O312  1  0.41137185  0.26317129  0.07663180  1
  O  O313  1  0.40955974  0.26418481  0.41381824  1
  O  O314  1  0.42477027  0.26263309  0.75769543  1
  O  O315  1  0.41842981  0.77556570  0.09084821  1
  O  O316  1  0.41725825  0.77432115  0.42317750  1
  O  O317  1  0.41901616  0.76983771  0.76219284  1
  O  O318  1  0.75824507  0.26207136  0.08922574  1
  O  O319  1  0.75142603  0.27940524  0.40897955  1
  O  O320  1  0.75336009  0.27186133  0.74424623  1
  O  O321  1  0.74162047  0.76058415  0.07607905  1
  O  O322  1  0.75063925  0.76562507  0.41808019  1
  O  O323  1  0.75470302  0.75392170  0.74742126  1
  O  O324  1  0.23766889  0.01093807  0.24050121  1
  O  O325  1  0.25076824  0.01858225  0.59237074  1
  O  O326  1  0.25251388  0.02277595  0.91858524  1
  O  O327  1  0.25140952  0.51827959  0.25359524  1
  O  O328  1  0.24864528  0.52760961  0.58295072  1
  O  O329  1  0.25144466  0.52031380  0.92054111  1
  O  O330  1  0.57396763  0.01674194  0.24004268  1
  O  O331  1  0.57593414  0.01165764  0.57047322  1
  O  O332  1  0.58207874  0.01862191  0.92160020  1
  O  O333  1  0.58345667  0.50640917  0.25212219  1
  O  O334  1  0.58510189  0.52229210  0.58707146  1
  O  O335  1  0.58908686  0.51584649  0.92133643  1
  O  O336  1  0.91337207  0.02253941  0.24815262  1
  O  O337  1  0.91880511  0.02244351  0.57826950  1
  O  O338  1  0.92309109  0.00320344  0.91566780  1
  O  O339  1  0.91344045  0.52114269  0.24090684  1
  O  O340  1  0.91716341  0.52532480  0.58061122  1
  O  O341  1  0.91738151  0.52942167  0.91418693  1
  O  O342  1  0.06957987  0.24497233  0.26060164  1
  O  O343  1  0.07617620  0.23900614  0.58628323  1
  O  O344  1  0.09150680  0.23680196  0.91612497  1
  O  O345  1  0.08375245  0.73720615  0.24880305  1
  O  O346  1  0.08035153  0.72923070  0.58131379  1
  O  O347  1  0.08410659  0.72668849  0.91521708  1
  O  O348  1  0.41538416  0.23520354  0.24382806  1
  O  O349  1  0.41507996  0.23338221  0.58872624  1
  O  O350  1  0.42081552  0.22544007  0.91424341  1
  O  O351  1  0.40985451  0.73123521  0.25926673  1
  O  O352  1  0.41350474  0.72906980  0.58374340  1
  O  O353  1  0.40871696  0.73941715  0.92990951  1
  O  O354  1  0.75345166  0.23420532  0.24605972  1
  O  O355  1  0.75905586  0.24080146  0.57267270  1
  O  O356  1  0.74681345  0.23725560  0.91981998  1
  O  O357  1  0.75186685  0.73618056  0.24545690  1
  O  O358  1  0.75361600  0.72864681  0.58298817  1
  O  O359  1  0.75276276  0.72604775  0.91560233  1
