# generated using pymatgen
data_Ba17Sr5La8Pr42Mn72O216
_symmetry_space_group_name_H-M   'P 1'
_cell_length_a   16.67123327
_cell_length_b   15.70191540
_cell_length_c   16.81245204
_cell_angle_alpha   89.99096478
_cell_angle_beta   89.97631622
_cell_angle_gamma   90.00267972
_symmetry_Int_Tables_number   1
_chemical_formula_structural   Ba17Sr5La8Pr42Mn72O216
_chemical_formula_sum   'Ba17 Sr5 La8 Pr42 Mn72 O216'
_cell_volume   4401.00008653
_cell_formula_units_Z   1
loop_
 _symmetry_equiv_pos_site_id
 _symmetry_equiv_pos_as_xyz
  1  'x, y, z'
loop_
 _atom_site_type_symbol
 _atom_site_label
 _atom_site_symmetry_multiplicity
 _atom_site_fract_x
 _atom_site_fract_y
 _atom_site_fract_z
 _atom_site_occupancy
  Ba  Ba0  1  0.33432373  0.12482644  0.66505628  1
  Ba  Ba1  1  0.33183691  0.62393422  0.66672534  1
  Ba  Ba2  1  0.33448226  0.87504975  0.66790479  1
  Ba  Ba3  1  -0.00393567  0.62529947  0.66485349  1
  Ba  Ba4  1  -0.00173286  0.12604868  0.99852629  1
  Ba  Ba5  1  0.83044499  0.12286739  0.50114248  1
  Ba  Ba6  1  0.83745611  0.37638795  0.16652119  1
  Ba  Ba7  1  0.49415491  0.62609578  0.16602420  1
  Ba  Ba8  1  0.50479926  0.37336465  0.49806100  1
  Ba  Ba9  1  0.32974951  0.62503179  1.00098428  1
  Ba  Ba10  1  0.83517728  0.87366821  0.16681437  1
  Ba  Ba11  1  0.33260716  0.87521514  0.00139606  1
  Ba  Ba12  1  0.49847118  0.87538763  0.16481941  1
  Ba  Ba13  1  0.16525427  0.62440366  0.50125833  1
  Ba  Ba14  1  0.00096159  0.87562855  0.33243722  1
  Ba  Ba15  1  0.50219006  0.87468439  0.83198401  1
  Ba  Ba16  1  0.16589496  0.12540374  0.50405413  1
  Sr  Sr17  1  0.66713391  0.12589586  0.99889596  1
  Sr  Sr18  1  0.49915713  0.12603771  0.50135494  1
  Sr  Sr19  1  0.82857036  0.12529145  0.83695409  1
  Sr  Sr20  1  0.50615474  0.37612897  0.82773053  1
  Sr  Sr21  1  0.32921932  0.62360824  0.33023376  1
  La  La22  1  0.34029545  0.37506787  0.00049076  1
  La  La23  1  0.66010406  0.62518318  0.99858345  1
  La  La24  1  0.33592650  0.12439125  0.99737021  1
  La  La25  1  0.83889777  0.37614474  0.49695531  1
  La  La26  1  0.16637536  0.87393132  0.16710671  1
  La  La27  1  0.82633362  0.62411526  0.83249691  1
  La  La28  1  0.16742049  0.12450033  0.83564897  1
  La  La29  1  0.67141520  0.87790580  0.66992055  1
  Pr  Pr30  1  0.82694696  0.62845780  0.50247725  1
  Pr  Pr31  1  -0.00805890  0.62395801  0.99693032  1
  Pr  Pr32  1  0.66812045  0.87864610  0.00454421  1
  Pr  Pr33  1  0.33957969  0.37229913  0.66608407  1
  Pr  Pr34  1  0.49944793  0.12095205  0.16461930  1
  Pr  Pr35  1  -0.00306829  0.12506002  0.32827762  1
  Pr  Pr36  1  0.16121744  0.62864351  0.83504386  1
  Pr  Pr37  1  0.16528304  0.62679655  0.17168376  1
  Pr  Pr38  1  0.66243013  0.12841166  0.33072550  1
  Pr  Pr39  1  0.66003922  0.12558327  0.66625822  1
  Pr  Pr40  1  0.00607592  0.37347867  0.66502314  1
  Pr  Pr41  1  0.83919497  0.87790106  0.83515806  1
  Pr  Pr42  1  0.82699582  0.12470425  0.17026384  1
  Pr  Pr43  1  0.65998229  0.62382214  0.66504332  1
  Pr  Pr44  1  0.00458276  0.87582790  0.66456354  1
  Pr  Pr45  1  0.33918978  0.12708793  0.33431087  1
  Pr  Pr46  1  0.48919134  0.62532472  0.83782808  1
  Pr  Pr47  1  0.67632113  0.37619739  0.33682695  1
  Pr  Pr48  1  0.17330420  0.37520002  0.16695357  1
  Pr  Pr49  1  0.17127836  0.37489510  0.83301576  1
  Pr  Pr50  1  0.00075175  0.87556573  0.00684969  1
  Pr  Pr51  1  0.82467831  0.62529170  0.16881138  1
  Pr  Pr52  1  0.16606778  0.12354660  0.17328988  1
  Pr  Pr53  1  -0.00492440  0.12466373  0.66485188  1
  Pr  Pr54  1  0.50377347  0.37535995  0.16208013  1
  Pr  Pr55  1  0.00786037  0.37517594  0.00300073  1
  Pr  Pr56  1  0.83878516  0.87405327  0.49557606  1
  Pr  Pr57  1  0.49869306  0.12441290  0.83437034  1
  Pr  Pr58  1  0.49256852  0.62374310  0.49898885  1
  Pr  Pr59  1  0.84192263  0.37222342  0.83290202  1
  Pr  Pr60  1  0.33517122  0.87212886  0.33626616  1
  Pr  Pr61  1  0.66610771  0.87357072  0.33788372  1
  Pr  Pr62  1  0.17454724  0.87304019  0.50048495  1
  Pr  Pr63  1  0.67218885  0.37329818  0.00018128  1
  Pr  Pr64  1  0.01114973  0.37364757  0.33670386  1
  Pr  Pr65  1  0.16819017  0.87499004  0.83427397  1
  Pr  Pr66  1  0.67495634  0.37120726  0.66845089  1
  Pr  Pr67  1  -0.00470061  0.62523957  0.33045567  1
  Pr  Pr68  1  0.34065610  0.37772195  0.33658838  1
  Pr  Pr69  1  0.49738434  0.87755831  0.49947630  1
  Pr  Pr70  1  0.17728292  0.37659599  0.50165540  1
  Pr  Pr71  1  0.65972694  0.62263475  0.32963835  1
  Mn  Mn72  1  0.00012155  0.00165547  0.16527737  1
  Mn  Mn73  1  -0.00005964  0.00052750  0.50002440  1
  Mn  Mn74  1  0.00004476  -0.00123428  0.83322527  1
  Mn  Mn75  1  0.00179777  0.50035442  0.16604372  1
  Mn  Mn76  1  -0.00051560  0.49949047  0.49841080  1
  Mn  Mn77  1  -0.00069707  0.49944695  0.83396171  1
  Mn  Mn78  1  0.33099351  0.00380928  0.16841585  1
  Mn  Mn79  1  0.33433541  0.00019656  0.49917418  1
  Mn  Mn80  1  0.33296525  0.00174466  0.83381096  1
  Mn  Mn81  1  0.33199145  0.49743943  0.16780535  1
  Mn  Mn82  1  0.33546364  0.50006600  0.49931865  1
  Mn  Mn83  1  0.33153788  0.49737292  0.83264526  1
  Mn  Mn84  1  0.66710048  0.00120480  0.16704968  1
  Mn  Mn85  1  0.66411835  -0.00053974  0.50220946  1
  Mn  Mn86  1  0.66928404  0.00061022  0.83511658  1
  Mn  Mn87  1  0.66546524  0.49825894  0.16618316  1
  Mn  Mn88  1  0.66839042  0.50155177  0.49966984  1
  Mn  Mn89  1  0.66795197  0.49897389  0.83126639  1
  Mn  Mn90  1  0.00132983  0.25115193  0.16693248  1
  Mn  Mn91  1  0.00056243  0.24967400  0.50000849  1
  Mn  Mn92  1  0.00059202  0.25012734  0.83290156  1
  Mn  Mn93  1  0.00001987  0.74700859  0.16427235  1
  Mn  Mn94  1  -0.00104510  0.75051660  0.49934287  1
  Mn  Mn95  1  -0.00164712  0.75065690  0.83464718  1
  Mn  Mn96  1  0.33368004  0.24978198  0.16611679  1
  Mn  Mn97  1  0.33572762  0.25032358  0.49925418  1
  Mn  Mn98  1  0.33458265  0.25106525  0.83401668  1
  Mn  Mn99  1  0.33033207  0.74980562  0.16899904  1
  Mn  Mn100  1  0.33425624  0.74969244  0.49949911  1
  Mn  Mn101  1  0.33092815  0.74961449  0.83333801  1
  Mn  Mn102  1  0.66639711  0.25083098  0.16555539  1
  Mn  Mn103  1  0.66818444  0.24922187  0.50028301  1
  Mn  Mn104  1  0.66890408  0.25089128  0.83407399  1
  Mn  Mn105  1  0.66594954  0.75004680  0.16700337  1
  Mn  Mn106  1  0.66359648  0.75020837  0.50192875  1
  Mn  Mn107  1  0.66834826  0.74897316  0.83245854  1
  Mn  Mn108  1  0.16873754  0.25096501  0.00184811  1
  Mn  Mn109  1  0.16755945  0.24928975  0.33589285  1
  Mn  Mn110  1  0.16526053  0.25134591  0.66881304  1
  Mn  Mn111  1  0.16263260  0.74875164  0.00155482  1
  Mn  Mn112  1  0.16641836  0.75008422  0.33392933  1
  Mn  Mn113  1  0.16466573  0.75059185  0.66761306  1
  Mn  Mn114  1  0.50307836  0.25184735  -0.00287979  1
  Mn  Mn115  1  0.50210555  0.24868700  0.32880199  1
  Mn  Mn116  1  0.50301667  0.25210576  0.66638036  1
  Mn  Mn117  1  0.50038468  0.75014346  -0.00140160  1
  Mn  Mn118  1  0.49927624  0.75145338  0.33462319  1
  Mn  Mn119  1  0.50273816  0.74769680  0.66559860  1
  Mn  Mn120  1  0.83385578  0.25052410  -0.00035116  1
  Mn  Mn121  1  0.83440456  0.24977178  0.33308600  1
  Mn  Mn122  1  0.83418848  0.24922740  0.66753030  1
  Mn  Mn123  1  0.83151886  0.74776314  -0.00111134  1
  Mn  Mn124  1  0.83095520  0.74883551  0.33467529  1
  Mn  Mn125  1  0.83159146  0.75193612  0.66714521  1
  Mn  Mn126  1  0.16603749  0.00201050  0.00228651  1
  Mn  Mn127  1  0.16782255  0.00114194  0.33585292  1
  Mn  Mn128  1  0.16391566  -0.00021263  0.66904306  1
  Mn  Mn129  1  0.16506023  0.49957866  0.00096028  1
  Mn  Mn130  1  0.16593710  0.49916988  0.33342888  1
  Mn  Mn131  1  0.16579792  0.49735376  0.66783859  1
  Mn  Mn132  1  0.50209086  0.00290811  -0.00064325  1
  Mn  Mn133  1  0.50044263  0.00123708  0.33325461  1
  Mn  Mn134  1  0.50243833  0.00063363  0.66557430  1
  Mn  Mn135  1  0.50129805  0.49715766  -0.00409609  1
  Mn  Mn136  1  0.50083532  0.49909761  0.33110907  1
  Mn  Mn137  1  0.50263673  0.49911392  0.66657496  1
  Mn  Mn138  1  0.83248098  0.00169791  -0.00033983  1
  Mn  Mn139  1  0.83084958  -0.00006773  0.33472629  1
  Mn  Mn140  1  0.83364741  -0.00058362  0.66873672  1
  Mn  Mn141  1  0.83264364  0.49993578  -0.00108156  1
  Mn  Mn142  1  0.83533708  0.50138251  0.33340429  1
  Mn  Mn143  1  0.83257626  0.49946261  0.66516145  1
  O  O144  1  0.17182864  0.13145854  0.02823093  1
  O  O145  1  0.15723651  0.12601741  0.34918377  1
  O  O146  1  0.15763030  0.12689194  0.69042426  1
  O  O147  1  0.15845990  0.62193303  0.02608324  1
  O  O148  1  0.16257889  0.62249037  0.34409766  1
  O  O149  1  0.16407635  0.62127564  0.68896145  1
  O  O150  1  0.49903686  0.13080485  0.02117393  1
  O  O151  1  0.50319563  0.12463166  0.35288623  1
  O  O152  1  0.50903377  0.13061444  0.68964326  1
  O  O153  1  0.50513746  0.62080812  0.00709992  1
  O  O154  1  0.50729984  0.62878762  0.35531083  1
  O  O155  1  0.50887564  0.62137945  0.69246273  1
  O  O156  1  0.83049124  0.13012161  0.02490902  1
  O  O157  1  0.83096190  0.12678681  0.34458007  1
  O  O158  1  0.84178807  0.12394715  0.68895532  1
  O  O159  1  0.83643063  0.62262797  0.02447571  1
  O  O160  1  0.83368662  0.62424207  0.35774218  1
  O  O161  1  0.82849008  0.62563408  0.69003500  1
  O  O162  1  0.16362659  0.37303237  0.30992889  1
  O  O163  1  0.15752651  0.37397835  0.64682921  1
  O  O164  1  0.16197196  0.37558464  0.97661092  1
  O  O165  1  0.17575628  0.87772570  0.31065777  1
  O  O166  1  0.15976755  0.87659372  0.64794567  1
  O  O167  1  0.15703680  0.87201876  0.97906798  1
  O  O168  1  0.49594145  0.36931111  0.30603676  1
  O  O169  1  0.50252117  0.37634669  0.65458438  1
  O  O170  1  0.50475785  0.37350426  0.97687296  1
  O  O171  1  0.50009789  0.87792369  0.32027630  1
  O  O172  1  0.51100423  0.87028606  0.64512364  1
  O  O173  1  0.51177381  0.87685420  0.98997009  1
  O  O174  1  0.82930027  0.37555574  0.32221011  1
  O  O175  1  0.82676251  0.37609282  0.63982391  1
  O  O176  1  0.83082328  0.37748105  0.97743249  1
  O  O177  1  0.82459718  0.87331167  0.32228982  1
  O  O178  1  0.82701162  0.87508415  0.64006036  1
  O  O179  1  0.83232940  0.86941981  0.97933447  1
  O  O180  1  0.00360724  0.37651965  0.19308404  1
  O  O181  1  -0.00975465  0.37481378  0.51922629  1
  O  O182  1  -0.00602868  0.37858936  0.85995735  1
  O  O183  1  0.00294007  0.87451891  0.17578429  1
  O  O184  1  -0.00956423  0.87594298  0.51867484  1
  O  O185  1  -0.00357735  0.87247702  0.86343276  1
  O  O186  1  0.33214377  0.37033832  0.19364982  1
  O  O187  1  0.33254973  0.37579078  0.51673608  1
  O  O188  1  0.32519201  0.37376055  0.85779846  1
  O  O189  1  0.32537861  0.88172477  0.19088340  1
  O  O190  1  0.33500113  0.87496527  0.50789136  1
  O  O191  1  0.32335806  0.87692994  0.84298908  1
  O  O192  1  0.65747234  0.37443743  0.19295143  1
  O  O193  1  0.67338316  0.37892586  0.52307291  1
  O  O194  1  0.66659598  0.37677210  0.85738457  1
  O  O195  1  0.66592471  0.87749689  0.19017171  1
  O  O196  1  0.65478662  0.87250210  0.52851007  1
  O  O197  1  0.67161276  0.87170212  0.86075545  1
  O  O198  1  0.01092688  0.12666615  0.15536255  1
  O  O199  1  0.00146663  0.12539459  0.47549178  1
  O  O200  1  0.00760905  0.12234111  0.80763505  1
  O  O201  1  0.01246091  0.62211275  0.14018429  1
  O  O202  1  -0.00299688  0.62381148  0.47638803  1
  O  O203  1  0.00668299  0.62378629  0.81991690  1
  O  O204  1  0.32694854  0.13012809  0.14071952  1
  O  O205  1  0.33518436  0.12526374  0.47943050  1
  O  O206  1  0.33289825  0.12824533  0.82308836  1
  O  O207  1  0.32233129  0.61894245  0.15864054  1
  O  O208  1  0.33976716  0.62452440  0.48246591  1
  O  O209  1  0.33323127  0.62150881  0.82474482  1
  O  O210  1  0.67343352  0.12758031  0.14947236  1
  O  O211  1  0.66460878  0.12171435  0.47425961  1
  O  O212  1  0.67024179  0.12751643  0.80978548  1
  O  O213  1  0.67186867  0.62117683  0.14690737  1
  O  O214  1  0.67447998  0.62736053  0.47169184  1
  O  O215  1  0.67723065  0.62301250  0.80639586  1
  O  O216  1  0.08568556  0.01527283  0.25009950  1
  O  O217  1  0.07389296  0.01315226  0.59418839  1
  O  O218  1  0.09034018  0.01452595  0.90921801  1
  O  O219  1  0.07206926  0.51646532  0.25962127  1
  O  O220  1  0.07474831  0.50258266  0.58775250  1
  O  O221  1  0.07158671  0.51457639  0.92944663  1
  O  O222  1  0.41572917  0.02619664  0.24755373  1
  O  O223  1  0.42179122  0.00551040  0.57452289  1
  O  O224  1  0.41840754  0.01942929  0.91625174  1
  O  O225  1  0.40699301  0.50666471  0.25457484  1
  O  O226  1  0.41964450  0.51221372  0.58178235  1
  O  O227  1  0.41332860  0.50624529  0.91657214  1
  O  O228  1  0.74646034  0.02080524  0.25271332  1
  O  O229  1  0.74107497  0.01409060  0.59542670  1
  O  O230  1  0.74574932  0.01163725  0.92169399  1
  O  O231  1  0.74533225  0.51755858  0.25597428  1
  O  O232  1  0.74295649  0.52399801  0.58841634  1
  O  O233  1  0.74201846  0.52001232  0.92003671  1
  O  O234  1  0.24687075  0.22821349  0.25098609  1
  O  O235  1  0.24600334  0.25010739  0.58510032  1
  O  O236  1  0.25035911  0.23250890  0.92026538  1
  O  O237  1  0.24131840  0.73616143  0.24630822  1
  O  O238  1  0.24742372  0.74727300  0.57775524  1
  O  O239  1  0.23610974  0.73662421  0.91326363  1
  O  O240  1  0.57855000  0.22556800  0.24107302  1
  O  O241  1  0.58493616  0.23366141  0.58041415  1
  O  O242  1  0.57952035  0.23087187  0.90857062  1
  O  O243  1  0.58634190  0.73716186  0.25626924  1
  O  O244  1  0.57956687  0.71913016  0.57697872  1
  O  O245  1  0.58248150  0.72506686  0.90420807  1
  O  O246  1  0.91187843  0.22817693  0.24369206  1
  O  O247  1  0.91530755  0.23745327  0.58294159  1
  O  O248  1  0.91143046  0.23939023  0.90651199  1
  O  O249  1  0.91514109  0.72367200  0.24163580  1
  O  O250  1  0.90361911  0.73721717  0.57533388  1
  O  O251  1  0.90856490  0.72721923  0.90935577  1
  O  O252  1  0.09290028  0.47462038  0.09336836  1
  O  O253  1  0.09006683  0.47509436  0.42278922  1
  O  O254  1  0.08886691  0.47846313  0.76067223  1
  O  O255  1  0.08164329  0.98236946  0.08111125  1
  O  O256  1  0.09066809  0.98054559  0.42437323  1
  O  O257  1  0.08125997  0.97269422  0.75259336  1
  O  O258  1  0.42023235  0.47634136  0.08723384  1
  O  O259  1  0.42064419  0.48770055  0.41436975  1
  O  O260  1  0.41736069  0.48304742  0.75123910  1
  O  O261  1  0.41359156  1.00059259  0.08374613  1
  O  O262  1  0.41362325  0.98498856  0.40969098  1
  O  O263  1  0.42317605  0.99733702  0.74904901  1
  O  O264  1  0.74828041  0.48487156  0.08288759  1
  O  O265  1  0.75915058  0.48363457  0.42636745  1
  O  O266  1  0.75732145  0.47554904  0.75805692  1
  O  O267  1  0.74795738  0.98507638  0.08362062  1
  O  O268  1  0.74597128  0.97528480  0.42416553  1
  O  O269  1  0.75797768  0.97832701  0.75793628  1
  O  O270  1  0.25355160  0.27727824  0.08223138  1
  O  O271  1  0.25335862  0.27108129  0.41254500  1
  O  O272  1  0.25012990  0.27107894  0.74961651  1
  O  O273  1  0.24127709  0.76207012  0.08808806  1
  O  O274  1  0.25460546  0.76800898  0.41165604  1
  O  O275  1  0.24325481  0.75836353  0.75508401  1
  O  O276  1  0.58603635  0.27295633  0.07901403  1
  O  O277  1  0.59485588  0.26498151  0.39982813  1
  O  O278  1  0.59518708  0.26682029  0.74262446  1
  O  O279  1  0.59116993  0.75898093  0.07341900  1
  O  O280  1  0.58500985  0.77213563  0.41762970  1
  O  O281  1  0.59881457  0.76154211  0.73857338  1
  O  O282  1  0.92481939  0.26793902  0.07446883  1
  O  O283  1  0.92647426  0.26494038  0.40569597  1
  O  O284  1  0.92130404  0.27339691  0.74252880  1
  O  O285  1  0.92470980  0.75830645  0.07146455  1
  O  O286  1  0.91442867  0.76037599  0.41630209  1
  O  O287  1  0.92086189  0.77454259  0.74674868  1
  O  O288  1  0.25616929  0.47430559  0.07699444  1
  O  O289  1  0.25472426  0.47952358  0.40966050  1
  O  O290  1  0.25425330  0.47285409  0.74541436  1
  O  O291  1  0.23969036  0.98821484  0.09686270  1
  O  O292  1  0.25190076  0.98065371  0.41539331  1
  O  O293  1  0.23971499  0.99324012  0.75983655  1
  O  O294  1  0.58747015  0.47834156  0.07754347  1
  O  O295  1  0.59849229  0.48615871  0.40633061  1
  O  O296  1  0.59829467  0.48353751  0.73860968  1
  O  O297  1  0.58823726  0.99348996  0.08085045  1
  O  O298  1  0.58408013  0.97752786  0.41782119  1
  O  O299  1  0.59688462  0.98831731  0.74396830  1
  O  O300  1  0.93184551  0.48603077  0.07112998  1
  O  O301  1  0.92978324  0.48378779  0.40242933  1
  O  O302  1  0.92211371  0.47669079  0.74233740  1
  O  O303  1  0.91932672  0.98798582  0.07693192  1
  O  O304  1  0.91321229  0.98809194  0.41822467  1
  O  O305  1  0.92055011  0.97448980  0.74731716  1
  O  O306  1  0.08923171  0.27373438  0.08807237  1
  O  O307  1  0.09034486  0.27554278  0.42444481  1
  O  O308  1  0.08558691  0.27422490  0.75501271  1
  O  O309  1  0.08407689  0.76998703  0.08572693  1
  O  O310  1  0.09152958  0.76759083  0.42151225  1
  O  O311  1  0.08400705  0.77161082  0.75931176  1
  O  O312  1  0.42163777  0.27252440  0.08273144  1
  O  O313  1  0.41469767  0.26185613  0.40501672  1
  O  O314  1  0.41795146  0.26810210  0.75006575  1
  O  O315  1  0.41182926  0.75563836  0.08793627  1
  O  O316  1  0.42170215  0.76904860  0.42017878  1
  O  O317  1  0.42372058  0.75216634  0.74958303  1
  O  O318  1  0.74814238  0.26896548  0.08461334  1
  O  O319  1  0.75585218  0.26930637  0.42280539  1
  O  O320  1  0.75750166  0.27320816  0.75665374  1
  O  O321  1  0.74978638  0.76121346  0.08109835  1
  O  O322  1  0.74760002  0.77343194  0.42649525  1
  O  O323  1  0.75881589  0.77264757  0.75895964  1
  O  O324  1  0.25276252  0.02900641  0.25568867  1
  O  O325  1  0.24610815  0.00338032  0.58278877  1
  O  O326  1  0.25128705  0.02011298  0.92578069  1
  O  O327  1  0.23484951  0.50742950  0.23927055  1
  O  O328  1  0.24681328  0.50036714  0.58037028  1
  O  O329  1  0.23248008  0.51361935  0.90530255  1
  O  O330  1  0.58345105  0.02348065  0.24940952  1
  O  O331  1  0.58298195  0.02170612  0.58258561  1
  O  O332  1  0.58106879  0.02168837  0.90913885  1
  O  O333  1  0.58207176  0.51428517  0.24772539  1
  O  O334  1  0.58118129  0.52481010  0.57311785  1
  O  O335  1  0.58062310  0.52043089  0.90390785  1
  O  O336  1  0.91675600  0.02119148  0.24587600  1
  O  O337  1  0.91721872  0.01205383  0.58820836  1
  O  O338  1  0.91201906  0.01020091  0.90934209  1
  O  O339  1  0.91181886  0.52731811  0.23948663  1
  O  O340  1  0.90389946  0.51418377  0.56579487  1
  O  O341  1  0.90724179  0.51994294  0.90612525  1
  O  O342  1  0.07804117  0.23497550  0.25947673  1
  O  O343  1  0.07282701  0.23761404  0.59517013  1
  O  O344  1  0.08972844  0.23808503  0.91563817  1
  O  O345  1  0.07921063  0.73112675  0.25143602  1
  O  O346  1  0.07613674  0.74764898  0.58693664  1
  O  O347  1  0.07551154  0.72817175  0.92358218  1
  O  O348  1  0.41668948  0.22272895  0.24545355  1
  O  O349  1  0.41768574  0.24374256  0.58380406  1
  O  O350  1  0.41711165  0.23227482  0.91918396  1
  O  O351  1  0.40808697  0.74389318  0.26017311  1
  O  O352  1  0.42277412  0.73744471  0.57830014  1
  O  O353  1  0.41737455  0.74044944  0.91433692  1
  O  O354  1  0.74392213  0.23583823  0.25629723  1
  O  O355  1  0.74321706  0.23342209  0.59798478  1
  O  O356  1  0.74530787  0.24126963  0.92185465  1
  O  O357  1  0.74774579  0.72667292  0.25446657  1
  O  O358  1  0.74088483  0.73013306  0.58891478  1
  O  O359  1  0.74508456  0.72468079  0.92055557  1
