# generated using pymatgen
data_Ba17Sr5La8Pr42Mn72O216
_symmetry_space_group_name_H-M   'P 1'
_cell_length_a   16.68010784
_cell_length_b   15.70508009
_cell_length_c   16.82383930
_cell_angle_alpha   89.99756897
_cell_angle_beta   89.96327183
_cell_angle_gamma   89.98229340
_symmetry_Int_Tables_number   1
_chemical_formula_structural   Ba17Sr5La8Pr42Mn72O216
_chemical_formula_sum   'Ba17 Sr5 La8 Pr42 Mn72 O216'
_cell_volume   4407.21269854
_cell_formula_units_Z   1
loop_
 _symmetry_equiv_pos_site_id
 _symmetry_equiv_pos_as_xyz
  1  'x, y, z'
loop_
 _atom_site_type_symbol
 _atom_site_label
 _atom_site_symmetry_multiplicity
 _atom_site_fract_x
 _atom_site_fract_y
 _atom_site_fract_z
 _atom_site_occupancy
  Ba  Ba0  1  0.66551641  0.37203280  0.00215666  1
  Ba  Ba1  1  0.49710900  0.87613370  0.83222868  1
  Ba  Ba2  1  0.66281435  0.87404949  0.33754011  1
  Ba  Ba3  1  0.67121744  0.12349908  1.00187055  1
  Ba  Ba4  1  0.83111179  0.87580984  0.50056450  1
  Ba  Ba5  1  0.83204126  0.37654234  0.16635283  1
  Ba  Ba6  1  0.49814596  0.37492000  0.50073069  1
  Ba  Ba7  1  0.83510169  0.12533303  0.50181007  1
  Ba  Ba8  1  0.16339468  0.37448017  0.82907548  1
  Ba  Ba9  1  0.00189728  0.12431840  0.33333534  1
  Ba  Ba10  1  0.00198947  0.62664274  0.33355058  1
  Ba  Ba11  1  -0.00192488  0.87495467  0.33421200  1
  Ba  Ba12  1  0.50115450  0.62628958  0.83598730  1
  Ba  Ba13  1  0.16820836  0.37379905  0.16221289  1
  Ba  Ba14  1  0.49858381  0.62579413  0.16946499  1
  Ba  Ba15  1  0.50004232  0.37458578  0.83318050  1
  Ba  Ba16  1  0.83479549  0.62360266  0.16721267  1
  Sr  Sr17  1  -0.00967677  0.87433456  0.66706376  1
  Sr  Sr18  1  0.33934414  0.12751047  0.33068848  1
  Sr  Sr19  1  0.50450176  0.62357588  0.50144544  1
  Sr  Sr20  1  0.33827325  0.62273923  0.33354339  1
  Sr  Sr21  1  0.00671483  0.62532325  0.66240527  1
  La  La22  1  -0.00209551  0.37622673  0.00153993  1
  La  La23  1  0.66984044  0.62415198  0.66837841  1
  La  La24  1  0.17067368  0.62547732  0.17004734  1
  La  La25  1  0.82991476  0.37720396  0.49863874  1
  La  La26  1  0.17134848  0.12397469  0.83086518  1
  La  La27  1  0.32506600  0.87233182  0.00044795  1
  La  La28  1  0.50339467  0.12435030  0.83667339  1
  La  La29  1  0.33031067  0.37803824  0.66736668  1
  Pr  Pr30  1  0.32990298  0.87284178  0.33610132  1
  Pr  Pr31  1  0.82679458  0.37554450  0.83464219  1
  Pr  Pr32  1  0.33527371  0.12693174  0.99765319  1
  Pr  Pr33  1  0.16178139  0.37499327  0.49393615  1
  Pr  Pr34  1  0.33462232  0.37737295  0.00020404  1
  Pr  Pr35  1  0.17616252  0.63003614  0.50117298  1
  Pr  Pr36  1  0.66193689  0.37755183  0.33256746  1
  Pr  Pr37  1  0.65577392  0.87278825  0.00742582  1
  Pr  Pr38  1  0.17204504  0.62677307  0.83062623  1
  Pr  Pr39  1  0.50545973  0.12540702  0.49959900  1
  Pr  Pr40  1  0.48738505  0.87571128  0.16643197  1
  Pr  Pr41  1  0.15794565  0.87647387  0.16674511  1
  Pr  Pr42  1  0.17368292  0.12040536  0.49892511  1
  Pr  Pr43  1  0.83425396  0.12865391  0.17326083  1
  Pr  Pr44  1  -0.00779094  0.37692487  0.33245580  1
  Pr  Pr45  1  0.00620676  0.12795702  1.00034412  1
  Pr  Pr46  1  0.32357271  0.87348250  0.67094699  1
  Pr  Pr47  1  0.82212467  0.87524489  0.82976315  1
  Pr  Pr48  1  0.66209982  0.87664131  0.66575715  1
  Pr  Pr49  1  0.84323752  0.62668976  0.83888960  1
  Pr  Pr50  1  0.66891551  0.62371901  0.33387004  1
  Pr  Pr51  1  0.32953706  0.37825889  0.33366556  1
  Pr  Pr52  1  0.34059685  0.12645412  0.66292927  1
  Pr  Pr53  1  0.00937748  0.12540761  0.65878060  1
  Pr  Pr54  1  0.67705266  0.62304757  0.99765853  1
  Pr  Pr55  1  0.84028211  0.12316762  0.83665699  1
  Pr  Pr56  1  0.49567030  0.87304834  0.49788536  1
  Pr  Pr57  1  0.82653395  0.87386443  0.17177366  1
  Pr  Pr58  1  0.66962758  0.12547036  0.66851296  1
  Pr  Pr59  1  0.83928551  0.63013126  0.50158766  1
  Pr  Pr60  1  0.17463864  0.12433099  0.16973254  1
  Pr  Pr61  1  0.33567418  0.62195309  0.99858407  1
  Pr  Pr62  1  -0.01170543  0.37576929  0.66980375  1
  Pr  Pr63  1  0.15556475  0.87592266  0.82880920  1
  Pr  Pr64  1  0.66200569  0.37259211  0.67261404  1
  Pr  Pr65  1  0.50863411  0.12356864  0.17047845  1
  Pr  Pr66  1  -0.00993995  0.87418726  0.00197582  1
  Pr  Pr67  1  0.01006907  0.62190156  0.99909595  1
  Pr  Pr68  1  0.49614958  0.37397236  0.16413052  1
  Pr  Pr69  1  0.34215516  0.62431763  0.66396282  1
  Pr  Pr70  1  0.67090527  0.12604139  0.33334513  1
  Pr  Pr71  1  0.15840790  0.87552945  0.49781168  1
  Mn  Mn72  1  -0.00189101  -0.00039808  0.16330436  1
  Mn  Mn73  1  0.00137068  0.00089441  0.50059298  1
  Mn  Mn74  1  -0.00086465  0.00036452  0.83306920  1
  Mn  Mn75  1  0.00256200  0.50047645  0.16603438  1
  Mn  Mn76  1  0.00202822  0.50035699  0.50183070  1
  Mn  Mn77  1  0.00062998  0.50093321  0.83042449  1
  Mn  Mn78  1  0.33112881  -0.00010441  0.16680806  1
  Mn  Mn79  1  0.33514622  -0.00028372  0.50037948  1
  Mn  Mn80  1  0.33106560  0.00023172  0.83209364  1
  Mn  Mn81  1  0.33390368  0.49946532  0.16715302  1
  Mn  Mn82  1  0.33285078  0.50024619  0.50001498  1
  Mn  Mn83  1  0.33179257  0.50027515  0.83174448  1
  Mn  Mn84  1  0.66640865  -0.00166808  0.16892955  1
  Mn  Mn85  1  0.66430331  0.00229726  0.50181072  1
  Mn  Mn86  1  0.66753530  0.00010676  0.83497590  1
  Mn  Mn87  1  0.66416140  0.50101927  0.16696155  1
  Mn  Mn88  1  0.66763925  0.50006882  0.50168993  1
  Mn  Mn89  1  0.66917250  0.50125550  0.83280287  1
  Mn  Mn90  1  0.00148758  0.24927222  0.16473644  1
  Mn  Mn91  1  0.00309402  0.25176559  0.50059019  1
  Mn  Mn92  1  -0.00073486  0.24860456  0.83032401  1
  Mn  Mn93  1  -0.00071878  0.75153553  0.16421850  1
  Mn  Mn94  1  0.00117429  0.74877457  0.50195647  1
  Mn  Mn95  1  -0.00003143  0.74957748  0.83321946  1
  Mn  Mn96  1  0.33536474  0.24769145  0.16496991  1
  Mn  Mn97  1  0.33229620  0.24838917  0.49793866  1
  Mn  Mn98  1  0.33224311  0.24861627  0.83055131  1
  Mn  Mn99  1  0.32917549  0.75206251  0.16894443  1
  Mn  Mn100  1  0.33574857  0.75185799  0.50198331  1
  Mn  Mn101  1  0.33012515  0.75155309  0.83377893  1
  Mn  Mn102  1  0.66571436  0.24903714  0.16911977  1
  Mn  Mn103  1  0.66641054  0.25170827  0.50168254  1
  Mn  Mn104  1  0.66875883  0.24826752  0.83383631  1
  Mn  Mn105  1  0.66403106  0.74977563  0.16827052  1
  Mn  Mn106  1  0.66561038  0.74699085  0.50209705  1
  Mn  Mn107  1  0.66798196  0.75051427  0.83467536  1
  Mn  Mn108  1  0.16833732  0.24826414  -0.00273843  1
  Mn  Mn109  1  0.16822382  0.24979780  0.33159590  1
  Mn  Mn110  1  0.16792122  0.25069730  0.66174739  1
  Mn  Mn111  1  0.16514845  0.75065009  -0.00184614  1
  Mn  Mn112  1  0.16917293  0.74968240  0.33359253  1
  Mn  Mn113  1  0.16536310  0.75039017  0.66672994  1
  Mn  Mn114  1  0.49831174  0.24792270  0.00117026  1
  Mn  Mn115  1  0.49971626  0.24970651  0.33242038  1
  Mn  Mn116  1  0.49974405  0.24844728  0.66655669  1
  Mn  Mn117  1  0.49759077  0.75088942  0.00244072  1
  Mn  Mn118  1  0.49845762  0.74914202  0.33544088  1
  Mn  Mn119  1  0.50052680  0.75036289  0.66512989  1
  Mn  Mn120  1  0.83706562  0.24699292  0.00108861  1
  Mn  Mn121  1  0.83253482  0.25183592  0.33524021  1
  Mn  Mn122  1  0.83301023  0.25019814  0.66896209  1
  Mn  Mn123  1  0.83415288  0.75207454  -0.00126034  1
  Mn  Mn124  1  0.83193355  0.74911761  0.33464080  1
  Mn  Mn125  1  0.83276697  0.74919427  0.66996253  1
  Mn  Mn126  1  0.16505061  0.00034778  -0.00200585  1
  Mn  Mn127  1  0.17027672  0.00158338  0.33303362  1
  Mn  Mn128  1  0.16584561  -0.00084132  0.66648567  1
  Mn  Mn129  1  0.16854842  0.50059748  -0.00331508  1
  Mn  Mn130  1  0.16755770  0.49926491  0.33260727  1
  Mn  Mn131  1  0.16690645  0.50092533  0.66212953  1
  Mn  Mn132  1  0.49649989  -0.00028556  0.00159080  1
  Mn  Mn133  1  0.49848736  0.00045006  0.33440761  1
  Mn  Mn134  1  0.49907765  0.00085378  0.66501772  1
  Mn  Mn135  1  0.50050206  0.50024649  0.00210812  1
  Mn  Mn136  1  0.49948933  0.49988787  0.33407375  1
  Mn  Mn137  1  0.50117925  0.50099635  0.66653134  1
  Mn  Mn138  1  0.83520434  -0.00200082  0.00133484  1
  Mn  Mn139  1  0.83251142  0.00086483  0.33386311  1
  Mn  Mn140  1  0.83264944  -0.00057416  0.67051889  1
  Mn  Mn141  1  0.83648001  0.50120935  -0.00121365  1
  Mn  Mn142  1  0.83248482  0.49864433  0.33572172  1
  Mn  Mn143  1  0.83334912  0.50165951  0.66733346  1
  O  O144  1  0.16189390  0.12223146  0.02499553  1
  O  O145  1  0.17030377  0.12542028  0.35535153  1
  O  O146  1  0.15840518  0.12281471  0.68749538  1
  O  O147  1  0.16256521  0.62840346  0.02453001  1
  O  O148  1  0.17054444  0.62125458  0.35712253  1
  O  O149  1  0.16541224  0.62717673  0.68744437  1
  O  O150  1  0.48751347  0.12177574  0.02536418  1
  O  O151  1  0.49694118  0.12562844  0.35683955  1
  O  O152  1  0.48982419  0.12381675  0.69144296  1
  O  O153  1  0.48860202  0.62838461  0.01212657  1
  O  O154  1  0.49735602  0.62436723  0.35171688  1
  O  O155  1  0.49194727  0.62653209  0.67786368  1
  O  O156  1  0.84236970  0.11689132  0.02825983  1
  O  O157  1  0.82560011  0.12865591  0.34087168  1
  O  O158  1  0.82511592  0.12545412  0.69286521  1
  O  O159  1  0.82689080  0.62827461  0.00849181  1
  O  O160  1  0.82463477  0.61905023  0.35497869  1
  O  O161  1  0.82581165  0.62481069  0.69567297  1
  O  O162  1  0.17866023  0.37448947  0.31804003  1
  O  O163  1  0.17683318  0.37594191  0.63899850  1
  O  O164  1  0.17418572  0.37353228  0.98479269  1
  O  O165  1  0.17627844  0.87865086  0.31018965  1
  O  O166  1  0.17529271  0.87570496  0.64272217  1
  O  O167  1  0.17047027  0.87593215  0.97086336  1
  O  O168  1  0.50794130  0.37167885  0.30958505  1
  O  O169  1  0.50870931  0.37281231  0.65811850  1
  O  O170  1  0.49500629  0.37206548  0.98951374  1
  O  O171  1  0.49650349  0.87765011  0.31163636  1
  O  O172  1  0.50963162  0.87766712  0.64180322  1
  O  O173  1  0.50434095  0.87610159  0.98931996  1
  O  O174  1  0.83943527  0.37441510  0.32510511  1
  O  O175  1  0.83712696  0.37582783  0.64248639  1
  O  O176  1  0.84388434  0.37755318  0.97846151  1
  O  O177  1  0.83047028  0.87779203  0.31844855  1
  O  O178  1  0.83181471  0.87402232  0.65769531  1
  O  O179  1  0.84162621  0.87498161  0.97137597  1
  O  O180  1  0.00345648  0.37303091  0.18519264  1
  O  O181  1  0.00527700  0.37593372  0.52718797  1
  O  O182  1  -0.00386868  0.37300752  0.85712504  1
  O  O183  1  0.01013783  0.87612550  0.17631340  1
  O  O184  1  0.00743457  0.87430333  0.51603636  1
  O  O185  1  0.00671696  0.87414415  0.85923280  1
  O  O186  1  0.33769803  0.36913478  0.18825211  1
  O  O187  1  0.32412265  0.37118611  0.52469300  1
  O  O188  1  0.32987991  0.37043723  0.85503934  1
  O  O189  1  0.32737270  0.87742563  0.19224736  1
  O  O190  1  0.34288134  0.87791421  0.53035448  1
  O  O191  1  0.32280331  0.87543031  0.85503310  1
  O  O192  1  0.65582142  0.37208482  0.18683973  1
  O  O193  1  0.67224123  0.37643511  0.52887734  1
  O  O194  1  0.67051872  0.37510419  0.84382737  1
  O  O195  1  0.67257467  0.87490712  0.17952949  1
  O  O196  1  0.65843579  0.87532126  0.52214454  1
  O  O197  1  0.67171999  0.87667869  0.86087728  1
  O  O198  1  -0.00873677  0.12269961  0.14305477  1
  O  O199  1  0.00758365  0.12753208  0.49305841  1
  O  O200  1  -0.00639212  0.12645868  0.80267160  1
  O  O201  1  0.00623059  0.62856984  0.14429671  1
  O  O202  1  -0.00222252  0.62310355  0.49151504  1
  O  O203  1  -0.00284733  0.62619993  0.81122853  1
  O  O204  1  0.33178378  0.12212282  0.14062861  1
  O  O205  1  0.33092289  0.12302938  0.47796354  1
  O  O206  1  0.33096843  0.12378626  0.80689072  1
  O  O207  1  0.32709818  0.63023346  0.14325134  1
  O  O208  1  0.32751993  0.62939719  0.48208825  1
  O  O209  1  0.32682481  0.63003709  0.80954001  1
  O  O210  1  0.66748417  0.12216867  0.15832880  1
  O  O211  1  0.65965191  0.12884737  0.47830243  1
  O  O212  1  0.67476416  0.12286297  0.81395615  1
  O  O213  1  0.66491926  0.62870976  0.14231412  1
  O  O214  1  0.66732079  0.62057924  0.47810911  1
  O  O215  1  0.67860175  0.62629869  0.81530055  1
  O  O216  1  0.09221704  0.01424654  0.23206035  1
  O  O217  1  0.09369440  0.01561002  0.57867411  1
  O  O218  1  0.09156187  0.02269942  0.90506983  1
  O  O219  1  0.09282132  0.51573077  0.24261154  1
  O  O220  1  0.09837612  0.51602073  0.56813872  1
  O  O221  1  0.08909853  0.52245492  0.90937952  1
  O  O222  1  0.42643971  0.01432184  0.23977345  1
  O  O223  1  0.42468169  0.02381545  0.57351058  1
  O  O224  1  0.41701191  0.02060130  0.90968491  1
  O  O225  1  0.41735231  0.50201901  0.25097465  1
  O  O226  1  0.41502489  0.51048066  0.58249402  1
  O  O227  1  0.41006351  0.50935236  0.92286546  1
  O  O228  1  0.75571326  0.01511218  0.24279750  1
  O  O229  1  0.74462489  0.01223897  0.58872093  1
  O  O230  1  0.76626208  0.01495636  0.90872708  1
  O  O231  1  0.74475881  0.50862416  0.25617945  1
  O  O232  1  0.75821125  0.52295279  0.57843303  1
  O  O233  1  0.76084407  0.51353162  0.90689370  1
  O  O234  1  0.25493872  0.23000411  0.24758637  1
  O  O235  1  0.25455532  0.22259094  0.58485003  1
  O  O236  1  0.25104067  0.22375358  0.91559756  1
  O  O237  1  0.25300805  0.73092091  0.25456677  1
  O  O238  1  0.26040950  0.73347916  0.59340671  1
  O  O239  1  0.25291637  0.72560797  0.92448656  1
  O  O240  1  0.58485607  0.22574822  0.25516994  1
  O  O241  1  0.58325738  0.22760238  0.58521009  1
  O  O242  1  0.57952427  0.23161898  0.91568989  1
  O  O243  1  0.58870031  0.73309348  0.26239371  1
  O  O244  1  0.59423289  0.73236479  0.59335177  1
  O  O245  1  0.59951233  0.73681712  0.92904171  1
  O  O246  1  0.91509331  0.23808848  0.24582933  1
  O  O247  1  0.92776856  0.23748803  0.59806982  1
  O  O248  1  0.92380031  0.22367768  0.91747245  1
  O  O249  1  0.91754008  0.74744334  0.24837488  1
  O  O250  1  0.91796253  0.73423963  0.59176793  1
  O  O251  1  0.92951815  0.73043899  0.92789971  1
  O  O252  1  0.08019554  0.48780113  0.06982375  1
  O  O253  1  0.07786259  0.47429354  0.40736609  1
  O  O254  1  0.07441096  0.48381053  0.73394228  1
  O  O255  1  0.07292551  0.98325639  0.06726216  1
  O  O256  1  0.08920372  0.98834415  0.41850950  1
  O  O257  1  0.07567114  0.98120977  0.74471837  1
  O  O258  1  0.41413778  0.48001731  0.08475418  1
  O  O259  1  0.40797895  0.48199216  0.41078501  1
  O  O260  1  0.40903893  0.48795054  0.74514090  1
  O  O261  1  0.40365826  0.97458123  0.07899092  1
  O  O262  1  0.40987811  0.97688489  0.41080381  1
  O  O263  1  0.40515306  0.98272706  0.73408359  1
  O  O264  1  0.74654573  0.49511471  0.07665010  1
  O  O265  1  0.74665805  0.47609953  0.41672432  1
  O  O266  1  0.74690350  0.47681383  0.74169817  1
  O  O267  1  0.74686053  0.97544031  0.07406960  1
  O  O268  1  0.74092282  0.99869563  0.41437916  1
  O  O269  1  0.74261482  0.97839245  0.74725218  1
  O  O270  1  0.25676329  0.25745652  0.07696741  1
  O  O271  1  0.24480096  0.26705389  0.42210376  1
  O  O272  1  0.24814559  0.25983462  0.74370065  1
  O  O273  1  0.23894757  0.77348041  0.08834318  1
  O  O274  1  0.24925032  0.77559401  0.42781588  1
  O  O275  1  0.23780169  0.76962698  0.75903151  1
  O  O276  1  0.57361397  0.25535649  0.09339379  1
  O  O277  1  0.58700226  0.26472520  0.41346183  1
  O  O278  1  0.58771621  0.25121386  0.74581179  1
  O  O279  1  0.57477678  0.77243603  0.09426617  1
  O  O280  1  0.57163092  0.76140227  0.42987588  1
  O  O281  1  0.58233739  0.76159604  0.75181218  1
  O  O282  1  0.92260898  0.26442913  0.07766251  1
  O  O283  1  0.91705317  0.27008428  0.42385009  1
  O  O284  1  0.90888685  0.27355254  0.75793899  1
  O  O285  1  0.90789985  0.77348375  0.08788181  1
  O  O286  1  0.91309373  0.75123771  0.42366073  1
  O  O287  1  0.90521115  0.76451820  0.76647700  1
  O  O288  1  0.25677424  0.49118486  0.07400564  1
  O  O289  1  0.24488637  0.48086357  0.42215889  1
  O  O290  1  0.24818225  0.48886362  0.74513305  1
  O  O291  1  0.23785861  0.98031652  0.08842343  1
  O  O292  1  0.24932592  0.97715773  0.42788312  1
  O  O293  1  0.23873427  0.98201998  0.75681936  1
  O  O294  1  0.57538999  0.48576837  0.09141472  1
  O  O295  1  0.58644248  0.48466067  0.41527642  1
  O  O296  1  0.58828120  0.49527072  0.74949170  1
  O  O297  1  0.57475165  0.98478379  0.09569092  1
  O  O298  1  0.56887532  0.98896726  0.43062956  1
  O  O299  1  0.58212944  0.99112925  0.74668192  1
  O  O300  1  0.92115126  0.49117487  0.07791057  1
  O  O301  1  0.91313384  0.48298685  0.42627408  1
  O  O302  1  0.90827704  0.47869242  0.75697309  1
  O  O303  1  0.90866518  0.97053337  0.08795370  1
  O  O304  1  0.91478304  0.99600427  0.41912539  1
  O  O305  1  0.90499818  0.98533364  0.76727093  1
  O  O306  1  0.07863869  0.26064234  0.07081210  1
  O  O307  1  0.07866322  0.27457633  0.40960507  1
  O  O308  1  0.07149706  0.26520764  0.73393569  1
  O  O309  1  0.07418583  0.76856009  0.06823929  1
  O  O310  1  0.08949739  0.76160206  0.41658218  1
  O  O311  1  0.07736717  0.77042055  0.74564841  1
  O  O312  1  0.41221645  0.27095519  0.07885033  1
  O  O313  1  0.40752151  0.26856176  0.40472600  1
  O  O314  1  0.40923825  0.26419779  0.74070938  1
  O  O315  1  0.40540350  0.77416754  0.08454075  1
  O  O316  1  0.41114609  0.77388469  0.41377319  1
  O  O317  1  0.40376879  0.76617219  0.73847738  1
  O  O318  1  0.75232112  0.25283797  0.08848058  1
  O  O319  1  0.74782514  0.27174823  0.42024559  1
  O  O320  1  0.74996396  0.27242902  0.74715937  1
  O  O321  1  0.74204651  0.76802291  0.07096048  1
  O  O322  1  0.74446180  0.75186918  0.41767287  1
  O  O323  1  0.74009942  0.77297221  0.74403845  1
  O  O324  1  0.25573752  0.02279567  0.25172516  1
  O  O325  1  0.25823048  0.02057260  0.59044622  1
  O  O326  1  0.25343977  0.02344782  0.92565423  1
  O  O327  1  0.25348548  0.51578876  0.24998013  1
  O  O328  1  0.25519018  0.52538935  0.58665349  1
  O  O329  1  0.24990180  0.52515566  0.91472204  1
  O  O330  1  0.58757064  0.02148359  0.26131590  1
  O  O331  1  0.58584391  0.02836794  0.58911690  1
  O  O332  1  0.58398093  0.01522179  0.91518656  1
  O  O333  1  0.58876364  0.51478118  0.25932633  1
  O  O334  1  0.59206558  0.51622827  0.58852127  1
  O  O335  1  0.59359502  0.51708159  0.92559908  1
  O  O336  1  0.91406684  0.00999906  0.24385955  1
  O  O337  1  0.92467570  0.01384786  0.59855510  1
  O  O338  1  0.92925881  0.01999819  0.92729914  1
  O  O339  1  0.92096952  0.50405786  0.25781476  1
  O  O340  1  0.92067797  0.51516493  0.59220632  1
  O  O341  1  0.92420923  0.52240027  0.92036578  1
  O  O342  1  0.09048414  0.23120056  0.23930517  1
  O  O343  1  0.09651023  0.23357549  0.57140891  1
  O  O344  1  0.08674970  0.22606885  0.90670975  1
  O  O345  1  0.09335754  0.74077523  0.23493479  1
  O  O346  1  0.09577846  0.73616322  0.57573814  1
  O  O347  1  0.09227641  0.72796021  0.90658621  1
  O  O348  1  0.42548405  0.23152228  0.23778660  1
  O  O349  1  0.41941792  0.22943680  0.57732964  1
  O  O350  1  0.41681041  0.22669415  0.91512681  1
  O  O351  1  0.41622937  0.74753331  0.25036656  1
  O  O352  1  0.42375475  0.73630364  0.57529654  1
  O  O353  1  0.41116816  0.74303924  0.91890574  1
  O  O354  1  0.74499575  0.23885989  0.25414961  1
  O  O355  1  0.74632053  0.23644815  0.59044488  1
  O  O356  1  0.76186125  0.23730133  0.91110697  1
  O  O357  1  0.74914772  0.73769941  0.24749604  1
  O  O358  1  0.75410567  0.72757079  0.58119125  1
  O  O359  1  0.76371595  0.73643504  0.90522732  1
