# generated using pymatgen
data_Ba17Sr5La8Pr42Mn72O216
_symmetry_space_group_name_H-M   'P 1'
_cell_length_a   16.67666146
_cell_length_b   15.70934821
_cell_length_c   16.81692573
_cell_angle_alpha   89.99571410
_cell_angle_beta   90.02057448
_cell_angle_gamma   90.00204371
_symmetry_Int_Tables_number   1
_chemical_formula_structural   Ba17Sr5La8Pr42Mn72O216
_chemical_formula_sum   'Ba17 Sr5 La8 Pr42 Mn72 O216'
_cell_volume   4405.68918904
_cell_formula_units_Z   1
loop_
 _symmetry_equiv_pos_site_id
 _symmetry_equiv_pos_as_xyz
  1  'x, y, z'
loop_
 _atom_site_type_symbol
 _atom_site_label
 _atom_site_symmetry_multiplicity
 _atom_site_fract_x
 _atom_site_fract_y
 _atom_site_fract_z
 _atom_site_occupancy
  Ba  Ba0  1  -0.00087240  0.12479647  0.33492864  1
  Ba  Ba1  1  0.49961781  0.62386496  0.50275937  1
  Ba  Ba2  1  0.33693771  0.62467936  0.33447446  1
  Ba  Ba3  1  0.16568022  0.87573151  0.82903334  1
  Ba  Ba4  1  0.33464542  0.37257891  0.00509377  1
  Ba  Ba5  1  0.82798587  0.87413285  0.49729004  1
  Ba  Ba6  1  0.16782729  0.37452878  0.16315909  1
  Ba  Ba7  1  0.33176762  0.37469520  0.33548913  1
  Ba  Ba8  1  0.33055435  0.87411942  0.33497837  1
  Ba  Ba9  1  0.83287965  0.12606388  0.83073391  1
  Ba  Ba10  1  -0.00083162  0.37526572  0.00019091  1
  Ba  Ba11  1  0.50540756  0.62558331  0.16967416  1
  Ba  Ba12  1  0.66894507  0.12557984  0.99775449  1
  Ba  Ba13  1  0.16641034  0.87479746  0.16439447  1
  Ba  Ba14  1  0.16655280  0.12329540  0.83016366  1
  Ba  Ba15  1  0.66906851  0.62520823  0.99869310  1
  Ba  Ba16  1  0.50073965  0.12631543  0.50548314  1
  Sr  Sr17  1  0.83382060  0.37387793  0.16106034  1
  Sr  Sr18  1  0.82584376  0.37536432  0.83506324  1
  Sr  Sr19  1  0.67069816  0.12699204  0.66513405  1
  Sr  Sr20  1  0.67148853  0.37415817  0.00209844  1
  Sr  Sr21  1  0.33359321  0.87453127  0.66832411  1
  La  La22  1  0.50339841  0.37862652  0.16459273  1
  La  La23  1  0.49457969  0.87583675  0.50118650  1
  La  La24  1  0.16247783  0.87482914  0.49411754  1
  La  La25  1  0.00706898  0.62420486  0.99956978  1
  La  La26  1  0.00203240  0.12700988  0.99800010  1
  La  La27  1  0.49810948  0.62448886  0.84043674  1
  La  La28  1  0.49918173  0.12535522  0.83842866  1
  La  La29  1  0.83172015  0.87729012  0.16697479  1
  Pr  Pr30  1  0.82280049  0.87288122  0.82688839  1
  Pr  Pr31  1  0.16301773  0.37250320  0.83032778  1
  Pr  Pr32  1  0.83934904  0.13251246  0.16458976  1
  Pr  Pr33  1  0.83980504  0.62515290  0.49899761  1
  Pr  Pr34  1  0.16722205  0.12855998  0.16418830  1
  Pr  Pr35  1  0.82298455  0.37630682  0.49777978  1
  Pr  Pr36  1  0.15877603  0.37507318  0.49285950  1
  Pr  Pr37  1  0.33028103  0.12355102  1.00040910  1
  Pr  Pr38  1  0.65918987  0.37311435  0.66903437  1
  Pr  Pr39  1  -0.00617913  0.87494739  0.33776939  1
  Pr  Pr40  1  0.33400981  0.62507737  1.00264210  1
  Pr  Pr41  1  0.50249797  0.12899127  0.17460332  1
  Pr  Pr42  1  0.66091143  0.37579616  0.33070046  1
  Pr  Pr43  1  0.84055786  0.62031102  0.16521766  1
  Pr  Pr44  1  0.65642523  0.87514019  0.33729987  1
  Pr  Pr45  1  -0.01067312  0.37528882  0.67247899  1
  Pr  Pr46  1  -0.00573091  0.87839241  -0.00325610  1
  Pr  Pr47  1  0.66169684  0.87820007  -0.00005848  1
  Pr  Pr48  1  0.00733715  0.62672119  0.32991843  1
  Pr  Pr49  1  0.17232410  0.62589666  0.83231418  1
  Pr  Pr50  1  0.33312458  0.11996428  0.66726452  1
  Pr  Pr51  1  0.33555612  0.37402414  0.67416505  1
  Pr  Pr52  1  -0.00768262  0.37590154  0.33235875  1
  Pr  Pr53  1  0.33092512  0.12255490  0.33266289  1
  Pr  Pr54  1  0.67132711  0.12403591  0.33002820  1
  Pr  Pr55  1  0.00543953  0.12467380  0.65953412  1
  Pr  Pr56  1  0.33413764  0.62973979  0.66536483  1
  Pr  Pr57  1  0.17495723  0.62059232  0.16648742  1
  Pr  Pr58  1  0.00963636  0.62544653  0.66157590  1
  Pr  Pr59  1  0.49503793  0.87323598  0.16818697  1
  Pr  Pr60  1  0.50684383  0.37447927  0.84025943  1
  Pr  Pr61  1  0.17662003  0.62487570  0.49906496  1
  Pr  Pr62  1  0.84368170  0.62294535  0.83585445  1
  Pr  Pr63  1  0.67379469  0.62648882  0.32462200  1
  Pr  Pr64  1  0.65689207  0.87703686  0.66630192  1
  Pr  Pr65  1  0.83705661  0.12542600  0.50635432  1
  Pr  Pr66  1  0.33130736  0.87735430  0.00489442  1
  Pr  Pr67  1  -0.00982748  0.87577790  0.66899128  1
  Pr  Pr68  1  0.17327410  0.12561125  0.50089426  1
  Pr  Pr69  1  0.50021072  0.37367384  0.50078601  1
  Pr  Pr70  1  0.67346606  0.62329665  0.66338734  1
  Pr  Pr71  1  0.49779663  0.87535648  0.83546275  1
  Mn  Mn72  1  -0.00073462  -0.00233178  0.16587111  1
  Mn  Mn73  1  -0.00137752  -0.00098489  0.49976358  1
  Mn  Mn74  1  -0.00292963  -0.00082573  0.83119467  1
  Mn  Mn75  1  0.00121911  0.50161022  0.16622782  1
  Mn  Mn76  1  -0.00146081  0.49994911  0.49997266  1
  Mn  Mn77  1  0.00089805  0.49975756  0.83036763  1
  Mn  Mn78  1  0.33537110  0.00177396  0.16712297  1
  Mn  Mn79  1  0.33126624  0.00011982  0.50139352  1
  Mn  Mn80  1  0.33437706  -0.00031600  0.83446895  1
  Mn  Mn81  1  0.33686482  0.49940333  0.16795320  1
  Mn  Mn82  1  0.33172291  0.49801567  0.50716628  1
  Mn  Mn83  1  0.33299830  0.49775953  0.83504544  1
  Mn  Mn84  1  0.66798525  0.00011789  0.16715548  1
  Mn  Mn85  1  0.66633671  0.00110427  0.50032709  1
  Mn  Mn86  1  0.66464290  -0.00046794  0.83252606  1
  Mn  Mn87  1  0.67236613  0.49992329  0.16558235  1
  Mn  Mn88  1  0.66673933  0.50125549  0.49850675  1
  Mn  Mn89  1  0.66656706  0.50021846  0.83073172  1
  Mn  Mn90  1  0.00021638  0.24942295  0.16621687  1
  Mn  Mn91  1  -0.00234482  0.25402454  0.50100548  1
  Mn  Mn92  1  -0.00182468  0.25092391  0.83068188  1
  Mn  Mn93  1  -0.00028266  0.75163894  0.16532983  1
  Mn  Mn94  1  -0.00042232  0.74694273  0.49869906  1
  Mn  Mn95  1  -0.00042648  0.74843419  0.83077919  1
  Mn  Mn96  1  0.33665205  0.24663903  0.16903994  1
  Mn  Mn97  1  0.33105754  0.25125089  0.50467930  1
  Mn  Mn98  1  0.33332105  0.25101787  0.83623748  1
  Mn  Mn99  1  0.33476987  0.75115494  0.16678671  1
  Mn  Mn100  1  0.33223024  0.75096727  0.50347385  1
  Mn  Mn101  1  0.33401742  0.74928541  0.83418166  1
  Mn  Mn102  1  0.66881612  0.24878163  0.16601487  1
  Mn  Mn103  1  0.66794501  0.25135650  0.49942961  1
  Mn  Mn104  1  0.66610002  0.25085614  0.83311957  1
  Mn  Mn105  1  0.67152819  0.75383532  0.16642683  1
  Mn  Mn106  1  0.66568881  0.74748226  0.49899505  1
  Mn  Mn107  1  0.66521852  0.74882107  0.82996966  1
  Mn  Mn108  1  0.16720944  0.24797021  -0.00234250  1
  Mn  Mn109  1  0.16391622  0.24980348  0.33343971  1
  Mn  Mn110  1  0.16619765  0.25206520  0.66229131  1
  Mn  Mn111  1  0.16705180  0.75061235  -0.00231517  1
  Mn  Mn112  1  0.16414231  0.74972066  0.33102184  1
  Mn  Mn113  1  0.16533025  0.75059489  0.66419297  1
  Mn  Mn114  1  0.50202687  0.24829788  0.00446295  1
  Mn  Mn115  1  0.50117830  0.24990666  0.33726659  1
  Mn  Mn116  1  0.49902481  0.25059814  0.67117189  1
  Mn  Mn117  1  0.49942045  0.75116677  0.00053721  1
  Mn  Mn118  1  0.50203716  0.75029095  0.33555747  1
  Mn  Mn119  1  0.50014320  0.74957020  0.67116874  1
  Mn  Mn120  1  0.83445551  0.25072127  -0.00078221  1
  Mn  Mn121  1  0.83142138  0.25268819  0.33371325  1
  Mn  Mn122  1  0.83321534  0.25191850  0.66561910  1
  Mn  Mn123  1  0.83492302  0.75078886  -0.00257284  1
  Mn  Mn124  1  0.83358674  0.74872828  0.33090229  1
  Mn  Mn125  1  0.83131344  0.74761511  0.66591967  1
  Mn  Mn126  1  0.16572254  -0.00179756  -0.00177629  1
  Mn  Mn127  1  0.16384949  0.00085717  0.33188291  1
  Mn  Mn128  1  0.16510529  -0.00077656  0.66209786  1
  Mn  Mn129  1  0.16862379  0.50265584  -0.00238794  1
  Mn  Mn130  1  0.16416422  0.49897164  0.33293095  1
  Mn  Mn131  1  0.16699618  0.49798162  0.66424763  1
  Mn  Mn132  1  0.49963718  0.00039194  0.00341838  1
  Mn  Mn133  1  0.50097473  0.00207545  0.33692459  1
  Mn  Mn134  1  0.49939041  -0.00001708  0.67018791  1
  Mn  Mn135  1  0.50152734  0.50011631  0.00192938  1
  Mn  Mn136  1  0.50311049  0.49836437  0.33514696  1
  Mn  Mn137  1  0.49946212  0.49949480  0.67202369  1
  Mn  Mn138  1  0.83430402  -0.00291100  -0.00225319  1
  Mn  Mn139  1  0.83131622  0.00232514  0.33096565  1
  Mn  Mn140  1  0.83182232  -0.00091151  0.66557734  1
  Mn  Mn141  1  0.83470745  0.50107111  -0.00018836  1
  Mn  Mn142  1  0.83374160  0.49866211  0.33292284  1
  Mn  Mn143  1  0.83233252  0.50113316  0.66578781  1
  O  O144  1  0.16058890  0.11924222  0.01625163  1
  O  O145  1  0.17051448  0.12631589  0.35649531  1
  O  O146  1  0.15761383  0.12688349  0.67568170  1
  O  O147  1  0.16265547  0.63017173  0.02024643  1
  O  O148  1  0.15826980  0.62371151  0.35518251  1
  O  O149  1  0.16142581  0.62095579  0.68964490  1
  O  O150  1  0.49963448  0.12056177  0.02934073  1
  O  O151  1  0.51060551  0.12613150  0.34970343  1
  O  O152  1  0.49254824  0.12578592  0.69334181  1
  O  O153  1  0.49642025  0.62696514  0.01163520  1
  O  O154  1  0.51257985  0.62384747  0.34452398  1
  O  O155  1  0.49439833  0.62331254  0.69538561  1
  O  O156  1  0.83987802  0.11813989  0.02029700  1
  O  O157  1  0.82685408  0.13243163  0.36164730  1
  O  O158  1  0.83789955  0.12578178  0.67235928  1
  O  O159  1  0.83719969  0.62959703  0.02109368  1
  O  O160  1  0.82660281  0.62195972  0.35682376  1
  O  O161  1  0.82370945  0.62425046  0.69244104  1
  O  O162  1  0.15846627  0.37534402  0.32058619  1
  O  O163  1  0.17376454  0.37636136  0.63571079  1
  O  O164  1  0.16917571  0.37903886  0.97784252  1
  O  O165  1  0.15863259  0.87422398  0.32237727  1
  O  O166  1  0.16303806  0.87648961  0.63985952  1
  O  O167  1  0.17726881  0.87319397  0.98646445  1
  O  O168  1  0.50666599  0.37204288  0.31273352  1
  O  O169  1  0.50053602  0.37605472  0.64401918  1
  O  O170  1  0.50139734  0.37540301  0.98425438  1
  O  O171  1  0.50562796  0.87816788  0.31535505  1
  O  O172  1  0.50432535  0.87440544  0.64466527  1
  O  O173  1  0.49624129  0.87594424  0.97871957  1
  O  O174  1  0.83873233  0.37642735  0.31046078  1
  O  O175  1  0.83699072  0.38008843  0.64067527  1
  O  O176  1  0.83214358  0.37950342  0.98624154  1
  O  O177  1  0.84100644  0.87121090  0.31144455  1
  O  O178  1  0.83743086  0.87071283  0.65291679  1
  O  O179  1  0.84261634  0.87134774  0.97010884  1
  O  O180  1  -0.00010282  0.37717631  0.18807185  1
  O  O181  1  0.00583613  0.37941234  0.52869428  1
  O  O182  1  0.00652308  0.37744548  0.84225420  1
  O  O183  1  -0.00317064  0.87357671  0.19507409  1
  O  O184  1  0.00608283  0.87028286  0.52364611  1
  O  O185  1  -0.00584298  0.86950780  0.85150945  1
  O  O186  1  0.33827669  0.36982028  0.17758991  1
  O  O187  1  0.32353042  0.37415919  0.52922480  1
  O  O188  1  0.32045042  0.37527039  0.85119745  1
  O  O189  1  0.33687136  0.87831430  0.17816612  1
  O  O190  1  0.32846556  0.87490948  0.51754739  1
  O  O191  1  0.33961824  0.87299795  0.86069504  1
  O  O192  1  0.67184448  0.37191703  0.18661690  1
  O  O193  1  0.67111962  0.37780277  0.52581547  1
  O  O194  1  0.66445994  0.37702754  0.84984925  1
  O  O195  1  0.67828131  0.87859469  0.19448108  1
  O  O196  1  0.66386030  0.87101214  0.52293955  1
  O  O197  1  0.67060809  0.87204776  0.85349610  1
  O  O198  1  -0.00629743  0.11924822  0.14418746  1
  O  O199  1  -0.01243745  0.12830331  0.49203991  1
  O  O200  1  -0.00139803  0.12841474  0.80579132  1
  O  O201  1  -0.00677325  0.63002389  0.14358236  1
  O  O202  1  -0.00877926  0.62192938  0.47318679  1
  O  O203  1  -0.00066312  0.62337321  0.80460774  1
  O  O204  1  0.34633876  0.12227650  0.14549837  1
  O  O205  1  0.32810669  0.12705192  0.47801225  1
  O  O206  1  0.34242470  0.12872436  0.80954773  1
  O  O207  1  0.33299363  0.62804388  0.15018592  1
  O  O208  1  0.32943260  0.62457037  0.49195784  1
  O  O209  1  0.33728006  0.62027781  0.80729029  1
  O  O210  1  0.65473198  0.12270011  0.15304917  1
  O  O211  1  0.67329282  0.13057583  0.47579158  1
  O  O212  1  0.65756688  0.12411434  0.81639685  1
  O  O213  1  0.67360693  0.62940056  0.15704495  1
  O  O214  1  0.66819151  0.62299286  0.47146343  1
  O  O215  1  0.65437355  0.62598873  0.80614084  1
  O  O216  1  0.08906970  0.01795503  0.23983712  1
  O  O217  1  0.08782209  0.01986520  0.57302793  1
  O  O218  1  0.08103219  0.00635145  0.91497967  1
  O  O219  1  0.08658486  0.52456649  0.24550893  1
  O  O220  1  0.08761202  0.52396117  0.57331909  1
  O  O221  1  0.09019780  0.52053178  0.90772897  1
  O  O222  1  0.42212693  0.02064841  0.25166582  1
  O  O223  1  0.41200284  0.01192605  0.59293534  1
  O  O224  1  0.41813669  0.02308966  0.92295514  1
  O  O225  1  0.42305684  0.50332198  0.25260451  1
  O  O226  1  0.41031783  0.51139795  0.60007840  1
  O  O227  1  0.41412452  0.51743099  0.91964668  1
  O  O228  1  0.75504194  0.02773470  0.24079265  1
  O  O229  1  0.75662480  0.01734369  0.57356127  1
  O  O230  1  0.75235875  0.00156608  0.91232535  1
  O  O231  1  0.76085935  0.51996672  0.24458107  1
  O  O232  1  0.75807026  0.52163705  0.57179296  1
  O  O233  1  0.75709559  0.51856412  0.90157002  1
  O  O234  1  0.25416303  0.22497086  0.25004078  1
  O  O235  1  0.25183337  0.22308926  0.58727249  1
  O  O236  1  0.25469051  0.22962776  0.91956748  1
  O  O237  1  0.24805098  0.73530070  0.24655195  1
  O  O238  1  0.25021923  0.73011257  0.58745383  1
  O  O239  1  0.25344293  0.72382482  0.91568871  1
  O  O240  1  0.58614683  0.23617453  0.25118429  1
  O  O241  1  0.59034055  0.24297965  0.58780230  1
  O  O242  1  0.57411551  0.23836610  0.91255699  1
  O  O243  1  0.60025832  0.74440411  0.26040373  1
  O  O244  1  0.59178041  0.73266510  0.59674503  1
  O  O245  1  0.58125742  0.74299552  0.91483338  1
  O  O246  1  0.91506625  0.23733050  0.25053076  1
  O  O247  1  0.92631624  0.24029465  0.59240898  1
  O  O248  1  0.92257346  0.23528265  0.92121184  1
  O  O249  1  0.92372247  0.72719538  0.25637730  1
  O  O250  1  0.92273262  0.72656086  0.58993626  1
  O  O251  1  0.92684015  0.72511718  0.91968367  1
  O  O252  1  0.08363556  0.49980433  0.07987014  1
  O  O253  1  0.07027949  0.48066153  0.40974627  1
  O  O254  1  0.08085967  0.47863595  0.73853252  1
  O  O255  1  0.07361770  0.98350718  0.07489543  1
  O  O256  1  0.07493980  0.98028005  0.41403241  1
  O  O257  1  0.07058125  0.98598251  0.73490920  1
  O  O258  1  0.42342351  0.48944452  0.08783464  1
  O  O259  1  0.41749596  0.48098725  0.43250480  1
  O  O260  1  0.41797001  0.47209297  0.75872958  1
  O  O261  1  0.41830863  0.97697247  0.08439549  1
  O  O262  1  0.41546671  0.98992332  0.42035732  1
  O  O263  1  0.41976222  0.98011197  0.75711792  1
  O  O264  1  0.75096111  0.49152663  0.08117029  1
  O  O265  1  0.74476954  0.47668353  0.40734718  1
  O  O266  1  0.74016886  0.48447512  0.73523884  1
  O  O267  1  0.74882480  0.97676029  0.07687149  1
  O  O268  1  0.73868980  0.98704969  0.40043370  1
  O  O269  1  0.74339144  0.98129381  0.74170813  1
  O  O270  1  0.25261646  0.24334129  0.08433673  1
  O  O271  1  0.23823603  0.26378967  0.42584347  1
  O  O272  1  0.24561099  0.27009477  0.74725547  1
  O  O273  1  0.25793631  0.75820949  0.07767989  1
  O  O274  1  0.23689511  0.75882734  0.42497793  1
  O  O275  1  0.25132780  0.75477394  0.75105953  1
  O  O276  1  0.58650587  0.26913663  0.08588127  1
  O  O277  1  0.58355064  0.27495393  0.42049012  1
  O  O278  1  0.58037434  0.27207759  0.75190518  1
  O  O279  1  0.58230866  0.77608387  0.08985518  1
  O  O280  1  0.57770524  0.77314602  0.42582632  1
  O  O281  1  0.57891264  0.77616653  0.75444882  1
  O  O282  1  0.91598214  0.25562766  0.08729382  1
  O  O283  1  0.90954213  0.27620274  0.42479490  1
  O  O284  1  0.91213618  0.27190227  0.75109470  1
  O  O285  1  0.91212677  0.77389866  0.09154854  1
  O  O286  1  0.91297701  0.75947714  0.41845490  1
  O  O287  1  0.90675594  0.76295678  0.75842907  1
  O  O288  1  0.25218412  0.50269031  0.08025355  1
  O  O289  1  0.23630081  0.48865470  0.42602177  1
  O  O290  1  0.24554600  0.47964466  0.75107889  1
  O  O291  1  0.25437340  0.99552462  0.07988289  1
  O  O292  1  0.24040755  0.98954578  0.42240654  1
  O  O293  1  0.25130305  0.99292209  0.74246171  1
  O  O294  1  0.58541857  0.48360925  0.08786278  1
  O  O295  1  0.58111649  0.47353857  0.42328070  1
  O  O296  1  0.57996032  0.47539924  0.75259914  1
  O  O297  1  0.58226202  0.97274703  0.08808279  1
  O  O298  1  0.57836877  0.97900449  0.42438905  1
  O  O299  1  0.57891917  0.97681611  0.75448124  1
  O  O300  1  0.91461780  0.49418190  0.09252207  1
  O  O301  1  0.90844875  0.47777712  0.42593668  1
  O  O302  1  0.91076428  0.48550567  0.75182586  1
  O  O303  1  0.91394560  0.97376991  0.08478644  1
  O  O304  1  0.91529217  0.98665816  0.41730096  1
  O  O305  1  0.90819780  0.97801145  0.75476708  1
  O  O306  1  0.08342707  0.24991917  0.08098780  1
  O  O307  1  0.07117516  0.27222357  0.41349405  1
  O  O308  1  0.07983689  0.27288783  0.73823582  1
  O  O309  1  0.07125935  0.76640309  0.06995425  1
  O  O310  1  0.07190114  0.76496241  0.40769184  1
  O  O311  1  0.06983203  0.76394231  0.73426960  1
  O  O312  1  0.43040390  0.25961574  0.09857582  1
  O  O313  1  0.41904493  0.26740454  0.42895160  1
  O  O314  1  0.41814255  0.27653405  0.76012892  1
  O  O315  1  0.41682764  0.77151930  0.08201959  1
  O  O316  1  0.41668129  0.76314998  0.42484222  1
  O  O317  1  0.41953978  0.76860606  0.75686718  1
  O  O318  1  0.75382715  0.25361020  0.08749462  1
  O  O319  1  0.74447594  0.27779571  0.41038538  1
  O  O320  1  0.74410414  0.26542297  0.73721352  1
  O  O321  1  0.74404525  0.77671338  0.07423009  1
  O  O322  1  0.73909617  0.76285440  0.39918564  1
  O  O323  1  0.73831306  0.76783876  0.73695856  1
  O  O324  1  0.25447296  0.02401792  0.24920217  1
  O  O325  1  0.24965503  0.02229832  0.58294002  1
  O  O326  1  0.25765911  0.01361436  0.92083103  1
  O  O327  1  0.24802484  0.51337757  0.24819115  1
  O  O328  1  0.25058628  0.52523726  0.58969164  1
  O  O329  1  0.25142037  0.52814880  0.91525753  1
  O  O330  1  0.58935507  0.01356197  0.25849400  1
  O  O331  1  0.58788779  0.01098389  0.59352417  1
  O  O332  1  0.57894433  0.00648565  0.91610642  1
  O  O333  1  0.60090569  0.50619879  0.25738501  1
  O  O334  1  0.59133621  0.51435693  0.59427464  1
  O  O335  1  0.57706780  0.51144988  0.91168364  1
  O  O336  1  0.91290638  0.01410576  0.24567414  1
  O  O337  1  0.92472083  0.01068837  0.59190228  1
  O  O338  1  0.92478455  0.01361448  0.92502347  1
  O  O339  1  0.92503510  0.52078999  0.26066897  1
  O  O340  1  0.92177483  0.52463497  0.58896646  1
  O  O341  1  0.92210309  0.52199660  0.91987045  1
  O  O342  1  0.08876993  0.23092442  0.24236258  1
  O  O343  1  0.08975442  0.23361247  0.57226132  1
  O  O344  1  0.08484748  0.24134069  0.91049647  1
  O  O345  1  0.08702794  0.72621197  0.24103280  1
  O  O346  1  0.08764531  0.72383310  0.57088772  1
  O  O347  1  0.08855646  0.72882093  0.90358225  1
  O  O348  1  0.41583686  0.22594642  0.25926501  1
  O  O349  1  0.40956540  0.23878248  0.59825687  1
  O  O350  1  0.41623280  0.22857682  0.92608838  1
  O  O351  1  0.42371205  0.74823713  0.24742704  1
  O  O352  1  0.41445755  0.73902835  0.59399626  1
  O  O353  1  0.41442356  0.72871793  0.91710425  1
  O  O354  1  0.74977069  0.22668043  0.24913623  1
  O  O355  1  0.76223476  0.23853377  0.56998177  1
  O  O356  1  0.75061862  0.24530920  0.91349523  1
  O  O357  1  0.76504070  0.73233810  0.23813048  1
  O  O358  1  0.75535755  0.72390958  0.57335324  1
  O  O359  1  0.75965221  0.73355502  0.89719991  1
