# generated using pymatgen
data_Ba17Sr5La8Pr42Mn72O216
_symmetry_space_group_name_H-M   'P 1'
_cell_length_a   16.67812033
_cell_length_b   15.70240273
_cell_length_c   16.82245959
_cell_angle_alpha   89.99012653
_cell_angle_beta   89.99470360
_cell_angle_gamma   89.99512564
_symmetry_Int_Tables_number   1
_chemical_formula_structural   Ba17Sr5La8Pr42Mn72O216
_chemical_formula_sum   'Ba17 Sr5 La8 Pr42 Mn72 O216'
_cell_volume   4405.57600871
_cell_formula_units_Z   1
loop_
 _symmetry_equiv_pos_site_id
 _symmetry_equiv_pos_as_xyz
  1  'x, y, z'
loop_
 _atom_site_type_symbol
 _atom_site_label
 _atom_site_symmetry_multiplicity
 _atom_site_fract_x
 _atom_site_fract_y
 _atom_site_fract_z
 _atom_site_occupancy
  Ba  Ba0  1  0.66884488  0.37480193  0.66758211  1
  Ba  Ba1  1  0.66386129  0.12449664  0.66407679  1
  Ba  Ba2  1  0.50270602  0.37585921  0.16485895  1
  Ba  Ba3  1  0.33367806  0.12396569  0.99956401  1
  Ba  Ba4  1  0.16611282  0.87538814  0.16854473  1
  Ba  Ba5  1  0.66925212  0.87546886  0.66572499  1
  Ba  Ba6  1  0.33692186  0.37394488  0.00166489  1
  Ba  Ba7  1  0.83225533  0.62378692  0.49645009  1
  Ba  Ba8  1  0.33712759  0.37549565  0.33599569  1
  Ba  Ba9  1  0.66532238  0.12412891  0.33077464  1
  Ba  Ba10  1  0.16743145  0.62519311  0.50248411  1
  Ba  Ba11  1  0.16978013  0.87590708  0.49884502  1
  Ba  Ba12  1  0.33384741  0.37585333  0.67016923  1
  Ba  Ba13  1  0.16021148  0.62557206  0.16824325  1
  Ba  Ba14  1  0.83472769  0.87390891  0.49945859  1
  Ba  Ba15  1  -0.00251269  0.62452027  0.99960308  1
  Ba  Ba16  1  0.16735432  0.12487883  0.50333428  1
  Sr  Sr17  1  0.83642533  0.37373431  0.49991363  1
  Sr  Sr18  1  0.33605992  0.87377428  0.33720751  1
  Sr  Sr19  1  0.50032100  0.37508016  0.83194352  1
  Sr  Sr20  1  0.66199514  0.62557338  1.00081570  1
  Sr  Sr21  1  0.16747782  0.12576843  0.83588165  1
  La  La22  1  0.00434077  0.37545243  0.33538577  1
  La  La23  1  0.32909339  0.87436418  0.66601826  1
  La  La24  1  0.66987000  0.37770779  -0.00006864  1
  La  La25  1  -0.00163269  0.62437507  0.66506787  1
  La  La26  1  0.67309258  0.87166721  -0.00260903  1
  La  La27  1  0.00404102  0.87424010  0.33632304  1
  La  La28  1  0.17045466  0.37473201  0.16427844  1
  La  La29  1  0.82739819  0.12452409  0.83275441  1
  Pr  Pr30  1  0.83069116  0.12484256  0.16771208  1
  Pr  Pr31  1  0.67438756  0.87387365  0.33711714  1
  Pr  Pr32  1  0.33120968  0.62372488  0.66754262  1
  Pr  Pr33  1  0.49147365  0.12697734  0.16939867  1
  Pr  Pr34  1  0.65611977  0.62808160  0.33066892  1
  Pr  Pr35  1  0.66198818  0.12491774  0.99682442  1
  Pr  Pr36  1  0.50673496  0.87602155  0.49452067  1
  Pr  Pr37  1  0.49482123  0.62439031  0.49989980  1
  Pr  Pr38  1  0.00546533  0.37475331  0.66608028  1
  Pr  Pr39  1  0.82115968  0.62588966  0.83771582  1
  Pr  Pr40  1  0.16905549  0.12727690  0.17104503  1
  Pr  Pr41  1  0.00283523  0.87592779  0.00166741  1
  Pr  Pr42  1  0.84347242  0.87365483  0.82618117  1
  Pr  Pr43  1  0.17328835  0.37427576  0.50015673  1
  Pr  Pr44  1  0.16586211  0.87726364  0.83581446  1
  Pr  Pr45  1  0.83508699  0.37201816  0.16483500  1
  Pr  Pr46  1  0.50918131  0.37388839  0.49614202  1
  Pr  Pr47  1  0.83052129  0.12619938  0.50275063  1
  Pr  Pr48  1  0.32293207  0.62732950  0.33124255  1
  Pr  Pr49  1  0.48984173  0.62412310  0.16817489  1
  Pr  Pr50  1  0.00620254  0.37227219  0.00298142  1
  Pr  Pr51  1  0.32930365  0.12206747  0.33228813  1
  Pr  Pr52  1  0.00562784  0.87395762  0.66379292  1
  Pr  Pr53  1  0.33145516  0.62466989  1.00158272  1
  Pr  Pr54  1  0.17255227  0.37308342  0.83642598  1
  Pr  Pr55  1  0.33381413  0.12658697  0.66825865  1
  Pr  Pr56  1  0.67346251  0.37757866  0.33765052  1
  Pr  Pr57  1  0.65822693  0.62445813  0.66285940  1
  Pr  Pr58  1  0.50060918  0.12908519  0.83143643  1
  Pr  Pr59  1  0.33666485  0.87642276  0.00643366  1
  Pr  Pr60  1  0.49555712  0.12633083  0.50075207  1
  Pr  Pr61  1  0.83609061  0.87752625  0.16674698  1
  Pr  Pr62  1  0.83968793  0.37713281  0.82825272  1
  Pr  Pr63  1  0.50485610  0.87596383  0.16293792  1
  Pr  Pr64  1  -0.00185395  0.12436246  0.66285528  1
  Pr  Pr65  1  0.49839222  0.87568914  0.82886945  1
  Pr  Pr66  1  0.82517834  0.62411523  0.17106748  1
  Pr  Pr67  1  -0.00246921  0.12218163  0.33265527  1
  Pr  Pr68  1  0.16811964  0.62189921  0.84157916  1
  Pr  Pr69  1  -0.00230957  0.62910137  0.33332752  1
  Pr  Pr70  1  0.49985410  0.62301107  0.83287815  1
  Pr  Pr71  1  -0.00144374  0.12179547  0.99484925  1
  Mn  Mn72  1  -0.00158784  0.00285492  0.16473746  1
  Mn  Mn73  1  -0.00084497  0.00176202  0.49875288  1
  Mn  Mn74  1  0.00056000  0.00203486  0.83225251  1
  Mn  Mn75  1  -0.00600845  0.49749907  0.16726455  1
  Mn  Mn76  1  0.00058511  0.49828637  0.50023603  1
  Mn  Mn77  1  0.00035670  0.49851291  0.83247065  1
  Mn  Mn78  1  0.33392745  -0.00200233  0.16842624  1
  Mn  Mn79  1  0.33654131  0.00016565  0.50011914  1
  Mn  Mn80  1  0.33414255  -0.00263038  0.83470422  1
  Mn  Mn81  1  0.33179423  0.50119820  0.16799240  1
  Mn  Mn82  1  0.33599819  0.50019099  0.50201944  1
  Mn  Mn83  1  0.33419518  0.50205216  0.83501689  1
  Mn  Mn84  1  0.66634929  -0.00262730  0.16321190  1
  Mn  Mn85  1  0.66643801  0.00040968  0.49717382  1
  Mn  Mn86  1  0.66675863  -0.00053021  0.83373228  1
  Mn  Mn87  1  0.66680615  0.50139042  0.16726313  1
  Mn  Mn88  1  0.66796948  0.50204664  0.49875606  1
  Mn  Mn89  1  0.66648447  0.50053941  0.83402591  1
  Mn  Mn90  1  -0.00129001  0.24768782  0.16591477  1
  Mn  Mn91  1  -0.00007444  0.25126401  0.49989641  1
  Mn  Mn92  1  -0.00022265  0.24954947  0.83364939  1
  Mn  Mn93  1  -0.00577854  0.75190992  0.16516786  1
  Mn  Mn94  1  0.00059690  0.74864952  0.50056927  1
  Mn  Mn95  1  0.00127780  0.74910173  0.83224908  1
  Mn  Mn96  1  0.33324136  0.24906988  0.16857341  1
  Mn  Mn97  1  0.33597133  0.25034189  0.50193282  1
  Mn  Mn98  1  0.33392122  0.24892644  0.83419782  1
  Mn  Mn99  1  0.33379199  0.75276221  0.16830348  1
  Mn  Mn100  1  0.33627160  0.74923573  0.50044632  1
  Mn  Mn101  1  0.33296981  0.75073848  0.83590434  1
  Mn  Mn102  1  0.66761311  0.24937099  0.16408516  1
  Mn  Mn103  1  0.66802187  0.25030937  0.49791002  1
  Mn  Mn104  1  0.66695067  0.24962946  0.83438265  1
  Mn  Mn105  1  0.66520846  0.75087671  0.16546693  1
  Mn  Mn106  1  0.66609146  0.74815473  0.49801203  1
  Mn  Mn107  1  0.66551197  0.75114465  0.83317532  1
  Mn  Mn108  1  0.16527101  0.24758074  0.00175405  1
  Mn  Mn109  1  0.16611249  0.24965392  0.33456693  1
  Mn  Mn110  1  0.16627172  0.24912121  0.67039185  1
  Mn  Mn111  1  0.16686668  0.75048443  -0.00003624  1
  Mn  Mn112  1  0.16513266  0.75101838  0.33455889  1
  Mn  Mn113  1  0.16667133  0.75105662  0.67278129  1
  Mn  Mn114  1  0.50275951  0.24930218  -0.00035885  1
  Mn  Mn115  1  0.50205019  0.24949858  0.33334341  1
  Mn  Mn116  1  0.49903644  0.24997559  0.66666630  1
  Mn  Mn117  1  0.50050819  0.74989413  -0.00195926  1
  Mn  Mn118  1  0.49864890  0.75103647  0.33118608  1
  Mn  Mn119  1  0.49754107  0.75095550  0.66507090  1
  Mn  Mn120  1  0.83309063  0.24959824  -0.00184778  1
  Mn  Mn121  1  0.83442253  0.24999108  0.33264332  1
  Mn  Mn122  1  0.83573889  0.25133708  0.66637490  1
  Mn  Mn123  1  0.83278322  0.75054432  -0.00076065  1
  Mn  Mn124  1  0.83202625  0.74962677  0.32922026  1
  Mn  Mn125  1  0.83529648  0.74838221  0.66861845  1
  Mn  Mn126  1  0.16612400  0.00025668  0.00055742  1
  Mn  Mn127  1  0.16634786  0.00176263  0.33397698  1
  Mn  Mn128  1  0.16679823  -0.00012377  0.67072746  1
  Mn  Mn129  1  0.16641148  0.49960280  0.00204654  1
  Mn  Mn130  1  0.16459454  0.49821123  0.33485086  1
  Mn  Mn131  1  0.16562501  0.49984368  0.67171848  1
  Mn  Mn132  1  0.50270447  -0.00204783  -0.00221710  1
  Mn  Mn133  1  0.49976703  -0.00165530  0.33085286  1
  Mn  Mn134  1  0.49669676  -0.00201647  0.66491772  1
  Mn  Mn135  1  0.50236393  0.50301341  -0.00080549  1
  Mn  Mn136  1  0.50130771  0.50157041  0.33342897  1
  Mn  Mn137  1  0.49941794  0.50135826  0.66625998  1
  Mn  Mn138  1  0.83279181  -0.00058761  -0.00125367  1
  Mn  Mn139  1  0.83381423  0.00189437  0.33181706  1
  Mn  Mn140  1  0.83594610  -0.00011457  0.66625743  1
  Mn  Mn141  1  0.83302633  0.49984995  -0.00072254  1
  Mn  Mn142  1  0.83312968  0.49848062  0.33053889  1
  Mn  Mn143  1  0.83526177  0.50062126  0.66768272  1
  O  O144  1  0.15791328  0.12466394  0.02454444  1
  O  O145  1  0.16695515  0.12732210  0.34590357  1
  O  O146  1  0.16327856  0.12325152  0.68769246  1
  O  O147  1  0.17113657  0.62693899  0.01037492  1
  O  O148  1  0.16358491  0.62470102  0.34269563  1
  O  O149  1  0.16630466  0.62789551  0.69739202  1
  O  O150  1  0.51162214  0.11813897  0.02541958  1
  O  O151  1  0.49604477  0.12363869  0.35563232  1
  O  O152  1  0.49399479  0.12017928  0.68744586  1
  O  O153  1  0.50214542  0.62965621  0.02462828  1
  O  O154  1  0.50643398  0.62796510  0.35589757  1
  O  O155  1  0.50427684  0.62858394  0.68785527  1
  O  O156  1  0.83684819  0.12405022  0.02612460  1
  O  O157  1  0.84084260  0.12719991  0.35726158  1
  O  O158  1  0.84311214  0.12513682  0.68810870  1
  O  O159  1  0.83251547  0.62956103  0.02593991  1
  O  O160  1  0.84735020  0.62336553  0.33476241  1
  O  O161  1  0.84387080  0.62497905  0.69433046  1
  O  O162  1  0.15997527  0.37174190  0.30873892  1
  O  O163  1  0.16235995  0.37355739  0.64393630  1
  O  O164  1  0.15985630  0.37252696  0.98286110  1
  O  O165  1  0.15889753  0.87738471  0.32534278  1
  O  O166  1  0.16636748  0.87536158  0.65376267  1
  O  O167  1  0.16106446  0.87476555  0.98094714  1
  O  O168  1  0.50802577  0.37610932  0.32174466  1
  O  O169  1  0.49823808  0.37921151  0.64324299  1
  O  O170  1  0.50703153  0.37992591  0.98350254  1
  O  O171  1  0.49647113  0.87277716  0.30528017  1
  O  O172  1  0.48924693  0.87287802  0.63929575  1
  O  O173  1  0.49135295  0.87250880  0.97259644  1
  O  O174  1  0.82682000  0.37294492  0.30891289  1
  O  O175  1  0.83857357  0.37577676  0.65094793  1
  O  O176  1  0.82793980  0.37019194  0.97064801  1
  O  O177  1  0.82742211  0.87654818  0.31197813  1
  O  O178  1  0.84079149  0.87485887  0.65679944  1
  O  O179  1  0.83297362  0.87603913  0.96983215  1
  O  O180  1  -0.00494489  0.36924406  0.19048834  1
  O  O181  1  0.00121126  0.37436706  0.52195888  1
  O  O182  1  -0.01022289  0.37227064  0.86135437  1
  O  O183  1  -0.00882676  0.88216167  0.19085154  1
  O  O184  1  0.00017565  0.87686588  0.51692899  1
  O  O185  1  -0.00587970  0.87846431  0.85908112  1
  O  O186  1  0.32829014  0.37200282  0.17719882  1
  O  O187  1  0.33444581  0.37546996  0.51388412  1
  O  O188  1  0.33155124  0.37818728  0.84510294  1
  O  O189  1  0.34449665  0.87533181  0.18616019  1
  O  O190  1  0.34316612  0.87483531  0.52179352  1
  O  O191  1  0.34328698  0.87178103  0.86328564  1
  O  O192  1  0.67109658  0.37911115  0.19265501  1
  O  O193  1  0.66035200  0.37775130  0.50891922  1
  O  O194  1  0.66921657  0.37290915  0.85538793  1
  O  O195  1  0.66133091  0.87413133  0.19408975  1
  O  O196  1  0.66171654  0.87184928  0.50664163  1
  O  O197  1  0.66173877  0.87483056  0.85365805  1
  O  O198  1  -0.00800955  0.12609428  0.13684869  1
  O  O199  1  -0.00583667  0.12816848  0.47728380  1
  O  O200  1  -0.00005500  0.12616036  0.80610958  1
  O  O201  1  -0.01539071  0.62292661  0.15923051  1
  O  O202  1  0.00107652  0.62016501  0.47741374  1
  O  O203  1  0.01348671  0.62187489  0.80885226  1
  O  O204  1  0.33290967  0.12265599  0.15756897  1
  O  O205  1  0.34270119  0.12599241  0.47603888  1
  O  O206  1  0.33576315  0.11898478  0.81293549  1
  O  O207  1  0.33619156  0.62995982  0.14745425  1
  O  O208  1  0.34117766  0.62372850  0.47526383  1
  O  O209  1  0.32468481  0.62991109  0.80986516  1
  O  O210  1  0.67445156  0.11803685  0.13927188  1
  O  O211  1  0.66706816  0.12571559  0.48831416  1
  O  O212  1  0.66720158  0.12388060  0.82039654  1
  O  O213  1  0.67387487  0.62763051  0.14718919  1
  O  O214  1  0.65903149  0.62574354  0.47666126  1
  O  O215  1  0.66922978  0.62921463  0.80850997  1
  O  O216  1  0.07889731  0.02439876  0.24542127  1
  O  O217  1  0.07470261  0.01207423  0.59238142  1
  O  O218  1  0.07766787  0.01791643  0.91682035  1
  O  O219  1  0.06303230  0.51000070  0.26031807  1
  O  O220  1  0.07880461  0.51443727  0.59635999  1
  O  O221  1  0.08680343  0.50755967  0.91367247  1
  O  O222  1  0.41226750  0.02139920  0.25568117  1
  O  O223  1  0.41395413  0.02550471  0.58535863  1
  O  O224  1  0.42583769  0.01611207  0.90864260  1
  O  O225  1  0.41254960  0.52294413  0.25759378  1
  O  O226  1  0.41415921  0.52577609  0.58783423  1
  O  O227  1  0.41559843  0.52664267  0.91775573  1
  O  O228  1  0.75540506  0.01209297  0.24237582  1
  O  O229  1  0.75546180  0.01328015  0.58178601  1
  O  O230  1  0.74857275  0.02000769  0.92428850  1
  O  O231  1  0.73797318  0.52124898  0.26068952  1
  O  O232  1  0.74203946  0.51981417  0.59569927  1
  O  O233  1  0.74487176  0.51875230  0.92452481  1
  O  O234  1  0.24833195  0.23112692  0.25088618  1
  O  O235  1  0.25337275  0.23500892  0.58987283  1
  O  O236  1  0.24321622  0.24115732  0.91659831  1
  O  O237  1  0.24959094  0.74018889  0.25229487  1
  O  O238  1  0.25460310  0.73710502  0.59748711  1
  O  O239  1  0.25037031  0.73277925  0.91603599  1
  O  O240  1  0.57571022  0.22985412  0.23816689  1
  O  O241  1  0.57355923  0.23960418  0.57283425  1
  O  O242  1  0.58276845  0.22862383  0.91452090  1
  O  O243  1  0.57410824  0.72898576  0.23959227  1
  O  O244  1  0.57747550  0.73182778  0.57701158  1
  O  O245  1  0.57619019  0.73432435  0.90935984  1
  O  O246  1  0.91514141  0.22644478  0.24551349  1
  O  O247  1  0.91478963  0.22918260  0.57879242  1
  O  O248  1  0.91169154  0.22455239  0.91211747  1
  O  O249  1  0.89846625  0.74507086  0.23236245  1
  O  O250  1  0.91929421  0.73556040  0.58410228  1
  O  O251  1  0.90890223  0.73329354  0.90342164  1
  O  O252  1  0.08149991  0.47945160  0.08998436  1
  O  O253  1  0.09023243  0.47450854  0.42340832  1
  O  O254  1  0.08420952  0.47012320  0.75506000  1
  O  O255  1  0.07540482  0.98626226  0.07869549  1
  O  O256  1  0.07883244  0.99401814  0.41188711  1
  O  O257  1  0.08479608  0.97638380  0.75514386  1
  O  O258  1  0.41961112  0.50068947  0.08450827  1
  O  O259  1  0.43329176  0.48867270  0.42781418  1
  O  O260  1  0.41913459  0.50048266  0.75429397  1
  O  O261  1  0.42311439  0.98107928  0.08396577  1
  O  O262  1  0.42764491  0.98237704  0.42298805  1
  O  O263  1  0.41217605  0.97488614  0.74713894  1
  O  O264  1  0.75782717  0.48036497  0.09456268  1
  O  O265  1  0.75711811  0.48418396  0.41872754  1
  O  O266  1  0.76229066  0.48920191  0.76269664  1
  O  O267  1  0.75126733  0.97295344  0.08294046  1
  O  O268  1  0.75019414  0.98961442  0.41080961  1
  O  O269  1  0.76007698  0.98844172  0.75990697  1
  O  O270  1  0.24257811  0.25688951  0.09116760  1
  O  O271  1  0.25043215  0.26373561  0.42334961  1
  O  O272  1  0.24519405  0.26032798  0.75528250  1
  O  O273  1  0.25979663  0.76593590  0.07591674  1
  O  O274  1  0.25962191  0.75659855  0.41561667  1
  O  O275  1  0.24934811  0.77703436  0.75793433  1
  O  O276  1  0.59595332  0.26318499  0.07271806  1
  O  O277  1  0.59070654  0.26770990  0.40917187  1
  O  O278  1  0.58134367  0.25810257  0.75204713  1
  O  O279  1  0.58877904  0.77487986  0.07769190  1
  O  O280  1  0.58749219  0.77002746  0.40154160  1
  O  O281  1  0.57894842  0.76593328  0.74848529  1
  O  O282  1  0.91906763  0.27261513  0.07743165  1
  O  O283  1  0.92164094  0.26941267  0.40851558  1
  O  O284  1  0.92412063  0.27096535  0.74645394  1
  O  O285  1  0.91905254  0.77787324  0.07498911  1
  O  O286  1  0.92237425  0.76134563  0.39922072  1
  O  O287  1  0.92599728  0.76929763  0.74480273  1
  O  O288  1  0.24544570  0.48804413  0.08724809  1
  O  O289  1  0.25104627  0.48734369  0.42429972  1
  O  O290  1  0.24136478  0.48846893  0.76110020  1
  O  O291  1  0.25685538  0.98410121  0.08173894  1
  O  O292  1  0.26057278  0.99329434  0.41379332  1
  O  O293  1  0.25081163  0.97658078  0.75554775  1
  O  O294  1  0.59596413  0.48805072  0.07510136  1
  O  O295  1  0.59414467  0.48802787  0.40418123  1
  O  O296  1  0.58596282  0.49497818  0.74586630  1
  O  O297  1  0.58768976  0.97023345  0.07505458  1
  O  O298  1  0.58617109  0.97767648  0.40450619  1
  O  O299  1  0.57393505  0.98473343  0.75184539  1
  O  O300  1  0.92082657  0.47280704  0.07331293  1
  O  O301  1  0.92490597  0.48394165  0.40026535  1
  O  O302  1  0.92500795  0.47882468  0.74418173  1
  O  O303  1  0.91551954  0.97740240  0.07951181  1
  O  O304  1  0.92161009  0.98662019  0.40692981  1
  O  O305  1  0.92456042  0.98076976  0.74550485  1
  O  O306  1  0.08343972  0.27040146  0.08805641  1
  O  O307  1  0.08634272  0.27166626  0.42164929  1
  O  O308  1  0.08541713  0.27606377  0.75881293  1
  O  O309  1  0.07833805  0.76417842  0.08168305  1
  O  O310  1  0.08048210  0.75878220  0.41655228  1
  O  O311  1  0.08480646  0.77692698  0.75428402  1
  O  O312  1  0.42254615  0.25041451  0.08813988  1
  O  O313  1  0.43051933  0.26322222  0.42850160  1
  O  O314  1  0.41857301  0.25364497  0.75128726  1
  O  O315  1  0.42313983  0.76945956  0.08683996  1
  O  O316  1  0.42969313  0.76612534  0.42216095  1
  O  O317  1  0.41475558  0.76806276  0.75249631  1
  O  O318  1  0.75524897  0.27113354  0.08322549  1
  O  O319  1  0.75297229  0.26616521  0.41430631  1
  O  O320  1  0.76034350  0.26067597  0.76084623  1
  O  O321  1  0.75439002  0.77566020  0.09107450  1
  O  O322  1  0.74984822  0.75707722  0.41153464  1
  O  O323  1  0.76219158  0.76340756  0.76303482  1
  O  O324  1  0.24571107  0.01844859  0.24886044  1
  O  O325  1  0.25612848  0.01188404  0.59311906  1
  O  O326  1  0.24881550  0.00354071  0.91514555  1
  O  O327  1  0.24797666  0.51167251  0.25490434  1
  O  O328  1  0.25184768  0.51599327  0.59433865  1
  O  O329  1  0.25356544  0.51860191  0.91956423  1
  O  O330  1  0.57218483  0.01435887  0.23506084  1
  O  O331  1  0.57346122  0.00855715  0.57277903  1
  O  O332  1  0.58413455  0.01782559  0.91705138  1
  O  O333  1  0.57629813  0.52596175  0.24191375  1
  O  O334  1  0.57682067  0.52055063  0.57651156  1
  O  O335  1  0.57794780  0.52093420  0.90936647  1
  O  O336  1  0.91484809  0.02513336  0.24625073  1
  O  O337  1  0.91510990  0.02329278  0.57916968  1
  O  O338  1  0.91420703  0.02307644  0.91194813  1
  O  O339  1  0.89625398  0.50296242  0.23079485  1
  O  O340  1  0.91602727  0.51314860  0.58403360  1
  O  O341  1  0.90793726  0.51729892  0.90217272  1
  O  O342  1  0.07821029  0.22605423  0.24857481  1
  O  O343  1  0.07544992  0.23638438  0.59525994  1
  O  O344  1  0.07362783  0.23303402  0.92446783  1
  O  O345  1  0.06610881  0.74224519  0.25613620  1
  O  O346  1  0.07973065  0.73740837  0.59687262  1
  O  O347  1  0.08633094  0.73995347  0.91115446  1
  O  O348  1  0.41302283  0.23019291  0.25740972  1
  O  O349  1  0.41398680  0.22607989  0.58663368  1
  O  O350  1  0.42303074  0.23503314  0.91378035  1
  O  O351  1  0.41190381  0.72479516  0.25694003  1
  O  O352  1  0.41391278  0.72325469  0.58698652  1
  O  O353  1  0.41276776  0.72173906  0.91810395  1
  O  O354  1  0.75450456  0.23380244  0.24300257  1
  O  O355  1  0.75358004  0.23837823  0.57861982  1
  O  O356  1  0.74652709  0.22632028  0.92350799  1
  O  O357  1  0.73952595  0.73241006  0.25542614  1
  O  O358  1  0.74516014  0.73155179  0.59641806  1
  O  O359  1  0.74469155  0.73445187  0.92407408  1
