# generated using pymatgen
data_Ba17Sr5La8Pr42Mn72O216
_symmetry_space_group_name_H-M   'P 1'
_cell_length_a   16.67671680
_cell_length_b   15.71261961
_cell_length_c   16.82117754
_cell_angle_alpha   89.99455926
_cell_angle_beta   89.97052869
_cell_angle_gamma   89.96194803
_symmetry_Int_Tables_number   1
_chemical_formula_structural   Ba17Sr5La8Pr42Mn72O216
_chemical_formula_sum   'Ba17 Sr5 La8 Pr42 Mn72 O216'
_cell_volume   4407.73412527
_cell_formula_units_Z   1
loop_
 _symmetry_equiv_pos_site_id
 _symmetry_equiv_pos_as_xyz
  1  'x, y, z'
loop_
 _atom_site_type_symbol
 _atom_site_label
 _atom_site_symmetry_multiplicity
 _atom_site_fract_x
 _atom_site_fract_y
 _atom_site_fract_z
 _atom_site_occupancy
  Ba  Ba0  1  0.66873015  0.37716302  0.66896619  1
  Ba  Ba1  1  0.83404495  0.37554929  0.49987212  1
  Ba  Ba2  1  0.16824249  0.37388646  0.83022222  1
  Ba  Ba3  1  0.83374329  0.37678844  0.16465987  1
  Ba  Ba4  1  -0.00118339  0.12474231  0.99887436  1
  Ba  Ba5  1  0.66804542  0.37675507  0.00159931  1
  Ba  Ba6  1  0.33257658  0.87430486  0.33164655  1
  Ba  Ba7  1  0.83190839  0.12269080  0.83414386  1
  Ba  Ba8  1  0.49884451  0.12411955  0.83685539  1
  Ba  Ba9  1  0.49934073  0.12411759  0.50226985  1
  Ba  Ba10  1  0.33424350  0.62653154  0.66664123  1
  Ba  Ba11  1  0.16881855  0.37515924  0.49841304  1
  Ba  Ba12  1  0.00083427  0.37360080  -0.00377402  1
  Ba  Ba13  1  0.66611021  0.12400538  0.66724022  1
  Ba  Ba14  1  0.66778520  0.37570190  0.33575864  1
  Ba  Ba15  1  0.83226177  0.87258480  0.83128152  1
  Ba  Ba16  1  0.66431111  0.12541150  1.00101581  1
  Sr  Sr17  1  -0.00404164  0.12591173  0.33066688  1
  Sr  Sr18  1  0.66097283  0.87459520  0.33518184  1
  Sr  Sr19  1  0.83347681  0.37131921  0.83261483  1
  Sr  Sr20  1  0.50062183  0.87447832  0.17056411  1
  Sr  Sr21  1  0.66697581  0.12399516  0.33370690  1
  La  La22  1  -0.00005966  0.37087555  0.33379085  1
  La  La23  1  -0.00306588  0.87822835  0.00105548  1
  La  La24  1  0.67318445  0.62633813  0.33276526  1
  La  La25  1  0.16736485  0.62821930  0.50089907  1
  La  La26  1  0.33579746  0.87539877  0.00623848  1
  La  La27  1  0.00149849  0.62181125  0.33135443  1
  La  La28  1  0.32956692  0.12558447  0.66425432  1
  La  La29  1  0.33246627  0.62426507  0.33394888  1
  Pr  Pr30  1  0.82791044  0.87608364  0.49394804  1
  Pr  Pr31  1  -0.00641939  0.12572279  0.66505416  1
  Pr  Pr32  1  0.50186329  0.37518807  0.50372585  1
  Pr  Pr33  1  0.50210380  0.87670077  0.83822247  1
  Pr  Pr34  1  0.34002416  0.37527519  0.67172249  1
  Pr  Pr35  1  0.83944454  0.62251478  0.16495945  1
  Pr  Pr36  1  0.16180417  0.12553031  0.83340258  1
  Pr  Pr37  1  0.00295255  0.87561136  0.66866062  1
  Pr  Pr38  1  0.50463383  0.37251141  0.83498775  1
  Pr  Pr39  1  0.49678814  0.87642212  0.49814212  1
  Pr  Pr40  1  0.16153451  0.12098035  0.49851821  1
  Pr  Pr41  1  0.82689093  0.12787430  0.50115794  1
  Pr  Pr42  1  0.16913581  0.87719541  0.83105990  1
  Pr  Pr43  1  0.66413349  0.87961339  0.00496971  1
  Pr  Pr44  1  0.00065606  0.37413151  0.67370409  1
  Pr  Pr45  1  0.82734968  0.87509099  0.16211653  1
  Pr  Pr46  1  0.50704115  0.37382481  0.16825288  1
  Pr  Pr47  1  0.50524472  0.62887282  0.50502080  1
  Pr  Pr48  1  0.16732632  0.87681686  0.16161580  1
  Pr  Pr49  1  0.50161108  0.62306679  0.83974598  1
  Pr  Pr50  1  0.67524079  0.62812952  0.66536068  1
  Pr  Pr51  1  0.33336374  0.62735584  0.99582032  1
  Pr  Pr52  1  0.00071817  0.62351143  0.66462142  1
  Pr  Pr53  1  0.83593465  0.62179633  0.83185543  1
  Pr  Pr54  1  0.33722151  0.37470027  0.33509953  1
  Pr  Pr55  1  0.65955164  0.87651824  0.66778024  1
  Pr  Pr56  1  0.32996828  0.12421729  0.99821101  1
  Pr  Pr57  1  0.15720668  0.12410152  0.16788336  1
  Pr  Pr58  1  0.32777004  0.12640115  0.32997657  1
  Pr  Pr59  1  0.50004332  0.12460609  0.17571030  1
  Pr  Pr60  1  0.83747170  0.62241673  0.49885890  1
  Pr  Pr61  1  0.16985233  0.37202232  0.15904739  1
  Pr  Pr62  1  0.16633215  0.62341199  0.83470296  1
  Pr  Pr63  1  0.16638116  0.62463349  0.16537535  1
  Pr  Pr64  1  0.83349846  0.13014959  0.16730922  1
  Pr  Pr65  1  -0.00064738  0.62293010  0.99434935  1
  Pr  Pr66  1  0.67243169  0.62810053  1.00032962  1
  Pr  Pr67  1  -0.00136025  0.87687494  0.33619937  1
  Pr  Pr68  1  0.16748301  0.87286870  0.49472791  1
  Pr  Pr69  1  0.33887210  0.37435682  0.00196126  1
  Pr  Pr70  1  0.33850132  0.87489340  0.66733570  1
  Pr  Pr71  1  0.50121625  0.62404273  0.17497336  1
  Mn  Mn72  1  -0.00170093  -0.00261685  0.16920752  1
  Mn  Mn73  1  -0.00150261  -0.00066481  0.49934288  1
  Mn  Mn74  1  0.00186939  -0.00335558  0.83229754  1
  Mn  Mn75  1  0.00402616  0.50182621  0.16410575  1
  Mn  Mn76  1  0.00253383  0.49986839  0.49810950  1
  Mn  Mn77  1  0.00110296  0.50155084  0.82966751  1
  Mn  Mn78  1  0.33321254  0.00077766  0.16589038  1
  Mn  Mn79  1  0.33041944  -0.00006654  0.49969484  1
  Mn  Mn80  1  0.33236019  -0.00214246  0.83386246  1
  Mn  Mn81  1  0.33319482  0.50067487  0.16676239  1
  Mn  Mn82  1  0.33515495  0.50057291  0.50075148  1
  Mn  Mn83  1  0.33432430  0.50178865  0.83424493  1
  Mn  Mn84  1  0.66486553  -0.00099529  0.17033714  1
  Mn  Mn85  1  0.66649915  -0.00263837  0.49877244  1
  Mn  Mn86  1  0.66533392  -0.00267271  0.83615043  1
  Mn  Mn87  1  0.66600826  0.50435098  0.16739731  1
  Mn  Mn88  1  0.66587351  0.50363663  0.50112170  1
  Mn  Mn89  1  0.66647296  0.50389881  0.83422556  1
  Mn  Mn90  1  0.00018165  0.24905756  0.16717551  1
  Mn  Mn91  1  0.00099485  0.24762354  0.49874187  1
  Mn  Mn92  1  -0.00005582  0.24861095  0.83102001  1
  Mn  Mn93  1  0.00187900  0.75149279  0.16562000  1
  Mn  Mn94  1  -0.00054804  0.75199817  0.49936972  1
  Mn  Mn95  1  0.00294824  0.75062668  0.83145421  1
  Mn  Mn96  1  0.33324954  0.24999672  0.16652900  1
  Mn  Mn97  1  0.33187331  0.25036501  0.49985450  1
  Mn  Mn98  1  0.33348620  0.24926430  0.83357706  1
  Mn  Mn99  1  0.33281998  0.74789324  0.16593060  1
  Mn  Mn100  1  0.33331005  0.74963230  0.50011800  1
  Mn  Mn101  1  0.33324288  0.75125374  0.83459576  1
  Mn  Mn102  1  0.66579007  0.24774911  0.16864209  1
  Mn  Mn103  1  0.66540049  0.25056699  0.49993335  1
  Mn  Mn104  1  0.66726239  0.25079350  0.83512279  1
  Mn  Mn105  1  0.66543769  0.74942632  0.16732196  1
  Mn  Mn106  1  0.66814171  0.75019037  0.50021095  1
  Mn  Mn107  1  0.66478800  0.74910943  0.83325426  1
  Mn  Mn108  1  0.16958589  0.24887478  -0.00159551  1
  Mn  Mn109  1  0.16647503  0.24968329  0.32984456  1
  Mn  Mn110  1  0.16665680  0.24763563  0.66351247  1
  Mn  Mn111  1  0.16577132  0.75005192  -0.00147503  1
  Mn  Mn112  1  0.16521167  0.74905484  0.33101812  1
  Mn  Mn113  1  0.16686420  0.75245135  0.66582015  1
  Mn  Mn114  1  0.49797296  0.25104494  0.00454861  1
  Mn  Mn115  1  0.49794188  0.25047138  0.33651197  1
  Mn  Mn116  1  0.49900407  0.25066612  0.66901179  1
  Mn  Mn117  1  0.49911913  0.74802912  0.00493647  1
  Mn  Mn118  1  0.49944052  0.75008057  0.33718883  1
  Mn  Mn119  1  0.50126997  0.75058140  0.67029839  1
  Mn  Mn120  1  0.83325665  0.25051499  -0.00054373  1
  Mn  Mn121  1  0.83332365  0.24742721  0.33424776  1
  Mn  Mn122  1  0.83348002  0.24914966  0.66602121  1
  Mn  Mn123  1  0.83405494  0.75003775  -0.00135628  1
  Mn  Mn124  1  0.83528781  0.75068313  0.32996712  1
  Mn  Mn125  1  0.83589136  0.75111120  0.66217340  1
  Mn  Mn126  1  0.16718807  -0.00105286  -0.00251119  1
  Mn  Mn127  1  0.16488818  -0.00083103  0.33166534  1
  Mn  Mn128  1  0.16686035  -0.00156541  0.66455877  1
  Mn  Mn129  1  0.16932363  0.50025662  0.00008167  1
  Mn  Mn130  1  0.16754468  0.49986601  0.32956675  1
  Mn  Mn131  1  0.16741624  0.50110006  0.66438389  1
  Mn  Mn132  1  0.49720483  -0.00178071  0.00563837  1
  Mn  Mn133  1  0.49849045  -0.00113879  0.33536818  1
  Mn  Mn134  1  0.49797117  -0.00217882  0.66831378  1
  Mn  Mn135  1  0.49876876  0.50312415  0.00552180  1
  Mn  Mn136  1  0.49841566  0.50184900  0.33833749  1
  Mn  Mn137  1  0.50158210  0.50433455  0.67024871  1
  Mn  Mn138  1  0.83199160  -0.00283676  0.00069953  1
  Mn  Mn139  1  0.83195379  -0.00145395  0.33132810  1
  Mn  Mn140  1  0.83434372  -0.00268864  0.66140224  1
  Mn  Mn141  1  0.83475416  0.50338221  -0.00145389  1
  Mn  Mn142  1  0.83615814  0.50205324  0.33279927  1
  Mn  Mn143  1  0.83581313  0.50256578  0.66662727  1
  O  O144  1  0.17452509  0.12401936  0.02292762  1
  O  O145  1  0.17121749  0.12518287  0.35421517  1
  O  O146  1  0.17412877  0.11915813  0.69133930  1
  O  O147  1  0.16480614  0.62702202  0.02268327  1
  O  O148  1  0.16256736  0.62564181  0.35730022  1
  O  O149  1  0.16155484  0.63190733  0.69091332  1
  O  O150  1  0.48986322  0.12288286  0.02772460  1
  O  O151  1  0.49132017  0.12655884  0.34337586  1
  O  O152  1  0.49161854  0.11987263  0.67833183  1
  O  O153  1  0.48932550  0.62591679  0.03242625  1
  O  O154  1  0.49225018  0.62484518  0.36083218  1
  O  O155  1  0.50507375  0.62960297  0.69569157  1
  O  O156  1  0.83427042  0.11659201  0.01967952  1
  O  O157  1  0.83611707  0.11872562  0.35638696  1
  O  O158  1  0.83797150  0.12050718  0.67538952  1
  O  O159  1  0.84175364  0.63021875  0.01992111  1
  O  O160  1  0.84114542  0.62933056  0.35438774  1
  O  O161  1  0.83507400  0.63046996  0.68817863  1
  O  O162  1  0.16904796  0.37622678  0.30327232  1
  O  O163  1  0.15882497  0.37279102  0.65387824  1
  O  O164  1  0.17613863  0.37439023  0.98829384  1
  O  O165  1  0.16084460  0.87164799  0.30562895  1
  O  O166  1  0.16086776  0.87605399  0.63668571  1
  O  O167  1  0.17010961  0.87211150  0.97496763  1
  O  O168  1  0.49215830  0.37883570  0.31138657  1
  O  O169  1  0.49265753  0.38052802  0.64935720  1
  O  O170  1  0.49291693  0.38200589  0.97938340  1
  O  O171  1  0.50099655  0.87134385  0.31982461  1
  O  O172  1  0.49773897  0.87244506  0.64388698  1
  O  O173  1  0.49631787  0.86902192  0.98150997  1
  O  O174  1  0.83953925  0.37826555  0.32273266  1
  O  O175  1  0.84537414  0.37781390  0.65878912  1
  O  O176  1  0.83326394  0.38391710  0.98763923  1
  O  O177  1  0.83850782  0.87178609  0.30460791  1
  O  O178  1  0.84492007  0.87184291  0.63687298  1
  O  O179  1  0.82926356  0.87033315  0.99003126  1
  O  O180  1  0.00935503  0.37599214  0.18821763  1
  O  O181  1  0.00176878  0.37075663  0.52607601  1
  O  O182  1  -0.00223025  0.37787512  0.83318817  1
  O  O183  1  0.00559617  0.87259127  0.19350433  1
  O  O184  1  0.00204467  0.87431844  0.52727459  1
  O  O185  1  0.00993999  0.87142449  0.85599219  1
  O  O186  1  0.32143718  0.37767056  0.19324839  1
  O  O187  1  0.33678210  0.37932346  0.52742496  1
  O  O188  1  0.33769771  0.38003296  0.85767011  1
  O  O189  1  0.32088675  0.87320651  0.17762432  1
  O  O190  1  0.32801576  0.87508773  0.52131334  1
  O  O191  1  0.32650787  0.87406404  0.86171651  1
  O  O192  1  0.66266712  0.37835948  0.17788889  1
  O  O193  1  0.66091841  0.38203600  0.51020828  1
  O  O194  1  0.66388960  0.38272103  0.84419922  1
  O  O195  1  0.67622992  0.87171429  0.18698872  1
  O  O196  1  0.67666632  0.87002839  0.52383128  1
  O  O197  1  0.66009075  0.86834798  0.86019980  1
  O  O198  1  0.00119880  0.12005146  0.15515125  1
  O  O199  1  0.00671139  0.12143683  0.47743462  1
  O  O200  1  0.00736133  0.11871857  0.81279434  1
  O  O201  1  0.00627786  0.63157593  0.13747717  1
  O  O202  1  0.00228083  0.63123923  0.47309215  1
  O  O203  1  0.00554550  0.62928528  0.80944147  1
  O  O204  1  0.34460845  0.12603713  0.14119291  1
  O  O205  1  0.32903827  0.12265287  0.47524862  1
  O  O206  1  0.33100916  0.11848088  0.80752298  1
  O  O207  1  0.33558663  0.62300087  0.13902720  1
  O  O208  1  0.33513396  0.62389175  0.47904098  1
  O  O209  1  0.33576147  0.62696029  0.82083101  1
  O  O210  1  0.65446625  0.12213279  0.15886748  1
  O  O211  1  0.67125782  0.12018978  0.48748759  1
  O  O212  1  0.66474153  0.12061733  0.82690819  1
  O  O213  1  0.65239407  0.62839179  0.14490286  1
  O  O214  1  0.65637694  0.62893517  0.47859900  1
  O  O215  1  0.65658421  0.62887182  0.80787710  1
  O  O216  1  0.08535643  0.01453233  0.24798477  1
  O  O217  1  0.08159772  0.02124717  0.58722069  1
  O  O218  1  0.08946815  0.01108640  0.91100563  1
  O  O219  1  0.08495833  0.52519846  0.24794496  1
  O  O220  1  0.08334082  0.52500505  0.58007284  1
  O  O221  1  0.08301800  0.52071893  0.91546820  1
  O  O222  1  0.41174616  0.01832809  0.25106546  1
  O  O223  1  0.40481050  0.00593954  0.59377161  1
  O  O224  1  0.40567084  0.00962284  0.92846143  1
  O  O225  1  0.41465336  0.52204774  0.25161524  1
  O  O226  1  0.42831466  0.51853102  0.57874480  1
  O  O227  1  0.41732575  0.52400352  0.92174983  1
  O  O228  1  0.75432564  0.01916835  0.24476731  1
  O  O229  1  0.75967194  0.00804615  0.57103597  1
  O  O230  1  0.74634282  -0.00018666  0.92051853  1
  O  O231  1  0.75247913  0.52599388  0.24698305  1
  O  O232  1  0.75328750  0.52429296  0.58207274  1
  O  O233  1  0.75020389  0.52900855  0.91460697  1
  O  O234  1  0.24319507  0.22421150  0.23743267  1
  O  O235  1  0.24189011  0.22649681  0.57276016  1
  O  O236  1  0.24740081  0.22513386  0.90870680  1
  O  O237  1  0.25114963  0.72423698  0.24751760  1
  O  O238  1  0.24425863  0.73733766  0.57895817  1
  O  O239  1  0.24722239  0.72720506  0.91603178  1
  O  O240  1  0.57261454  0.24088415  0.24645136  1
  O  O241  1  0.57553468  0.24962412  0.58223479  1
  O  O242  1  0.57492692  0.24977286  0.91650451  1
  O  O243  1  0.58500124  0.72887824  0.25674211  1
  O  O244  1  0.59187412  0.73406837  0.59412441  1
  O  O245  1  0.58114585  0.72449030  0.92371001  1
  O  O246  1  0.91270139  0.23420688  0.24671381  1
  O  O247  1  0.91565407  0.22665320  0.57725485  1
  O  O248  1  0.91656658  0.24569726  0.91067596  1
  O  O249  1  0.92280853  0.72661130  0.24772168  1
  O  O250  1  0.91887833  0.72385356  0.57985562  1
  O  O251  1  0.92133612  0.73073314  0.91443594  1
  O  O252  1  0.09432557  0.48680880  0.09000172  1
  O  O253  1  0.08179670  0.48299743  0.40648316  1
  O  O254  1  0.08085653  0.49309168  0.74297810  1
  O  O255  1  0.08382626  0.97854916  0.08301738  1
  O  O256  1  0.08054976  0.97528309  0.41962424  1
  O  O257  1  0.08928465  0.97647321  0.74962331  1
  O  O258  1  0.41557943  0.47375291  0.08881714  1
  O  O259  1  0.41402441  0.47671111  0.41602393  1
  O  O260  1  0.41640139  0.48239025  0.75253124  1
  O  O261  1  0.41633517  0.97681718  0.08799126  1
  O  O262  1  0.41789833  0.98326284  0.42488185  1
  O  O263  1  0.41770475  0.97167221  0.75738547  1
  O  O264  1  0.75017466  0.50916867  0.08136891  1
  O  O265  1  0.74709470  0.50588536  0.41659471  1
  O  O266  1  0.75418410  0.50223935  0.75098275  1
  O  O267  1  0.74865094  0.98037300  0.08548834  1
  O  O268  1  0.74953854  0.97772608  0.41194488  1
  O  O269  1  0.74735463  0.97861127  0.73652404  1
  O  O270  1  0.26138811  0.26605396  0.07542643  1
  O  O271  1  0.25968432  0.26442217  0.39932053  1
  O  O272  1  0.25995236  0.26238738  0.73489805  1
  O  O273  1  0.24542196  0.76532011  0.08167808  1
  O  O274  1  0.24165216  0.76087076  0.41779874  1
  O  O275  1  0.24916848  0.77506697  0.74610836  1
  O  O276  1  0.57818358  0.26253494  0.08812847  1
  O  O277  1  0.57858787  0.26290550  0.41771388  1
  O  O278  1  0.57997542  0.26327613  0.75308750  1
  O  O279  1  0.58273317  0.77076720  0.08480123  1
  O  O280  1  0.57736743  0.76759304  0.42988665  1
  O  O281  1  0.57848086  0.77701779  0.75536619  1
  O  O282  1  0.91967356  0.25468544  0.08457797  1
  O  O283  1  0.92468392  0.26185733  0.41066193  1
  O  O284  1  0.92656057  0.25544297  0.73807841  1
  O  O285  1  0.91762544  0.77261827  0.08831508  1
  O  O286  1  0.91712424  0.77560628  0.41891164  1
  O  O287  1  0.92547247  0.76398929  0.74151422  1
  O  O288  1  0.25562666  0.48273058  0.08171017  1
  O  O289  1  0.25574084  0.48831779  0.40296759  1
  O  O290  1  0.25401343  0.48811377  0.74437146  1
  O  O291  1  0.25060072  0.98248921  0.07906511  1
  O  O292  1  0.24219889  0.98383363  0.41890935  1
  O  O293  1  0.25351259  0.97279884  0.74331867  1
  O  O294  1  0.57322003  0.48956199  0.09507921  1
  O  O295  1  0.57119952  0.49094223  0.42955609  1
  O  O296  1  0.57309453  0.48901963  0.76341048  1
  O  O297  1  0.58435610  0.97879718  0.08500615  1
  O  O298  1  0.58142157  0.98029804  0.42224124  1
  O  O299  1  0.58130381  0.97606905  0.75205615  1
  O  O300  1  0.92389063  0.49947924  0.07994312  1
  O  O301  1  0.92401888  0.49091135  0.41175915  1
  O  O302  1  0.92195709  0.49748377  0.74424701  1
  O  O303  1  0.91545560  0.97493355  0.08754399  1
  O  O304  1  0.91403993  0.97381777  0.41586895  1
  O  O305  1  0.92605258  0.98431932  0.74060230  1
  O  O306  1  0.09499467  0.25849167  0.09180296  1
  O  O307  1  0.08494164  0.26461474  0.41338484  1
  O  O308  1  0.08456529  0.25323476  0.74539370  1
  O  O309  1  0.08300734  0.77651455  0.08109587  1
  O  O310  1  0.07981404  0.77432338  0.41568226  1
  O  O311  1  0.08794540  0.77545281  0.75033223  1
  O  O312  1  0.42059758  0.27825710  0.09488787  1
  O  O313  1  0.41887812  0.27460086  0.42446939  1
  O  O314  1  0.42021473  0.27278322  0.75934503  1
  O  O315  1  0.41188578  0.76824325  0.08266775  1
  O  O316  1  0.41771762  0.76421276  0.42084140  1
  O  O317  1  0.41635229  0.77442221  0.75206874  1
  O  O318  1  0.75276910  0.24786698  0.09018096  1
  O  O319  1  0.75321575  0.25102086  0.41821415  1
  O  O320  1  0.75526402  0.25825877  0.75193926  1
  O  O321  1  0.74384905  0.76125120  0.07913679  1
  O  O322  1  0.74751763  0.76290799  0.41265438  1
  O  O323  1  0.74317344  0.76436129  0.73484884  1
  O  O324  1  0.24922597  0.02430207  0.24299971  1
  O  O325  1  0.24432037  0.02056228  0.57872374  1
  O  O326  1  0.24660739  0.02174861  0.90996161  1
  O  O327  1  0.24824147  0.52775602  0.24491253  1
  O  O328  1  0.24579016  0.51842465  0.57608157  1
  O  O329  1  0.24965462  0.52428167  0.91603801  1
  O  O330  1  0.57829257  0.01112805  0.24984184  1
  O  O331  1  0.58418283  -0.00314163  0.58514698  1
  O  O332  1  0.57430463  -0.00086701  0.92157998  1
  O  O333  1  0.58309186  0.52329230  0.25999930  1
  O  O334  1  0.58905800  0.52555045  0.59253784  1
  O  O335  1  0.58373259  0.52740405  0.92700250  1
  O  O336  1  0.91493801  0.01418056  0.24919082  1
  O  O337  1  0.91781380  0.02166486  0.57831129  1
  O  O338  1  0.92018287  -0.00182199  0.92001063  1
  O  O339  1  0.92070219  0.52245153  0.24441107  1
  O  O340  1  0.91771200  0.52437404  0.58169435  1
  O  O341  1  0.91714662  0.52359585  0.91111724  1
  O  O342  1  0.08190688  0.23224695  0.25172219  1
  O  O343  1  0.08112019  0.22240326  0.58469140  1
  O  O344  1  0.08683844  0.23622107  0.91197895  1
  O  O345  1  0.08626857  0.72620587  0.24562815  1
  O  O346  1  0.08153107  0.73010248  0.58345183  1
  O  O347  1  0.08554375  0.72556611  0.91597852  1
  O  O348  1  0.40498725  0.23690864  0.25901196  1
  O  O349  1  0.40465767  0.24033884  0.59801294  1
  O  O350  1  0.40541844  0.23779136  0.93325657  1
  O  O351  1  0.41725628  0.72838442  0.24959096  1
  O  O352  1  0.42641413  0.73822352  0.58158357  1
  O  O353  1  0.41872363  0.73043361  0.92064130  1
  O  O354  1  0.74928543  0.23052807  0.25064732  1
  O  O355  1  0.75329730  0.24017335  0.58167008  1
  O  O356  1  0.74893164  0.24717650  0.91778721  1
  O  O357  1  0.75346059  0.72363304  0.24122691  1
  O  O358  1  0.75665036  0.72481954  0.57420080  1
  O  O359  1  0.75156236  0.72327926  0.90905709  1
