# generated using pymatgen
data_Ba17Sr5La8Pr42Mn72O216
_symmetry_space_group_name_H-M   'P 1'
_cell_length_a   16.67508842
_cell_length_b   15.69927482
_cell_length_c   16.82165154
_cell_angle_alpha   90.00329793
_cell_angle_beta   89.99596627
_cell_angle_gamma   90.01500217
_symmetry_Int_Tables_number   1
_chemical_formula_structural   Ba17Sr5La8Pr42Mn72O216
_chemical_formula_sum   'Ba17 Sr5 La8 Pr42 Mn72 O216'
_cell_volume   4403.68608455
_cell_formula_units_Z   1
loop_
 _symmetry_equiv_pos_site_id
 _symmetry_equiv_pos_as_xyz
  1  'x, y, z'
loop_
 _atom_site_type_symbol
 _atom_site_label
 _atom_site_symmetry_multiplicity
 _atom_site_fract_x
 _atom_site_fract_y
 _atom_site_fract_z
 _atom_site_occupancy
  Ba  Ba0  1  0.00076274  0.12666112  0.33571064  1
  Ba  Ba1  1  0.33535757  0.62408328  0.99743658  1
  Ba  Ba2  1  0.50176232  0.87433174  0.16387689  1
  Ba  Ba3  1  0.83255317  0.37657748  0.17132285  1
  Ba  Ba4  1  0.00273924  0.62463858  0.66579261  1
  Ba  Ba5  1  -0.00103483  0.62478950  0.99880885  1
  Ba  Ba6  1  0.66830207  0.12560028  0.33586959  1
  Ba  Ba7  1  0.49652144  0.87273558  0.49752763  1
  Ba  Ba8  1  0.16451969  0.87474414  0.16545920  1
  Ba  Ba9  1  0.33463362  0.12662096  0.99829641  1
  Ba  Ba10  1  0.83240720  0.87341378  0.50314906  1
  Ba  Ba11  1  0.83260170  0.12615281  0.83487082  1
  Ba  Ba12  1  -0.00127271  0.87340216  0.00167694  1
  Ba  Ba13  1  0.66684639  0.37712971  0.33704632  1
  Ba  Ba14  1  0.49861592  0.87510205  0.82918940  1
  Ba  Ba15  1  0.33397799  0.12808313  0.33073914  1
  Ba  Ba16  1  0.83462313  0.12525320  0.50302768  1
  Sr  Sr17  1  -0.00013426  0.37513824  0.33696823  1
  Sr  Sr18  1  0.17154424  0.62088068  0.50211085  1
  Sr  Sr19  1  0.16235010  0.37831819  0.49628396  1
  Sr  Sr20  1  0.32828860  0.37543131  0.33410226  1
  Sr  Sr21  1  0.16246708  0.37583891  0.83322860  1
  La  La22  1  0.50458520  0.12765551  0.49710447  1
  La  La23  1  0.16937365  0.62048789  0.83640436  1
  La  La24  1  0.16544702  0.87338351  0.83367092  1
  La  La25  1  0.66608351  0.62418189  1.00097009  1
  La  La26  1  0.50406504  0.12419084  0.17011181  1
  La  La27  1  0.66698949  0.37280357  0.66951262  1
  La  La28  1  0.17257222  0.13060910  0.50017844  1
  La  La29  1  0.00614140  0.12571537  0.66062055  1
  Pr  Pr30  1  0.32323909  0.87693777  0.33477615  1
  Pr  Pr31  1  0.66907437  0.87718097  0.67156843  1
  Pr  Pr32  1  0.32719071  0.87414877  0.66646289  1
  Pr  Pr33  1  0.66781174  0.87728762  0.00120090  1
  Pr  Pr34  1  0.34284677  0.12660342  0.66089436  1
  Pr  Pr35  1  0.50125997  0.62397081  0.83540127  1
  Pr  Pr36  1  0.16112772  0.87211666  0.49667149  1
  Pr  Pr37  1  0.83294036  0.62608723  0.83963397  1
  Pr  Pr38  1  0.50473970  0.62399102  0.16698625  1
  Pr  Pr39  1  0.16130691  0.37083727  0.16714578  1
  Pr  Pr40  1  0.32969775  0.87498107  0.00234104  1
  Pr  Pr41  1  0.83638782  0.37703970  0.83591339  1
  Pr  Pr42  1  0.49504611  0.37139284  0.16369712  1
  Pr  Pr43  1  0.67166648  0.62970014  0.33249901  1
  Pr  Pr44  1  0.83593775  0.12542596  0.17642548  1
  Pr  Pr45  1  0.66613140  0.12569951  1.00360728  1
  Pr  Pr46  1  0.00627812  0.62159575  0.33310226  1
  Pr  Pr47  1  0.17010926  0.62686086  0.16810955  1
  Pr  Pr48  1  0.17055487  0.12210938  0.17123153  1
  Pr  Pr49  1  0.33631555  0.62540924  0.32738978  1
  Pr  Pr50  1  0.83550216  0.87207068  0.83171391  1
  Pr  Pr51  1  0.50128293  0.62250933  0.49739991  1
  Pr  Pr52  1  0.49575039  0.37619658  0.49263414  1
  Pr  Pr53  1  0.83336458  0.62043404  0.50544075  1
  Pr  Pr54  1  -0.00400586  0.87608760  0.67128513  1
  Pr  Pr55  1  0.32367544  0.37586518  0.66528097  1
  Pr  Pr56  1  0.83295986  0.87677048  0.16827162  1
  Pr  Pr57  1  0.00189517  0.12538826  1.00138614  1
  Pr  Pr58  1  0.32304824  0.37665718  0.00101573  1
  Pr  Pr59  1  0.66712210  0.12097211  0.66252494  1
  Pr  Pr60  1  0.00015828  0.37441055  0.66682519  1
  Pr  Pr61  1  0.16827237  0.12887728  0.83502473  1
  Pr  Pr62  1  0.83910492  0.62463315  0.16961506  1
  Pr  Pr63  1  0.33809905  0.62412072  0.66353767  1
  Pr  Pr64  1  0.66390877  0.37234167  0.00690092  1
  Pr  Pr65  1  0.50589734  0.12593279  0.83323873  1
  Pr  Pr66  1  -0.00388591  0.37489175  0.00379541  1
  Pr  Pr67  1  0.66584802  0.62837853  0.66693714  1
  Pr  Pr68  1  0.66209691  0.87619780  0.33858718  1
  Pr  Pr69  1  -0.00448803  0.87540186  0.33531345  1
  Pr  Pr70  1  0.49359399  0.37538360  0.82992360  1
  Pr  Pr71  1  0.84098117  0.37629756  0.49571493  1
  Mn  Mn72  1  -0.00076268  0.00031559  0.16684107  1
  Mn  Mn73  1  0.00288355  -0.00130672  0.50227942  1
  Mn  Mn74  1  0.00091296  0.00237254  0.83348535  1
  Mn  Mn75  1  0.00130307  0.49952843  0.16786123  1
  Mn  Mn76  1  0.00233927  0.50202419  0.49995635  1
  Mn  Mn77  1  -0.00010004  0.49857323  0.83289622  1
  Mn  Mn78  1  0.33405985  -0.00031169  0.16492214  1
  Mn  Mn79  1  0.33253830  0.00040182  0.49962901  1
  Mn  Mn80  1  0.33205906  0.00157770  0.83040090  1
  Mn  Mn81  1  0.33263767  0.49870858  0.16580143  1
  Mn  Mn82  1  0.33278661  0.50029752  0.49720769  1
  Mn  Mn83  1  0.33320961  0.49683279  0.83069248  1
  Mn  Mn84  1  0.66876771  -0.00148071  0.16705906  1
  Mn  Mn85  1  0.66533761  -0.00162374  0.50169251  1
  Mn  Mn86  1  0.66729425  0.00193430  0.83541808  1
  Mn  Mn87  1  0.66575554  0.50064082  0.16785914  1
  Mn  Mn88  1  0.66620600  0.50122874  0.50406836  1
  Mn  Mn89  1  0.66572870  0.49782579  0.83494233  1
  Mn  Mn90  1  -0.00087664  0.25125178  0.16649312  1
  Mn  Mn91  1  0.00345906  0.25059910  0.50151487  1
  Mn  Mn92  1  -0.00031572  0.25016046  0.83356923  1
  Mn  Mn93  1  -0.00027083  0.74645734  0.16900246  1
  Mn  Mn94  1  0.00083424  0.74897650  0.50017800  1
  Mn  Mn95  1  0.00121351  0.74972574  0.83205098  1
  Mn  Mn96  1  0.33204071  0.25251266  0.16449247  1
  Mn  Mn97  1  0.33427171  0.25195194  0.49863297  1
  Mn  Mn98  1  0.33281794  0.25098486  0.82986330  1
  Mn  Mn99  1  0.33480617  0.74947574  0.16454302  1
  Mn  Mn100  1  0.33186139  0.74805352  0.49795727  1
  Mn  Mn101  1  0.33271242  0.75018350  0.83010382  1
  Mn  Mn102  1  0.66623881  0.25164151  0.16798725  1
  Mn  Mn103  1  0.66661625  0.25191972  0.50540357  1
  Mn  Mn104  1  0.66571039  0.25292234  0.83600792  1
  Mn  Mn105  1  0.66940138  0.74876673  0.16657272  1
  Mn  Mn106  1  0.66570188  0.74759600  0.50050083  1
  Mn  Mn107  1  0.66672190  0.74843636  0.83418392  1
  Mn  Mn108  1  0.16467104  0.25081472  -0.00062615  1
  Mn  Mn109  1  0.16600022  0.25232317  0.33388775  1
  Mn  Mn110  1  0.16826423  0.25162682  0.66811319  1
  Mn  Mn111  1  0.16741725  0.74763405  -0.00101307  1
  Mn  Mn112  1  0.16627932  0.74808364  0.33509404  1
  Mn  Mn113  1  0.16861111  0.74975543  0.66444947  1
  Mn  Mn114  1  0.49946341  0.25073871  -0.00303531  1
  Mn  Mn115  1  0.49928385  0.25215247  0.33141139  1
  Mn  Mn116  1  0.50038132  0.25356982  0.66491653  1
  Mn  Mn117  1  0.50119117  0.74999111  -0.00270215  1
  Mn  Mn118  1  0.49843259  0.74874926  0.33127663  1
  Mn  Mn119  1  0.49992348  0.74841472  0.66424123  1
  Mn  Mn120  1  0.83189015  0.24910012  0.00267165  1
  Mn  Mn121  1  0.83433355  0.25149984  0.33641312  1
  Mn  Mn122  1  0.83334223  0.25280158  0.66939222  1
  Mn  Mn123  1  0.83053111  0.75102721  0.00174136  1
  Mn  Mn124  1  0.83451430  0.74830988  0.33508858  1
  Mn  Mn125  1  0.83344317  0.74729790  0.66907299  1
  Mn  Mn126  1  0.16658103  0.00302351  -0.00145436  1
  Mn  Mn127  1  0.16501133  -0.00045449  0.33420333  1
  Mn  Mn128  1  0.16938492  0.00013706  0.66587360  1
  Mn  Mn129  1  0.16500037  0.49774389  0.00028871  1
  Mn  Mn130  1  0.16785248  0.50107431  0.33405784  1
  Mn  Mn131  1  0.16760431  0.49923896  0.66669445  1
  Mn  Mn132  1  0.50055920  0.00070055  -0.00239576  1
  Mn  Mn133  1  0.49874714  -0.00121127  0.33159528  1
  Mn  Mn134  1  0.49972289  -0.00037270  0.66465565  1
  Mn  Mn135  1  0.49987351  0.49807746  -0.00216300  1
  Mn  Mn136  1  0.49908137  0.50105356  0.33162416  1
  Mn  Mn137  1  0.50008956  0.49911543  0.66429712  1
  Mn  Mn138  1  0.83253114  0.00101793  0.00325811  1
  Mn  Mn139  1  0.83368086  -0.00149655  0.33416941  1
  Mn  Mn140  1  0.83420046  -0.00026594  0.67099667  1
  Mn  Mn141  1  0.83040237  0.49974328  0.00036721  1
  Mn  Mn142  1  0.83498646  0.50176807  0.33797784  1
  Mn  Mn143  1  0.83225663  0.49840894  0.66901943  1
  O  O144  1  0.16080799  0.13024100  0.02622075  1
  O  O145  1  0.16719859  0.12291933  0.35445018  1
  O  O146  1  0.16434671  0.12516557  0.69209901  1
  O  O147  1  0.16803703  0.61878267  0.02163203  1
  O  O148  1  0.16873039  0.62608848  0.35420133  1
  O  O149  1  0.17531140  0.62339886  0.69290899  1
  O  O150  1  0.50371685  0.12736740  0.02451961  1
  O  O151  1  0.49842080  0.12475228  0.35077286  1
  O  O152  1  0.49554516  0.12756005  0.69049115  1
  O  O153  1  0.50286397  0.62196081  0.02197608  1
  O  O154  1  0.48902424  0.62465351  0.35434637  1
  O  O155  1  0.49528022  0.62131853  0.69317474  1
  O  O156  1  0.82903208  0.12347442  0.02994015  1
  O  O157  1  0.83369532  0.12441000  0.34225425  1
  O  O158  1  0.83162254  0.12463468  0.67841901  1
  O  O159  1  0.82522166  0.62519544  0.02383131  1
  O  O160  1  0.82839406  0.62642147  0.36262520  1
  O  O161  1  0.82720321  0.62080206  0.69699358  1
  O  O162  1  0.16446635  0.37935981  0.31132594  1
  O  O163  1  0.16904866  0.37498220  0.64576225  1
  O  O164  1  0.16453160  0.37341209  0.98128526  1
  O  O165  1  0.16886649  0.87275120  0.32147745  1
  O  O166  1  0.17642981  0.87746091  0.63880428  1
  O  O167  1  0.17298907  0.87771769  0.97886604  1
  O  O168  1  0.50017250  0.37970968  0.30941905  1
  O  O169  1  0.50804523  0.37823259  0.63530457  1
  O  O170  1  0.51056086  0.37461948  0.97246474  1
  O  O171  1  0.50922565  0.87148927  0.32096982  1
  O  O172  1  0.50709121  0.87434151  0.65370239  1
  O  O173  1  0.50967317  0.87582703  0.98474978  1
  O  O174  1  0.83676821  0.37862696  0.32978990  1
  O  O175  1  0.83174010  0.37811008  0.64091597  1
  O  O176  1  0.83128762  0.37570650  0.97945801  1
  O  O177  1  0.83649468  0.87017993  0.31132507  1
  O  O178  1  0.83228420  0.87408509  0.65987408  1
  O  O179  1  0.82568456  0.87645407  0.97519758  1
  O  O180  1  0.00861185  0.37690476  0.18702907  1
  O  O181  1  -0.00278204  0.37714444  0.52135006  1
  O  O182  1  -0.00327314  0.37311269  0.85969732  1
  O  O183  1  -0.00544242  0.86856640  0.19072834  1
  O  O184  1  0.00830355  0.87320870  0.52613889  1
  O  O185  1  0.00211000  0.87631199  0.84524403  1
  O  O186  1  0.33911012  0.37700120  0.18490909  1
  O  O187  1  0.34299069  0.37624524  0.52344473  1
  O  O188  1  0.34160025  0.37372424  0.85696808  1
  O  O189  1  0.33461126  0.87100858  0.18880285  1
  O  O190  1  0.32648694  0.87421823  0.52351739  1
  O  O191  1  0.32855032  0.87937132  0.85796023  1
  O  O192  1  0.65700977  0.37853136  0.17956563  1
  O  O193  1  0.65705018  0.37880494  0.52605370  1
  O  O194  1  0.65902122  0.37631588  0.86415912  1
  O  O195  1  0.67304134  0.86940278  0.19534617  1
  O  O196  1  0.66270976  0.86887857  0.52547893  1
  O  O197  1  0.67093043  0.87174012  0.85744226  1
  O  O198  1  -0.00893742  0.12944675  0.14535460  1
  O  O199  1  0.00762098  0.12359929  0.49486373  1
  O  O200  1  0.00527933  0.12691389  0.80579595  1
  O  O201  1  -0.00447279  0.62227729  0.15449341  1
  O  O202  1  -0.00546504  0.62699228  0.47907388  1
  O  O203  1  -0.00502691  0.62402554  0.82190025  1
  O  O204  1  0.32615390  0.12853978  0.15427698  1
  O  O205  1  0.33141412  0.12624110  0.48771767  1
  O  O206  1  0.32684191  0.12727319  0.80456830  1
  O  O207  1  0.32848495  0.62332064  0.15269617  1
  O  O208  1  0.33556611  0.62397473  0.47233010  1
  O  O209  1  0.33309146  0.61955157  0.80822712  1
  O  O210  1  0.66935334  0.12598263  0.14736457  1
  O  O211  1  0.66454367  0.12702976  0.49514426  1
  O  O212  1  0.66106852  0.13232409  0.80639715  1
  O  O213  1  0.66988957  0.62488952  0.14413715  1
  O  O214  1  0.67375744  0.62437472  0.47761906  1
  O  O215  1  0.66879917  0.62045485  0.80867166  1
  O  O216  1  0.08726926  0.01547719  0.24516974  1
  O  O217  1  0.09584976  0.01885816  0.57959970  1
  O  O218  1  0.08583359  0.02467756  0.91267513  1
  O  O219  1  0.09072114  0.52391657  0.24632775  1
  O  O220  1  0.08738643  0.51040839  0.57898586  1
  O  O221  1  0.08789704  0.51242760  0.91129109  1
  O  O222  1  0.42306212  0.01418850  0.24047314  1
  O  O223  1  0.42110017  0.02030882  0.57728795  1
  O  O224  1  0.42103764  0.01924488  0.90265437  1
  O  O225  1  0.42242190  0.52062681  0.24150278  1
  O  O226  1  0.42111016  0.52306850  0.57690738  1
  O  O227  1  0.42764374  0.51179191  0.90294299  1
  O  O228  1  0.75755166  0.01041921  0.24261751  1
  O  O229  1  0.74415252  0.00603629  0.59497657  1
  O  O230  1  0.74230177  0.01811089  0.92821254  1
  O  O231  1  0.75384894  0.52224818  0.25448266  1
  O  O232  1  0.74689838  0.52215328  0.59227632  1
  O  O233  1  0.74978832  0.52065163  0.91414717  1
  O  O234  1  0.24611666  0.24334285  0.24376545  1
  O  O235  1  0.25839207  0.23440183  0.59133310  1
  O  O236  1  0.24562222  0.23789360  0.91504255  1
  O  O237  1  0.25346545  0.73140196  0.25418144  1
  O  O238  1  0.25971835  0.72919283  0.59058625  1
  O  O239  1  0.24755811  0.73454698  0.90928435  1
  O  O240  1  0.58097698  0.23633703  0.24516816  1
  O  O241  1  0.58582927  0.22845711  0.59203271  1
  O  O242  1  0.58571452  0.22492521  0.92000351  1
  O  O243  1  0.58738593  0.72507848  0.24882853  1
  O  O244  1  0.58251174  0.72159824  0.58132034  1
  O  O245  1  0.58309026  0.72530720  0.91222594  1
  O  O246  1  0.91669362  0.23959681  0.24512037  1
  O  O247  1  0.92967782  0.24165128  0.59324740  1
  O  O248  1  0.92137443  0.23507450  0.92347936  1
  O  O249  1  0.91862812  0.72411524  0.25612386  1
  O  O250  1  0.91231264  0.73394000  0.58065424  1
  O  O251  1  0.90594285  0.74023770  0.91256473  1
  O  O252  1  0.08161253  0.47761130  0.08155805  1
  O  O253  1  0.07863120  0.49234295  0.40930898  1
  O  O254  1  0.08080940  0.48221495  0.74553852  1
  O  O255  1  0.07859198  0.99810454  0.08036776  1
  O  O256  1  0.08006676  0.97645048  0.41438109  1
  O  O257  1  0.08283412  0.97868159  0.74022620  1
  O  O258  1  0.41273369  0.47545225  0.07274400  1
  O  O259  1  0.41497154  0.48195246  0.41285901  1
  O  O260  1  0.41368750  0.47438818  0.73937013  1
  O  O261  1  0.41306188  0.98389341  0.07196594  1
  O  O262  1  0.40554789  0.98196174  0.40665557  1
  O  O263  1  0.40671090  0.98689465  0.73629017  1
  O  O264  1  0.74076045  0.48547357  0.07479824  1
  O  O265  1  0.75579669  0.48635281  0.43081969  1
  O  O266  1  0.74904884  0.47169200  0.75489671  1
  O  O267  1  0.74971835  0.97375639  0.08496210  1
  O  O268  1  0.74544210  0.98164343  0.41100240  1
  O  O269  1  0.75138001  0.98004026  0.75750668  1
  O  O270  1  0.24671008  0.27373857  0.08351352  1
  O  O271  1  0.24761975  0.26351485  0.42371574  1
  O  O272  1  0.24776613  0.27151435  0.75096529  1
  O  O273  1  0.25421691  0.76410708  0.07977757  1
  O  O274  1  0.24398325  0.76992391  0.42239898  1
  O  O275  1  0.24695749  0.77365784  0.75104799  1
  O  O276  1  0.57844857  0.26825743  0.08428291  1
  O  O277  1  0.57707105  0.26252569  0.42888545  1
  O  O278  1  0.57826311  0.27427739  0.75442032  1
  O  O279  1  0.59168055  0.75865172  0.07785492  1
  O  O280  1  0.58303042  0.75281661  0.41272809  1
  O  O281  1  0.59352393  0.75912734  0.74378898  1
  O  O282  1  0.91985385  0.26804969  0.08071222  1
  O  O283  1  0.91631556  0.26417368  0.42482416  1
  O  O284  1  0.91397186  0.27543689  0.75414361  1
  O  O285  1  0.90757408  0.76021519  0.09316311  1
  O  O286  1  0.92008210  0.76659043  0.41280406  1
  O  O287  1  0.91790107  0.76809666  0.74995500  1
  O  O288  1  0.24485012  0.47655145  0.08782533  1
  O  O289  1  0.24760718  0.48423132  0.41998075  1
  O  O290  1  0.24968210  0.47883289  0.75137053  1
  O  O291  1  0.25200528  0.98687139  0.07719816  1
  O  O292  1  0.24319852  0.98149770  0.42350413  1
  O  O293  1  0.24604982  0.97565657  0.75110961  1
  O  O294  1  0.57383151  0.48309948  0.08536947  1
  O  O295  1  0.57504478  0.49219542  0.42443832  1
  O  O296  1  0.58041714  0.47929832  0.75349328  1
  O  O297  1  0.59294803  0.99054672  0.07710617  1
  O  O298  1  0.58317462  0.98846006  0.41504421  1
  O  O299  1  0.59033551  0.99032763  0.74301420  1
  O  O300  1  0.91700793  0.48580528  0.07920354  1
  O  O301  1  0.91603999  0.48895908  0.42155549  1
  O  O302  1  0.91643412  0.47379121  0.74792856  1
  O  O303  1  0.90814169  0.98333826  0.09157600  1
  O  O304  1  0.91875846  0.98308437  0.41472916  1
  O  O305  1  0.91446229  0.98064082  0.75564747  1
  O  O306  1  0.07883743  0.27146648  0.07874880  1
  O  O307  1  0.08258693  0.26396284  0.41776196  1
  O  O308  1  0.07777895  0.26914034  0.74406243  1
  O  O309  1  0.08407112  0.75190904  0.08626254  1
  O  O310  1  0.07813709  0.76926173  0.41191296  1
  O  O311  1  0.08435854  0.77098424  0.74163805  1
  O  O312  1  0.41223873  0.27512350  0.07176784  1
  O  O313  1  0.41624842  0.26914547  0.41456230  1
  O  O314  1  0.41282778  0.27538456  0.73729969  1
  O  O315  1  0.41367004  0.76530559  0.07380235  1
  O  O316  1  0.40167076  0.76533495  0.40324234  1
  O  O317  1  0.40646386  0.76302274  0.73696109  1
  O  O318  1  0.74138951  0.26473862  0.07948020  1
  O  O319  1  0.75196610  0.26664502  0.43021307  1
  O  O320  1  0.74788447  0.27747774  0.75818802  1
  O  O321  1  0.74923286  0.77534578  0.08362920  1
  O  O322  1  0.74204776  0.76613773  0.40808976  1
  O  O323  1  0.75299636  0.76764025  0.75671429  1
  O  O324  1  0.24893229  0.00923861  0.25060443  1
  O  O325  1  0.25709001  0.02391413  0.59188225  1
  O  O326  1  0.24479763  0.02009952  0.90889302  1
  O  O327  1  0.25245254  0.51998451  0.25432613  1
  O  O328  1  0.25929274  0.51492341  0.59047049  1
  O  O329  1  0.25037727  0.50737232  0.91652805  1
  O  O330  1  0.58434789  0.01231025  0.24513414  1
  O  O331  1  0.58073369  0.02131845  0.58496098  1
  O  O332  1  0.58310725  0.02494966  0.91408561  1
  O  O333  1  0.58549623  0.52887015  0.25477209  1
  O  O334  1  0.58486818  0.52878452  0.58731739  1
  O  O335  1  0.58627293  0.52447329  0.91813968  1
  O  O336  1  0.91613913  0.00802947  0.24971877  1
  O  O337  1  0.92793205  0.00736792  0.59513664  1
  O  O338  1  0.91983507  0.01877800  0.92818326  1
  O  O339  1  0.91931246  0.52088035  0.25511905  1
  O  O340  1  0.90991146  0.51389877  0.57999596  1
  O  O341  1  0.90713992  0.51088231  0.91017980  1
  O  O342  1  0.08946066  0.23380232  0.23732140  1
  O  O343  1  0.09216616  0.23294512  0.58228851  1
  O  O344  1  0.08326869  0.22649779  0.91522500  1
  O  O345  1  0.08574536  0.72563702  0.25129429  1
  O  O346  1  0.09345079  0.73798170  0.57592622  1
  O  O347  1  0.08918296  0.73734287  0.90666390  1
  O  O348  1  0.42385704  0.23961885  0.23395623  1
  O  O349  1  0.42390427  0.23120521  0.57646935  1
  O  O350  1  0.42710844  0.23508885  0.90038757  1
  O  O351  1  0.42150324  0.72644497  0.24223386  1
  O  O352  1  0.41904255  0.72634838  0.57358817  1
  O  O353  1  0.42171771  0.73419470  0.90434183  1
  O  O354  1  0.75318612  0.23953063  0.24592903  1
  O  O355  1  0.74313743  0.24185291  0.59581906  1
  O  O356  1  0.74452410  0.23671148  0.92288541  1
  O  O357  1  0.75563920  0.72436628  0.24673083  1
  O  O358  1  0.74872464  0.72775871  0.58788830  1
  O  O359  1  0.74529496  0.72667386  0.91940654  1
