# generated using pymatgen
data_Ba17Sr5La8Pr42Mn72O216
_symmetry_space_group_name_H-M   'P 1'
_cell_length_a   16.67518079
_cell_length_b   15.70115412
_cell_length_c   16.81816627
_cell_angle_alpha   90.00479323
_cell_angle_beta   89.97912577
_cell_angle_gamma   90.00425603
_symmetry_Int_Tables_number   1
_chemical_formula_structural   Ba17Sr5La8Pr42Mn72O216
_chemical_formula_sum   'Ba17 Sr5 La8 Pr42 Mn72 O216'
_cell_volume   4403.32496675
_cell_formula_units_Z   1
loop_
 _symmetry_equiv_pos_site_id
 _symmetry_equiv_pos_as_xyz
  1  'x, y, z'
loop_
 _atom_site_type_symbol
 _atom_site_label
 _atom_site_symmetry_multiplicity
 _atom_site_fract_x
 _atom_site_fract_y
 _atom_site_fract_z
 _atom_site_occupancy
  Ba  Ba0  1  0.00186937  0.12482018  0.33236803  1
  Ba  Ba1  1  0.83380254  0.37641696  0.83610771  1
  Ba  Ba2  1  0.49573210  0.87563616  0.50081583  1
  Ba  Ba3  1  0.16331953  0.87497687  0.83036030  1
  Ba  Ba4  1  0.00307262  0.62547729  0.33305883  1
  Ba  Ba5  1  0.16882490  0.62328394  0.49938003  1
  Ba  Ba6  1  0.66733806  0.12539655  0.66609515  1
  Ba  Ba7  1  0.83365039  0.62489593  0.50031711  1
  Ba  Ba8  1  -0.00531911  0.87419510  -0.00229481  1
  Ba  Ba9  1  0.16779776  0.37438203  0.83383746  1
  Ba  Ba10  1  0.50196402  0.12560087  0.16504650  1
  Ba  Ba11  1  0.16725922  0.37326595  0.16386214  1
  Ba  Ba12  1  0.83506322  0.12485489  0.50186541  1
  Ba  Ba13  1  0.33470410  0.37680605  0.00202680  1
  Ba  Ba14  1  0.33340677  0.37405701  0.33534774  1
  Ba  Ba15  1  0.66591527  0.62477308  0.33108573  1
  Ba  Ba16  1  0.66179923  0.87332610  0.33332780  1
  Sr  Sr17  1  0.49981785  0.62961773  0.83512161  1
  Sr  Sr18  1  0.49533906  0.87331494  0.82842081  1
  Sr  Sr19  1  0.17154156  0.12416563  0.16779705  1
  Sr  Sr20  1  0.00478525  0.62519292  1.00065449  1
  Sr  Sr21  1  0.33037294  0.87268936  0.67035118  1
  La  La22  1  0.32955093  0.87937634  0.34033385  1
  La  La23  1  0.66921139  0.62569277  0.99557938  1
  La  La24  1  0.66904829  0.37409381  -0.00039571  1
  La  La25  1  0.67164945  0.12281441  0.99364290  1
  La  La26  1  0.82542675  0.87621257  0.49972791  1
  La  La27  1  -0.00699211  0.87553235  0.33345809  1
  La  La28  1  0.16202002  0.87488816  0.50230725  1
  La  La29  1  0.67180141  0.37364544  0.66715523  1
  Pr  Pr30  1  0.83527263  0.37806024  0.16377110  1
  Pr  Pr31  1  0.82664969  0.87438261  0.83246997  1
  Pr  Pr32  1  0.33551015  0.12873514  0.99995365  1
  Pr  Pr33  1  0.01073741  0.12534338  0.99779288  1
  Pr  Pr34  1  0.66533218  0.62256288  0.66049726  1
  Pr  Pr35  1  0.83212039  0.37303703  0.49785370  1
  Pr  Pr36  1  0.00685488  0.12857001  0.66255753  1
  Pr  Pr37  1  -0.00152740  0.37609078  0.00455133  1
  Pr  Pr38  1  0.17167686  0.62649941  0.83350215  1
  Pr  Pr39  1  0.50163142  0.37724383  0.16192446  1
  Pr  Pr40  1  0.33554917  0.62612520  0.33402405  1
  Pr  Pr41  1  0.32992903  0.87325197  0.00378057  1
  Pr  Pr42  1  0.66603931  0.37242379  0.33213617  1
  Pr  Pr43  1  0.33186443  0.62298062  0.99928827  1
  Pr  Pr44  1  0.50350813  0.12124654  0.84066257  1
  Pr  Pr45  1  -0.00034625  0.37460379  0.33212494  1
  Pr  Pr46  1  0.33566234  0.12530515  0.33131603  1
  Pr  Pr47  1  0.17521885  0.62584936  0.17108224  1
  Pr  Pr48  1  0.82406400  0.87267444  0.16662450  1
  Pr  Pr49  1  0.83622019  0.12309555  0.17049592  1
  Pr  Pr50  1  0.83937414  0.62373645  0.83459508  1
  Pr  Pr51  1  0.33447000  0.37856745  0.67352069  1
  Pr  Pr52  1  0.33265242  0.62961802  0.66920441  1
  Pr  Pr53  1  0.33799550  0.12149946  0.67128585  1
  Pr  Pr54  1  -0.00942085  0.87188951  0.67229564  1
  Pr  Pr55  1  0.50329790  0.37733544  0.82877808  1
  Pr  Pr56  1  0.49602076  0.87294464  0.16849300  1
  Pr  Pr57  1  0.15580450  0.87595494  0.16259036  1
  Pr  Pr58  1  0.00845340  0.62072728  0.66197067  1
  Pr  Pr59  1  0.84057466  0.62654247  0.17301709  1
  Pr  Pr60  1  0.65968943  0.87412679  0.66642452  1
  Pr  Pr61  1  -0.00607903  0.37838073  0.66684644  1
  Pr  Pr62  1  0.17685682  0.12251773  0.83632689  1
  Pr  Pr63  1  0.66816136  0.12024547  0.33124998  1
  Pr  Pr64  1  0.17353436  0.12679223  0.50006201  1
  Pr  Pr65  1  0.49978908  0.62325055  0.16756597  1
  Pr  Pr66  1  0.15934573  0.37533395  0.49583557  1
  Pr  Pr67  1  0.50191342  0.37384569  0.49863724  1
  Pr  Pr68  1  0.65763778  0.87445432  0.00033252  1
  Pr  Pr69  1  0.84183086  0.12752119  0.83501893  1
  Pr  Pr70  1  0.49842308  0.62538611  0.50147334  1
  Pr  Pr71  1  0.49992857  0.12464567  0.49986480  1
  Mn  Mn72  1  -0.00232223  0.00008083  0.16534506  1
  Mn  Mn73  1  0.00173282  -0.00138895  0.50274398  1
  Mn  Mn74  1  -0.00172554  0.00190628  0.83056811  1
  Mn  Mn75  1  0.00130210  0.50168286  0.16502179  1
  Mn  Mn76  1  -0.00120064  0.49882070  0.49986794  1
  Mn  Mn77  1  0.00214108  0.50083051  0.83401739  1
  Mn  Mn78  1  0.33330457  -0.00210656  0.16967673  1
  Mn  Mn79  1  0.33078432  0.00170485  0.50287672  1
  Mn  Mn80  1  0.33540143  -0.00110396  0.83474428  1
  Mn  Mn81  1  0.33602683  0.50131409  0.16730038  1
  Mn  Mn82  1  0.33479262  0.49912131  0.50474745  1
  Mn  Mn83  1  0.33620871  0.50152177  0.83487515  1
  Mn  Mn84  1  0.66570483  0.00029145  0.16264529  1
  Mn  Mn85  1  0.66435633  0.00105068  0.49993813  1
  Mn  Mn86  1  0.66749233  -0.00178153  0.83235501  1
  Mn  Mn87  1  0.66703146  0.49954532  0.16313963  1
  Mn  Mn88  1  0.66481900  0.49790387  0.49870264  1
  Mn  Mn89  1  0.66642024  0.50251100  0.83081694  1
  Mn  Mn90  1  -0.00053689  0.24877196  0.16526869  1
  Mn  Mn91  1  0.00115495  0.24970078  0.49937099  1
  Mn  Mn92  1  0.00260085  0.25082527  0.83121232  1
  Mn  Mn93  1  -0.00102525  0.75071179  0.16564651  1
  Mn  Mn94  1  -0.00006016  0.75195216  0.50314364  1
  Mn  Mn95  1  -0.00187637  0.74703855  0.83269552  1
  Mn  Mn96  1  0.33514223  0.24840681  0.16690904  1
  Mn  Mn97  1  0.33364173  0.24968708  0.50516114  1
  Mn  Mn98  1  0.33739601  0.25079688  0.83332637  1
  Mn  Mn99  1  0.33464904  0.75253218  0.16966437  1
  Mn  Mn100  1  0.33152048  0.75026865  0.50168206  1
  Mn  Mn101  1  0.33360817  0.74914691  0.83564644  1
  Mn  Mn102  1  0.66838804  0.24948445  0.16579017  1
  Mn  Mn103  1  0.66518698  0.25188095  0.49858757  1
  Mn  Mn104  1  0.66704423  0.25020050  0.83240669  1
  Mn  Mn105  1  0.66429920  0.74973950  0.16153899  1
  Mn  Mn106  1  0.66435513  0.74813460  0.50081047  1
  Mn  Mn107  1  0.66731246  0.74908674  0.83130931  1
  Mn  Mn108  1  0.16747590  0.24821490  -0.00105861  1
  Mn  Mn109  1  0.16669761  0.24994277  0.33308407  1
  Mn  Mn110  1  0.16952110  0.25014636  0.66511989  1
  Mn  Mn111  1  0.16589808  0.74994542  0.00104600  1
  Mn  Mn112  1  0.16782879  0.75285124  0.33164167  1
  Mn  Mn113  1  0.16569670  0.75030675  0.66687429  1
  Mn  Mn114  1  0.50276162  0.25057522  -0.00088504  1
  Mn  Mn115  1  0.50090369  0.25088191  0.33312172  1
  Mn  Mn116  1  0.49871270  0.25022131  0.66623350  1
  Mn  Mn117  1  0.49905714  0.75072457  -0.00037545  1
  Mn  Mn118  1  0.49689395  0.74832827  0.33356476  1
  Mn  Mn119  1  0.49961390  0.74834326  0.66891607  1
  Mn  Mn120  1  0.83515111  0.24897796  0.00260182  1
  Mn  Mn121  1  0.83145529  0.25021319  0.33087943  1
  Mn  Mn122  1  0.83552401  0.25041676  0.66744330  1
  Mn  Mn123  1  0.83129440  0.74809899  -0.00090982  1
  Mn  Mn124  1  0.83274195  0.75010997  0.33390327  1
  Mn  Mn125  1  0.83155703  0.74884424  0.66933557  1
  Mn  Mn126  1  0.16834015  -0.00065564  0.00118872  1
  Mn  Mn127  1  0.16612676  -0.00095894  0.33255285  1
  Mn  Mn128  1  0.16585597  0.00229233  0.66674082  1
  Mn  Mn129  1  0.16574330  0.50285747  0.00004818  1
  Mn  Mn130  1  0.16801591  0.49969990  0.33265258  1
  Mn  Mn131  1  0.16913466  0.49675413  0.66640084  1
  Mn  Mn132  1  0.49908235  -0.00311184  0.00038767  1
  Mn  Mn133  1  0.49869341  0.00174517  0.33351472  1
  Mn  Mn134  1  0.49870631  0.00016276  0.66893507  1
  Mn  Mn135  1  0.50302116  0.50254388  -0.00212464  1
  Mn  Mn136  1  0.49969227  0.49862325  0.33278104  1
  Mn  Mn137  1  0.49951354  0.50073310  0.66560878  1
  Mn  Mn138  1  0.83228153  0.00070502  -0.00052419  1
  Mn  Mn139  1  0.83191463  -0.00054853  0.33337660  1
  Mn  Mn140  1  0.83354380  -0.00072165  0.66823061  1
  Mn  Mn141  1  0.83432306  0.50253726  0.00105314  1
  Mn  Mn142  1  0.83255291  0.49772377  0.33092691  1
  Mn  Mn143  1  0.83256223  0.50078307  0.66774497  1
  O  O144  1  0.16656486  0.12249725  0.01477440  1
  O  O145  1  0.17195053  0.12460270  0.35654885  1
  O  O146  1  0.15524633  0.12757963  0.69178590  1
  O  O147  1  0.17187896  0.62988360  0.02541376  1
  O  O148  1  0.17430902  0.62534468  0.34359394  1
  O  O149  1  0.15969349  0.62098914  0.68633457  1
  O  O150  1  0.50308271  0.12198003  0.00925194  1
  O  O151  1  0.50090160  0.12964185  0.35489575  1
  O  O152  1  0.49517362  0.12725380  0.69626023  1
  O  O153  1  0.50487823  0.62881905  0.02462477  1
  O  O154  1  0.49393513  0.62202044  0.35553803  1
  O  O155  1  0.51048787  0.62122003  0.68751894  1
  O  O156  1  0.82585866  0.12633409  0.02778814  1
  O  O157  1  0.82679282  0.12650088  0.34454543  1
  O  O158  1  0.83761327  0.12475259  0.68852518  1
  O  O159  1  0.82483590  0.62437105  0.02867573  1
  O  O160  1  0.83473131  0.62511086  0.33945715  1
  O  O161  1  0.82175004  0.62532506  0.69001499  1
  O  O162  1  0.16056310  0.37605425  0.32127989  1
  O  O163  1  0.18306720  0.37191088  0.64065169  1
  O  O164  1  0.15949771  0.37239635  0.99008057  1
  O  O165  1  0.17686610  0.87500377  0.30599461  1
  O  O166  1  0.17031955  0.87961712  0.64898226  1
  O  O167  1  0.17394857  0.87509476  0.98815301  1
  O  O168  1  0.50375157  0.37429185  0.30622527  1
  O  O169  1  0.48859380  0.37707301  0.64034964  1
  O  O170  1  0.50523643  0.37665751  0.97393876  1
  O  O171  1  0.49071722  0.87353339  0.31435952  1
  O  O172  1  0.50286208  0.87397290  0.65679806  1
  O  O173  1  0.49735109  0.87332196  0.97749904  1
  O  O174  1  0.82574437  0.37258933  0.30739499  1
  O  O175  1  0.83820104  0.37673217  0.64576491  1
  O  O176  1  0.83730438  0.37558141  0.98898088  1
  O  O177  1  0.83303587  0.87487821  0.31339971  1
  O  O178  1  0.84353453  0.87227210  0.64648290  1
  O  O179  1  0.82624615  0.87403748  0.97490858  1
  O  O180  1  -0.00286543  0.37424625  0.18417963  1
  O  O181  1  0.00011847  0.37358346  0.52176705  1
  O  O182  1  0.00186137  0.37699704  0.86134635  1
  O  O183  1  0.00515391  0.87518573  0.18435520  1
  O  O184  1  0.00674585  0.87747323  0.52865032  1
  O  O185  1  -0.00731338  0.87498119  0.84097866  1
  O  O186  1  0.34459402  0.37730463  0.17625290  1
  O  O187  1  0.34322643  0.37299534  0.53108071  1
  O  O188  1  0.34174145  0.37662641  0.84592498  1
  O  O189  1  0.34453145  0.87185217  0.19783100  1
  O  O190  1  0.32697925  0.87877908  0.51990335  1
  O  O191  1  0.33406506  0.87391882  0.85686717  1
  O  O192  1  0.66756492  0.37290572  0.18890099  1
  O  O193  1  0.65925084  0.37548207  0.52236294  1
  O  O194  1  0.65983997  0.37644567  0.85575761  1
  O  O195  1  0.67420981  0.87570742  0.17616092  1
  O  O196  1  0.66760831  0.87256529  0.51862965  1
  O  O197  1  0.67483031  0.87349266  0.85874151  1
  O  O198  1  -0.01298858  0.12372658  0.14372809  1
  O  O199  1  0.00558590  0.12441432  0.48886663  1
  O  O200  1  -0.00811829  0.12534106  0.80605160  1
  O  O201  1  -0.01128612  0.62738990  0.15169993  1
  O  O202  1  0.00054735  0.62312436  0.49217585  1
  O  O203  1  -0.00456907  0.62339866  0.80638254  1
  O  O204  1  0.33225509  0.11868576  0.14468685  1
  O  O205  1  0.32990511  0.12720402  0.47472439  1
  O  O206  1  0.33996156  0.12637937  0.81587883  1
  O  O207  1  0.33357181  0.63258526  0.14333308  1
  O  O208  1  0.33856110  0.62234486  0.47783388  1
  O  O209  1  0.33061961  0.62395153  0.81449603  1
  O  O210  1  0.67148999  0.12621352  0.13780512  1
  O  O211  1  0.66070406  0.13141514  0.47744458  1
  O  O212  1  0.66033624  0.12362245  0.82234720  1
  O  O213  1  0.65627836  0.62535028  0.13962130  1
  O  O214  1  0.66066267  0.62041933  0.49071501  1
  O  O215  1  0.67105294  0.62718234  0.80460564  1
  O  O216  1  0.09168978  0.00813173  0.24344809  1
  O  O217  1  0.09540929  0.01846397  0.57274774  1
  O  O218  1  0.08673910  0.02206621  0.90412843  1
  O  O219  1  0.08947719  0.51705287  0.23710098  1
  O  O220  1  0.08418394  0.50256627  0.58383611  1
  O  O221  1  0.08815921  0.52376645  0.90850640  1
  O  O222  1  0.41717961  0.01655129  0.25138660  1
  O  O223  1  0.41719281  0.02435732  0.58039555  1
  O  O224  1  0.42143607  0.01850292  0.91473359  1
  O  O225  1  0.41487502  0.52338113  0.25359215  1
  O  O226  1  0.41532951  0.52824382  0.59007964  1
  O  O227  1  0.41589586  0.52157800  0.92259321  1
  O  O228  1  0.75354035  0.01686821  0.23788764  1
  O  O229  1  0.75506684  0.00160917  0.58214757  1
  O  O230  1  0.76087758  0.02201419  0.90630629  1
  O  O231  1  0.75266175  0.51405193  0.23903962  1
  O  O232  1  0.74349938  0.50720352  0.58786146  1
  O  O233  1  0.75280641  0.52119113  0.91764388  1
  O  O234  1  0.25302736  0.23341869  0.25689484  1
  O  O235  1  0.25452083  0.22005737  0.58923039  1
  O  O236  1  0.25363480  0.22902165  0.91595070  1
  O  O237  1  0.25926551  0.72981479  0.25423589  1
  O  O238  1  0.25725569  0.73469865  0.59232857  1
  O  O239  1  0.25412030  0.72870246  0.92308060  1
  O  O240  1  0.59221937  0.23459441  0.25493423  1
  O  O241  1  0.57351980  0.23702978  0.57594418  1
  O  O242  1  0.58376773  0.23280684  0.91531931  1
  O  O243  1  0.57718288  0.74020283  0.24304505  1
  O  O244  1  0.58475704  0.73131446  0.58775976  1
  O  O245  1  0.59254052  0.73446346  0.92081548  1
  O  O246  1  0.91114041  0.24019735  0.24512663  1
  O  O247  1  0.92739378  0.23928427  0.58906117  1
  O  O248  1  0.92027580  0.22621844  0.92451523  1
  O  O249  1  0.91952067  0.74606834  0.25191084  1
  O  O250  1  0.92304931  0.73312062  0.60191214  1
  O  O251  1  0.91744733  0.72758067  0.92093011  1
  O  O252  1  0.07357622  0.48994610  0.07333614  1
  O  O253  1  0.07791149  0.47959166  0.41412342  1
  O  O254  1  0.07929496  0.48171580  0.74173483  1
  O  O255  1  0.07782625  0.99186500  0.07922981  1
  O  O256  1  0.07877420  0.97512347  0.40913734  1
  O  O257  1  0.06864272  0.98826549  0.73337317  1
  O  O258  1  0.42868211  0.49403215  0.09289225  1
  O  O259  1  0.42400122  0.48411656  0.42897142  1
  O  O260  1  0.42166042  0.48330736  0.75095636  1
  O  O261  1  0.41021817  0.97638283  0.08130719  1
  O  O262  1  0.40402542  0.99262857  0.41214062  1
  O  O263  1  0.41059296  0.98729996  0.74801450  1
  O  O264  1  0.74829034  0.47887339  0.08061402  1
  O  O265  1  0.74942201  0.47590528  0.41781452  1
  O  O266  1  0.74569442  0.48304309  0.74593613  1
  O  O267  1  0.73768894  0.98356102  0.06835103  1
  O  O268  1  0.74715996  0.99094533  0.41371418  1
  O  O269  1  0.74413218  0.97489923  0.74411847  1
  O  O270  1  0.25252205  0.25049193  0.08045904  1
  O  O271  1  0.24408494  0.26661547  0.43282067  1
  O  O272  1  0.25726430  0.25741837  0.74679379  1
  O  O273  1  0.25136899  0.77457833  0.09608777  1
  O  O274  1  0.24338714  0.77137764  0.42060512  1
  O  O275  1  0.24436533  0.75205093  0.75352428  1
  O  O276  1  0.58664498  0.27313947  0.08232013  1
  O  O277  1  0.58464386  0.27501132  0.41391918  1
  O  O278  1  0.58136151  0.27519933  0.74454202  1
  O  O279  1  0.57659016  0.77511013  0.08526391  1
  O  O280  1  0.57424519  0.75281685  0.41948015  1
  O  O281  1  0.58506118  0.76851787  0.75119598  1
  O  O282  1  0.91450595  0.27152686  0.08520513  1
  O  O283  1  0.91373531  0.27295342  0.41628977  1
  O  O284  1  0.91956509  0.26710419  0.75097253  1
  O  O285  1  0.90099781  0.76544140  0.09269851  1
  O  O286  1  0.91612280  0.77443670  0.42697842  1
  O  O287  1  0.90311005  0.76253113  0.76150441  1
  O  O288  1  0.25333145  0.49960305  0.08522484  1
  O  O289  1  0.24831701  0.48108147  0.42924341  1
  O  O290  1  0.25503736  0.49003371  0.74855164  1
  O  O291  1  0.24925406  0.97502603  0.09502690  1
  O  O292  1  0.23945868  0.98353250  0.42687674  1
  O  O293  1  0.24525875  1.00056793  0.75555704  1
  O  O294  1  0.58836296  0.47598129  0.07684656  1
  O  O295  1  0.58584589  0.47667630  0.41002506  1
  O  O296  1  0.58286529  0.47479273  0.74079589  1
  O  O297  1  0.57540761  0.97580218  0.08812125  1
  O  O298  1  0.57697673  0.99757639  0.41750603  1
  O  O299  1  0.58235890  0.98314778  0.75521903  1
  O  O300  1  0.91418202  0.48251110  0.08594125  1
  O  O301  1  0.91540785  0.47377885  0.41731693  1
  O  O302  1  0.91892678  0.48855988  0.74827906  1
  O  O303  1  0.89936762  0.98293934  0.09278950  1
  O  O304  1  0.91348077  0.97757281  0.42649290  1
  O  O305  1  0.90242014  0.98471992  0.76285191  1
  O  O306  1  0.07233970  0.25645579  0.07028342  1
  O  O307  1  0.07797508  0.27079193  0.41280935  1
  O  O308  1  0.07898279  0.27061006  0.73435517  1
  O  O309  1  0.08123811  0.76189010  0.08217111  1
  O  O310  1  0.08127231  0.77440363  0.40616719  1
  O  O311  1  0.07031646  0.75944055  0.73805345  1
  O  O312  1  0.42491852  0.26176064  0.08488208  1
  O  O313  1  0.42333913  0.26265198  0.42812585  1
  O  O314  1  0.42039823  0.27306739  0.75097926  1
  O  O315  1  0.41201915  0.77340546  0.08631259  1
  O  O316  1  0.40417130  0.76113072  0.40825929  1
  O  O317  1  0.41271249  0.75599250  0.74797109  1
  O  O318  1  0.75107612  0.27321945  0.08480493  1
  O  O319  1  0.74805455  0.27376859  0.41459447  1
  O  O320  1  0.74676304  0.26327697  0.74867491  1
  O  O321  1  0.73791763  0.76619210  0.06842154  1
  O  O322  1  0.75128193  0.76168997  0.42028795  1
  O  O323  1  0.74544247  0.77764751  0.74598761  1
  O  O324  1  0.25939049  0.01610420  0.26143837  1
  O  O325  1  0.25378732  0.02712715  0.59007837  1
  O  O326  1  0.25957508  0.02110212  0.92361468  1
  O  O327  1  0.25571894  0.51948462  0.25045394  1
  O  O328  1  0.25890309  0.51705501  0.59296540  1
  O  O329  1  0.25035118  0.52158010  0.91785842  1
  O  O330  1  0.59200511  0.01470245  0.25313214  1
  O  O331  1  0.57987057  0.01466861  0.58320504  1
  O  O332  1  0.59230546  0.01119417  0.92279678  1
  O  O333  1  0.57679416  0.51205488  0.23718231  1
  O  O334  1  0.57536193  0.51473623  0.57804659  1
  O  O335  1  0.58514791  0.52207689  0.91283502  1
  O  O336  1  0.91784186  0.00765253  0.25240169  1
  O  O337  1  0.92908346  0.01216268  0.59978828  1
  O  O338  1  0.92162869  0.02588733  0.92537263  1
  O  O339  1  0.91705076  0.50540753  0.24642080  1
  O  O340  1  0.92068718  0.51170456  0.58945283  1
  O  O341  1  0.91718217  0.52095269  0.91889245  1
  O  O342  1  0.08257402  0.23744172  0.24196910  1
  O  O343  1  0.09446523  0.23598229  0.57409418  1
  O  O344  1  0.08859238  0.22472688  0.90784544  1
  O  O345  1  0.09590671  0.73936687  0.23966731  1
  O  O346  1  0.08748139  0.74093530  0.58050481  1
  O  O347  1  0.08687309  0.73012074  0.90449992  1
  O  O348  1  0.41430201  0.23364604  0.25716243  1
  O  O349  1  0.41488671  0.22183338  0.58787041  1
  O  O350  1  0.41937410  0.22910360  0.91649546  1
  O  O351  1  0.41865511  0.72424751  0.24567600  1
  O  O352  1  0.42010418  0.72745983  0.58253063  1
  O  O353  1  0.41521230  0.73046893  0.92302337  1
  O  O354  1  0.74830170  0.22663144  0.24798304  1
  O  O355  1  0.75126882  0.24980224  0.58000712  1
  O  O356  1  0.75406921  0.23147547  0.91971489  1
  O  O357  1  0.75461508  0.73643517  0.23161670  1
  O  O358  1  0.74723465  0.74007260  0.59017298  1
  O  O359  1  0.75689834  0.72536546  0.90754341  1
