# generated using pymatgen
data_Ba17Sr5La8Pr42Mn72O216
_symmetry_space_group_name_H-M   'P 1'
_cell_length_a   16.67004909
_cell_length_b   15.70940510
_cell_length_c   16.82157047
_cell_angle_alpha   89.98345949
_cell_angle_beta   89.95130284
_cell_angle_gamma   90.00656855
_symmetry_Int_Tables_number   1
_chemical_formula_structural   Ba17Sr5La8Pr42Mn72O216
_chemical_formula_sum   'Ba17 Sr5 La8 Pr42 Mn72 O216'
_cell_volume   4405.17310995
_cell_formula_units_Z   1
loop_
 _symmetry_equiv_pos_site_id
 _symmetry_equiv_pos_as_xyz
  1  'x, y, z'
loop_
 _atom_site_type_symbol
 _atom_site_label
 _atom_site_symmetry_multiplicity
 _atom_site_fract_x
 _atom_site_fract_y
 _atom_site_fract_z
 _atom_site_occupancy
  Ba  Ba0  1  0.00069745  0.37594590  0.33501158  1
  Ba  Ba1  1  0.83481363  0.12493943  0.16899459  1
  Ba  Ba2  1  0.66610476  0.37603256  0.33140418  1
  Ba  Ba3  1  0.16518160  0.12442131  0.49652948  1
  Ba  Ba4  1  0.16574295  0.37576338  0.83215954  1
  Ba  Ba5  1  0.66832011  0.12626774  0.66469827  1
  Ba  Ba6  1  0.83386564  0.87087336  0.83217312  1
  Ba  Ba7  1  0.50020200  0.62311271  0.50062345  1
  Ba  Ba8  1  0.33463598  0.87526581  0.66544198  1
  Ba  Ba9  1  0.16733361  0.87531299  0.50039744  1
  Ba  Ba10  1  0.50085402  0.12725682  0.50212279  1
  Ba  Ba11  1  0.83528569  0.12528429  0.50248470  1
  Ba  Ba12  1  0.00010128  0.87503089  0.33553400  1
  Ba  Ba13  1  0.33257720  0.62466518  0.99957405  1
  Ba  Ba14  1  0.50139187  0.87603450  0.16623871  1
  Ba  Ba15  1  0.66727897  0.87396802  -0.00048861  1
  Ba  Ba16  1  0.66698073  0.62221563  0.33438025  1
  Sr  Sr17  1  0.83618296  0.87361919  0.50277533  1
  Sr  Sr18  1  0.83527458  0.62511729  0.83407238  1
  Sr  Sr19  1  0.83666524  0.62257878  0.50075413  1
  Sr  Sr20  1  -0.00047155  0.87654857  0.66596917  1
  Sr  Sr21  1  0.00122565  0.12063398  0.33527785  1
  La  La22  1  0.33142226  0.62814979  0.32852480  1
  La  La23  1  0.50519132  0.87684741  0.49679002  1
  La  La24  1  0.33422159  0.87476862  -0.00038334  1
  La  La25  1  0.49956150  0.12503014  0.83272812  1
  La  La26  1  0.66866964  0.12102940  0.99605606  1
  La  La27  1  0.16778745  0.87311774  0.82578087  1
  La  La28  1  0.66864322  0.87455764  0.66603937  1
  La  La29  1  0.33726781  0.87560117  0.33753209  1
  Pr  Pr30  1  0.16169489  0.62646500  0.49872867  1
  Pr  Pr31  1  0.33465557  0.37458262  0.33467458  1
  Pr  Pr32  1  0.16628676  0.12719276  0.17264956  1
  Pr  Pr33  1  -0.00010788  0.12235744  0.66389799  1
  Pr  Pr34  1  0.33359786  0.12186555  0.33096109  1
  Pr  Pr35  1  0.50063677  0.37921023  0.16415435  1
  Pr  Pr36  1  0.33460763  0.37322073  0.66612781  1
  Pr  Pr37  1  0.66113772  0.37559859  0.66423790  1
  Pr  Pr38  1  0.33386513  0.12619781  0.99851536  1
  Pr  Pr39  1  0.66410669  0.62653570  0.99692275  1
  Pr  Pr40  1  0.16076051  0.62300537  0.16803627  1
  Pr  Pr41  1  0.16157859  0.37314172  0.16048585  1
  Pr  Pr42  1  0.00033249  0.62455001  0.99685560  1
  Pr  Pr43  1  0.50451609  0.37327435  0.49626819  1
  Pr  Pr44  1  0.82733930  0.37494569  0.16619456  1
  Pr  Pr45  1  0.66156400  0.37146293  0.00411757  1
  Pr  Pr46  1  0.16632474  0.87739610  0.16456136  1
  Pr  Pr47  1  0.67571865  0.62565324  0.65959143  1
  Pr  Pr48  1  0.16803027  0.12339151  0.83193917  1
  Pr  Pr49  1  0.83133462  0.62622923  0.17084580  1
  Pr  Pr50  1  0.32721999  0.37634191  0.00472333  1
  Pr  Pr51  1  0.83713128  0.12161942  0.83620724  1
  Pr  Pr52  1  0.49844521  0.62713484  0.83433457  1
  Pr  Pr53  1  -0.00321097  0.62976330  0.33476922  1
  Pr  Pr54  1  0.16313597  0.62720106  0.83553182  1
  Pr  Pr55  1  0.49684694  0.37639128  0.83386722  1
  Pr  Pr56  1  -0.00877970  0.37814265  0.00672891  1
  Pr  Pr57  1  0.00050670  0.62669025  0.66879940  1
  Pr  Pr58  1  0.82760370  0.37588119  0.49885702  1
  Pr  Pr59  1  0.82680222  0.37611996  0.83236129  1
  Pr  Pr60  1  0.49619181  0.62887228  0.17190043  1
  Pr  Pr61  1  0.16751044  0.37426140  0.49694257  1
  Pr  Pr62  1  0.50425650  0.87344440  0.83091005  1
  Pr  Pr63  1  0.67094940  0.12599490  0.33404104  1
  Pr  Pr64  1  -0.00171730  0.87232663  0.00392168  1
  Pr  Pr65  1  0.50166794  0.12420880  0.17144525  1
  Pr  Pr66  1  0.67211028  0.87651680  0.33554701  1
  Pr  Pr67  1  0.32902663  0.12745940  0.66212753  1
  Pr  Pr68  1  0.00250124  0.12548318  0.99918028  1
  Pr  Pr69  1  0.83457294  0.87403341  0.16401555  1
  Pr  Pr70  1  0.32753724  0.62334325  0.66432560  1
  Pr  Pr71  1  -0.00401063  0.37294441  0.66870049  1
  Mn  Mn72  1  0.00117013  -0.00088294  0.16589633  1
  Mn  Mn73  1  -0.00080113  -0.00012354  0.50085435  1
  Mn  Mn74  1  0.00147211  0.00158133  0.83430791  1
  Mn  Mn75  1  -0.00191547  0.50103728  0.16769525  1
  Mn  Mn76  1  0.00124374  0.50030606  0.50351455  1
  Mn  Mn77  1  -0.00180464  0.49776257  0.83530336  1
  Mn  Mn78  1  0.33192316  0.00051669  0.16432339  1
  Mn  Mn79  1  0.33561221  0.00114094  0.49962507  1
  Mn  Mn80  1  0.33426388  0.00266361  0.83398338  1
  Mn  Mn81  1  0.33170289  0.49951831  0.16735214  1
  Mn  Mn82  1  0.33143438  0.49935657  0.49916712  1
  Mn  Mn83  1  0.33354923  0.49870418  0.83148442  1
  Mn  Mn84  1  0.66724420  0.00108739  0.16719844  1
  Mn  Mn85  1  0.66922212  -0.00215011  0.50056401  1
  Mn  Mn86  1  0.66649388  0.00062451  0.83122848  1
  Mn  Mn87  1  0.66598599  0.49964341  0.16225176  1
  Mn  Mn88  1  0.66779134  0.50122724  0.50118156  1
  Mn  Mn89  1  0.66494244  0.50002409  0.83261250  1
  Mn  Mn90  1  -0.00080568  0.25115848  0.16703860  1
  Mn  Mn91  1  0.00088279  0.25129850  0.50291744  1
  Mn  Mn92  1  -0.00121708  0.25077126  0.83475821  1
  Mn  Mn93  1  0.00054391  0.74911188  0.16613966  1
  Mn  Mn94  1  -0.00103793  0.74873072  0.50119926  1
  Mn  Mn95  1  0.00030643  0.74862886  0.83472449  1
  Mn  Mn96  1  0.33337051  0.25110352  0.16615190  1
  Mn  Mn97  1  0.33243608  0.25193958  0.49994445  1
  Mn  Mn98  1  0.33336852  0.25071920  0.83345633  1
  Mn  Mn99  1  0.33110104  0.75187992  0.16570937  1
  Mn  Mn100  1  0.33487147  0.74787174  0.49832645  1
  Mn  Mn101  1  0.33430504  0.74906922  0.83210346  1
  Mn  Mn102  1  0.66525527  0.24917415  0.16607964  1
  Mn  Mn103  1  0.66735857  0.25140015  0.49970305  1
  Mn  Mn104  1  0.66609515  0.25181283  0.83404480  1
  Mn  Mn105  1  0.66763411  0.74882156  0.16645983  1
  Mn  Mn106  1  0.66951443  0.74906559  0.50070832  1
  Mn  Mn107  1  0.66552301  0.74608300  0.83010091  1
  Mn  Mn108  1  0.16515907  0.24852952  -0.00044426  1
  Mn  Mn109  1  0.16815329  0.25224581  0.33082464  1
  Mn  Mn110  1  0.16510934  0.25183729  0.66570251  1
  Mn  Mn111  1  0.16612843  0.75191154  -0.00159971  1
  Mn  Mn112  1  0.16824735  0.74831524  0.33146623  1
  Mn  Mn113  1  0.16616160  0.74798432  0.66739014  1
  Mn  Mn114  1  0.49801802  0.24986653  0.00157290  1
  Mn  Mn115  1  0.49917343  0.24944551  0.33226812  1
  Mn  Mn116  1  0.49851842  0.25292888  0.66809792  1
  Mn  Mn117  1  0.49949931  0.74895949  0.00012438  1
  Mn  Mn118  1  0.50109223  0.75071629  0.33354114  1
  Mn  Mn119  1  0.49968647  0.74763724  0.66716612  1
  Mn  Mn120  1  0.83283660  0.24964041  -0.00136397  1
  Mn  Mn121  1  0.83526874  0.25105301  0.33436401  1
  Mn  Mn122  1  0.83397782  0.25420004  0.66936600  1
  Mn  Mn123  1  0.83337424  0.74713082  0.00105496  1
  Mn  Mn124  1  0.83293585  0.74907396  0.33433386  1
  Mn  Mn125  1  0.83547069  0.74810485  0.66625743  1
  Mn  Mn126  1  0.16581741  0.00125192  -0.00167344  1
  Mn  Mn127  1  0.16840216  0.00079661  0.33051279  1
  Mn  Mn128  1  0.16613617  0.00020636  0.66780437  1
  Mn  Mn129  1  0.16533731  0.50023622  -0.00059470  1
  Mn  Mn130  1  0.16825592  0.49978113  0.33249787  1
  Mn  Mn131  1  0.16515565  0.49976771  0.66468886  1
  Mn  Mn132  1  0.49801599  0.00302336  -0.00010568  1
  Mn  Mn133  1  0.50226807  0.00169926  0.33322959  1
  Mn  Mn134  1  0.49958902  -0.00048421  0.66671840  1
  Mn  Mn135  1  0.49977501  0.49966282  -0.00116243  1
  Mn  Mn136  1  0.49737431  0.49890874  0.33268259  1
  Mn  Mn137  1  0.49832043  0.49961801  0.66836638  1
  Mn  Mn138  1  0.83502670  -0.00027183  0.00116713  1
  Mn  Mn139  1  0.83409961  -0.00029910  0.33462191  1
  Mn  Mn140  1  0.83490715  -0.00174910  0.66861831  1
  Mn  Mn141  1  0.83073552  0.50072801  -0.00048185  1
  Mn  Mn142  1  0.83499660  0.50003241  0.33431954  1
  Mn  Mn143  1  0.83458577  0.49886873  0.66841783  1
  O  O144  1  0.16601968  0.12341235  0.02908882  1
  O  O145  1  0.16781770  0.12839276  0.33777748  1
  O  O146  1  0.16660759  0.12732397  0.68855254  1
  O  O147  1  0.15944038  0.62212743  0.02423290  1
  O  O148  1  0.17221662  0.62109485  0.35461531  1
  O  O149  1  0.16693895  0.62155119  0.69234778  1
  O  O150  1  0.49048311  0.12938740  0.02796691  1
  O  O151  1  0.49137685  0.12716747  0.34601997  1
  O  O152  1  0.49412402  0.13106431  0.68984910  1
  O  O153  1  0.50258952  0.61834195  0.02647536  1
  O  O154  1  0.48976519  0.62471734  0.33991221  1
  O  O155  1  0.49419624  0.62130167  0.69230843  1
  O  O156  1  0.82938377  0.12571872  0.01212591  1
  O  O157  1  0.82468992  0.12575563  0.34437065  1
  O  O158  1  0.83799433  0.13184438  0.69142779  1
  O  O159  1  0.83051835  0.62187204  0.02675051  1
  O  O160  1  0.83798561  0.62298666  0.34875231  1
  O  O161  1  0.82704496  0.62033595  0.68560709  1
  O  O162  1  0.17513949  0.37758739  0.30400145  1
  O  O163  1  0.16689630  0.37797400  0.64114967  1
  O  O164  1  0.17284593  0.37567106  0.98777892  1
  O  O165  1  0.17532759  0.87419363  0.30907711  1
  O  O166  1  0.16387087  0.87265113  0.66147558  1
  O  O167  1  0.16418831  0.88136067  0.96916701  1
  O  O168  1  0.49456826  0.37197097  0.30773124  1
  O  O169  1  0.49697030  0.37780684  0.64102804  1
  O  O170  1  0.50559898  0.37359418  0.97555955  1
  O  O171  1  0.50554930  0.87623815  0.32224172  1
  O  O172  1  0.50382463  0.86886036  0.64329970  1
  O  O173  1  0.49414428  0.88046234  0.97615791  1
  O  O174  1  0.83630075  0.37769043  0.31039023  1
  O  O175  1  0.84647529  0.37795254  0.64372288  1
  O  O176  1  0.83868695  0.37596088  0.97488988  1
  O  O177  1  0.82788515  0.87300683  0.30813941  1
  O  O178  1  0.83383519  0.86954980  0.65575188  1
  O  O179  1  0.84305064  0.87386453  0.98922555  1
  O  O180  1  -0.00030369  0.37784917  0.17839937  1
  O  O181  1  0.01072152  0.37832282  0.52634100  1
  O  O182  1  -0.00508023  0.37378224  0.86396181  1
  O  O183  1  -0.00065307  0.87243225  0.17829863  1
  O  O184  1  -0.00175414  0.87042983  0.51454273  1
  O  O185  1  0.00923169  0.87652171  0.85926975  1
  O  O186  1  0.32717628  0.37319284  0.19035902  1
  O  O187  1  0.32405449  0.37648116  0.52445497  1
  O  O188  1  0.33683058  0.37387699  0.86189593  1
  O  O189  1  0.32145554  0.87357108  0.19075214  1
  O  O190  1  0.33902764  0.87476052  0.50686519  1
  O  O191  1  0.32842892  0.88094943  0.85660603  1
  O  O192  1  0.66234450  0.37385164  0.17605695  1
  O  O193  1  0.66172706  0.37837868  0.51747905  1
  O  O194  1  0.66609967  0.37735753  0.86276877  1
  O  O195  1  0.67098427  0.87408909  0.18872689  1
  O  O196  1  0.66004235  0.87047588  0.51938228  1
  O  O197  1  0.65852833  0.87343923  0.84335503  1
  O  O198  1  0.01041083  0.12548977  0.14338766  1
  O  O199  1  -0.00034370  0.12881766  0.48788518  1
  O  O200  1  -0.00459052  0.12974416  0.80820687  1
  O  O201  1  0.00446097  0.62427685  0.13969393  1
  O  O202  1  0.00399106  0.62199030  0.47787459  1
  O  O203  1  0.00535127  0.62030279  0.81409624  1
  O  O204  1  0.33540186  0.12940523  0.14044530  1
  O  O205  1  0.33523932  0.13009590  0.47634590  1
  O  O206  1  0.33601726  0.12789178  0.80660733  1
  O  O207  1  0.34413209  0.62597932  0.15526850  1
  O  O208  1  0.32907285  0.62046530  0.47223905  1
  O  O209  1  0.34171578  0.61934078  0.80892908  1
  O  O210  1  0.66283061  0.12879333  0.14117755  1
  O  O211  1  0.66917735  0.12571597  0.48078586  1
  O  O212  1  0.66573432  0.12717434  0.82113656  1
  O  O213  1  0.67428541  0.62058974  0.14115139  1
  O  O214  1  0.67211996  0.62408716  0.49332588  1
  O  O215  1  0.65707081  0.61991260  0.80363489  1
  O  O216  1  0.09181479  0.01022639  0.23854227  1
  O  O217  1  0.07958477  0.01164109  0.59253638  1
  O  O218  1  0.08455579  0.03108931  0.91742181  1
  O  O219  1  0.08340785  0.52286933  0.25134969  1
  O  O220  1  0.08456128  0.52712426  0.58403727  1
  O  O221  1  0.08281693  0.51997567  0.91623870  1
  O  O222  1  0.41557328  0.01736502  0.25011691  1
  O  O223  1  0.41150708  0.01731615  0.59284189  1
  O  O224  1  0.41401283  0.02711424  0.91866017  1
  O  O225  1  0.41097795  0.51022974  0.25139886  1
  O  O226  1  0.40588923  0.51320516  0.59055831  1
  O  O227  1  0.42445611  0.51265230  0.91078579  1
  O  O228  1  0.74041023  0.01254872  0.25975278  1
  O  O229  1  0.74864948  -0.00050015  0.58560131  1
  O  O230  1  0.75002959  0.01619167  0.91695557  1
  O  O231  1  0.75623360  0.50893226  0.23653774  1
  O  O232  1  0.75310746  0.50629016  0.58655406  1
  O  O233  1  0.74908091  0.52050080  0.91465253  1
  O  O234  1  0.25753909  0.22790143  0.25050230  1
  O  O235  1  0.25175472  0.23617122  0.58404405  1
  O  O236  1  0.25177449  0.22694678  0.91798364  1
  O  O237  1  0.24265654  0.72614135  0.24000253  1
  O  O238  1  0.24566621  0.72702449  0.57935837  1
  O  O239  1  0.24299881  0.73559370  0.90818860  1
  O  O240  1  0.58397763  0.22615605  0.25027397  1
  O  O241  1  0.58337582  0.24931011  0.58524328  1
  O  O242  1  0.58420741  0.22866151  0.92586200  1
  O  O243  1  0.57874457  0.73262515  0.24362638  1
  O  O244  1  0.58916031  0.73247930  0.59264110  1
  O  O245  1  0.58187314  0.72675441  0.91319733  1
  O  O246  1  0.92463550  0.23784589  0.25365873  1
  O  O247  1  0.92612496  0.23954671  0.59910836  1
  O  O248  1  0.92095235  0.22630081  0.92104472  1
  O  O249  1  0.91683492  0.72863039  0.24696831  1
  O  O250  1  0.92006257  0.72788418  0.58702286  1
  O  O251  1  0.91940477  0.72987421  0.92125367  1
  O  O252  1  0.07926458  0.48029418  0.08287835  1
  O  O253  1  0.09410254  0.48658284  0.42311937  1
  O  O254  1  0.07467673  0.48336949  0.74325027  1
  O  O255  1  0.08230714  0.97623653  0.07682695  1
  O  O256  1  0.08725725  0.99390698  0.41154394  1
  O  O257  1  0.08878801  0.99068962  0.75890596  1
  O  O258  1  0.41528895  0.47430433  0.08273638  1
  O  O259  1  0.41489268  0.47310086  0.42159411  1
  O  O260  1  0.41629010  0.47209234  0.75104462  1
  O  O261  1  0.40759346  0.98525984  0.07686074  1
  O  O262  1  0.42402839  0.98394415  0.41714174  1
  O  O263  1  0.42502058  0.98514719  0.76263238  1
  O  O264  1  0.74657789  0.47305603  0.07598576  1
  O  O265  1  0.75300437  0.48523322  0.42085378  1
  O  O266  1  0.74501635  0.47490973  0.74770280  1
  O  O267  1  0.75568573  0.98464780  0.09130677  1
  O  O268  1  0.74970814  0.97846094  0.41664923  1
  O  O269  1  0.74936442  0.98991119  0.74952163  1
  O  O270  1  0.24734314  0.26925829  0.08798283  1
  O  O271  1  0.25182085  0.27283929  0.41342182  1
  O  O272  1  0.25309347  0.26476447  0.74369268  1
  O  O273  1  0.24865901  0.77276863  0.07843989  1
  O  O274  1  0.26042002  0.76070703  0.40198804  1
  O  O275  1  0.25207103  0.75437311  0.74854901  1
  O  O276  1  0.57572971  0.26982614  0.08708229  1
  O  O277  1  0.57948262  0.26306944  0.41862509  1
  O  O278  1  0.57969355  0.27396812  0.75404928  1
  O  O279  1  0.58561136  0.75179104  0.08049029  1
  O  O280  1  0.58610006  0.76591884  0.41674688  1
  O  O281  1  0.58022824  0.76721912  0.75086244  1
  O  O282  1  0.91225870  0.27085461  0.08540175  1
  O  O283  1  0.91292188  0.27026874  0.43079702  1
  O  O284  1  0.91011219  0.27544485  0.76074902  1
  O  O285  1  0.92055577  0.76377295  0.08410465  1
  O  O286  1  0.91670343  0.75377448  0.41569456  1
  O  O287  1  0.92312941  0.75288186  0.74904769  1
  O  O288  1  0.24853310  0.48316399  0.08512840  1
  O  O289  1  0.25354831  0.47537300  0.41161220  1
  O  O290  1  0.25641300  0.48511386  0.73824513  1
  O  O291  1  0.24532039  0.97668450  0.08020494  1
  O  O292  1  0.26056751  0.99245167  0.40431010  1
  O  O293  1  0.24811239  0.99248046  0.75700998  1
  O  O294  1  0.58309220  0.47763414  0.07790413  1
  O  O295  1  0.57690038  0.48702346  0.42047486  1
  O  O296  1  0.57964828  0.47256958  0.75526901  1
  O  O297  1  0.58268326  0.99813228  0.07997644  1
  O  O298  1  0.59117947  0.98574423  0.41083717  1
  O  O299  1  0.58301199  0.98224801  0.74755831  1
  O  O300  1  0.90887709  0.48029230  0.08851575  1
  O  O301  1  0.91494674  0.48412307  0.42958177  1
  O  O302  1  0.91051532  0.47900080  0.75927970  1
  O  O303  1  0.92114761  0.98400883  0.08168976  1
  O  O304  1  0.91416890  0.99172674  0.41764808  1
  O  O305  1  0.92036119  0.99231311  0.75303286  1
  O  O306  1  0.07622154  0.27077439  0.07605999  1
  O  O307  1  0.08930302  0.26719043  0.41955664  1
  O  O308  1  0.07425969  0.26655386  0.74608464  1
  O  O309  1  0.08621757  0.77179602  0.08492369  1
  O  O310  1  0.08880643  0.75119035  0.41745134  1
  O  O311  1  0.08962225  0.75874530  0.75894981  1
  O  O312  1  0.41191140  0.27895574  0.08046691  1
  O  O313  1  0.41547813  0.27575608  0.41861540  1
  O  O314  1  0.41761697  0.27530968  0.75340834  1
  O  O315  1  0.41168539  0.76634270  0.08226684  1
  O  O316  1  0.42302312  0.76709867  0.41817878  1
  O  O317  1  0.42407033  0.76606019  0.75777501  1
  O  O318  1  0.74613077  0.27070869  0.07765630  1
  O  O319  1  0.75115277  0.26654876  0.41953543  1
  O  O320  1  0.74793788  0.27934393  0.74577901  1
  O  O321  1  0.75761423  0.76361750  0.09082747  1
  O  O322  1  0.74831981  0.76915950  0.41297534  1
  O  O323  1  0.74250882  0.75705558  0.74318128  1
  O  O324  1  0.25162948  0.02376207  0.24444007  1
  O  O325  1  0.25109747  0.01505263  0.58895150  1
  O  O326  1  0.25072362  0.02810973  0.91844599  1
  O  O327  1  0.24701508  0.52420941  0.24648187  1
  O  O328  1  0.24498530  0.52360633  0.57605971  1
  O  O329  1  0.24673690  0.51731515  0.90826530  1
  O  O330  1  0.58210106  0.02432921  0.24882185  1
  O  O331  1  0.58102208  0.00354488  0.57930753  1
  O  O332  1  0.57863843  0.02188847  0.91456730  1
  O  O333  1  0.57516282  0.51323588  0.23570802  1
  O  O334  1  0.58964379  0.51221011  0.59468613  1
  O  O335  1  0.58486264  0.52431337  0.91696366  1
  O  O336  1  0.91898192  0.00835502  0.24987337  1
  O  O337  1  0.92006873  0.01178343  0.59184511  1
  O  O338  1  0.92067776  0.02240933  0.91791591  1
  O  O339  1  0.92080547  0.52529165  0.25090837  1
  O  O340  1  0.92499179  0.51760725  0.59638131  1
  O  O341  1  0.92085724  0.51866283  0.92687945  1
  O  O342  1  0.09417937  0.24348004  0.23719451  1
  O  O343  1  0.08220483  0.23677917  0.58803189  1
  O  O344  1  0.08430411  0.22461316  0.91229964  1
  O  O345  1  0.08125021  0.72567684  0.25045159  1
  O  O346  1  0.08201909  0.72721151  0.58800248  1
  O  O347  1  0.08045572  0.72764793  0.92101189  1
  O  O348  1  0.41745498  0.23099823  0.24484558  1
  O  O349  1  0.40908210  0.24069689  0.59167421  1
  O  O350  1  0.41889590  0.22871730  0.91749374  1
  O  O351  1  0.41047080  0.74142506  0.25402102  1
  O  O352  1  0.41093984  0.73003430  0.59200469  1
  O  O353  1  0.41910350  0.73803565  0.91395239  1
  O  O354  1  0.74595447  0.24069756  0.24835222  1
  O  O355  1  0.75302416  0.25443367  0.58415553  1
  O  O356  1  0.75599651  0.23445255  0.91038147  1
  O  O357  1  0.75342701  0.73310522  0.24684556  1
  O  O358  1  0.75233621  0.73686250  0.58337782  1
  O  O359  1  0.74555433  0.72878223  0.91789261  1
