# generated using pymatgen
data_Ba17Sr5La8Pr42Mn72O216
_symmetry_space_group_name_H-M   'P 1'
_cell_length_a   16.67295036
_cell_length_b   15.70387604
_cell_length_c   16.81775232
_cell_angle_alpha   89.99787080
_cell_angle_beta   89.97169975
_cell_angle_gamma   89.99876829
_symmetry_Int_Tables_number   1
_chemical_formula_structural   Ba17Sr5La8Pr42Mn72O216
_chemical_formula_sum   'Ba17 Sr5 La8 Pr42 Mn72 O216'
_cell_volume   4403.39063284
_cell_formula_units_Z   1
loop_
 _symmetry_equiv_pos_site_id
 _symmetry_equiv_pos_as_xyz
  1  'x, y, z'
loop_
 _atom_site_type_symbol
 _atom_site_label
 _atom_site_symmetry_multiplicity
 _atom_site_fract_x
 _atom_site_fract_y
 _atom_site_fract_z
 _atom_site_occupancy
  Ba  Ba0  1  0.83186587  0.62311365  0.16932932  1
  Ba  Ba1  1  0.00098452  0.12685283  0.66431638  1
  Ba  Ba2  1  -0.00161534  0.62493664  0.33526258  1
  Ba  Ba3  1  0.33485609  0.87345690  -0.00012790  1
  Ba  Ba4  1  0.16658812  0.37421230  0.16175160  1
  Ba  Ba5  1  0.66566032  0.12675768  0.66892030  1
  Ba  Ba6  1  0.50007320  0.12584281  0.16710349  1
  Ba  Ba7  1  0.16515666  0.62526308  0.49965126  1
  Ba  Ba8  1  0.66671761  0.87602016  0.33576799  1
  Ba  Ba9  1  0.00224669  0.87720753  0.66783068  1
  Ba  Ba10  1  0.33225862  0.62353575  0.66380780  1
  Ba  Ba11  1  0.83080756  0.37534887  0.16708120  1
  Ba  Ba12  1  0.33417784  0.12559085  0.33137678  1
  Ba  Ba13  1  0.16679227  0.87555948  0.16299847  1
  Ba  Ba14  1  0.83252481  0.62494058  0.50217597  1
  Ba  Ba15  1  0.49922646  0.62463062  0.50372621  1
  Ba  Ba16  1  -0.00016319  0.87629027  0.00062212  1
  Sr  Sr17  1  0.16872037  0.87565469  0.49784112  1
  Sr  Sr18  1  0.83421681  0.62444196  0.83538611  1
  Sr  Sr19  1  0.00323533  0.12666114  0.33177368  1
  Sr  Sr20  1  0.83296120  0.37586111  0.83150687  1
  Sr  Sr21  1  -0.00124500  0.37572414  0.66714949  1
  La  La22  1  0.16611788  0.37329222  0.49419407  1
  La  La23  1  0.66512250  0.62287418  1.00107802  1
  La  La24  1  0.49968964  0.37202405  0.16850133  1
  La  La25  1  0.50069639  0.87888768  0.16762300  1
  La  La26  1  0.66914142  0.37796086  0.66909115  1
  La  La27  1  -0.00017897  0.87378836  0.33593895  1
  La  La28  1  0.66689764  0.37563733  0.33441497  1
  La  La29  1  0.66868884  0.87251627  0.66732385  1
  Pr  Pr30  1  0.83210719  0.12238303  0.50395171  1
  Pr  Pr31  1  0.16922495  0.12041713  0.16579347  1
  Pr  Pr32  1  0.32125235  0.62407231  0.99570609  1
  Pr  Pr33  1  0.66314333  0.62508537  0.33088559  1
  Pr  Pr34  1  0.17292663  0.87630725  0.82681455  1
  Pr  Pr35  1  0.15830479  0.62939844  0.16869950  1
  Pr  Pr36  1  0.49438061  0.62683493  0.17368554  1
  Pr  Pr37  1  0.83678926  0.12494756  0.16931545  1
  Pr  Pr38  1  0.84354886  0.12643687  0.83550747  1
  Pr  Pr39  1  0.66766126  0.62262673  0.66607045  1
  Pr  Pr40  1  0.33577461  0.86894175  0.66851282  1
  Pr  Pr41  1  0.49519749  0.62394500  0.83828083  1
  Pr  Pr42  1  -0.00299971  0.62201149  1.00129172  1
  Pr  Pr43  1  0.50209578  0.12625560  0.84179816  1
  Pr  Pr44  1  0.33258852  0.12431980  0.66156485  1
  Pr  Pr45  1  0.83843400  0.87931393  0.49998400  1
  Pr  Pr46  1  0.83522919  0.87181166  0.16638034  1
  Pr  Pr47  1  0.16855397  0.37346854  0.82562981  1
  Pr  Pr48  1  -0.00694306  0.37776794  0.33509796  1
  Pr  Pr49  1  0.33015323  0.12483354  0.99715279  1
  Pr  Pr50  1  0.16317790  0.12345273  0.49869044  1
  Pr  Pr51  1  -0.00752327  0.37635426  0.00135088  1
  Pr  Pr52  1  0.33735077  0.37640676  0.00158935  1
  Pr  Pr53  1  0.66834708  0.87386044  0.00589778  1
  Pr  Pr54  1  0.50216731  0.37479393  0.50160837  1
  Pr  Pr55  1  0.66812645  0.12536711  0.33076641  1
  Pr  Pr56  1  0.33441287  0.37167846  0.33528149  1
  Pr  Pr57  1  0.00840384  0.12925866  0.99789211  1
  Pr  Pr58  1  0.67362116  0.12726308  0.99561940  1
  Pr  Pr59  1  0.15676564  0.62587773  0.82864777  1
  Pr  Pr60  1  0.49916627  0.12217959  0.50254659  1
  Pr  Pr61  1  -0.00191451  0.62288051  0.65851693  1
  Pr  Pr62  1  0.16303757  0.12380293  0.83012702  1
  Pr  Pr63  1  0.50413082  0.37424241  0.83214745  1
  Pr  Pr64  1  0.83452453  0.36897875  0.49968330  1
  Pr  Pr65  1  0.66664728  0.37570896  0.00287798  1
  Pr  Pr66  1  0.50027005  0.87422101  0.50074384  1
  Pr  Pr67  1  0.83462758  0.87548023  0.83102616  1
  Pr  Pr68  1  0.50555913  0.87505407  0.83341703  1
  Pr  Pr69  1  0.33539971  0.37894599  0.66569872  1
  Pr  Pr70  1  0.32439907  0.62425544  0.33268576  1
  Pr  Pr71  1  0.33510102  0.87734066  0.33451611  1
  Mn  Mn72  1  -0.00150341  0.00366019  0.16728314  1
  Mn  Mn73  1  0.00128711  0.00052390  0.49695237  1
  Mn  Mn74  1  0.00150971  0.00042150  0.83516051  1
  Mn  Mn75  1  -0.00065772  0.49702390  0.16633768  1
  Mn  Mn76  1  -0.00121793  0.49656965  0.50218214  1
  Mn  Mn77  1  -0.00054838  0.49951731  0.83169982  1
  Mn  Mn78  1  0.33454857  -0.00026839  0.16526490  1
  Mn  Mn79  1  0.33376631  0.00033225  0.50022338  1
  Mn  Mn80  1  0.33640046  0.00160203  0.82927987  1
  Mn  Mn81  1  0.33358406  0.50067906  0.16470232  1
  Mn  Mn82  1  0.33316902  0.49698694  0.49896676  1
  Mn  Mn83  1  0.33219144  0.49912795  0.83436714  1
  Mn  Mn84  1  0.66811228  0.00103148  0.16627952  1
  Mn  Mn85  1  0.66540909  0.00106489  0.50154229  1
  Mn  Mn86  1  0.66811955  -0.00007113  0.83585958  1
  Mn  Mn87  1  0.66224280  0.49924463  0.16698111  1
  Mn  Mn88  1  0.66710710  0.49869438  0.50201892  1
  Mn  Mn89  1  0.66612505  0.50094317  0.83470025  1
  Mn  Mn90  1  -0.00022170  0.24944165  0.16501899  1
  Mn  Mn91  1  -0.00014910  0.24981982  0.49729090  1
  Mn  Mn92  1  0.00154444  0.25261203  0.83252484  1
  Mn  Mn93  1  -0.00189542  0.75134915  0.16675944  1
  Mn  Mn94  1  0.00000086  0.75182004  0.50156982  1
  Mn  Mn95  1  -0.00042987  0.74901610  0.83329534  1
  Mn  Mn96  1  0.33287737  0.25192028  0.16464315  1
  Mn  Mn97  1  0.33442041  0.24862923  0.50032389  1
  Mn  Mn98  1  0.33476156  0.25062812  0.83078257  1
  Mn  Mn99  1  0.33405356  0.74723874  0.16610480  1
  Mn  Mn100  1  0.33331383  0.75238913  0.49989178  1
  Mn  Mn101  1  0.33334598  0.74818963  0.83392583  1
  Mn  Mn102  1  0.66651709  0.24880626  0.16597751  1
  Mn  Mn103  1  0.66526140  0.24966263  0.49967988  1
  Mn  Mn104  1  0.66874456  0.25041943  0.83425531  1
  Mn  Mn105  1  0.66475808  0.75061169  0.16770012  1
  Mn  Mn106  1  0.66707946  0.75013450  0.50267721  1
  Mn  Mn107  1  0.66586676  0.74903660  0.83611789  1
  Mn  Mn108  1  0.16838202  0.25209755  -0.00591766  1
  Mn  Mn109  1  0.16563896  0.24962084  0.32913244  1
  Mn  Mn110  1  0.16911801  0.25007637  0.66260914  1
  Mn  Mn111  1  0.16432685  0.74683771  -0.00249291  1
  Mn  Mn112  1  0.16717872  0.75190359  0.33188372  1
  Mn  Mn113  1  0.16735460  0.75094843  0.66550815  1
  Mn  Mn114  1  0.49965996  0.25087794  0.00021753  1
  Mn  Mn115  1  0.50199621  0.25198564  0.33565076  1
  Mn  Mn116  1  0.49924288  0.24927694  0.66907348  1
  Mn  Mn117  1  0.50054300  0.74789486  0.00321868  1
  Mn  Mn118  1  0.49746424  0.74883444  0.33571453  1
  Mn  Mn119  1  0.50241795  0.75096613  0.66979573  1
  Mn  Mn120  1  0.83346394  0.25033209  -0.00036927  1
  Mn  Mn121  1  0.83314508  0.24798639  0.33384386  1
  Mn  Mn122  1  0.83312680  0.25046294  0.66730228  1
  Mn  Mn123  1  0.83249560  0.74928850  -0.00069557  1
  Mn  Mn124  1  0.83079773  0.75166491  0.33523734  1
  Mn  Mn125  1  0.83318667  0.75003387  0.67012338  1
  Mn  Mn126  1  0.16789026  0.00173719  -0.00340014  1
  Mn  Mn127  1  0.16659089  0.00041966  0.33200044  1
  Mn  Mn128  1  0.17078937  0.00103083  0.66356074  1
  Mn  Mn129  1  0.16485964  0.49888691  -0.00526599  1
  Mn  Mn130  1  0.16691712  0.49796504  0.32895417  1
  Mn  Mn131  1  0.16600176  0.49633327  0.66428384  1
  Mn  Mn132  1  0.50094145  0.00013889  0.00056171  1
  Mn  Mn133  1  0.50075442  -0.00011668  0.33532404  1
  Mn  Mn134  1  0.49997161  0.00050587  0.66966821  1
  Mn  Mn135  1  0.49898264  0.50037732  0.00305632  1
  Mn  Mn136  1  0.49804601  0.49990769  0.33479044  1
  Mn  Mn137  1  0.50141831  0.49744643  0.66955522  1
  Mn  Mn138  1  0.83351767  0.00149252  0.00180589  1
  Mn  Mn139  1  0.83470165  0.00254565  0.33354792  1
  Mn  Mn140  1  0.83181788  0.00075665  0.66790347  1
  Mn  Mn141  1  0.83155630  0.50114040  -0.00209490  1
  Mn  Mn142  1  0.83021010  0.49835022  0.33619684  1
  Mn  Mn143  1  0.83381620  0.49873581  0.66942231  1
  O  O144  1  0.16712515  0.13088834  0.01992087  1
  O  O145  1  0.16415711  0.12632027  0.35541616  1
  O  O146  1  0.17469732  0.12758151  0.68708269  1
  O  O147  1  0.16675901  0.61902056  0.02303410  1
  O  O148  1  0.17134862  0.62455320  0.34250453  1
  O  O149  1  0.15920005  0.62252769  0.68408194  1
  O  O150  1  0.49291543  0.12629165  0.01073703  1
  O  O151  1  0.50631539  0.13038931  0.35860930  1
  O  O152  1  0.49110479  0.12446214  0.69692522  1
  O  O153  1  0.50625658  0.62051282  0.02974858  1
  O  O154  1  0.50086972  0.62315171  0.34893546  1
  O  O155  1  0.50644486  0.62231759  0.69390716  1
  O  O156  1  0.82584410  0.12493421  0.02516389  1
  O  O157  1  0.82606653  0.12640162  0.36134422  1
  O  O158  1  0.83205659  0.12644085  0.69009777  1
  O  O159  1  0.83413587  0.62456552  0.01182265  1
  O  O160  1  0.82167231  0.62129899  0.34534633  1
  O  O161  1  0.83260793  0.62514204  0.68564223  1
  O  O162  1  0.17469262  0.37294325  0.31824355  1
  O  O163  1  0.17326582  0.36998014  0.64115826  1
  O  O164  1  0.17301095  0.37537746  0.96837242  1
  O  O165  1  0.17225679  0.87581956  0.31973249  1
  O  O166  1  0.17787176  0.87914881  0.65263534  1
  O  O167  1  0.16681472  0.87424766  0.97253561  1
  O  O168  1  0.50393165  0.37786146  0.31140986  1
  O  O169  1  0.50585472  0.37246047  0.64650135  1
  O  O170  1  0.49908944  0.37633383  0.97427239  1
  O  O171  1  0.49456769  0.86925571  0.31148596  1
  O  O172  1  0.50457823  0.87945002  0.64510928  1
  O  O173  1  0.50747114  0.87590419  0.97656727  1
  O  O174  1  0.83270131  0.37131740  0.32277641  1
  O  O175  1  0.82818075  0.37243435  0.64524563  1
  O  O176  1  0.83236962  0.37591079  0.98088239  1
  O  O177  1  0.83674592  0.88201973  0.31014751  1
  O  O178  1  0.82715542  0.87612617  0.64706091  1
  O  O179  1  0.82657959  0.87611298  0.97435763  1
  O  O180  1  0.00063586  0.37126187  0.18856143  1
  O  O181  1  -0.00332327  0.37195575  0.51722946  1
  O  O182  1  0.00970843  0.37446939  0.85918378  1
  O  O183  1  -0.00649420  0.88281998  0.18731794  1
  O  O184  1  -0.00674169  0.87741912  0.51003022  1
  O  O185  1  0.00087917  0.87623150  0.84513680  1
  O  O186  1  0.33453793  0.37838868  0.18984739  1
  O  O187  1  0.32907242  0.36889635  0.52173115  1
  O  O188  1  0.32519804  0.37430618  0.86027406  1
  O  O189  1  0.33652316  0.86935271  0.18780329  1
  O  O190  1  0.33481181  0.88086667  0.52434277  1
  O  O191  1  0.32380055  0.87483084  0.84477221  1
  O  O192  1  0.65970220  0.37409505  0.18761495  1
  O  O193  1  0.66255197  0.37336942  0.52579716  1
  O  O194  1  0.66116519  0.37377040  0.86041954  1
  O  O195  1  0.66691356  0.87716159  0.17947021  1
  O  O196  1  0.65917403  0.87852130  0.52347338  1
  O  O197  1  0.66374239  0.87528271  0.86317039  1
  O  O198  1  -0.00916794  0.12723540  0.14091544  1
  O  O199  1  0.00282183  0.12561752  0.48091690  1
  O  O200  1  -0.00061554  0.12640300  0.82104882  1
  O  O201  1  0.00474136  0.62058295  0.14807544  1
  O  O202  1  -0.00045046  0.62356163  0.49520488  1
  O  O203  1  0.00390750  0.62464662  0.80374395  1
  O  O204  1  0.33125716  0.12934490  0.14284175  1
  O  O205  1  0.34727586  0.12554794  0.48547904  1
  O  O206  1  0.34716003  0.12799404  0.80404039  1
  O  O207  1  0.34581050  0.62197320  0.13868919  1
  O  O208  1  0.33588371  0.62426506  0.47857236  1
  O  O209  1  0.34433792  0.62327645  0.81938457  1
  O  O210  1  0.67231552  0.12409114  0.14079242  1
  O  O211  1  0.66633739  0.12657944  0.47489628  1
  O  O212  1  0.66242111  0.12521866  0.82311088  1
  O  O213  1  0.65769869  0.62446473  0.14654117  1
  O  O214  1  0.66717012  0.62031859  0.47610119  1
  O  O215  1  0.66046313  0.62733454  0.80835634  1
  O  O216  1  0.08310459  0.02056075  0.24414840  1
  O  O217  1  0.08985236  0.01348878  0.57695373  1
  O  O218  1  0.08599837  0.02305757  0.91632935  1
  O  O219  1  0.08652492  0.51162401  0.24380443  1
  O  O220  1  0.07803181  0.50717163  0.59038565  1
  O  O221  1  0.08047646  0.52589351  0.91491237  1
  O  O222  1  0.41827174  0.00340662  0.25264238  1
  O  O223  1  0.41486476  0.01915247  0.58885894  1
  O  O224  1  0.41729076  0.01804538  0.91345849  1
  O  O225  1  0.41077339  0.51888389  0.25480205  1
  O  O226  1  0.41732739  0.49803039  0.58785086  1
  O  O227  1  0.41197756  0.51789835  0.92813476  1
  O  O228  1  0.75371126  0.02434306  0.24948047  1
  O  O229  1  0.75020472  0.01441762  0.58028268  1
  O  O230  1  0.75504933  0.02319452  0.91523752  1
  O  O231  1  0.73605254  0.50836596  0.26037969  1
  O  O232  1  0.74424748  0.51178335  0.59119475  1
  O  O233  1  0.74258794  0.51707967  0.91886102  1
  O  O234  1  0.24665038  0.23373697  0.24093350  1
  O  O235  1  0.25089470  0.22399722  0.57871371  1
  O  O236  1  0.25188543  0.22145934  0.90824547  1
  O  O237  1  0.24872045  0.72633360  0.24234889  1
  O  O238  1  0.24945194  0.74518226  0.57994504  1
  O  O239  1  0.24271112  0.72642101  0.90919908  1
  O  O240  1  0.59087012  0.23613127  0.25965819  1
  O  O241  1  0.57581581  0.23246610  0.57570623  1
  O  O242  1  0.58645092  0.23230643  0.92104878  1
  O  O243  1  0.57570578  0.73128801  0.24821125  1
  O  O244  1  0.58792082  0.73470844  0.59314774  1
  O  O245  1  0.57674017  0.72660096  0.91338176  1
  O  O246  1  0.91451862  0.23149068  0.25209160  1
  O  O247  1  0.91242043  0.23593041  0.57604711  1
  O  O248  1  0.92062059  0.23180427  0.92207270  1
  O  O249  1  0.91297796  0.74823115  0.24992056  1
  O  O250  1  0.91662200  0.73955482  0.59024021  1
  O  O251  1  0.91758287  0.73273985  0.91716740  1
  O  O252  1  0.07863939  0.48168727  0.07059016  1
  O  O253  1  0.08205167  0.47736108  0.41545792  1
  O  O254  1  0.09053197  0.48049633  0.75524268  1
  O  O255  1  0.07888605  1.00121914  0.08296981  1
  O  O256  1  0.08186399  0.98417438  0.41240194  1
  O  O257  1  0.09768306  0.99115680  0.75574256  1
  O  O258  1  0.42222418  0.47445057  0.08913608  1
  O  O259  1  0.41854878  0.47266759  0.41720941  1
  O  O260  1  0.42063598  0.47603814  0.75693701  1
  O  O261  1  0.42303430  0.98419613  0.08640385  1
  O  O262  1  0.41807449  0.97784354  0.42194162  1
  O  O263  1  0.42110716  0.97096815  0.75231996  1
  O  O264  1  0.74196199  0.48932588  0.07788371  1
  O  O265  1  0.75012325  0.47318326  0.42333678  1
  O  O266  1  0.74743323  0.48389095  0.74959557  1
  O  O267  1  0.74792096  0.97882079  0.07984441  1
  O  O268  1  0.75713918  0.98639896  0.42257311  1
  O  O269  1  0.74693797  0.97633830  0.75437328  1
  O  O270  1  0.25703795  0.26553326  0.06738782  1
  O  O271  1  0.25196928  0.26607833  0.41719883  1
  O  O272  1  0.25522322  0.27096683  0.74610643  1
  O  O273  1  0.25421103  0.74986281  0.07697889  1
  O  O274  1  0.25875239  0.76326635  0.40593479  1
  O  O275  1  0.25416127  0.76387669  0.74504313  1
  O  O276  1  0.57978625  0.27029466  0.08341105  1
  O  O277  1  0.58280144  0.27557686  0.41856741  1
  O  O278  1  0.58148983  0.26771170  0.75532922  1
  O  O279  1  0.58865642  0.76908873  0.07845350  1
  O  O280  1  0.57926582  0.76285327  0.42185978  1
  O  O281  1  0.58667308  0.77559370  0.75328316  1
  O  O282  1  0.91614187  0.26518048  0.08020640  1
  O  O283  1  0.91496715  0.26892411  0.41661668  1
  O  O284  1  0.91617422  0.26348913  0.75653016  1
  O  O285  1  0.91228656  0.76452293  0.08625137  1
  O  O286  1  0.91608019  0.76953070  0.41648001  1
  O  O287  1  0.91229060  0.76615922  0.75621915  1
  O  O288  1  0.26043612  0.48640406  0.06822194  1
  O  O289  1  0.25563323  0.48275580  0.40746700  1
  O  O290  1  0.25219278  0.47754818  0.74406794  1
  O  O291  1  0.25266480  0.99829179  0.07530550  1
  O  O292  1  0.25539675  0.98571883  0.41527642  1
  O  O293  1  0.26153780  0.98847370  0.74049403  1
  O  O294  1  0.58321407  0.47505859  0.07966977  1
  O  O295  1  0.58469223  0.47829142  0.41765830  1
  O  O296  1  0.58393234  0.47619507  0.75307170  1
  O  O297  1  0.58463593  0.98228610  0.08278307  1
  O  O298  1  0.57733708  0.98814180  0.42494861  1
  O  O299  1  0.58300513  0.97990002  0.75433297  1
  O  O300  1  0.91975639  0.48736171  0.07817440  1
  O  O301  1  0.91481245  0.47907522  0.42014936  1
  O  O302  1  0.91868297  0.48252050  0.75126722  1
  O  O303  1  0.90448688  0.98588938  0.09379489  1
  O  O304  1  0.91707743  0.98243648  0.41303485  1
  O  O305  1  0.90945488  0.99015412  0.76115271  1
  O  O306  1  0.07668202  0.26547134  0.06743555  1
  O  O307  1  0.07939867  0.27179057  0.40963599  1
  O  O308  1  0.08937584  0.26600135  0.74905245  1
  O  O309  1  0.08340683  0.75273277  0.08143307  1
  O  O310  1  0.08373308  0.76652072  0.41473954  1
  O  O311  1  0.09481638  0.76407465  0.76066844  1
  O  O312  1  0.41685258  0.27391606  0.08215922  1
  O  O313  1  0.41939759  0.27479815  0.42054754  1
  O  O314  1  0.41651220  0.28103094  0.75303254  1
  O  O315  1  0.42982448  0.76458802  0.09767525  1
  O  O316  1  0.41720125  0.77549199  0.41935388  1
  O  O317  1  0.42387693  0.77019948  0.75763441  1
  O  O318  1  0.74099003  0.26458937  0.07177853  1
  O  O319  1  0.74575481  0.27015519  0.41511048  1
  O  O320  1  0.74469627  0.27013732  0.74878917  1
  O  O321  1  0.75144835  0.76882132  0.08541556  1
  O  O322  1  0.75544941  0.76989804  0.42814667  1
  O  O323  1  0.75096880  0.77244724  0.75780291  1
  O  O324  1  0.24628169  0.01482851  0.24317598  1
  O  O325  1  0.24990358  0.02654802  0.57752068  1
  O  O326  1  0.25097379  0.02591257  0.90578222  1
  O  O327  1  0.24944510  0.52522884  0.23886202  1
  O  O328  1  0.24695462  0.50299312  0.57860423  1
  O  O329  1  0.24249363  0.52462248  0.90768299  1
  O  O330  1  0.59023725  0.01617830  0.25536677  1
  O  O331  1  0.57570480  0.01989215  0.58263156  1
  O  O332  1  0.58511417  0.02097005  0.91971498  1
  O  O333  1  0.57627733  0.51946100  0.24846511  1
  O  O334  1  0.58783168  0.51309907  0.59111261  1
  O  O335  1  0.57679455  0.52156261  0.91618507  1
  O  O336  1  0.91575392  0.02476143  0.25119237  1
  O  O337  1  0.91187034  0.01326064  0.57502295  1
  O  O338  1  0.91860945  0.02383141  0.92577148  1
  O  O339  1  0.91654014  0.50199660  0.25543431  1
  O  O340  1  0.91762581  0.50932729  0.59027982  1
  O  O341  1  0.92027248  0.51441930  0.91786344  1
  O  O342  1  0.08584567  0.22745303  0.23873680  1
  O  O343  1  0.09185475  0.23743878  0.57076724  1
  O  O344  1  0.08939354  0.22886736  0.91020503  1
  O  O345  1  0.08477885  0.74127884  0.24757323  1
  O  O346  1  0.07873467  0.73974399  0.59244679  1
  O  O347  1  0.07871636  0.72199241  0.91813717  1
  O  O348  1  0.41986634  0.24894055  0.25316351  1
  O  O349  1  0.41403998  0.23391656  0.58797839  1
  O  O350  1  0.41689892  0.23412715  0.91468505  1
  O  O351  1  0.40883535  0.72622843  0.25798395  1
  O  O352  1  0.41700103  0.74912199  0.58768796  1
  O  O353  1  0.41353607  0.72861136  0.92615378  1
  O  O354  1  0.75246997  0.22751406  0.24957940  1
  O  O355  1  0.75297937  0.23509743  0.57340495  1
  O  O356  1  0.75584377  0.22850171  0.91232655  1
  O  O357  1  0.73920179  0.73635317  0.25731656  1
  O  O358  1  0.74283644  0.73748900  0.59643653  1
  O  O359  1  0.74027287  0.73177832  0.92323253  1
