# generated using pymatgen
data_Ba17Sr5La8Pr42Mn72O216
_symmetry_space_group_name_H-M   'P 1'
_cell_length_a   16.67284010
_cell_length_b   15.70847244
_cell_length_c   16.81914977
_cell_angle_alpha   89.99721077
_cell_angle_beta   90.00396096
_cell_angle_gamma   90.02347357
_symmetry_Int_Tables_number   1
_chemical_formula_structural   Ba17Sr5La8Pr42Mn72O216
_chemical_formula_sum   'Ba17 Sr5 La8 Pr42 Mn72 O216'
_cell_volume   4405.01649788
_cell_formula_units_Z   1
loop_
 _symmetry_equiv_pos_site_id
 _symmetry_equiv_pos_as_xyz
  1  'x, y, z'
loop_
 _atom_site_type_symbol
 _atom_site_label
 _atom_site_symmetry_multiplicity
 _atom_site_fract_x
 _atom_site_fract_y
 _atom_site_fract_z
 _atom_site_occupancy
  Ba  Ba0  1  0.49674623  0.37671420  0.16216848  1
  Ba  Ba1  1  -0.00162269  0.37396949  0.00142278  1
  Ba  Ba2  1  0.67007209  0.62546428  0.66751867  1
  Ba  Ba3  1  0.83561356  0.62681964  0.16816058  1
  Ba  Ba4  1  0.33358930  0.37754070  -0.00005754  1
  Ba  Ba5  1  0.16582130  0.12356616  0.16960255  1
  Ba  Ba6  1  0.49997227  0.37539033  0.83015478  1
  Ba  Ba7  1  0.16848700  0.12572460  0.50157165  1
  Ba  Ba8  1  -0.00189567  0.87548199  0.66906546  1
  Ba  Ba9  1  0.00210390  0.62563865  0.66846866  1
  Ba  Ba10  1  0.16793460  0.62727394  0.83627613  1
  Ba  Ba11  1  0.66568710  0.87548047  0.66544769  1
  Ba  Ba12  1  0.66511898  0.12128256  0.99883531  1
  Ba  Ba13  1  0.33203659  0.12396520  0.33143524  1
  Ba  Ba14  1  0.16833156  0.12273072  0.83621231  1
  Ba  Ba15  1  0.83514904  0.62297401  0.50202745  1
  Ba  Ba16  1  0.33607581  0.12546224  0.66416989  1
  Sr  Sr17  1  0.50239253  0.12468065  0.83219894  1
  Sr  Sr18  1  0.83206369  0.37132113  0.83438304  1
  Sr  Sr19  1  0.66258354  0.87609233  -0.00099089  1
  Sr  Sr20  1  0.50843988  0.62454040  0.83026382  1
  Sr  Sr21  1  0.66506683  0.87655076  0.33574495  1
  La  La22  1  -0.00036187  0.12652402  0.66639550  1
  La  La23  1  0.49727998  0.37672808  0.49438547  1
  La  La24  1  0.83013435  0.37505707  0.15947390  1
  La  La25  1  -0.00129488  0.37530476  0.67329057  1
  La  La26  1  0.66466836  0.37709804  0.33200044  1
  La  La27  1  0.49685864  0.12656381  0.16366924  1
  La  La28  1  0.16212939  0.87795736  0.50310093  1
  La  La29  1  0.16880428  0.62248288  0.16826290  1
  Pr  Pr30  1  -0.00046128  0.12656555  1.00002935  1
  Pr  Pr31  1  0.00803529  0.62652316  0.33580853  1
  Pr  Pr32  1  0.83036462  0.12232094  0.50190921  1
  Pr  Pr33  1  0.00139221  0.62250085  0.99651883  1
  Pr  Pr34  1  0.17225070  0.62684964  0.51156299  1
  Pr  Pr35  1  0.67276621  0.62675731  0.32852847  1
  Pr  Pr36  1  0.83328083  0.12087684  0.83593087  1
  Pr  Pr37  1  -0.00235316  0.37488702  0.33326710  1
  Pr  Pr38  1  0.34468913  0.62420237  0.66321100  1
  Pr  Pr39  1  0.32954814  0.87567269  0.66738311  1
  Pr  Pr40  1  0.34586455  0.62544306  0.99439150  1
  Pr  Pr41  1  0.51290098  0.62758469  0.49963533  1
  Pr  Pr42  1  0.16233929  0.87567077  0.83230647  1
  Pr  Pr43  1  0.00023209  0.87479270  0.00304467  1
  Pr  Pr44  1  0.32635875  0.87427578  0.33523811  1
  Pr  Pr45  1  0.67015106  0.62329769  0.99266003  1
  Pr  Pr46  1  0.83507780  0.62881269  0.83728691  1
  Pr  Pr47  1  0.83264165  0.37765304  0.50132525  1
  Pr  Pr48  1  0.83037856  0.12535001  0.16892968  1
  Pr  Pr49  1  0.82719328  0.87672609  0.83096533  1
  Pr  Pr50  1  0.16539561  0.37109478  0.16387044  1
  Pr  Pr51  1  0.34529080  0.62617052  0.33088988  1
  Pr  Pr52  1  0.49864581  0.87749340  0.82758527  1
  Pr  Pr53  1  0.32710259  0.87196139  -0.00179069  1
  Pr  Pr54  1  0.66827800  0.37734067  0.66900815  1
  Pr  Pr55  1  0.83275451  0.86863307  0.50091769  1
  Pr  Pr56  1  0.50984639  0.62409249  0.16059455  1
  Pr  Pr57  1  0.33751472  0.12748788  0.99228682  1
  Pr  Pr58  1  0.66490567  0.12783544  0.66751113  1
  Pr  Pr59  1  0.66152126  0.37320007  -0.00017739  1
  Pr  Pr60  1  0.32503496  0.37440580  0.67010476  1
  Pr  Pr61  1  0.50314123  0.12308753  0.50005366  1
  Pr  Pr62  1  -0.00128997  0.12268038  0.33101372  1
  Pr  Pr63  1  0.16492459  0.37407974  0.83384904  1
  Pr  Pr64  1  0.82958755  0.87575090  0.16615834  1
  Pr  Pr65  1  0.16157926  0.37338933  0.50302424  1
  Pr  Pr66  1  -0.00347924  0.87510546  0.33935815  1
  Pr  Pr67  1  0.66405665  0.12493994  0.32608220  1
  Pr  Pr68  1  0.49836559  0.87479530  0.49425092  1
  Pr  Pr69  1  0.16146935  0.87619974  0.17094480  1
  Pr  Pr70  1  0.49488948  0.87517635  0.16225544  1
  Pr  Pr71  1  0.32329439  0.37590241  0.33221836  1
  Mn  Mn72  1  -0.00350560  -0.00228161  0.16909316  1
  Mn  Mn73  1  -0.00190527  0.00171148  0.50070750  1
  Mn  Mn74  1  -0.00162634  0.00046549  0.83736803  1
  Mn  Mn75  1  0.00094329  0.50195246  0.16944855  1
  Mn  Mn76  1  0.00163387  0.49702672  0.50120087  1
  Mn  Mn77  1  -0.00113058  0.49892011  0.83536637  1
  Mn  Mn78  1  0.33267947  -0.00537173  0.16397884  1
  Mn  Mn79  1  0.33548997  -0.00242799  0.49882436  1
  Mn  Mn80  1  0.33521505  -0.00183561  0.83378486  1
  Mn  Mn81  1  0.33276375  0.50558749  0.16677431  1
  Mn  Mn82  1  0.33382193  0.50074821  0.49802101  1
  Mn  Mn83  1  0.33404176  0.50150879  0.83095183  1
  Mn  Mn84  1  0.66408766  -0.00217768  0.16727695  1
  Mn  Mn85  1  0.66696659  0.00127701  0.49811869  1
  Mn  Mn86  1  0.66518325  -0.00050833  0.83295552  1
  Mn  Mn87  1  0.66764772  0.50159583  0.16465318  1
  Mn  Mn88  1  0.66790959  0.49681675  0.49866409  1
  Mn  Mn89  1  0.67006120  0.49855084  0.83251896  1
  Mn  Mn90  1  -0.00316384  0.24872058  0.16927449  1
  Mn  Mn91  1  -0.00251941  0.25050098  0.50033179  1
  Mn  Mn92  1  0.00001412  0.24883459  0.83427930  1
  Mn  Mn93  1  0.00057390  0.75062286  0.16955151  1
  Mn  Mn94  1  0.00064480  0.75038521  0.50080819  1
  Mn  Mn95  1  -0.00185814  0.75075713  0.83844056  1
  Mn  Mn96  1  0.33223677  0.24897068  0.16497775  1
  Mn  Mn97  1  0.33505528  0.25356211  0.49858590  1
  Mn  Mn98  1  0.33416191  0.25052762  0.83184113  1
  Mn  Mn99  1  0.33301701  0.74884973  0.16612483  1
  Mn  Mn100  1  0.33442374  0.74906049  0.49825375  1
  Mn  Mn101  1  0.33684116  0.74908086  0.83224886  1
  Mn  Mn102  1  0.66520316  0.24883988  0.16624303  1
  Mn  Mn103  1  0.66708319  0.24953063  0.49799117  1
  Mn  Mn104  1  0.66788106  0.24998085  0.83227937  1
  Mn  Mn105  1  0.66568114  0.75404272  0.16468609  1
  Mn  Mn106  1  0.66759337  0.75316928  0.49660228  1
  Mn  Mn107  1  0.66671988  0.75148761  0.83457014  1
  Mn  Mn108  1  0.16762548  0.24862500  0.00172825  1
  Mn  Mn109  1  0.16377875  0.25271806  0.33435506  1
  Mn  Mn110  1  0.16539608  0.24987507  0.66779870  1
  Mn  Mn111  1  0.16558533  0.75118537  0.00489239  1
  Mn  Mn112  1  0.16730406  0.74768324  0.33826350  1
  Mn  Mn113  1  0.17002000  0.75090177  0.66977847  1
  Mn  Mn114  1  0.50003363  0.24856767  -0.00261042  1
  Mn  Mn115  1  0.49847064  0.25214637  0.33166922  1
  Mn  Mn116  1  0.50169389  0.25056445  0.66149732  1
  Mn  Mn117  1  0.50068053  0.75206264  -0.00409804  1
  Mn  Mn118  1  0.50084385  0.74945408  0.32836850  1
  Mn  Mn119  1  0.50010962  0.75046688  0.66261205  1
  Mn  Mn120  1  0.83159728  0.24810943  -0.00028425  1
  Mn  Mn121  1  0.83243821  0.25119058  0.33376046  1
  Mn  Mn122  1  0.83310786  0.24837152  0.66645288  1
  Mn  Mn123  1  0.83258761  0.75294822  0.00164271  1
  Mn  Mn124  1  0.83344649  0.75081101  0.33323119  1
  Mn  Mn125  1  0.83409442  0.75117578  0.66822523  1
  Mn  Mn126  1  0.16702489  -0.00228373  0.00287585  1
  Mn  Mn127  1  0.16443112  -0.00210414  0.33505405  1
  Mn  Mn128  1  0.16619791  -0.00053888  0.66866443  1
  Mn  Mn129  1  0.16669962  0.50108561  0.00370067  1
  Mn  Mn130  1  0.16690074  0.50230776  0.33785147  1
  Mn  Mn131  1  0.16877041  0.50098909  0.66798421  1
  Mn  Mn132  1  0.49721032  -0.00402144  -0.00300767  1
  Mn  Mn133  1  0.49867052  -0.00077595  0.33022159  1
  Mn  Mn134  1  0.50064235  0.00016341  0.66337034  1
  Mn  Mn135  1  0.50229568  0.50204958  -0.00329285  1
  Mn  Mn136  1  0.50014788  0.50127011  0.33034368  1
  Mn  Mn137  1  0.50146331  0.49975123  0.66063076  1
  Mn  Mn138  1  0.83394643  -0.00167509  0.00124801  1
  Mn  Mn139  1  0.83211601  0.00064350  0.33490194  1
  Mn  Mn140  1  0.83185712  0.00268491  0.66762780  1
  Mn  Mn141  1  0.83198783  0.49923753  0.00017065  1
  Mn  Mn142  1  0.83481617  0.49816110  0.33269294  1
  Mn  Mn143  1  0.83521220  0.49724139  0.66932441  1
  O  O144  1  0.17217821  0.12002987  0.01392926  1
  O  O145  1  0.15797103  0.12558295  0.34495048  1
  O  O146  1  0.16257031  0.12347329  0.67709673  1
  O  O147  1  0.15526062  0.62936209  0.02592401  1
  O  O148  1  0.15973017  0.62452079  0.36866139  1
  O  O149  1  0.17443664  0.62679885  0.67648701  1
  O  O150  1  0.49248147  0.11735045  0.01899967  1
  O  O151  1  0.50330304  0.12947057  0.35641541  1
  O  O152  1  0.50416470  0.12548468  0.68122081  1
  O  O153  1  0.50462128  0.62974649  0.01607426  1
  O  O154  1  0.49772017  0.62487987  0.35743681  1
  O  O155  1  0.49525807  0.62605201  0.67978146  1
  O  O156  1  0.83935153  0.12124095  0.02610655  1
  O  O157  1  0.82947483  0.12878623  0.35998005  1
  O  O158  1  0.83273190  0.12667508  0.69151090  1
  O  O159  1  0.82548864  0.62776624  0.01347324  1
  O  O160  1  0.82360326  0.62550390  0.34558844  1
  O  O161  1  0.83472635  0.62080070  0.68922750  1
  O  O162  1  0.16628936  0.38220255  0.30737267  1
  O  O163  1  0.16540310  0.37686309  0.64817804  1
  O  O164  1  0.16670674  0.37559856  0.98025933  1
  O  O165  1  0.16406082  0.86967057  0.31452183  1
  O  O166  1  0.17073300  0.87392427  0.64948890  1
  O  O167  1  0.16472902  0.87352812  0.97633308  1
  O  O168  1  0.50509627  0.37782730  0.31732842  1
  O  O169  1  0.51082394  0.37463105  0.63841193  1
  O  O170  1  0.50691114  0.37817536  0.99086068  1
  O  O171  1  0.49721248  0.86959457  0.30559231  1
  O  O172  1  0.49519503  0.87375027  0.63929042  1
  O  O173  1  0.49192621  0.87272662  0.97149417  1
  O  O174  1  0.83904480  0.37160989  0.30335637  1
  O  O175  1  0.83456408  0.36839455  0.64410590  1
  O  O176  1  0.82642492  0.37302750  0.98482192  1
  O  O177  1  0.84295617  0.87635048  0.31047683  1
  O  O178  1  0.83344185  0.88258612  0.64593345  1
  O  O179  1  0.84339110  0.87657472  0.97365511  1
  O  O180  1  -0.00196854  0.37576221  0.18958428  1
  O  O181  1  0.00111692  0.37208314  0.52600721  1
  O  O182  1  0.00548066  0.37224507  0.84458084  1
  O  O183  1  -0.00331915  0.87375711  0.19617384  1
  O  O184  1  -0.00584681  0.87704678  0.51045607  1
  O  O185  1  -0.00342988  0.87623946  0.85923875  1
  O  O186  1  0.32982635  0.38538310  0.18833891  1
  O  O187  1  0.34368848  0.38138848  0.52456993  1
  O  O188  1  0.32887245  0.37803629  0.84231348  1
  O  O189  1  0.34405936  0.86926847  0.19239487  1
  O  O190  1  0.34721720  0.86960801  0.52084488  1
  O  O191  1  0.34718564  0.87219087  0.85518254  1
  O  O192  1  0.66949213  0.37107882  0.18717315  1
  O  O193  1  0.66535091  0.36811216  0.52496680  1
  O  O194  1  0.67166315  0.37427356  0.85547094  1
  O  O195  1  0.66062004  0.87587753  0.18727245  1
  O  O196  1  0.66195899  0.87886687  0.50922535  1
  O  O197  1  0.67085180  0.87525374  0.84844686  1
  O  O198  1  -0.00635709  0.11960261  0.14440290  1
  O  O199  1  -0.00605346  0.12876822  0.47351837  1
  O  O200  1  -0.00511461  0.12490731  0.81170743  1
  O  O201  1  0.00572865  0.63010811  0.14149451  1
  O  O202  1  0.00829655  0.62276223  0.48003046  1
  O  O203  1  -0.00759169  0.62551741  0.82612832  1
  O  O204  1  0.33341884  0.11318355  0.14040676  1
  O  O205  1  0.34002402  0.12389279  0.48769808  1
  O  O206  1  0.33462546  0.12360136  0.82273232  1
  O  O207  1  0.31953052  0.62934870  0.14022410  1
  O  O208  1  0.31853371  0.62485026  0.47251621  1
  O  O209  1  0.33391642  0.62566944  0.80767321  1
  O  O210  1  0.66937596  0.12290736  0.15594120  1
  O  O211  1  0.66994302  0.12723808  0.46836279  1
  O  O212  1  0.66944363  0.12523461  0.81290213  1
  O  O213  1  0.66553458  0.63251266  0.13969481  1
  O  O214  1  0.66452819  0.62645502  0.47318552  1
  O  O215  1  0.67253614  0.62505388  0.82536771  1
  O  O216  1  0.07086311  0.00842839  0.25903732  1
  O  O217  1  0.07567957  0.01248858  0.58690267  1
  O  O218  1  0.07523033  0.01142904  0.92952946  1
  O  O219  1  0.09086952  0.52667059  0.25331155  1
  O  O220  1  0.09821003  0.51055602  0.57367164  1
  O  O221  1  0.08191171  0.51343607  0.92294317  1
  O  O222  1  0.42353358  0.01409714  0.23683073  1
  O  O223  1  0.42858304  0.01148453  0.57045259  1
  O  O224  1  0.41701400  0.01798598  0.91498057  1
  O  O225  1  0.42079511  0.52849248  0.24187272  1
  O  O226  1  0.42289249  0.52591615  0.56586041  1
  O  O227  1  0.42065193  0.51896694  0.91198012  1
  O  O228  1  0.74898380  0.01721206  0.25666195  1
  O  O229  1  0.74864923  0.02565859  0.58387210  1
  O  O230  1  0.75825018  0.01109587  0.91291362  1
  O  O231  1  0.74640085  0.50954847  0.25140841  1
  O  O232  1  0.75264329  0.49968162  0.58241116  1
  O  O233  1  0.75363346  0.51851774  0.91505631  1
  O  O234  1  0.24919229  0.24958616  0.25169799  1
  O  O235  1  0.25083583  0.25242748  0.58465150  1
  O  O236  1  0.25441866  0.23823470  0.92290041  1
  O  O237  1  0.25779498  0.73201812  0.26656941  1
  O  O238  1  0.26412620  0.73614810  0.59023005  1
  O  O239  1  0.25975133  0.73846179  0.93184602  1
  O  O240  1  0.58493514  0.23091815  0.25266252  1
  O  O241  1  0.58772169  0.22262107  0.57926813  1
  O  O242  1  0.58526680  0.24207928  0.91578568  1
  O  O243  1  0.58724135  0.72446806  0.25202066  1
  O  O244  1  0.58330342  0.73767472  0.57779849  1
  O  O245  1  0.59356073  0.73712166  0.92623278  1
  O  O246  1  0.91363723  0.22282599  0.25317510  1
  O  O247  1  0.91225318  0.22680023  0.57956746  1
  O  O248  1  0.91736998  0.22769940  0.91837646  1
  O  O249  1  0.92976407  0.73343831  0.26227459  1
  O  O250  1  0.92108242  0.74325420  0.58468688  1
  O  O251  1  0.91834798  0.72926500  0.92562698  1
  O  O252  1  0.08484208  0.48468420  0.09073189  1
  O  O253  1  0.07772487  0.47422833  0.41167842  1
  O  O254  1  0.08300859  0.48330435  0.74855394  1
  O  O255  1  0.08193563  0.97639261  0.09031773  1
  O  O256  1  0.08341013  0.98090260  0.42085679  1
  O  O257  1  0.08526313  0.98450955  0.76207851  1
  O  O258  1  0.41497396  0.50652872  0.07887501  1
  O  O259  1  0.40522801  0.48475222  0.40552776  1
  O  O260  1  0.40963803  0.48657521  0.72857213  1
  O  O261  1  0.41072773  0.97133177  0.07714866  1
  O  O262  1  0.41346381  0.97553713  0.40825852  1
  O  O263  1  0.41409136  0.97778068  0.74411199  1
  O  O264  1  0.74553434  0.47913881  0.07886802  1
  O  O265  1  0.74872848  0.47399506  0.41520202  1
  O  O266  1  0.75046478  0.47797802  0.74823868  1
  O  O267  1  0.75396001  0.98155704  0.08776991  1
  O  O268  1  0.75819102  0.98157737  0.42360302  1
  O  O269  1  0.75193236  0.99025862  0.75250469  1
  O  O270  1  0.24432636  0.26621599  0.08903757  1
  O  O271  1  0.24715651  0.27488762  0.41870350  1
  O  O272  1  0.24576551  0.26988357  0.75211844  1
  O  O273  1  0.24154736  0.77523142  0.09505238  1
  O  O274  1  0.24224291  0.77585076  0.42820189  1
  O  O275  1  0.24893995  0.77610587  0.75948670  1
  O  O276  1  0.58479877  0.25843274  0.08172109  1
  O  O277  1  0.58225370  0.27147990  0.41802917  1
  O  O278  1  0.58938596  0.26288168  0.73974635  1
  O  O279  1  0.57092471  0.76891764  0.08914469  1
  O  O280  1  0.57446737  0.76556771  0.41728412  1
  O  O281  1  0.57459800  0.76381639  0.75925518  1
  O  O282  1  0.90819249  0.26065105  0.09246090  1
  O  O283  1  0.91515353  0.27595574  0.41501498  1
  O  O284  1  0.92048341  0.26282434  0.74328140  1
  O  O285  1  0.91246734  0.77366203  0.08846242  1
  O  O286  1  0.91236701  0.76691771  0.41997939  1
  O  O287  1  0.90898516  0.76411238  0.76358318  1
  O  O288  1  0.23905631  0.48751419  0.09828922  1
  O  O289  1  0.24228694  0.47289817  0.42601168  1
  O  O290  1  0.24342448  0.47892354  0.75420548  1
  O  O291  1  0.24728902  0.96769618  0.08741300  1
  O  O292  1  0.25019080  0.97721647  0.41900839  1
  O  O293  1  0.25086256  0.97526701  0.75628799  1
  O  O294  1  0.58676933  0.49418606  0.07997517  1
  O  O295  1  0.58350630  0.48212283  0.41543035  1
  O  O296  1  0.58907039  0.48628136  0.74495561  1
  O  O297  1  0.57289002  0.98136092  0.08507996  1
  O  O298  1  0.57620992  0.98691132  0.41995684  1
  O  O299  1  0.57558235  0.98613850  0.75122505  1
  O  O300  1  0.90851090  0.48822602  0.08863325  1
  O  O301  1  0.91428916  0.47703996  0.42136916  1
  O  O302  1  0.91602950  0.47986408  0.75144585  1
  O  O303  1  0.91702259  0.97336328  0.08567008  1
  O  O304  1  0.91965643  0.98648613  0.41201206  1
  O  O305  1  0.91071561  0.98810961  0.75940045  1
  O  O306  1  0.08353308  0.26047028  0.09087530  1
  O  O307  1  0.08236764  0.27452724  0.42014809  1
  O  O308  1  0.08568785  0.26724764  0.75254615  1
  O  O309  1  0.07939130  0.77860061  0.08738114  1
  O  O310  1  0.07565993  0.76855181  0.40993300  1
  O  O311  1  0.08441998  0.76512590  0.76001387  1
  O  O312  1  0.41295074  0.24891604  0.07925865  1
  O  O313  1  0.41179110  0.27579613  0.40748289  1
  O  O314  1  0.41200042  0.26732585  0.73559691  1
  O  O315  1  0.40919599  0.76393973  0.07021332  1
  O  O316  1  0.40697883  0.76424065  0.40385915  1
  O  O317  1  0.41063850  0.76681318  0.73563914  1
  O  O318  1  0.74638316  0.26709478  0.08247891  1
  O  O319  1  0.75010228  0.27768645  0.41535341  1
  O  O320  1  0.74784014  0.26690034  0.74278667  1
  O  O321  1  0.74933726  0.77672337  0.08233335  1
  O  O322  1  0.74928992  0.77093812  0.41452906  1
  O  O323  1  0.75194539  0.76304801  0.75479541  1
  O  O324  1  0.25009941  -0.00332148  0.24991136  1
  O  O325  1  0.25562617  -0.00314853  0.58180509  1
  O  O326  1  0.25727078  0.00311553  0.92364024  1
  O  O327  1  0.25680023  0.52476029  0.26461153  1
  O  O328  1  0.26176805  0.51566973  0.59088989  1
  O  O329  1  0.25399131  0.52128613  0.93198787  1
  O  O330  1  0.58233549  0.02107865  0.25314680  1
  O  O331  1  0.58809994  0.02387878  0.58258310  1
  O  O332  1  0.57992748  0.00418461  0.91339111  1
  O  O333  1  0.58751680  0.52458444  0.24916328  1
  O  O334  1  0.58275186  0.51520995  0.57560595  1
  O  O335  1  0.59144293  0.51294292  0.92007615  1
  O  O336  1  0.90952298  0.02420001  0.24823944  1
  O  O337  1  0.91349861  0.02511885  0.58256981  1
  O  O338  1  0.91823488  0.02562399  0.92114178  1
  O  O339  1  0.92984380  0.51668912  0.26199210  1
  O  O340  1  0.92186535  0.50187819  0.58797649  1
  O  O341  1  0.91550433  0.51799330  0.92149947  1
  O  O342  1  0.07172508  0.24063684  0.26012675  1
  O  O343  1  0.07529661  0.23795288  0.59155494  1
  O  O344  1  0.08065733  0.23322804  0.92491855  1
  O  O345  1  0.09288077  0.72750691  0.24922701  1
  O  O346  1  0.09576404  0.74245767  0.57328503  1
  O  O347  1  0.07751743  0.73935613  0.92716470  1
  O  O348  1  0.42053682  0.23404958  0.24190954  1
  O  O349  1  0.42980321  0.24006361  0.56835694  1
  O  O350  1  0.41822081  0.23493315  0.91371874  1
  O  O351  1  0.42485257  0.72253954  0.23805813  1
  O  O352  1  0.42277710  0.72419888  0.56821715  1
  O  O353  1  0.42419861  0.72789313  0.90828583  1
  O  O354  1  0.75017427  0.23012720  0.25118158  1
  O  O355  1  0.75005358  0.22534644  0.58021665  1
  O  O356  1  0.75722366  0.23153576  0.91021820  1
  O  O357  1  0.75025801  0.74369400  0.25110645  1
  O  O358  1  0.75523472  0.74879190  0.57783386  1
  O  O359  1  0.75561895  0.73711943  0.91464854  1
