# generated using pymatgen
data_Ba17Sr5La8Pr42Mn72O216
_symmetry_space_group_name_H-M   'P 1'
_cell_length_a   16.67943888
_cell_length_b   15.70226675
_cell_length_c   16.82577204
_cell_angle_alpha   89.99889083
_cell_angle_beta   90.03474449
_cell_angle_gamma   90.00024796
_symmetry_Int_Tables_number   1
_chemical_formula_structural   Ba17Sr5La8Pr42Mn72O216
_chemical_formula_sum   'Ba17 Sr5 La8 Pr42 Mn72 O216'
_cell_volume   4406.75299123
_cell_formula_units_Z   1
loop_
 _symmetry_equiv_pos_site_id
 _symmetry_equiv_pos_as_xyz
  1  'x, y, z'
loop_
 _atom_site_type_symbol
 _atom_site_label
 _atom_site_symmetry_multiplicity
 _atom_site_fract_x
 _atom_site_fract_y
 _atom_site_fract_z
 _atom_site_occupancy
  Ba  Ba0  1  0.33357878  0.12615906  0.99461077  1
  Ba  Ba1  1  0.00031602  0.62598910  1.00219028  1
  Ba  Ba2  1  0.83474549  0.37647706  0.49976338  1
  Ba  Ba3  1  0.49925975  0.87460815  0.49773721  1
  Ba  Ba4  1  0.33215280  0.87392152  0.66271064  1
  Ba  Ba5  1  0.83227205  0.62594702  0.16944619  1
  Ba  Ba6  1  0.33730295  0.62304194  0.99654608  1
  Ba  Ba7  1  0.49906275  0.37516155  0.49413235  1
  Ba  Ba8  1  0.33267007  0.62344810  0.66427801  1
  Ba  Ba9  1  0.16607791  0.87519120  0.50037688  1
  Ba  Ba10  1  0.00019690  0.87589949  0.00442034  1
  Ba  Ba11  1  0.00141307  0.37445325  0.33666944  1
  Ba  Ba12  1  0.66630550  0.12530132  0.33269435  1
  Ba  Ba13  1  0.16642976  0.12674112  0.83417148  1
  Ba  Ba14  1  0.83396534  0.37365662  0.16966885  1
  Ba  Ba15  1  0.83286182  0.62499781  0.50213547  1
  Ba  Ba16  1  0.49852614  0.87543215  0.16423292  1
  Sr  Sr17  1  0.66884079  0.62593807  1.00257952  1
  Sr  Sr18  1  0.66982519  0.37748096  0.33468285  1
  Sr  Sr19  1  0.66551253  0.62136314  0.33173150  1
  Sr  Sr20  1  -0.00254188  0.12376630  0.66866250  1
  Sr  Sr21  1  0.33140520  0.12548092  0.66275074  1
  La  La22  1  0.16952701  0.87476907  0.16679192  1
  La  La23  1  0.49764781  0.12391470  0.16553879  1
  La  La24  1  0.49602890  0.12477716  0.82991845  1
  La  La25  1  0.83626575  0.12194557  0.17144109  1
  La  La26  1  0.66562953  0.87228409  0.00085749  1
  La  La27  1  0.33197518  0.12292166  0.33136408  1
  La  La28  1  0.50409022  0.37462654  0.16420868  1
  La  La29  1  0.16408126  0.12725223  0.50914502  1
  Pr  Pr30  1  0.00314383  0.37306804  0.01019964  1
  Pr  Pr31  1  0.83258269  0.13154841  0.50569243  1
  Pr  Pr32  1  0.33723086  0.87543052  0.33877590  1
  Pr  Pr33  1  -0.00094683  0.87291680  0.33885594  1
  Pr  Pr34  1  0.83235659  0.62696754  0.84372765  1
  Pr  Pr35  1  -0.00425163  0.12567493  0.99868721  1
  Pr  Pr36  1  -0.00362363  0.62281693  0.33301222  1
  Pr  Pr37  1  0.83367656  0.87747146  0.50199640  1
  Pr  Pr38  1  0.16494527  0.62246515  0.50132487  1
  Pr  Pr39  1  0.49720594  0.87342705  0.82485790  1
  Pr  Pr40  1  -0.00160914  0.37372729  0.66893644  1
  Pr  Pr41  1  0.33315930  0.37364433  0.33339924  1
  Pr  Pr42  1  0.16886418  0.37470041  0.49973848  1
  Pr  Pr43  1  -0.00155906  0.12570223  0.34031352  1
  Pr  Pr44  1  0.49934744  0.37624836  0.82565561  1
  Pr  Pr45  1  0.66704911  0.87303962  0.67012151  1
  Pr  Pr46  1  0.00121255  0.62619853  0.66897960  1
  Pr  Pr47  1  0.16452744  0.12639472  0.16743863  1
  Pr  Pr48  1  0.50503649  0.62505874  0.49573601  1
  Pr  Pr49  1  0.16504721  0.37820323  0.83599404  1
  Pr  Pr50  1  -0.00140711  0.87593918  0.67469990  1
  Pr  Pr51  1  0.67001211  0.87044691  0.33620398  1
  Pr  Pr52  1  0.17216633  0.62762229  0.83965530  1
  Pr  Pr53  1  0.66985830  0.37743675  0.00480432  1
  Pr  Pr54  1  0.83181598  0.12214623  0.83703712  1
  Pr  Pr55  1  0.83559425  0.37618270  0.83484855  1
  Pr  Pr56  1  0.82739050  0.87502047  0.16803388  1
  Pr  Pr57  1  0.66540991  0.62436573  0.66284205  1
  Pr  Pr58  1  0.33206754  0.87619045  -0.00488644  1
  Pr  Pr59  1  0.50477952  0.62586752  0.16680067  1
  Pr  Pr60  1  0.33388904  0.37415545  0.66612439  1
  Pr  Pr61  1  0.67179101  0.37690321  0.66803024  1
  Pr  Pr62  1  0.66364811  0.12408458  0.99865888  1
  Pr  Pr63  1  0.16470809  0.62394379  0.16821528  1
  Pr  Pr64  1  0.33360513  0.62674466  0.32710696  1
  Pr  Pr65  1  0.33714417  0.37387107  -0.00260201  1
  Pr  Pr66  1  0.16411718  0.87499869  0.83150138  1
  Pr  Pr67  1  0.50751830  0.62613964  0.83375773  1
  Pr  Pr68  1  0.49995945  0.12507886  0.49938494  1
  Pr  Pr69  1  0.83270373  0.87428941  0.83582326  1
  Pr  Pr70  1  0.17003590  0.37610590  0.16466714  1
  Pr  Pr71  1  0.66409203  0.12470744  0.65934418  1
  Mn  Mn72  1  0.00231262  0.00082197  0.17221664  1
  Mn  Mn73  1  -0.00128614  -0.00081597  0.50432101  1
  Mn  Mn74  1  -0.00093908  0.00178639  0.83593362  1
  Mn  Mn75  1  0.00146266  0.50014929  0.17012054  1
  Mn  Mn76  1  0.00143428  0.50241981  0.50306370  1
  Mn  Mn77  1  -0.00112484  0.49878294  0.83515003  1
  Mn  Mn78  1  0.33143733  -0.00001201  0.16436693  1
  Mn  Mn79  1  0.33140276  0.00164183  0.49727630  1
  Mn  Mn80  1  0.33331235  -0.00065420  0.83021571  1
  Mn  Mn81  1  0.33459575  0.49944760  0.16386271  1
  Mn  Mn82  1  0.33225428  0.50060970  0.49584999  1
  Mn  Mn83  1  0.33485963  0.49817271  0.83055375  1
  Mn  Mn84  1  0.66589458  0.00029588  0.16543412  1
  Mn  Mn85  1  0.66704339  -0.00094558  0.49936210  1
  Mn  Mn86  1  0.66571531  0.00196411  0.83189833  1
  Mn  Mn87  1  0.66677715  0.49904776  0.16717300  1
  Mn  Mn88  1  0.66634682  0.50069622  0.49844638  1
  Mn  Mn89  1  0.66856512  0.49833360  0.83494879  1
  Mn  Mn90  1  0.00224262  0.24721944  0.16918239  1
  Mn  Mn91  1  0.00056985  0.24905637  0.50481247  1
  Mn  Mn92  1  -0.00181014  0.25068689  0.83761276  1
  Mn  Mn93  1  0.00216145  0.75079247  0.17268483  1
  Mn  Mn94  1  -0.00013279  0.75021872  0.50396462  1
  Mn  Mn95  1  -0.00122382  0.75030019  0.83405144  1
  Mn  Mn96  1  0.33368162  0.25049106  0.16466445  1
  Mn  Mn97  1  0.33173208  0.25003781  0.49777920  1
  Mn  Mn98  1  0.33403727  0.25298137  0.82969614  1
  Mn  Mn99  1  0.33258971  0.75019836  0.16352803  1
  Mn  Mn100  1  0.33207936  0.74722827  0.49533985  1
  Mn  Mn101  1  0.33468975  0.74865620  0.83205051  1
  Mn  Mn102  1  0.66694223  0.24909377  0.16440824  1
  Mn  Mn103  1  0.66589859  0.25004838  0.49902633  1
  Mn  Mn104  1  0.66700418  0.24914336  0.83317564  1
  Mn  Mn105  1  0.66564191  0.75058595  0.16792331  1
  Mn  Mn106  1  0.66740941  0.75068846  0.50081736  1
  Mn  Mn107  1  0.66762905  0.75063756  0.83356751  1
  Mn  Mn108  1  0.16641762  0.25155406  0.00154118  1
  Mn  Mn109  1  0.16723869  0.24844574  0.33565461  1
  Mn  Mn110  1  0.16457192  0.25232989  0.66801779  1
  Mn  Mn111  1  0.16862764  0.75141596  0.00042123  1
  Mn  Mn112  1  0.16640147  0.74938401  0.33251610  1
  Mn  Mn113  1  0.16388544  0.74848755  0.66797905  1
  Mn  Mn114  1  0.50326039  0.25154601  -0.00487227  1
  Mn  Mn115  1  0.49864119  0.24895496  0.32971322  1
  Mn  Mn116  1  0.50060947  0.25105931  0.66333794  1
  Mn  Mn117  1  0.50179287  0.74944467  -0.00381218  1
  Mn  Mn118  1  0.50000127  0.74907703  0.33027609  1
  Mn  Mn119  1  0.50075262  0.74784711  0.66417636  1
  Mn  Mn120  1  0.83225265  0.24785327  0.00010687  1
  Mn  Mn121  1  0.83323169  0.24837629  0.33616535  1
  Mn  Mn122  1  0.83258246  0.25020630  0.67146149  1
  Mn  Mn123  1  0.83297783  0.75162856  0.00260372  1
  Mn  Mn124  1  0.83437785  0.75153259  0.33645826  1
  Mn  Mn125  1  0.83288816  0.75050978  0.67146001  1
  Mn  Mn126  1  0.16642662  -0.00073917  0.00117814  1
  Mn  Mn127  1  0.16498445  0.00232264  0.33284089  1
  Mn  Mn128  1  0.16502430  0.00078334  0.66801860  1
  Mn  Mn129  1  0.16759637  0.49952860  0.00023412  1
  Mn  Mn130  1  0.16863233  0.49976065  0.33501818  1
  Mn  Mn131  1  0.16387811  0.49825426  0.66783290  1
  Mn  Mn132  1  0.50066869  -0.00023049  -0.00542061  1
  Mn  Mn133  1  0.49936151  0.00070165  0.33103166  1
  Mn  Mn134  1  0.49979053  0.00124999  0.66435685  1
  Mn  Mn135  1  0.50447912  0.49979634  -0.00415002  1
  Mn  Mn136  1  0.49866000  0.50047282  0.32883894  1
  Mn  Mn137  1  0.50113626  0.49982257  0.66259672  1
  Mn  Mn138  1  0.83160265  -0.00049172  0.00357247  1
  Mn  Mn139  1  0.83554803  -0.00078943  0.33633024  1
  Mn  Mn140  1  0.83189985  0.00043388  0.66887219  1
  Mn  Mn141  1  0.83369793  0.49987888  0.00010726  1
  Mn  Mn142  1  0.83248890  0.49998758  0.33527412  1
  Mn  Mn143  1  0.83383389  0.49984042  0.67246163  1
  O  O144  1  0.16799479  0.12632933  0.02111386  1
  O  O145  1  0.17389095  0.12649743  0.36238906  1
  O  O146  1  0.17110990  0.12859668  0.67731515  1
  O  O147  1  0.17233659  0.62460716  0.01848986  1
  O  O148  1  0.17718604  0.62214244  0.35830733  1
  O  O149  1  0.15993711  0.61977273  0.69739581  1
  O  O150  1  0.50556518  0.12816076  0.02152721  1
  O  O151  1  0.49608597  0.12571493  0.35228080  1
  O  O152  1  0.50862610  0.12752515  0.68760609  1
  O  O153  1  0.50373829  0.62233120  0.02293245  1
  O  O154  1  0.49906914  0.62463722  0.34963021  1
  O  O155  1  0.51145896  0.62236896  0.68996799  1
  O  O156  1  0.83492034  0.12248226  0.02666923  1
  O  O157  1  0.84079631  0.11901679  0.36097802  1
  O  O158  1  0.82685893  0.12522722  0.69484996  1
  O  O159  1  0.83185073  0.62856720  0.00957794  1
  O  O160  1  0.84005469  0.62994193  0.34376546  1
  O  O161  1  0.83322262  0.62520743  0.69895345  1
  O  O162  1  0.16898311  0.37374610  0.30755505  1
  O  O163  1  0.15444128  0.37670018  0.64212508  1
  O  O164  1  0.14978417  0.37575788  0.98318682  1
  O  O165  1  0.15698366  0.87754355  0.30958804  1
  O  O166  1  0.15359814  0.87350978  0.65918490  1
  O  O167  1  0.16463066  0.87460306  0.97890600  1
  O  O168  1  0.48930236  0.37444744  0.30893047  1
  O  O169  1  0.49973355  0.37599170  0.64992485  1
  O  O170  1  0.50845062  0.37521798  0.96913203  1
  O  O171  1  0.48943819  0.87464701  0.32171754  1
  O  O172  1  0.50560981  0.87347830  0.65553943  1
  O  O173  1  0.50375674  0.87515113  0.97015091  1
  O  O174  1  0.83122704  0.37167559  0.32808115  1
  O  O175  1  0.83186882  0.37338192  0.65507792  1
  O  O176  1  0.82864275  0.37113669  0.97833088  1
  O  O177  1  0.83710177  0.87774258  0.31173119  1
  O  O178  1  0.83300258  0.87688186  0.64433331  1
  O  O179  1  0.82627291  0.87765715  0.97967993  1
  O  O180  1  0.01140246  0.37244582  0.17729664  1
  O  O181  1  0.00846339  0.37662059  0.52401264  1
  O  O182  1  -0.00311347  0.37337336  0.86560170  1
  O  O183  1  0.01237004  0.87791884  0.19580424  1
  O  O184  1  -0.00507649  0.87493366  0.53002700  1
  O  O185  1  0.00658941  0.87647003  0.84599405  1
  O  O186  1  0.33686898  0.37502048  0.19126263  1
  O  O187  1  0.33199244  0.37606994  0.52223840  1
  O  O188  1  0.34714114  0.37674729  0.85106849  1
  O  O189  1  0.32844650  0.87487885  0.19365228  1
  O  O190  1  0.33592263  0.87407054  0.50341809  1
  O  O191  1  0.34608163  0.87197538  0.84835000  1
  O  O192  1  0.66021925  0.37243610  0.18200194  1
  O  O193  1  0.66596124  0.37356589  0.52262039  1
  O  O194  1  0.66670510  0.37118805  0.86313201  1
  O  O195  1  0.67032276  0.87752632  0.19061595  1
  O  O196  1  0.67239762  0.87532976  0.52606132  1
  O  O197  1  0.66234815  0.87923663  0.85822370  1
  O  O198  1  -0.00099411  0.12351800  0.14241711  1
  O  O199  1  -0.00136588  0.12111645  0.48472440  1
  O  O200  1  -0.00893632  0.12674008  0.81804931  1
  O  O201  1  0.00267562  0.62589270  0.15966714  1
  O  O202  1  0.00516341  0.62815541  0.47912319  1
  O  O203  1  -0.01081780  0.62395110  0.81209191  1
  O  O204  1  0.32746118  0.12571566  0.14887687  1
  O  O205  1  0.32040762  0.12785429  0.47755441  1
  O  O206  1  0.33538309  0.13060978  0.81609048  1
  O  O207  1  0.32400689  0.62475573  0.14960582  1
  O  O208  1  0.31921954  0.62179871  0.47286873  1
  O  O209  1  0.32070838  0.62086431  0.82214521  1
  O  O210  1  0.66603028  0.12418783  0.14268943  1
  O  O211  1  0.66761835  0.12298896  0.48984662  1
  O  O212  1  0.67092991  0.12548207  0.80188174  1
  O  O213  1  0.65867374  0.62479985  0.15251972  1
  O  O214  1  0.66177910  0.62853574  0.48411300  1
  O  O215  1  0.67143723  0.62515754  0.80606567  1
  O  O216  1  0.08343202  0.03205672  0.25321476  1
  O  O217  1  0.08154287  0.01675601  0.58446873  1
  O  O218  1  0.07781438  0.01803972  0.92667610  1
  O  O219  1  0.08595451  0.52297533  0.25797537  1
  O  O220  1  0.08145588  0.52678468  0.58832491  1
  O  O221  1  0.08819902  0.51694928  0.90818001  1
  O  O222  1  0.41184873  0.02001989  0.24690399  1
  O  O223  1  0.41888248  0.02230313  0.57820907  1
  O  O224  1  0.42266016  0.01293927  0.90840459  1
  O  O225  1  0.41700828  0.52476543  0.24240988  1
  O  O226  1  0.42025658  0.52041231  0.56861156  1
  O  O227  1  0.42959659  0.51417788  0.90452001  1
  O  O228  1  0.76068395  0.01328320  0.24626785  1
  O  O229  1  0.74931425  0.02005214  0.58691388  1
  O  O230  1  0.74589015  0.02281395  0.91564202  1
  O  O231  1  0.74405299  0.50692592  0.25237030  1
  O  O232  1  0.74480938  0.51285057  0.59905371  1
  O  O233  1  0.75184515  0.51565242  0.91437482  1
  O  O234  1  0.24524306  0.23185394  0.24928772  1
  O  O235  1  0.24556935  0.24363909  0.57796621  1
  O  O236  1  0.24613181  0.25828933  0.91519273  1
  O  O237  1  0.24659992  0.73137049  0.24550426  1
  O  O238  1  0.24542037  0.73501082  0.57824807  1
  O  O239  1  0.25259306  0.74675123  0.91650073  1
  O  O240  1  0.57421551  0.23607601  0.23649909  1
  O  O241  1  0.58195307  0.22901295  0.58099865  1
  O  O242  1  0.58581850  0.22269429  0.91297945  1
  O  O243  1  0.57909962  0.73542650  0.24508958  1
  O  O244  1  0.58323002  0.72974990  0.58235058  1
  O  O245  1  0.58500346  0.72942723  0.91221211  1
  O  O246  1  0.91761753  0.22728375  0.24924168  1
  O  O247  1  0.91252355  0.23266289  0.58625473  1
  O  O248  1  0.90973519  0.22693974  0.91510039  1
  O  O249  1  0.92877553  0.74427067  0.26510529  1
  O  O250  1  0.92210725  0.73438583  0.59771729  1
  O  O251  1  0.91367207  0.74292726  0.91332109  1
  O  O252  1  0.09091383  0.48849178  0.09083693  1
  O  O253  1  0.09466331  0.48923601  0.42723635  1
  O  O254  1  0.07852701  0.47479846  0.75075693  1
  O  O255  1  0.09195324  0.98958402  0.09474505  1
  O  O256  1  0.07639351  0.98961958  0.41162363  1
  O  O257  1  0.08105464  0.98681239  0.75254502  1
  O  O258  1  0.42011332  0.47610849  0.07559420  1
  O  O259  1  0.40690119  0.49062240  0.40159294  1
  O  O260  1  0.41512660  0.48204145  0.74149413  1
  O  O261  1  0.41478136  0.98579691  0.07353908  1
  O  O262  1  0.41306641  0.99739762  0.41138722  1
  O  O263  1  0.42224030  0.99126686  0.75009629  1
  O  O264  1  0.74686535  0.48683995  0.07870319  1
  O  O265  1  0.74737302  0.49406903  0.41838913  1
  O  O266  1  0.75180326  0.47447359  0.75658881  1
  O  O267  1  0.74905931  0.97826614  0.08401409  1
  O  O268  1  0.75208801  0.97548137  0.41686812  1
  O  O269  1  0.75009833  0.97465308  0.75282905  1
  O  O270  1  0.25347719  0.27750721  0.08003779  1
  O  O271  1  0.25051686  0.27624704  0.41399951  1
  O  O272  1  0.24930142  0.27898425  0.74652795  1
  O  O273  1  0.25262984  0.77686017  0.08205611  1
  O  O274  1  0.25317384  0.76796627  0.40491380  1
  O  O275  1  0.23937242  0.76316694  0.75772805  1
  O  O276  1  0.58599305  0.27034600  0.07588409  1
  O  O277  1  0.58179595  0.25906317  0.41081776  1
  O  O278  1  0.58675267  0.27317177  0.75053549  1
  O  O279  1  0.58677255  0.76493407  0.07543151  1
  O  O280  1  0.58871348  0.76426978  0.40854997  1
  O  O281  1  0.58745195  0.76819157  0.74986709  1
  O  O282  1  0.92601496  0.26095611  0.07459193  1
  O  O283  1  0.92261177  0.25127038  0.42123452  1
  O  O284  1  0.91776524  0.27259760  0.75337605  1
  O  O285  1  0.91415109  0.76938883  0.09834383  1
  O  O286  1  0.91447333  0.77384110  0.42627195  1
  O  O287  1  0.91191642  0.77562740  0.75505184  1
  O  O288  1  0.25461528  0.47206403  0.08153887  1
  O  O289  1  0.25081941  0.47123389  0.41392247  1
  O  O290  1  0.24764953  0.47179813  0.74671811  1
  O  O291  1  0.25218374  0.97536136  0.08053447  1
  O  O292  1  0.25382463  0.98382585  0.40354759  1
  O  O293  1  0.24561236  0.98274223  0.75376121  1
  O  O294  1  0.58390009  0.47817804  0.07990105  1
  O  O295  1  0.57912413  0.49232796  0.40926694  1
  O  O296  1  0.58798433  0.47772812  0.75103297  1
  O  O297  1  0.58901327  0.98651182  0.06875679  1
  O  O298  1  0.58955866  0.98396305  0.40908990  1
  O  O299  1  0.58697190  0.98091002  0.74800105  1
  O  O300  1  0.92214990  0.48400838  0.07541906  1
  O  O301  1  0.92359965  0.49756620  0.41927356  1
  O  O302  1  0.91774289  0.47374731  0.75329203  1
  O  O303  1  0.91221054  0.98400551  0.09956579  1
  O  O304  1  0.91583052  0.97508135  0.42145070  1
  O  O305  1  0.91301955  0.97990929  0.75256224  1
  O  O306  1  0.09416899  0.26153677  0.09455630  1
  O  O307  1  0.09247998  0.25907913  0.42835648  1
  O  O308  1  0.08266916  0.27327517  0.75909328  1
  O  O309  1  0.09053909  0.75996381  0.09239528  1
  O  O310  1  0.07718958  0.76250404  0.41063213  1
  O  O311  1  0.07216587  0.76030713  0.74417163  1
  O  O312  1  0.42124180  0.27328312  0.07684649  1
  O  O313  1  0.40778494  0.25926346  0.40667705  1
  O  O314  1  0.41638457  0.26944372  0.74268798  1
  O  O315  1  0.41306807  0.76655059  0.07196014  1
  O  O316  1  0.41178214  0.75212127  0.40654783  1
  O  O317  1  0.42149118  0.75598243  0.74907460  1
  O  O318  1  0.74575393  0.26209246  0.07562852  1
  O  O319  1  0.75098397  0.25331344  0.42202689  1
  O  O320  1  0.75053650  0.27516538  0.75547086  1
  O  O321  1  0.74899582  0.77065797  0.08682001  1
  O  O322  1  0.75279374  0.77429219  0.42156546  1
  O  O323  1  0.75065326  0.77788413  0.75354802  1
  O  O324  1  0.24287990  0.01941678  0.24494695  1
  O  O325  1  0.24716745  0.01278792  0.57886512  1
  O  O326  1  0.25091820  -0.00301848  0.91503213  1
  O  O327  1  0.24764179  0.51636122  0.24909064  1
  O  O328  1  0.24217123  0.50972882  0.57702528  1
  O  O329  1  0.24848690  0.49764149  0.91320036  1
  O  O330  1  0.57659690  0.01593400  0.24016083  1
  O  O331  1  0.58140583  0.01990428  0.58125447  1
  O  O332  1  0.58275445  0.02799467  0.90975790  1
  O  O333  1  0.57461238  0.51149613  0.24045660  1
  O  O334  1  0.58362594  0.52140626  0.58186114  1
  O  O335  1  0.58723177  0.52304814  0.91403944  1
  O  O336  1  0.92376335  0.02025187  0.26019008  1
  O  O337  1  0.90941491  0.01989931  0.58341573  1
  O  O338  1  0.91289181  0.01834190  0.91970229  1
  O  O339  1  0.92077172  0.50899590  0.25396089  1
  O  O340  1  0.92230192  0.51352054  0.59564610  1
  O  O341  1  0.91019076  0.51218371  0.91024602  1
  O  O342  1  0.08227232  0.22292460  0.25871318  1
  O  O343  1  0.07863966  0.23232881  0.59034037  1
  O  O344  1  0.07193684  0.23495406  0.93094217  1
  O  O345  1  0.08724389  0.72374448  0.25239860  1
  O  O346  1  0.08459452  0.72502077  0.58286095  1
  O  O347  1  0.09096741  0.73507042  0.90686913  1
  O  O348  1  0.41518001  0.22732930  0.24589959  1
  O  O349  1  0.41654498  0.22851705  0.57461661  1
  O  O350  1  0.42523853  0.24019721  0.90777891  1
  O  O351  1  0.41594477  0.72717305  0.24314269  1
  O  O352  1  0.42117818  0.72965684  0.57226081  1
  O  O353  1  0.42715991  0.73300417  0.90601212  1
  O  O354  1  0.75309707  0.23286560  0.24227369  1
  O  O355  1  0.74690144  0.23138485  0.59100260  1
  O  O356  1  0.74862724  0.22201020  0.91532248  1
  O  O357  1  0.74794931  0.74770297  0.25662202  1
  O  O358  1  0.74531107  0.73588903  0.59601346  1
  O  O359  1  0.75033030  0.73891146  0.91196642  1
