# generated using pymatgen
data_Ba17Sr5La8Pr42Mn72O216
_symmetry_space_group_name_H-M   'P 1'
_cell_length_a   16.67534949
_cell_length_b   15.69974814
_cell_length_c   16.81688502
_cell_angle_alpha   89.99422829
_cell_angle_beta   90.02866236
_cell_angle_gamma   89.99788301
_symmetry_Int_Tables_number   1
_chemical_formula_structural   Ba17Sr5La8Pr42Mn72O216
_chemical_formula_sum   'Ba17 Sr5 La8 Pr42 Mn72 O216'
_cell_volume   4402.63952801
_cell_formula_units_Z   1
loop_
 _symmetry_equiv_pos_site_id
 _symmetry_equiv_pos_as_xyz
  1  'x, y, z'
loop_
 _atom_site_type_symbol
 _atom_site_label
 _atom_site_symmetry_multiplicity
 _atom_site_fract_x
 _atom_site_fract_y
 _atom_site_fract_z
 _atom_site_occupancy
  Ba  Ba0  1  0.33596839  0.37593892  0.00278058  1
  Ba  Ba1  1  0.16847630  0.37543670  0.16690461  1
  Ba  Ba2  1  0.50107926  0.37427663  0.50194163  1
  Ba  Ba3  1  0.83724441  0.37705534  0.83041178  1
  Ba  Ba4  1  0.83071249  0.87340245  0.83087395  1
  Ba  Ba5  1  0.33390944  0.62716035  0.66546273  1
  Ba  Ba6  1  0.83676095  0.37638741  0.50042805  1
  Ba  Ba7  1  0.00211072  0.37661470  0.66652252  1
  Ba  Ba8  1  0.49926957  0.87501649  0.16527152  1
  Ba  Ba9  1  0.83299384  0.12443870  0.83499711  1
  Ba  Ba10  1  0.33100992  0.12308970  0.66814428  1
  Ba  Ba11  1  0.82955425  0.87505482  0.49933752  1
  Ba  Ba12  1  0.33286684  0.87706005  0.33169707  1
  Ba  Ba13  1  0.00060384  0.62688118  0.33172606  1
  Ba  Ba14  1  0.00043072  0.12397278  0.99819787  1
  Ba  Ba15  1  0.66608120  0.62378488  0.33553395  1
  Ba  Ba16  1  -0.00149477  0.12312831  0.32971076  1
  Sr  Sr17  1  0.83199515  0.62536054  0.50001166  1
  Sr  Sr18  1  0.50104732  0.62464491  0.50367448  1
  Sr  Sr19  1  0.33340334  0.12470457  0.33649774  1
  Sr  Sr20  1  0.83365275  0.62468053  0.83237553  1
  Sr  Sr21  1  0.33031167  0.87532525  0.00773915  1
  La  La22  1  0.16598163  0.12620163  0.83538958  1
  La  La23  1  0.84050312  0.37721274  0.16769277  1
  La  La24  1  0.33141064  0.87444318  0.66820245  1
  La  La25  1  0.33837335  0.37229858  0.33500452  1
  La  La26  1  0.50473015  0.37437982  0.82948699  1
  La  La27  1  0.33723663  0.37613156  0.67146186  1
  La  La28  1  0.17106920  0.37511857  0.49821039  1
  La  La29  1  0.16460392  0.12218333  0.50064776  1
  Pr  Pr30  1  0.16328429  0.87488438  0.83364661  1
  Pr  Pr31  1  0.33391417  0.62682901  0.99920708  1
  Pr  Pr32  1  0.50930281  0.37460287  0.16463893  1
  Pr  Pr33  1  0.66231738  0.87026166  0.66882544  1
  Pr  Pr34  1  0.16494252  0.62813278  0.50295508  1
  Pr  Pr35  1  0.00178390  0.37319692  -0.00213307  1
  Pr  Pr36  1  0.49796705  0.62498943  0.17137624  1
  Pr  Pr37  1  0.67514176  0.37564400  0.33737091  1
  Pr  Pr38  1  0.49502259  0.12553909  0.83698463  1
  Pr  Pr39  1  0.66746808  0.12588914  0.66588939  1
  Pr  Pr40  1  0.83336112  0.62573738  0.17255632  1
  Pr  Pr41  1  0.32902901  0.12307484  0.99916574  1
  Pr  Pr42  1  0.16533777  0.87573770  0.49725176  1
  Pr  Pr43  1  0.49396470  0.87328856  0.49610794  1
  Pr  Pr44  1  0.83284255  0.12617487  0.50318600  1
  Pr  Pr45  1  0.66218068  0.87362889  0.33855741  1
  Pr  Pr46  1  0.16689711  0.62435762  0.83433370  1
  Pr  Pr47  1  0.00064897  0.62485831  0.99876534  1
  Pr  Pr48  1  0.66410988  0.62680559  0.99960008  1
  Pr  Pr49  1  0.66965253  0.87606154  0.00262133  1
  Pr  Pr50  1  0.33752757  0.62473394  0.33669853  1
  Pr  Pr51  1  0.17419058  0.12725558  0.16873613  1
  Pr  Pr52  1  0.16054289  0.87602313  0.16250442  1
  Pr  Pr53  1  0.67263800  0.37999943  0.66838976  1
  Pr  Pr54  1  0.66993327  0.62377821  0.66099923  1
  Pr  Pr55  1  0.66503505  0.12740893  0.33222185  1
  Pr  Pr56  1  0.83168400  0.87314754  0.16770835  1
  Pr  Pr57  1  -0.00017541  0.87466104  0.33475417  1
  Pr  Pr58  1  -0.00593149  0.12307314  0.66440210  1
  Pr  Pr59  1  0.49881774  0.62342911  0.83377827  1
  Pr  Pr60  1  0.66241168  0.12351398  0.99433729  1
  Pr  Pr61  1  0.49328573  0.12331127  0.16792610  1
  Pr  Pr62  1  0.83128906  0.12534748  0.16657709  1
  Pr  Pr63  1  0.00803730  0.37537617  0.34070927  1
  Pr  Pr64  1  -0.00334800  0.87190279  0.66744070  1
  Pr  Pr65  1  0.49596229  0.87431029  0.83479167  1
  Pr  Pr66  1  0.16960598  0.37383010  0.83110337  1
  Pr  Pr67  1  -0.00943442  0.87537489  -0.00101421  1
  Pr  Pr68  1  -0.00658352  0.62703353  0.66197508  1
  Pr  Pr69  1  0.67709533  0.37575223  -0.00086826  1
  Pr  Pr70  1  0.17592462  0.62359069  0.17064810  1
  Pr  Pr71  1  0.49640555  0.12253451  0.50325238  1
  Mn  Mn72  1  -0.00111218  -0.00026647  0.16482294  1
  Mn  Mn73  1  -0.00189553  -0.00100254  0.49846985  1
  Mn  Mn74  1  0.00146396  -0.00303831  0.83114344  1
  Mn  Mn75  1  0.00137540  0.50003023  0.16519316  1
  Mn  Mn76  1  0.00217429  0.50236813  0.50013819  1
  Mn  Mn77  1  0.00340541  0.50448530  0.83274204  1
  Mn  Mn78  1  0.33198961  0.00013228  0.16692141  1
  Mn  Mn79  1  0.33154850  0.00066611  0.50120500  1
  Mn  Mn80  1  0.33209920  -0.00332751  0.83639744  1
  Mn  Mn81  1  0.33712420  0.50040154  0.16807594  1
  Mn  Mn82  1  0.33300921  0.49930076  0.50069592  1
  Mn  Mn83  1  0.33446771  0.50223999  0.83559813  1
  Mn  Mn84  1  0.66744590  0.00222662  0.16691971  1
  Mn  Mn85  1  0.66344433  0.00157186  0.49973697  1
  Mn  Mn86  1  0.66174893  -0.00184397  0.83244874  1
  Mn  Mn87  1  0.66805314  0.49866864  0.16573512  1
  Mn  Mn88  1  0.66692214  0.49902745  0.50047611  1
  Mn  Mn89  1  0.66610519  0.50348426  0.83365864  1
  Mn  Mn90  1  -0.00004155  0.25016985  0.16649953  1
  Mn  Mn91  1  0.00150141  0.24831643  0.49919684  1
  Mn  Mn92  1  0.00300996  0.25000416  0.83173435  1
  Mn  Mn93  1  0.00025259  0.75106459  0.16416617  1
  Mn  Mn94  1  -0.00065816  0.75136308  0.49919359  1
  Mn  Mn95  1  0.00118195  0.74829937  0.83269084  1
  Mn  Mn96  1  0.33699535  0.24956123  0.16847677  1
  Mn  Mn97  1  0.33251286  0.24887341  0.50119642  1
  Mn  Mn98  1  0.33434738  0.24925541  0.83591720  1
  Mn  Mn99  1  0.33247739  0.74956450  0.16628756  1
  Mn  Mn100  1  0.33214987  0.75041714  0.50018069  1
  Mn  Mn101  1  0.33242956  0.75124127  0.83645330  1
  Mn  Mn102  1  0.66799753  0.24905139  0.16481396  1
  Mn  Mn103  1  0.66613421  0.24843936  0.49871416  1
  Mn  Mn104  1  0.66497667  0.25001264  0.83236671  1
  Mn  Mn105  1  0.66647874  0.75048035  0.16647049  1
  Mn  Mn106  1  0.66429701  0.74983401  0.50208300  1
  Mn  Mn107  1  0.66313904  0.74798638  0.83359626  1
  Mn  Mn108  1  0.16693558  0.25053767  0.00008433  1
  Mn  Mn109  1  0.16890089  0.24841576  0.33354017  1
  Mn  Mn110  1  0.16599045  0.24898805  0.66598001  1
  Mn  Mn111  1  0.16454182  0.74927394  0.00154876  1
  Mn  Mn112  1  0.16814311  0.75026905  0.33212719  1
  Mn  Mn113  1  0.16532221  0.75177538  0.66700205  1
  Mn  Mn114  1  0.50286551  0.25101505  0.00079075  1
  Mn  Mn115  1  0.50082814  0.24864651  0.33193548  1
  Mn  Mn116  1  0.50128292  0.24808046  0.66811263  1
  Mn  Mn117  1  0.50056784  0.74864988  0.00010664  1
  Mn  Mn118  1  0.49934234  0.74901076  0.33439499  1
  Mn  Mn119  1  0.50004600  0.75191525  0.66675719  1
  Mn  Mn120  1  0.83383050  0.25216885  0.00129813  1
  Mn  Mn121  1  0.83364270  0.24859098  0.33262362  1
  Mn  Mn122  1  0.83272441  0.24858707  0.66633463  1
  Mn  Mn123  1  0.83204524  0.74794805  0.00100672  1
  Mn  Mn124  1  0.83149371  0.75107991  0.33237961  1
  Mn  Mn125  1  0.83120423  0.75013459  0.66571117  1
  Mn  Mn126  1  0.16583954  -0.00256929  -0.00029391  1
  Mn  Mn127  1  0.16675332  0.00020847  0.33110183  1
  Mn  Mn128  1  0.16329220  -0.00248107  0.66698730  1
  Mn  Mn129  1  0.16548699  0.50276087  0.00033147  1
  Mn  Mn130  1  0.16977573  0.50131672  0.33476788  1
  Mn  Mn131  1  0.16781454  0.50171267  0.66642912  1
  Mn  Mn132  1  0.49988476  0.00019385  0.00005688  1
  Mn  Mn133  1  0.50019724  0.00190512  0.33458388  1
  Mn  Mn134  1  0.50069790  -0.00116765  0.66745715  1
  Mn  Mn135  1  0.50355463  0.50008363  0.00174064  1
  Mn  Mn136  1  0.50038254  0.49910922  0.33262762  1
  Mn  Mn137  1  0.50110317  0.50016226  0.66848242  1
  Mn  Mn138  1  0.83133772  -0.00143566  0.00096538  1
  Mn  Mn139  1  0.82961563  0.00032214  0.33195781  1
  Mn  Mn140  1  0.83064085  -0.00069315  0.66509368  1
  Mn  Mn141  1  0.83486798  0.50208388  0.00098054  1
  Mn  Mn142  1  0.83534570  0.50105467  0.33242250  1
  Mn  Mn143  1  0.83410745  0.50265244  0.66661666  1
  O  O144  1  0.16991017  0.12131373  0.02120926  1
  O  O145  1  0.16939615  0.12298089  0.35539604  1
  O  O146  1  0.16001683  0.11814547  0.69277228  1
  O  O147  1  0.15627072  0.62714966  0.02821792  1
  O  O148  1  0.17563347  0.62488714  0.35811318  1
  O  O149  1  0.16434738  0.62892091  0.69099528  1
  O  O150  1  0.51182620  0.12790990  0.02385937  1
  O  O151  1  0.50991730  0.12519371  0.35915691  1
  O  O152  1  0.50887607  0.12081204  0.69432420  1
  O  O153  1  0.51061927  0.62234461  0.02864724  1
  O  O154  1  0.49636232  0.62298165  0.35162496  1
  O  O155  1  0.50795513  0.62659494  0.68915229  1
  O  O156  1  0.82717212  0.12480486  0.02177233  1
  O  O157  1  0.82978738  0.12307480  0.35869110  1
  O  O158  1  0.83422056  0.12250891  0.67672848  1
  O  O159  1  0.83525527  0.62549835  0.02946280  1
  O  O160  1  0.83519648  0.62614580  0.34681794  1
  O  O161  1  0.83268891  0.62804795  0.67996494  1
  O  O162  1  0.15925729  0.37616026  0.32451395  1
  O  O163  1  0.17102605  0.37854770  0.64358552  1
  O  O164  1  0.16187117  0.38027386  0.97605448  1
  O  O165  1  0.15990730  0.87596024  0.30726101  1
  O  O166  1  0.16238585  0.87481229  0.64036893  1
  O  O167  1  0.17132590  0.87174194  0.97736258  1
  O  O168  1  0.49291644  0.37350753  0.30743295  1
  O  O169  1  0.49101731  0.37456585  0.66115631  1
  O  O170  1  0.50403368  0.37608655  0.97412264  1
  O  O171  1  0.50584731  0.87664157  0.32250503  1
  O  O172  1  0.50495001  0.87802007  0.63969002  1
  O  O173  1  0.50254581  0.87414154  0.97841734  1
  O  O174  1  0.82745902  0.37389019  0.31281738  1
  O  O175  1  0.82499750  0.37389151  0.65895962  1
  O  O176  1  0.82928730  0.37943474  0.98511570  1
  O  O177  1  0.82060466  0.87723092  0.31125592  1
  O  O178  1  0.82877254  0.87555090  0.65639109  1
  O  O179  1  0.82903398  0.87104242  0.98556438  1
  O  O180  1  -0.00333628  0.37328188  0.19499179  1
  O  O181  1  0.01215314  0.37482973  0.50847206  1
  O  O182  1  0.00984591  0.38276332  0.85314506  1
  O  O183  1  0.00682420  0.87566351  0.19058945  1
  O  O184  1  0.00872753  0.87600035  0.52295648  1
  O  O185  1  0.00690585  0.87032836  0.85618610  1
  O  O186  1  0.34274846  0.37416326  0.18889196  1
  O  O187  1  0.32704326  0.37208842  0.52637567  1
  O  O188  1  0.33489198  0.37571890  0.84584913  1
  O  O189  1  0.32672782  0.87335541  0.17471904  1
  O  O190  1  0.33547140  0.87587763  0.52111628  1
  O  O191  1  0.33607097  0.87258412  0.85895043  1
  O  O192  1  0.66148116  0.37128648  0.19412038  1
  O  O193  1  0.66794129  0.37029458  0.52294041  1
  O  O194  1  0.66228190  0.37971944  0.85580102  1
  O  O195  1  0.67232826  0.88068922  0.19415494  1
  O  O196  1  0.65816531  0.87884158  0.52475273  1
  O  O197  1  0.65895656  0.87235508  0.85957861  1
  O  O198  1  -0.00880817  0.12390506  0.15314518  1
  O  O199  1  -0.00541331  0.12215476  0.48647098  1
  O  O200  1  0.01120525  0.11878512  0.81122334  1
  O  O201  1  -0.00802650  0.62824471  0.14225320  1
  O  O202  1  0.00372044  0.62877894  0.48866097  1
  O  O203  1  0.01115266  0.62836549  0.80702216  1
  O  O204  1  0.33392720  0.12594872  0.14502902  1
  O  O205  1  0.33062200  0.12545483  0.48625976  1
  O  O206  1  0.33166448  0.12220771  0.82342809  1
  O  O207  1  0.33457281  0.62514463  0.14488454  1
  O  O208  1  0.32562155  0.62589773  0.48086040  1
  O  O209  1  0.33160337  0.62884584  0.82090929  1
  O  O210  1  0.67348597  0.12680586  0.13596918  1
  O  O211  1  0.66126588  0.12490482  0.47483935  1
  O  O212  1  0.65476264  0.12125921  0.81122457  1
  O  O213  1  0.66779673  0.62222948  0.14325133  1
  O  O214  1  0.66156426  0.62483436  0.49450668  1
  O  O215  1  0.65458332  0.62589536  0.80697417  1
  O  O216  1  0.09179166  0.01558761  0.23725837  1
  O  O217  1  0.08102032  0.02035257  0.58476875  1
  O  O218  1  0.09451090  0.00907610  0.90645118  1
  O  O219  1  0.08939462  0.51756321  0.24442262  1
  O  O220  1  0.08096124  0.52423341  0.59100314  1
  O  O221  1  0.08318990  0.52782902  0.91776305  1
  O  O222  1  0.42072053  0.01751534  0.24954485  1
  O  O223  1  0.42290679  0.01380202  0.58249468  1
  O  O224  1  0.41891418  0.02084294  0.91802191  1
  O  O225  1  0.41459592  0.52363401  0.25383930  1
  O  O226  1  0.41519922  0.50871480  0.58626525  1
  O  O227  1  0.41634048  0.52485596  0.92710393  1
  O  O228  1  0.74832650  0.02983783  0.24854945  1
  O  O229  1  0.74795827  0.02327475  0.57685522  1
  O  O230  1  0.73839139  0.01171857  0.92289059  1
  O  O231  1  0.75132699  0.51128499  0.24594772  1
  O  O232  1  0.74790490  0.51304116  0.58804060  1
  O  O233  1  0.74427710  0.52143379  0.92279398  1
  O  O234  1  0.25077435  0.23450413  0.24900256  1
  O  O235  1  0.23749008  0.23302416  0.57513448  1
  O  O236  1  0.24873293  0.23286420  0.91464476  1
  O  O237  1  0.25611493  0.72639395  0.25514183  1
  O  O238  1  0.24552956  0.74072915  0.58168169  1
  O  O239  1  0.24913643  0.72591495  0.92574764  1
  O  O240  1  0.57902745  0.22680005  0.23649157  1
  O  O241  1  0.58177274  0.22692667  0.57933944  1
  O  O242  1  0.57468805  0.23150011  0.90875722  1
  O  O243  1  0.58171037  0.73642300  0.24518065  1
  O  O244  1  0.59034382  0.73752051  0.59495040  1
  O  O245  1  0.58187857  0.72514623  0.91610329  1
  O  O246  1  0.90455730  0.23632009  0.24045121  1
  O  O247  1  0.91255861  0.23299305  0.57792776  1
  O  O248  1  0.91999548  0.24731048  0.91620247  1
  O  O249  1  0.91550638  0.74447746  0.24347432  1
  O  O250  1  0.92020444  0.74021253  0.58502440  1
  O  O251  1  0.92159794  0.73177343  0.92225191  1
  O  O252  1  0.07794159  0.48424682  0.07571919  1
  O  O253  1  0.09184434  0.49047592  0.42202499  1
  O  O254  1  0.09854346  0.48712091  0.76009003  1
  O  O255  1  0.07822969  0.97504086  0.07406661  1
  O  O256  1  0.08140862  0.97944926  0.41352825  1
  O  O257  1  0.08184219  0.97026330  0.74689910  1
  O  O258  1  0.43207113  0.48713438  0.09428042  1
  O  O259  1  0.41314331  0.48608750  0.41223843  1
  O  O260  1  0.42545864  0.49118484  0.75996280  1
  O  O261  1  0.41437590  0.99706961  0.07893265  1
  O  O262  1  0.42029811  0.99115018  0.42217211  1
  O  O263  1  0.41538835  0.97678015  0.75043889  1
  O  O264  1  0.75316254  0.48005953  0.08769341  1
  O  O265  1  0.75092806  0.48714688  0.41322298  1
  O  O266  1  0.74548363  0.49361407  0.74781985  1
  O  O267  1  0.75173387  0.97800762  0.08931842  1
  O  O268  1  0.73776084  0.98710852  0.40833344  1
  O  O269  1  0.73858820  0.98933458  0.74236686  1
  O  O270  1  0.25396018  0.25387819  0.08181003  1
  O  O271  1  0.25460956  0.27024153  0.41476615  1
  O  O272  1  0.25534582  0.26843954  0.74707150  1
  O  O273  1  0.23777503  0.75941783  0.09314190  1
  O  O274  1  0.24219004  0.76784983  0.42372153  1
  O  O275  1  0.24593368  0.77375338  0.75168349  1
  O  O276  1  0.59429755  0.27399647  0.07344116  1
  O  O277  1  0.59275370  0.26738846  0.40274634  1
  O  O278  1  0.58891605  0.27289304  0.74517580  1
  O  O279  1  0.58989300  0.76604536  0.07539344  1
  O  O280  1  0.57873680  0.76880432  0.42343747  1
  O  O281  1  0.57577275  0.77520993  0.75569434  1
  O  O282  1  0.92053188  0.27358838  0.08217716  1
  O  O283  1  0.92740611  0.26604102  0.40754169  1
  O  O284  1  0.92519117  0.25093353  0.74555418  1
  O  O285  1  0.91499737  0.77382693  0.08523594  1
  O  O286  1  0.91893376  0.76970319  0.40986111  1
  O  O287  1  0.92128102  0.76049675  0.74552023  1
  O  O288  1  0.25284113  0.49874896  0.08197328  1
  O  O289  1  0.25525361  0.47689835  0.41331208  1
  O  O290  1  0.25530856  0.48154977  0.74333644  1
  O  O291  1  0.23971400  0.98738551  0.08934145  1
  O  O292  1  0.24075316  0.98489321  0.42168854  1
  O  O293  1  0.24598043  0.97488733  0.75248581  1
  O  O294  1  0.59298938  0.47483357  0.07563534  1
  O  O295  1  0.58813409  0.48021616  0.40632020  1
  O  O296  1  0.58573783  0.47797533  0.74998870  1
  O  O297  1  0.59141741  0.98530778  0.07559799  1
  O  O298  1  0.58006570  0.97945159  0.42108132  1
  O  O299  1  0.57924549  0.97049720  0.75161765  1
  O  O300  1  0.92075062  0.47768934  0.07985781  1
  O  O301  1  0.92600364  0.48410795  0.40537311  1
  O  O302  1  0.92208032  0.50125532  0.74734427  1
  O  O303  1  0.91561433  0.97691356  0.08482091  1
  O  O304  1  0.91785081  0.98038286  0.40861652  1
  O  O305  1  0.92357011  0.98666635  0.74240479  1
  O  O306  1  0.08043802  0.26594167  0.07760793  1
  O  O307  1  0.09061644  0.25978263  0.42226337  1
  O  O308  1  0.09506434  0.26615666  0.75627195  1
  O  O309  1  0.07584141  0.77485058  0.07461783  1
  O  O310  1  0.08197653  0.77119942  0.41370864  1
  O  O311  1  0.08370587  0.77495427  0.74766540  1
  O  O312  1  0.43246378  0.26185617  0.09384401  1
  O  O313  1  0.41507421  0.26085377  0.41676320  1
  O  O314  1  0.42374427  0.25888810  0.76218098  1
  O  O315  1  0.41075637  0.75426828  0.07648468  1
  O  O316  1  0.41353056  0.76006487  0.41739101  1
  O  O317  1  0.41582529  0.77403964  0.74582981  1
  O  O318  1  0.75615056  0.27290805  0.09272241  1
  O  O319  1  0.75116842  0.26090686  0.41547174  1
  O  O320  1  0.74517971  0.25767049  0.74640977  1
  O  O321  1  0.74849246  0.76967373  0.08387589  1
  O  O322  1  0.73951107  0.76526399  0.41200032  1
  O  O323  1  0.73800904  0.75982828  0.74419496  1
  O  O324  1  0.25050758  0.02042069  0.25048866  1
  O  O325  1  0.24280328  0.00913602  0.58212544  1
  O  O326  1  0.25218992  0.01726065  0.92305774  1
  O  O327  1  0.25363277  0.51905728  0.25299073  1
  O  O328  1  0.23873537  0.51678511  0.57379502  1
  O  O329  1  0.24572102  0.52197926  0.91566394  1
  O  O330  1  0.58477346  0.02525909  0.24821587  1
  O  O331  1  0.58541462  0.02589942  0.58502022  1
  O  O332  1  0.57724106  0.01973015  0.91298642  1
  O  O333  1  0.57420994  0.51177782  0.23674359  1
  O  O334  1  0.58582021  0.50900288  0.59053577  1
  O  O335  1  0.57954974  0.52387611  0.91391458  1
  O  O336  1  0.90742118  0.00659254  0.24353719  1
  O  O337  1  0.91402073  0.01546800  0.58037804  1
  O  O338  1  0.91995202  0.00272554  0.91608877  1
  O  O339  1  0.91033094  0.51340407  0.24028440  1
  O  O340  1  0.91665297  0.51591032  0.58202658  1
  O  O341  1  0.92038843  0.52158243  0.91881211  1
  O  O342  1  0.08710741  0.23377442  0.24445605  1
  O  O343  1  0.07652358  0.22627800  0.58738487  1
  O  O344  1  0.08908181  0.23900932  0.91165499  1
  O  O345  1  0.09362424  0.73428383  0.23700640  1
  O  O346  1  0.08392909  0.73144618  0.58481681  1
  O  O347  1  0.08782361  0.72813144  0.91354590  1
  O  O348  1  0.41724043  0.22620712  0.25273358  1
  O  O349  1  0.41765620  0.23366254  0.58375170  1
  O  O350  1  0.41367685  0.22646214  0.92723468  1
  O  O351  1  0.41741750  0.73013141  0.24797006  1
  O  O352  1  0.42207173  0.74332533  0.57952480  1
  O  O353  1  0.42251135  0.72638533  0.91613893  1
  O  O354  1  0.74295332  0.22759802  0.25240956  1
  O  O355  1  0.74628946  0.22614603  0.58180924  1
  O  O356  1  0.73785845  0.23785877  0.92519058  1
  O  O357  1  0.75533432  0.73506569  0.24214286  1
  O  O358  1  0.74877748  0.73596650  0.58258984  1
  O  O359  1  0.74566463  0.72826634  0.91951016  1
