# generated using pymatgen
data_Ba17Sr5La8Pr42Mn72O216
_symmetry_space_group_name_H-M   'P 1'
_cell_length_a   16.67392397
_cell_length_b   15.69747426
_cell_length_c   16.81862145
_cell_angle_alpha   90.01272012
_cell_angle_beta   90.05239217
_cell_angle_gamma   90.01126503
_symmetry_Int_Tables_number   1
_chemical_formula_structural   Ba17Sr5La8Pr42Mn72O216
_chemical_formula_sum   'Ba17 Sr5 La8 Pr42 Mn72 O216'
_cell_volume   4402.07858975
_cell_formula_units_Z   1
loop_
 _symmetry_equiv_pos_site_id
 _symmetry_equiv_pos_as_xyz
  1  'x, y, z'
loop_
 _atom_site_type_symbol
 _atom_site_label
 _atom_site_symmetry_multiplicity
 _atom_site_fract_x
 _atom_site_fract_y
 _atom_site_fract_z
 _atom_site_occupancy
  Ba  Ba0  1  0.83303471  0.87511087  0.83297301  1
  Ba  Ba1  1  0.16980233  0.87304407  0.83286364  1
  Ba  Ba2  1  0.83661880  0.12433106  0.83567361  1
  Ba  Ba3  1  0.16890986  0.12527503  0.16637965  1
  Ba  Ba4  1  0.33393969  0.87559309  0.66803320  1
  Ba  Ba5  1  0.83228329  0.37466721  0.16844675  1
  Ba  Ba6  1  0.33070146  0.87501785  0.33346907  1
  Ba  Ba7  1  0.33675695  0.37658094  -0.00027806  1
  Ba  Ba8  1  0.66732176  0.37496337  0.66680659  1
  Ba  Ba9  1  0.16839973  0.37649851  0.83201883  1
  Ba  Ba10  1  -0.00340773  0.62542042  0.66250454  1
  Ba  Ba11  1  -0.00018474  0.37402403  0.33134261  1
  Ba  Ba12  1  0.83286409  0.87438761  0.16575166  1
  Ba  Ba13  1  0.33491400  0.12572760  0.66716891  1
  Ba  Ba14  1  0.32943034  0.62654693  0.33372607  1
  Ba  Ba15  1  0.66707254  0.87605356  0.33595874  1
  Ba  Ba16  1  0.00217239  0.12520900  0.99921695  1
  Sr  Sr17  1  0.49807185  0.37589077  0.16736526  1
  Sr  Sr18  1  0.33500018  0.12303626  0.33126543  1
  Sr  Sr19  1  0.66376357  0.37222808  0.33750069  1
  Sr  Sr20  1  0.83546702  0.12459385  0.16707645  1
  Sr  Sr21  1  0.33315164  0.37406302  0.67113881  1
  La  La22  1  0.00125036  0.87419314  0.66854045  1
  La  La23  1  0.66173297  0.62329344  0.33325136  1
  La  La24  1  0.16169065  0.62380739  0.16866064  1
  La  La25  1  0.50480300  0.12224113  0.50153718  1
  La  La26  1  0.16361085  0.62561565  0.50036695  1
  La  La27  1  0.16508387  0.62626053  0.83120061  1
  La  La28  1  0.49935596  0.37547662  0.83128205  1
  La  La29  1  0.50054349  0.12793083  0.16966869  1
  Pr  Pr30  1  0.49874794  0.62899153  0.50428723  1
  Pr  Pr31  1  -0.00075666  0.37506181  0.66663751  1
  Pr  Pr32  1  0.82652751  0.62227838  0.49974450  1
  Pr  Pr33  1  0.50155971  0.87446705  0.83152241  1
  Pr  Pr34  1  0.33911018  0.12837735  0.99485988  1
  Pr  Pr35  1  -0.00092817  0.12649561  0.32339096  1
  Pr  Pr36  1  0.49243385  0.87693187  0.49728761  1
  Pr  Pr37  1  0.33085144  0.62239442  0.99905086  1
  Pr  Pr38  1  0.17506599  0.12513616  0.83804658  1
  Pr  Pr39  1  0.49088449  0.37242734  0.49858849  1
  Pr  Pr40  1  -0.00673168  0.62487602  0.32948766  1
  Pr  Pr41  1  0.82694164  0.62352449  0.83233072  1
  Pr  Pr42  1  0.00235198  0.12203491  0.66856501  1
  Pr  Pr43  1  0.83166754  0.37965403  0.49209001  1
  Pr  Pr44  1  0.16743171  0.12427320  0.49915268  1
  Pr  Pr45  1  0.66652469  0.37301190  0.00742279  1
  Pr  Pr46  1  0.33001237  0.37328600  0.33266560  1
  Pr  Pr47  1  0.49803352  0.62301192  0.83377085  1
  Pr  Pr48  1  0.49634081  0.87459429  0.16715711  1
  Pr  Pr49  1  0.16678793  0.87574750  0.49946902  1
  Pr  Pr50  1  0.66691455  0.87654986  0.66814089  1
  Pr  Pr51  1  0.17009747  0.87359929  0.16304622  1
  Pr  Pr52  1  0.66902848  0.87850322  0.00766495  1
  Pr  Pr53  1  0.33638398  0.87600297  0.00184634  1
  Pr  Pr54  1  0.66553780  0.62524342  0.66560317  1
  Pr  Pr55  1  0.66898696  0.12710109  0.33206497  1
  Pr  Pr56  1  0.00440928  0.36986952  0.00319509  1
  Pr  Pr57  1  0.83704197  0.37344281  0.83426412  1
  Pr  Pr58  1  0.16831440  0.37720907  0.16163136  1
  Pr  Pr59  1  0.32620400  0.62318912  0.66299063  1
  Pr  Pr60  1  -0.00973379  0.62442178  0.99339620  1
  Pr  Pr61  1  0.83619281  0.87224364  0.49287739  1
  Pr  Pr62  1  0.83759689  0.12882836  0.49882651  1
  Pr  Pr63  1  0.00603419  0.88040192  -0.00020319  1
  Pr  Pr64  1  0.82602124  0.62444670  0.16823132  1
  Pr  Pr65  1  0.66276967  0.62710385  1.00235415  1
  Pr  Pr66  1  0.67259238  0.12538333  0.66743995  1
  Pr  Pr67  1  0.00150546  0.87997436  0.33014288  1
  Pr  Pr68  1  0.50755038  0.12743691  0.83549472  1
  Pr  Pr69  1  0.16720290  0.37511486  0.49946635  1
  Pr  Pr70  1  0.67466620  0.12513808  1.00161931  1
  Pr  Pr71  1  0.49587814  0.62154546  0.17186512  1
  Mn  Mn72  1  0.00059009  -0.00073754  0.16637336  1
  Mn  Mn73  1  -0.00048192  0.00135508  0.49819137  1
  Mn  Mn74  1  0.00301955  -0.00188460  0.83249108  1
  Mn  Mn75  1  -0.00139450  0.50198715  0.16221457  1
  Mn  Mn76  1  -0.00035347  0.49941379  0.49780709  1
  Mn  Mn77  1  -0.00179418  0.50093564  0.83203976  1
  Mn  Mn78  1  0.33452068  0.00007327  0.16518187  1
  Mn  Mn79  1  0.33195601  0.00236477  0.49900867  1
  Mn  Mn80  1  0.33781845  0.00007195  0.83522062  1
  Mn  Mn81  1  0.33275455  0.50077012  0.16720047  1
  Mn  Mn82  1  0.33245180  0.49897987  0.50076651  1
  Mn  Mn83  1  0.33491307  0.50168272  0.83045086  1
  Mn  Mn84  1  0.66496593  0.00159803  0.16870384  1
  Mn  Mn85  1  0.66911193  0.00064738  0.50266419  1
  Mn  Mn86  1  0.66656129  -0.00127387  0.83509173  1
  Mn  Mn87  1  0.66350839  0.49921483  0.16831770  1
  Mn  Mn88  1  0.66324608  0.49936417  0.50015210  1
  Mn  Mn89  1  0.66600975  0.50093639  0.83689050  1
  Mn  Mn90  1  0.00041693  0.25047165  0.16626614  1
  Mn  Mn91  1  0.00090234  0.24740583  0.50059799  1
  Mn  Mn92  1  0.00239953  0.25204816  0.83197407  1
  Mn  Mn93  1  -0.00002748  0.74867037  0.16293327  1
  Mn  Mn94  1  -0.00115744  0.75219108  0.49569496  1
  Mn  Mn95  1  -0.00168826  0.74779196  0.83215331  1
  Mn  Mn96  1  0.33466899  0.24947889  0.16737368  1
  Mn  Mn97  1  0.33210950  0.24982486  0.49908795  1
  Mn  Mn98  1  0.33637963  0.25080891  0.83194395  1
  Mn  Mn99  1  0.33312787  0.75010675  0.16422682  1
  Mn  Mn100  1  0.33187730  0.74894534  0.50098913  1
  Mn  Mn101  1  0.33613382  0.74652352  0.83366603  1
  Mn  Mn102  1  0.66591662  0.25028572  0.16906846  1
  Mn  Mn103  1  0.66631093  0.24902001  0.50006506  1
  Mn  Mn104  1  0.66799516  0.25161456  0.83687836  1
  Mn  Mn105  1  0.66291629  0.74917555  0.16746002  1
  Mn  Mn106  1  0.66625245  0.75020011  0.50210144  1
  Mn  Mn107  1  0.66535653  0.74966379  0.83390854  1
  Mn  Mn108  1  0.17023119  0.25088662  -0.00023149  1
  Mn  Mn109  1  0.16753964  0.25084271  0.33365197  1
  Mn  Mn110  1  0.16501799  0.24812912  0.66577693  1
  Mn  Mn111  1  0.16744618  0.74714229  0.00092079  1
  Mn  Mn112  1  0.16079605  0.75067092  0.33273108  1
  Mn  Mn113  1  0.16583078  0.74933917  0.66554169  1
  Mn  Mn114  1  0.50313145  0.24953982  0.00229321  1
  Mn  Mn115  1  0.49894611  0.25092203  0.33501076  1
  Mn  Mn116  1  0.50213909  0.24946523  0.66674689  1
  Mn  Mn117  1  0.50028963  0.74970648  -0.00008309  1
  Mn  Mn118  1  0.49957331  0.74960423  0.33546002  1
  Mn  Mn119  1  0.50167658  0.74969086  0.66867103  1
  Mn  Mn120  1  0.83349692  0.25129968  0.00050230  1
  Mn  Mn121  1  0.83186403  0.24927637  0.33397701  1
  Mn  Mn122  1  0.83518989  0.25011177  0.66521578  1
  Mn  Mn123  1  0.83252688  0.74882229  -0.00058978  1
  Mn  Mn124  1  0.83344914  0.74952919  0.33232410  1
  Mn  Mn125  1  0.83102032  0.75018449  0.66230655  1
  Mn  Mn126  1  0.17152307  -0.00092674  -0.00031770  1
  Mn  Mn127  1  0.16575326  0.00005738  0.33324546  1
  Mn  Mn128  1  0.16591847  0.00177477  0.66742561  1
  Mn  Mn129  1  0.16609464  0.50320669  0.00042052  1
  Mn  Mn130  1  0.16370008  0.50004176  0.33278534  1
  Mn  Mn131  1  0.16511574  0.49896361  0.66475134  1
  Mn  Mn132  1  0.50170264  0.00007688  0.00059820  1
  Mn  Mn133  1  0.50038214  0.00108053  0.33464596  1
  Mn  Mn134  1  0.50410431  -0.00029225  0.66826129  1
  Mn  Mn135  1  0.50178412  0.50205746  0.00169575  1
  Mn  Mn136  1  0.49815066  0.49781622  0.33582890  1
  Mn  Mn137  1  0.50003077  0.50048764  0.66700816  1
  Mn  Mn138  1  0.83408821  -0.00136573  0.00094349  1
  Mn  Mn139  1  0.83407793  0.00074555  0.33352518  1
  Mn  Mn140  1  0.83343939  0.00163075  0.66200905  1
  Mn  Mn141  1  0.83105002  0.50134142  -0.00081801  1
  Mn  Mn142  1  0.83072697  0.50128599  0.33311098  1
  Mn  Mn143  1  0.83208681  0.49789341  0.66608880  1
  O  O144  1  0.18235821  0.12433356  0.00713471  1
  O  O145  1  0.16050187  0.12541668  0.35547078  1
  O  O146  1  0.15746555  0.12505388  0.69198529  1
  O  O147  1  0.17799909  0.62570337  0.02548554  1
  O  O148  1  0.15665299  0.62674363  0.35663337  1
  O  O149  1  0.17023494  0.62396110  0.68193612  1
  O  O150  1  0.50119681  0.12119364  0.02635367  1
  O  O151  1  0.50582213  0.12721653  0.35693591  1
  O  O152  1  0.51204689  0.12168105  0.69029745  1
  O  O153  1  0.50798859  0.62892592  0.02915541  1
  O  O154  1  0.50573416  0.62279754  0.35893887  1
  O  O155  1  0.50865736  0.62643446  0.69111066  1
  O  O156  1  0.83066211  0.12473922  0.01350728  1
  O  O157  1  0.84485475  0.12410963  0.35337903  1
  O  O158  1  0.83421216  0.12702517  0.68230587  1
  O  O159  1  0.84243386  0.62542541  0.02444438  1
  O  O160  1  0.84177988  0.62701355  0.35418576  1
  O  O161  1  0.82819906  0.62053053  0.68903876  1
  O  O162  1  0.17106968  0.37582305  0.30750811  1
  O  O163  1  0.16023721  0.37302881  0.64377050  1
  O  O164  1  0.15736199  0.37951735  0.99031398  1
  O  O165  1  0.15713096  0.87294753  0.30716913  1
  O  O166  1  0.16033368  0.87614697  0.64555070  1
  O  O167  1  0.15988136  0.87074728  0.98871775  1
  O  O168  1  0.49379975  0.37441524  0.31572231  1
  O  O169  1  0.49768002  0.37806091  0.64323568  1
  O  O170  1  0.50931552  0.37680280  0.97536952  1
  O  O171  1  0.49937735  0.87533708  0.31389639  1
  O  O172  1  0.50820548  0.87344550  0.64111817  1
  O  O173  1  0.49684304  0.87422708  0.97241347  1
  O  O174  1  0.82274880  0.37541015  0.32924979  1
  O  O175  1  0.83781885  0.37246830  0.63752652  1
  O  O176  1  0.81909531  0.38029897  0.97892170  1
  O  O177  1  0.83316149  0.87363777  0.32275476  1
  O  O178  1  0.82499965  0.87988118  0.63627504  1
  O  O179  1  0.81937734  0.87084675  0.99154619  1
  O  O180  1  0.01019613  0.37860879  0.17287722  1
  O  O181  1  0.00119471  0.36874715  0.52365156  1
  O  O182  1  -0.00186764  0.38119097  0.85707229  1
  O  O183  1  0.01013407  0.87196502  0.18560691  1
  O  O184  1  -0.00624745  0.87878259  0.52592933  1
  O  O185  1  0.00368828  0.86788104  0.85381616  1
  O  O186  1  0.33158501  0.37783043  0.18787856  1
  O  O187  1  0.33651430  0.37520485  0.52242082  1
  O  O188  1  0.34270685  0.37679479  0.84183184  1
  O  O189  1  0.33666709  0.87393091  0.17782317  1
  O  O190  1  0.33478949  0.87472035  0.51104617  1
  O  O191  1  0.34468551  0.87064988  0.85710767  1
  O  O192  1  0.66607959  0.37586754  0.18566272  1
  O  O193  1  0.68075609  0.37332261  0.50957133  1
  O  O194  1  0.66615869  0.37957145  0.86371674  1
  O  O195  1  0.66269491  0.87469166  0.17874419  1
  O  O196  1  0.68027845  0.87457873  0.52496429  1
  O  O197  1  0.65893382  0.87156858  0.86311201  1
  O  O198  1  -0.00483366  0.12367281  0.15965696  1
  O  O199  1  -0.00072148  0.12296550  0.46820747  1
  O  O200  1  0.00456368  0.12653956  0.81419880  1
  O  O201  1  -0.00439588  0.62577750  0.13767846  1
  O  O202  1  0.00452839  0.63022377  0.47372595  1
  O  O203  1  -0.00593197  0.62363616  0.81916401  1
  O  O204  1  0.33802603  0.12083034  0.14088318  1
  O  O205  1  0.32525165  0.12762015  0.48113157  1
  O  O206  1  0.33003676  0.12591273  0.82772513  1
  O  O207  1  0.33239296  0.62716654  0.14413735  1
  O  O208  1  0.33219088  0.62309191  0.48912902  1
  O  O209  1  0.34217522  0.62477304  0.80843961  1
  O  O210  1  0.65553644  0.12593896  0.14591549  1
  O  O211  1  0.65536802  0.12443439  0.47761718  1
  O  O212  1  0.65978390  0.12316958  0.81146583  1
  O  O213  1  0.65480325  0.62428205  0.14693756  1
  O  O214  1  0.65813034  0.62628348  0.47843187  1
  O  O215  1  0.66564463  0.62592115  0.80759708  1
  O  O216  1  0.07745870  0.01341115  0.25743991  1
  O  O217  1  0.08102432  0.02320408  0.57836940  1
  O  O218  1  0.09775535  0.01380020  0.91133720  1
  O  O219  1  0.07406618  0.52396325  0.25058664  1
  O  O220  1  0.08479826  0.51178490  0.57747334  1
  O  O221  1  0.08128093  0.52484493  0.92097337  1
  O  O222  1  0.42314832  0.01484626  0.23957212  1
  O  O223  1  0.42898102  0.01194676  0.57918267  1
  O  O224  1  0.42463620  0.02424872  0.91655720  1
  O  O225  1  0.41620649  0.51613316  0.24938500  1
  O  O226  1  0.41704655  0.52326110  0.58517053  1
  O  O227  1  0.41779844  0.52263644  0.91960287  1
  O  O228  1  0.74927076  0.02156242  0.25472148  1
  O  O229  1  0.75252005  0.02989280  0.57993411  1
  O  O230  1  0.74545973  0.01164610  0.91935079  1
  O  O231  1  0.74474959  0.52546394  0.25142454  1
  O  O232  1  0.74517631  0.52142727  0.58650973  1
  O  O233  1  0.74479419  0.53028709  0.92212691  1
  O  O234  1  0.25690496  0.23974496  0.25821550  1
  O  O235  1  0.24209746  0.23687769  0.57698837  1
  O  O236  1  0.25783167  0.23861240  0.92016932  1
  O  O237  1  0.23710419  0.73923856  0.24002346  1
  O  O238  1  0.24907786  0.73228781  0.58353725  1
  O  O239  1  0.24916114  0.72550270  0.91367942  1
  O  O240  1  0.58719226  0.23204945  0.25813274  1
  O  O241  1  0.59023336  0.23055387  0.58950927  1
  O  O242  1  0.58823604  0.22640684  0.92392606  1
  O  O243  1  0.58066345  0.72997838  0.25091016  1
  O  O244  1  0.58375480  0.72944665  0.58641125  1
  O  O245  1  0.57875953  0.72568083  0.91398909  1
  O  O246  1  0.91721396  0.23940844  0.25511196  1
  O  O247  1  0.92350872  0.22494982  0.58583056  1
  O  O248  1  0.91857890  0.25396585  0.91742933  1
  O  O249  1  0.91166363  0.72889626  0.23915073  1
  O  O250  1  0.90587319  0.73697403  0.56524367  1
  O  O251  1  0.90932299  0.72901831  0.91043538  1
  O  O252  1  0.08938119  0.49151452  0.08906170  1
  O  O253  1  0.08985394  0.48290757  0.42096116  1
  O  O254  1  0.08065155  0.48796064  0.74487024  1
  O  O255  1  0.08602440  0.98335000  0.08330988  1
  O  O256  1  0.08123140  0.97434706  0.41922428  1
  O  O257  1  0.07646727  0.98483494  0.74134672  1
  O  O258  1  0.42262050  0.49581633  0.08591246  1
  O  O259  1  0.41540980  0.47859088  0.41904924  1
  O  O260  1  0.42293622  0.48782037  0.75173416  1
  O  O261  1  0.41600587  0.97718354  0.07686167  1
  O  O262  1  0.41880137  0.99197629  0.41758044  1
  O  O263  1  0.42395283  0.98698127  0.75520183  1
  O  O264  1  0.74974533  0.49640141  0.08402720  1
  O  O265  1  0.75018514  0.49853138  0.42295816  1
  O  O266  1  0.75701526  0.48447781  0.76211075  1
  O  O267  1  0.74094182  0.99409181  0.08108247  1
  O  O268  1  0.75539286  0.99500525  0.42285697  1
  O  O269  1  0.74211877  0.98701529  0.74104362  1
  O  O270  1  0.24565749  0.26725253  0.08989345  1
  O  O271  1  0.24859584  0.27542647  0.41788223  1
  O  O272  1  0.24700076  0.25632881  0.74908365  1
  O  O273  1  0.25710411  0.76994185  0.07502878  1
  O  O274  1  0.23891893  0.76181192  0.42061266  1
  O  O275  1  0.25534948  0.75091348  0.74958505  1
  O  O276  1  0.58260801  0.26928219  0.08610650  1
  O  O277  1  0.57320904  0.26817332  0.42768255  1
  O  O278  1  0.57962825  0.26698163  0.76381068  1
  O  O279  1  0.58224482  0.77468819  0.07912255  1
  O  O280  1  0.58111136  0.76840047  0.42773501  1
  O  O281  1  0.58600461  0.77414113  0.74944537  1
  O  O282  1  0.91811201  0.26683889  0.07795771  1
  O  O283  1  0.90763196  0.26437822  0.42857370  1
  O  O284  1  0.91635196  0.27428972  0.74963821  1
  O  O285  1  0.93253984  0.76828346  0.06883611  1
  O  O286  1  0.92380141  0.77092994  0.40678985  1
  O  O287  1  0.91739411  0.76792359  0.73512017  1
  O  O288  1  0.24950743  0.48668585  0.08506466  1
  O  O289  1  0.25203622  0.47827228  0.41658955  1
  O  O290  1  0.25347080  0.49546482  0.74329627  1
  O  O291  1  0.25014557  0.97600028  0.08459597  1
  O  O292  1  0.23914050  0.98654050  0.42106039  1
  O  O293  1  0.24899326  0.99636412  0.75656441  1
  O  O294  1  0.58798892  0.48123263  0.07992904  1
  O  O295  1  0.57913072  0.47886369  0.42256041  1
  O  O296  1  0.58113839  0.48549054  0.75662780  1
  O  O297  1  0.57674385  0.97615689  0.08523347  1
  O  O298  1  0.57837347  0.98151430  0.43267111  1
  O  O299  1  0.58263912  0.97431489  0.75497314  1
  O  O300  1  0.92679359  0.48304148  0.06703047  1
  O  O301  1  0.91574411  0.48816439  0.41713298  1
  O  O302  1  0.91616713  0.47480665  0.74467280  1
  O  O303  1  0.92251818  0.98264978  0.08036081  1
  O  O304  1  0.91831041  0.97723382  0.41669920  1
  O  O305  1  0.91870538  0.98567091  0.73733568  1
  O  O306  1  0.08419214  0.26294652  0.07964728  1
  O  O307  1  0.08951159  0.26578345  0.42435882  1
  O  O308  1  0.07392798  0.26652256  0.73897224  1
  O  O309  1  0.09450019  0.76126442  0.09429398  1
  O  O310  1  0.08063290  0.77946017  0.41640564  1
  O  O311  1  0.08372792  0.75714233  0.74733472  1
  O  O312  1  0.41805786  0.25738873  0.08131358  1
  O  O313  1  0.41020555  0.27028163  0.41085156  1
  O  O314  1  0.41946085  0.26099683  0.74888872  1
  O  O315  1  0.42080598  0.77104118  0.08153296  1
  O  O316  1  0.42123699  0.75931456  0.42501697  1
  O  O317  1  0.42842077  0.76305799  0.75963067  1
  O  O318  1  0.74361287  0.25951176  0.07915421  1
  O  O319  1  0.74446311  0.24902342  0.41383414  1
  O  O320  1  0.75267656  0.26613973  0.75564050  1
  O  O321  1  0.74640118  0.75049618  0.08269634  1
  O  O322  1  0.75706569  0.75615558  0.42652629  1
  O  O323  1  0.74387515  0.76418142  0.74603624  1
  O  O324  1  0.25121784  0.00851510  0.25201482  1
  O  O325  1  0.24390500  0.01271130  0.58081060  1
  O  O326  1  0.26431045  0.00666021  0.92658703  1
  O  O327  1  0.23915964  0.51543175  0.24467366  1
  O  O328  1  0.24703133  0.51666259  0.57997540  1
  O  O329  1  0.24895084  0.52299962  0.91313792  1
  O  O330  1  0.58590301  0.02091823  0.25516345  1
  O  O331  1  0.59538880  0.01571334  0.59474924  1
  O  O332  1  0.58533647  0.02239180  0.92222495  1
  O  O333  1  0.57957089  0.51903626  0.25203381  1
  O  O334  1  0.58139610  0.52117695  0.58414235  1
  O  O335  1  0.58160293  0.52674628  0.91725457  1
  O  O336  1  0.91911847  0.00860949  0.25424313  1
  O  O337  1  0.91754280  0.02528191  0.57725619  1
  O  O338  1  0.92558133  -0.00185227  0.91841512  1
  O  O339  1  0.91122006  0.51982588  0.24063516  1
  O  O340  1  0.90774720  0.51245616  0.57360533  1
  O  O341  1  0.90506978  0.51751635  0.90832652  1
  O  O342  1  0.08207975  0.23714850  0.25535137  1
  O  O343  1  0.08247997  0.22143485  0.58117787  1
  O  O344  1  0.09323889  0.23712112  0.90887976  1
  O  O345  1  0.07279363  0.72570974  0.25430179  1
  O  O346  1  0.08541268  0.74010838  0.57354892  1
  O  O347  1  0.08250302  0.72506573  0.92521218  1
  O  O348  1  0.42263425  0.23156129  0.24670322  1
  O  O349  1  0.42499475  0.23512087  0.57033219  1
  O  O350  1  0.42600584  0.23134938  0.91455281  1
  O  O351  1  0.41897995  0.73507010  0.24245094  1
  O  O352  1  0.41788442  0.72900728  0.59042252  1
  O  O353  1  0.41448315  0.72227058  0.92269086  1
  O  O354  1  0.74899637  0.22783767  0.25026890  1
  O  O355  1  0.75339966  0.22772002  0.57913516  1
  O  O356  1  0.74706328  0.23612299  0.92052149  1
  O  O357  1  0.74649226  0.72543394  0.25336395  1
  O  O358  1  0.74559122  0.72199117  0.58487659  1
  O  O359  1  0.74511200  0.72453723  0.91669901  1
