# generated using pymatgen
data_Ba17Sr5La8Pr42Mn72O216
_symmetry_space_group_name_H-M   'P 1'
_cell_length_a   16.67185565
_cell_length_b   15.70665910
_cell_length_c   16.81710927
_cell_angle_alpha   89.99837017
_cell_angle_beta   90.02179871
_cell_angle_gamma   89.99861172
_symmetry_Int_Tables_number   1
_chemical_formula_structural   Ba17Sr5La8Pr42Mn72O216
_chemical_formula_sum   'Ba17 Sr5 La8 Pr42 Mn72 O216'
_cell_volume   4403.71367275
_cell_formula_units_Z   1
loop_
 _symmetry_equiv_pos_site_id
 _symmetry_equiv_pos_as_xyz
  1  'x, y, z'
loop_
 _atom_site_type_symbol
 _atom_site_label
 _atom_site_symmetry_multiplicity
 _atom_site_fract_x
 _atom_site_fract_y
 _atom_site_fract_z
 _atom_site_occupancy
  Ba  Ba0  1  0.17011502  0.37641816  0.50079109  1
  Ba  Ba1  1  0.49690592  0.62606634  0.16951392  1
  Ba  Ba2  1  0.83461012  0.87412473  0.16320330  1
  Ba  Ba3  1  0.16766655  0.12521869  0.83732636  1
  Ba  Ba4  1  0.66361724  0.62449427  0.33237961  1
  Ba  Ba5  1  0.66351936  0.62458996  0.66402068  1
  Ba  Ba6  1  0.16419717  0.12502490  0.50322072  1
  Ba  Ba7  1  0.83116083  0.12626268  0.83141707  1
  Ba  Ba8  1  0.49901923  0.12538912  0.50203672  1
  Ba  Ba9  1  -0.00131623  0.62668719  0.66230280  1
  Ba  Ba10  1  0.00142069  0.12532315  0.33142223  1
  Ba  Ba11  1  0.83370812  0.37758478  0.49548812  1
  Ba  Ba12  1  0.16727526  0.12431351  0.16995234  1
  Ba  Ba13  1  0.66767628  0.87416860  0.66431221  1
  Ba  Ba14  1  0.66929190  0.37514546  0.33026468  1
  Ba  Ba15  1  0.83571859  0.37359460  0.82945230  1
  Ba  Ba16  1  0.33286162  0.87472527  0.67150024  1
  Sr  Sr17  1  0.82891022  0.62484431  0.49849737  1
  Sr  Sr18  1  0.83322395  0.86984593  0.49528500  1
  Sr  Sr19  1  0.66470559  0.12355409  0.99673404  1
  Sr  Sr20  1  0.16543848  0.62278814  0.50277937  1
  Sr  Sr21  1  0.33565647  0.37540918  0.33697476  1
  La  La22  1  0.33428907  0.12618921  1.00302591  1
  La  La23  1  0.66685925  0.12625146  0.66507980  1
  La  La24  1  -0.00576423  0.62356159  0.33288317  1
  La  La25  1  0.33472670  0.87488483  0.34146187  1
  La  La26  1  0.00169255  0.87733913  0.33405083  1
  La  La27  1  -0.00815328  0.62791021  0.99279085  1
  La  La28  1  0.33097567  0.62377528  0.66718513  1
  La  La29  1  0.66847045  0.12474293  0.33241425  1
  Pr  Pr30  1  0.66910027  0.87307192  0.33766222  1
  Pr  Pr31  1  0.50346658  0.87468113  0.16834986  1
  Pr  Pr32  1  0.50561103  0.37625456  0.83324295  1
  Pr  Pr33  1  0.16723751  0.87322455  0.83226158  1
  Pr  Pr34  1  0.49946603  0.12009823  0.83678568  1
  Pr  Pr35  1  0.67170723  0.37384837  0.66377682  1
  Pr  Pr36  1  0.50055695  0.12655041  0.17328097  1
  Pr  Pr37  1  0.83462511  0.12534451  0.16459787  1
  Pr  Pr38  1  0.84082040  0.37658757  0.16166633  1
  Pr  Pr39  1  0.16225180  0.62674980  0.83517887  1
  Pr  Pr40  1  0.83623288  0.87590541  0.82492853  1
  Pr  Pr41  1  0.32705085  0.62138152  0.33497835  1
  Pr  Pr42  1  -0.00688166  0.12780732  0.65978364  1
  Pr  Pr43  1  0.00499428  0.87837379  -0.00008155  1
  Pr  Pr44  1  0.32501438  0.62108034  1.00169155  1
  Pr  Pr45  1  0.16272502  0.62336308  0.17257027  1
  Pr  Pr46  1  0.50823302  0.37565183  0.16465998  1
  Pr  Pr47  1  0.00892483  0.37760170  0.66555115  1
  Pr  Pr48  1  0.33250323  0.87637285  0.00695278  1
  Pr  Pr49  1  0.32990132  0.12975799  0.33627704  1
  Pr  Pr50  1  0.17500635  0.37251071  0.17106164  1
  Pr  Pr51  1  0.33780757  0.37159318  0.00697292  1
  Pr  Pr52  1  0.83039101  0.12559319  0.49969149  1
  Pr  Pr53  1  0.50315396  0.37685155  0.49585060  1
  Pr  Pr54  1  0.00535476  0.37386432  0.33469541  1
  Pr  Pr55  1  0.50368635  0.87361780  0.50108715  1
  Pr  Pr56  1  0.82098972  0.62340814  0.82858620  1
  Pr  Pr57  1  0.67979828  0.37135685  0.00366680  1
  Pr  Pr58  1  0.49756903  0.62311989  0.50107815  1
  Pr  Pr59  1  0.17187883  0.37717349  0.83025172  1
  Pr  Pr60  1  0.82353248  0.62524091  0.16754731  1
  Pr  Pr61  1  0.33568661  0.37100039  0.66833297  1
  Pr  Pr62  1  0.49644736  0.63118806  0.83883918  1
  Pr  Pr63  1  0.32958955  0.12465877  0.66621132  1
  Pr  Pr64  1  0.00154328  0.87522999  0.66359411  1
  Pr  Pr65  1  0.16523233  0.87559871  0.16868419  1
  Pr  Pr66  1  0.00984267  0.37395847  -0.00135728  1
  Pr  Pr67  1  0.16484001  0.86994742  0.49994697  1
  Pr  Pr68  1  0.66026493  0.62611189  0.99633934  1
  Pr  Pr69  1  0.50339353  0.87517396  0.83139291  1
  Pr  Pr70  1  0.67122650  0.87899508  0.00021532  1
  Pr  Pr71  1  -0.00246043  0.12276120  0.99472441  1
  Mn  Mn72  1  0.00054549  -0.00129095  0.16440993  1
  Mn  Mn73  1  -0.00229553  -0.00117784  0.49946617  1
  Mn  Mn74  1  0.00020032  -0.00119711  0.83114945  1
  Mn  Mn75  1  0.00123971  0.50163258  0.16275424  1
  Mn  Mn76  1  -0.00040181  0.50072319  0.49823510  1
  Mn  Mn77  1  0.00036215  0.50191765  0.83242671  1
  Mn  Mn78  1  0.33533795  -0.00182039  0.17164397  1
  Mn  Mn79  1  0.33288930  -0.00099584  0.50424122  1
  Mn  Mn80  1  0.33401277  -0.00000700  0.83909537  1
  Mn  Mn81  1  0.33395656  0.49951327  0.16855645  1
  Mn  Mn82  1  0.33453420  0.50092087  0.50172448  1
  Mn  Mn83  1  0.33449700  0.49961680  0.83618535  1
  Mn  Mn84  1  0.66638506  0.00178216  0.16564105  1
  Mn  Mn85  1  0.66612933  -0.00016978  0.49864059  1
  Mn  Mn86  1  0.66640085  -0.00001827  0.83390745  1
  Mn  Mn87  1  0.66740236  0.49810670  0.16222189  1
  Mn  Mn88  1  0.66524063  0.50062794  0.49870961  1
  Mn  Mn89  1  0.66372816  0.49882484  0.83259211  1
  Mn  Mn90  1  0.00159601  0.25347584  0.16436539  1
  Mn  Mn91  1  -0.00139024  0.25120520  0.49815893  1
  Mn  Mn92  1  0.00218292  0.25084195  0.83214548  1
  Mn  Mn93  1  0.00073802  0.74773022  0.16248577  1
  Mn  Mn94  1  -0.00039230  0.74998187  0.49724645  1
  Mn  Mn95  1  -0.00199886  0.74985960  0.83138310  1
  Mn  Mn96  1  0.33618269  0.25101590  0.16972395  1
  Mn  Mn97  1  0.33469042  0.25019491  0.50266831  1
  Mn  Mn98  1  0.33646125  0.25122023  0.83723701  1
  Mn  Mn99  1  0.33155101  0.75054093  0.17121964  1
  Mn  Mn100  1  0.33438062  0.74942995  0.50336930  1
  Mn  Mn101  1  0.33222144  0.74838842  0.83974612  1
  Mn  Mn102  1  0.66840849  0.24746561  0.16387425  1
  Mn  Mn103  1  0.66603950  0.24899927  0.49847403  1
  Mn  Mn104  1  0.66399770  0.25044115  0.83371002  1
  Mn  Mn105  1  0.66501876  0.75335745  0.16427678  1
  Mn  Mn106  1  0.66580619  0.74975586  0.49821644  1
  Mn  Mn107  1  0.66571914  0.74980762  0.83394254  1
  Mn  Mn108  1  0.16796522  0.25107978  0.00201754  1
  Mn  Mn109  1  0.16854877  0.25113632  0.33486162  1
  Mn  Mn110  1  0.16640365  0.25007580  0.67031921  1
  Mn  Mn111  1  0.16671544  0.74936799  0.00281248  1
  Mn  Mn112  1  0.16626906  0.74826968  0.33391583  1
  Mn  Mn113  1  0.16661569  0.74993599  0.66727851  1
  Mn  Mn114  1  0.50158925  0.24914518  0.00023500  1
  Mn  Mn115  1  0.49919083  0.25083643  0.33403757  1
  Mn  Mn116  1  0.49984089  0.25201083  0.66956229  1
  Mn  Mn117  1  0.49781969  0.75190800  0.00221514  1
  Mn  Mn118  1  0.49736110  0.75130754  0.33474164  1
  Mn  Mn119  1  0.49829952  0.74875003  0.66894133  1
  Mn  Mn120  1  0.83710143  0.25026907  -0.00140972  1
  Mn  Mn121  1  0.83449350  0.24851488  0.32953439  1
  Mn  Mn122  1  0.83354006  0.25032862  0.66309094  1
  Mn  Mn123  1  0.83215602  0.74868606  -0.00504104  1
  Mn  Mn124  1  0.83341550  0.74963824  0.32959465  1
  Mn  Mn125  1  0.83380836  0.75074830  0.66203428  1
  Mn  Mn126  1  0.16810234  -0.00091129  0.00240881  1
  Mn  Mn127  1  0.16952228  -0.00250177  0.33571336  1
  Mn  Mn128  1  0.16453934  -0.00078370  0.66951547  1
  Mn  Mn129  1  0.16661439  0.49979965  0.00221862  1
  Mn  Mn130  1  0.16550801  0.50165572  0.33478244  1
  Mn  Mn131  1  0.16904151  0.50050941  0.66832519  1
  Mn  Mn132  1  0.49902122  -0.00111537  0.00267202  1
  Mn  Mn133  1  0.49936874  0.00094150  0.33399897  1
  Mn  Mn134  1  0.49949274  0.00078648  0.66990571  1
  Mn  Mn135  1  0.49987086  0.49918609  -0.00148969  1
  Mn  Mn136  1  0.49709011  0.49895407  0.33345050  1
  Mn  Mn137  1  0.49846548  0.49741614  0.66734158  1
  Mn  Mn138  1  0.83375000  -0.00039717  -0.00400413  1
  Mn  Mn139  1  0.83334246  0.00005211  0.33087476  1
  Mn  Mn140  1  0.83330193  -0.00131199  0.66305983  1
  Mn  Mn141  1  0.83462092  0.50153304  -0.00245777  1
  Mn  Mn142  1  0.83411646  0.50135222  0.32835841  1
  Mn  Mn143  1  0.83399897  0.49977895  0.66333754  1
  O  O144  1  0.16491531  0.12613835  0.01502589  1
  O  O145  1  0.17477682  0.12187578  0.34466961  1
  O  O146  1  0.16544278  0.12545311  0.68140502  1
  O  O147  1  0.17095783  0.62469971  0.03038996  1
  O  O148  1  0.16753600  0.62617706  0.35247277  1
  O  O149  1  0.17298189  0.62347684  0.69177911  1
  O  O150  1  0.49864493  0.12093463  0.02979673  1
  O  O151  1  0.50539224  0.12542577  0.34513033  1
  O  O152  1  0.50175737  0.12826724  0.69397916  1
  O  O153  1  0.51130730  0.62519791  0.01476293  1
  O  O154  1  0.49367766  0.62714052  0.35502847  1
  O  O155  1  0.49544486  0.61915442  0.69546263  1
  O  O156  1  0.84574903  0.12860892  0.01969903  1
  O  O157  1  0.83380268  0.12179920  0.35365816  1
  O  O158  1  0.83775526  0.12464419  0.67557934  1
  O  O159  1  0.83812219  0.62505652  0.02433725  1
  O  O160  1  0.84089207  0.62626556  0.34513771  1
  O  O161  1  0.83382915  0.62673136  0.68474229  1
  O  O162  1  0.16360313  0.37972691  0.31433249  1
  O  O163  1  0.16697629  0.37617363  0.65904464  1
  O  O164  1  0.16753721  0.37761152  0.97394215  1
  O  O165  1  0.17291437  0.87010175  0.31160391  1
  O  O166  1  0.16331963  0.87562385  0.64541705  1
  O  O167  1  0.17034030  0.87161842  0.97576716  1
  O  O168  1  0.49219430  0.37247628  0.31028191  1
  O  O169  1  0.48955028  0.37490490  0.63912951  1
  O  O170  1  0.48844497  0.37623299  0.97537600  1
  O  O171  1  0.49164391  0.87836575  0.31143973  1
  O  O172  1  0.49706529  0.87714919  0.64770277  1
  O  O173  1  0.48757736  0.87576366  0.97381115  1
  O  O174  1  0.83941903  0.37649942  0.30577787  1
  O  O175  1  0.82450235  0.37274345  0.65440633  1
  O  O176  1  0.83000365  0.37652703  0.98612188  1
  O  O177  1  0.82883701  0.87538769  0.31901533  1
  O  O178  1  0.83867385  0.87627482  0.64749730  1
  O  O179  1  0.82798447  0.86880440  0.97036216  1
  O  O180  1  -0.00937805  0.38103342  0.19063779  1
  O  O181  1  -0.00111230  0.37452927  0.51926683  1
  O  O182  1  0.00614324  0.38065754  0.85564823  1
  O  O183  1  0.00340547  0.86812424  0.18803343  1
  O  O184  1  0.00383128  0.87533542  0.51830232  1
  O  O185  1  -0.00702251  0.87133239  0.85774507  1
  O  O186  1  0.33445293  0.37492659  0.18552883  1
  O  O187  1  0.34167848  0.37669664  0.52401958  1
  O  O188  1  0.33290339  0.37732944  0.86467391  1
  O  O189  1  0.33243354  0.87221479  0.19642355  1
  O  O190  1  0.33761195  0.87387023  0.51600986  1
  O  O191  1  0.33136230  0.86939901  0.86364884  1
  O  O192  1  0.67220030  0.37153034  0.17210695  1
  O  O193  1  0.65941579  0.37327352  0.51863361  1
  O  O194  1  0.65984052  0.37458877  0.85980771  1
  O  O195  1  0.66436733  0.88139604  0.19081794  1
  O  O196  1  0.66361174  0.87715757  0.50714639  1
  O  O197  1  0.66689070  0.87163212  0.85619885  1
  O  O198  1  -0.00230274  0.12888968  0.13952680  1
  O  O199  1  -0.00588099  0.12427773  0.48938969  1
  O  O200  1  0.00309396  0.12062030  0.80737711  1
  O  O201  1  0.01258139  0.62444949  0.13365778  1
  O  O202  1  0.00395091  0.62657799  0.47745515  1
  O  O203  1  0.01132587  0.62662692  0.81881681  1
  O  O204  1  0.33908323  0.12632914  0.14477226  1
  O  O205  1  0.33217086  0.12327140  0.48166889  1
  O  O206  1  0.34090321  0.13057248  0.80988112  1
  O  O207  1  0.32658772  0.62606464  0.14394632  1
  O  O208  1  0.34029065  0.62650037  0.47774515  1
  O  O209  1  0.33571235  0.62253116  0.81184045  1
  O  O210  1  0.65538291  0.12483226  0.14436023  1
  O  O211  1  0.66866055  0.12322439  0.47797659  1
  O  O212  1  0.65567338  0.12809353  0.81110971  1
  O  O213  1  0.66852402  0.62317999  0.14074284  1
  O  O214  1  0.65524398  0.62600070  0.48933309  1
  O  O215  1  0.66005739  0.62536197  0.82215605  1
  O  O216  1  0.08722135  -0.00125289  0.25084867  1
  O  O217  1  0.07198048  0.01018480  0.59312936  1
  O  O218  1  0.07760459  0.00777989  0.92150019  1
  O  O219  1  0.07641142  0.52136951  0.25102238  1
  O  O220  1  0.08351477  0.50568391  0.58877425  1
  O  O221  1  0.07768631  0.52036089  0.92772249  1
  O  O222  1  0.42093175  0.02203820  0.24884433  1
  O  O223  1  0.41201164  0.01877593  0.59520964  1
  O  O224  1  0.41618422  0.02514901  0.92340862  1
  O  O225  1  0.40408612  0.51735498  0.26079916  1
  O  O226  1  0.41235380  0.52335450  0.59070476  1
  O  O227  1  0.41006930  0.52516289  0.92410530  1
  O  O228  1  0.74958725  0.02636292  0.24492339  1
  O  O229  1  0.74938847  0.02054763  0.57996173  1
  O  O230  1  0.74471155  0.01042113  0.91850711  1
  O  O231  1  0.75209669  0.51418330  0.24343147  1
  O  O232  1  0.74306530  0.50484127  0.58504282  1
  O  O233  1  0.74274510  0.51993978  0.92526983  1
  O  O234  1  0.25447189  0.24115370  0.25177873  1
  O  O235  1  0.25346490  0.24004620  0.59248108  1
  O  O236  1  0.25760458  0.23822854  0.92583589  1
  O  O237  1  0.24497091  0.72602431  0.24813530  1
  O  O238  1  0.25246897  0.73248001  0.58595235  1
  O  O239  1  0.24758099  0.72244229  0.92122771  1
  O  O240  1  0.57824409  0.23954468  0.24217104  1
  O  O241  1  0.58833357  0.23828832  0.59286097  1
  O  O242  1  0.57551480  0.23242487  0.91035260  1
  O  O243  1  0.57653166  0.74952199  0.24689555  1
  O  O244  1  0.57230653  0.74252862  0.57283880  1
  O  O245  1  0.57950842  0.73736406  0.91636685  1
  O  O246  1  0.90781986  0.23518045  0.23446818  1
  O  O247  1  0.90987202  0.23236244  0.57370484  1
  O  O248  1  0.92154082  0.23685938  0.91612802  1
  O  O249  1  0.91585473  0.72585189  0.23634664  1
  O  O250  1  0.91433803  0.74180571  0.57315401  1
  O  O251  1  0.90778644  0.72525617  0.90483432  1
  O  O252  1  0.09282997  0.47195056  0.09125412  1
  O  O253  1  0.08190349  0.48644588  0.41272004  1
  O  O254  1  0.09316150  0.48535605  0.76063746  1
  O  O255  1  0.08621318  0.97636088  0.08397168  1
  O  O256  1  0.08601445  0.97791346  0.41907356  1
  O  O257  1  0.08421809  0.97094817  0.75382865  1
  O  O258  1  0.42406535  0.48024435  0.08735790  1
  O  O259  1  0.42319515  0.48563185  0.42822526  1
  O  O260  1  0.42138079  0.47475590  0.75485084  1
  O  O261  1  0.41569128  0.97580907  0.08642621  1
  O  O262  1  0.41627850  0.98359390  0.41713499  1
  O  O263  1  0.42225538  0.98535454  0.76362326  1
  O  O264  1  0.75903228  0.48351956  0.08568050  1
  O  O265  1  0.75187313  0.49733357  0.41549601  1
  O  O266  1  0.75016529  0.49293520  0.75488505  1
  O  O267  1  0.74723019  0.98960057  0.07834297  1
  O  O268  1  0.74388644  0.98875844  0.40701089  1
  O  O269  1  0.75598121  0.98714370  0.75110874  1
  O  O270  1  0.25349551  0.27102471  0.08477365  1
  O  O271  1  0.25658371  0.25809903  0.41413292  1
  O  O272  1  0.25572221  0.27102981  0.75562326  1
  O  O273  1  0.25293004  0.77376830  0.08573519  1
  O  O274  1  0.25348745  0.76648810  0.41898556  1
  O  O275  1  0.24412655  0.76150632  0.76368489  1
  O  O276  1  0.58749768  0.27318507  0.07544404  1
  O  O277  1  0.58084919  0.26467056  0.41829389  1
  O  O278  1  0.58220080  0.27833552  0.74885780  1
  O  O279  1  0.58312996  0.77806330  0.07909728  1
  O  O280  1  0.58259620  0.77285417  0.41132929  1
  O  O281  1  0.57917815  0.76383416  0.75523305  1
  O  O282  1  0.92561993  0.27555736  0.07662048  1
  O  O283  1  0.92347932  0.26624365  0.40428397  1
  O  O284  1  0.92748335  0.26255109  0.73474940  1
  O  O285  1  0.92646924  0.76434218  0.06652865  1
  O  O286  1  0.92485368  0.76431536  0.40427313  1
  O  O287  1  0.91960375  0.77138993  0.74512673  1
  O  O288  1  0.25789706  0.47908955  0.07663545  1
  O  O289  1  0.25859149  0.49402136  0.41192189  1
  O  O290  1  0.25759003  0.47839429  0.75054158  1
  O  O291  1  0.25016739  0.97702457  0.09227732  1
  O  O292  1  0.24709417  0.97646244  0.42241254  1
  O  O293  1  0.24570318  0.98517101  0.76224010  1
  O  O294  1  0.59047992  0.47632257  0.07019498  1
  O  O295  1  0.58046739  0.48570725  0.41617415  1
  O  O296  1  0.58564240  0.47081448  0.74059331  1
  O  O297  1  0.58170003  0.97268840  0.08236735  1
  O  O298  1  0.58017520  0.97824768  0.41475321  1
  O  O299  1  0.57977754  0.98466601  0.75661496  1
  O  O300  1  0.92778435  0.48265581  0.07059137  1
  O  O301  1  0.92563730  0.48903557  0.39809214  1
  O  O302  1  0.92709904  0.48460986  0.73977446  1
  O  O303  1  0.92417199  0.98431451  0.07137016  1
  O  O304  1  0.91983974  0.98086703  0.41198772  1
  O  O305  1  0.92200579  0.97888373  0.74448377  1
  O  O306  1  0.08937963  0.27917939  0.08745299  1
  O  O307  1  0.08258035  0.26406778  0.41615765  1
  O  O308  1  0.08897376  0.27349344  0.75782378  1
  O  O309  1  0.08823066  0.77533296  0.08490657  1
  O  O310  1  0.08527698  0.77375340  0.41389220  1
  O  O311  1  0.08246356  0.77292428  0.75257841  1
  O  O312  1  0.42159656  0.26935701  0.08830742  1
  O  O313  1  0.41991965  0.26552878  0.42223276  1
  O  O314  1  0.41943794  0.27667614  0.75711715  1
  O  O315  1  0.41754154  0.77245822  0.09218108  1
  O  O316  1  0.42310708  0.77012652  0.42608781  1
  O  O317  1  0.42065019  0.76282919  0.76605106  1
  O  O318  1  0.76117983  0.26141467  0.08865716  1
  O  O319  1  0.75247207  0.25217152  0.41406054  1
  O  O320  1  0.74224018  0.25869130  0.74372170  1
  O  O321  1  0.74526500  0.76342525  0.07317274  1
  O  O322  1  0.74638477  0.76202637  0.41203394  1
  O  O323  1  0.75804124  0.76114180  0.76008400  1
  O  O324  1  0.26294633  0.01203025  0.26312184  1
  O  O325  1  0.25040623  0.01370141  0.59259526  1
  O  O326  1  0.25866699  0.01274759  0.93036501  1
  O  O327  1  0.24012974  0.51641443  0.24392783  1
  O  O328  1  0.25257585  0.51699124  0.58613719  1
  O  O329  1  0.24142248  0.52423876  0.91384800  1
  O  O330  1  0.58355702  0.01809774  0.24964915  1
  O  O331  1  0.58563160  0.01422019  0.58937170  1
  O  O332  1  0.57715428  0.01221844  0.91827281  1
  O  O333  1  0.57716447  0.49970597  0.23866108  1
  O  O334  1  0.56996612  0.50981609  0.57526695  1
  O  O335  1  0.57167951  0.51478642  0.90632999  1
  O  O336  1  0.91323437  0.01440780  0.24010910  1
  O  O337  1  0.91235208  0.01750715  0.57853437  1
  O  O338  1  0.91851656  0.01268422  0.91313206  1
  O  O339  1  0.91209015  0.52495207  0.23293734  1
  O  O340  1  0.91284080  0.51150572  0.57324133  1
  O  O341  1  0.90882194  0.52463646  0.90664856  1
  O  O342  1  0.08170195  0.25135352  0.24846054  1
  O  O343  1  0.07120223  0.24179864  0.59458705  1
  O  O344  1  0.07831667  0.23856987  0.92820080  1
  O  O345  1  0.08004328  0.72877317  0.24826161  1
  O  O346  1  0.08648156  0.74342179  0.57690250  1
  O  O347  1  0.08120391  0.73457027  0.91926159  1
  O  O348  1  0.41494799  0.22667098  0.25355281  1
  O  O349  1  0.41019982  0.23237653  0.59738482  1
  O  O350  1  0.41664008  0.22586485  0.92169547  1
  O  O351  1  0.40348439  0.73550895  0.26456665  1
  O  O352  1  0.41421789  0.72544525  0.58954103  1
  O  O353  1  0.41055120  0.72405532  0.92724052  1
  O  O354  1  0.74742254  0.22416396  0.24925656  1
  O  O355  1  0.74812071  0.22910378  0.58188955  1
  O  O356  1  0.74368191  0.24115410  0.92338192  1
  O  O357  1  0.75060175  0.73637165  0.24261547  1
  O  O358  1  0.74854230  0.74137341  0.57954683  1
  O  O359  1  0.74603144  0.72264579  0.91843572  1
