# generated using pymatgen
data_Ba17Sr5La8Pr42Mn72O216
_symmetry_space_group_name_H-M   'P 1'
_cell_length_a   16.67645561
_cell_length_b   15.70453134
_cell_length_c   16.82632457
_cell_angle_alpha   90.00249390
_cell_angle_beta   89.94850067
_cell_angle_gamma   89.98227797
_symmetry_Int_Tables_number   1
_chemical_formula_structural   Ba17Sr5La8Pr42Mn72O216
_chemical_formula_sum   'Ba17 Sr5 La8 Pr42 Mn72 O216'
_cell_volume   4406.74375495
_cell_formula_units_Z   1
loop_
 _symmetry_equiv_pos_site_id
 _symmetry_equiv_pos_as_xyz
  1  'x, y, z'
loop_
 _atom_site_type_symbol
 _atom_site_label
 _atom_site_symmetry_multiplicity
 _atom_site_fract_x
 _atom_site_fract_y
 _atom_site_fract_z
 _atom_site_occupancy
  Ba  Ba0  1  0.49883501  0.87583580  0.83512239  1
  Ba  Ba1  1  0.33209648  0.87548028  0.00155941  1
  Ba  Ba2  1  0.66747172  0.62535279  0.33228442  1
  Ba  Ba3  1  0.83174401  0.37516970  0.83143059  1
  Ba  Ba4  1  0.16945220  0.12401366  0.49871684  1
  Ba  Ba5  1  0.83420816  0.62437960  0.83280552  1
  Ba  Ba6  1  0.49833523  0.37492062  0.50044180  1
  Ba  Ba7  1  0.50034473  0.12527136  0.49734998  1
  Ba  Ba8  1  0.16708177  0.62356980  0.83284762  1
  Ba  Ba9  1  0.50166044  0.62436553  0.50090728  1
  Ba  Ba10  1  0.83364929  0.12437431  0.49808342  1
  Ba  Ba11  1  -0.00012154  0.87592368  0.66661290  1
  Ba  Ba12  1  0.83567247  0.12342008  0.16962161  1
  Ba  Ba13  1  0.00139508  0.62504117  0.99694120  1
  Ba  Ba14  1  0.66523916  0.37365457  0.66735301  1
  Ba  Ba15  1  0.16532076  0.87563278  0.49888830  1
  Ba  Ba16  1  0.83182030  0.37362381  0.50035009  1
  Sr  Sr17  1  0.00126653  0.62371718  0.66674250  1
  Sr  Sr18  1  0.50156391  0.12113875  0.17225160  1
  Sr  Sr19  1  0.66384814  0.87638249  0.67034638  1
  Sr  Sr20  1  0.33882516  0.12478515  0.33408837  1
  Sr  Sr21  1  0.66565464  0.87535980  -0.00023642  1
  La  La22  1  -0.00286782  0.87191362  -0.00198547  1
  La  La23  1  0.33039340  0.37611063  0.00233963  1
  La  La24  1  0.49575488  0.37284012  0.82779003  1
  La  La25  1  0.16822209  0.62567427  0.50602418  1
  La  La26  1  0.16127789  0.37660563  0.83160040  1
  La  La27  1  0.00363362  0.62496253  0.33135550  1
  La  La28  1  0.34084928  0.12517844  1.00012747  1
  La  La29  1  -0.00460116  0.37380935  0.66522996  1
  Pr  Pr30  1  0.83522833  0.62542547  0.50601470  1
  Pr  Pr31  1  0.82997592  0.87214549  0.83036141  1
  Pr  Pr32  1  0.33120609  0.37254276  0.66547072  1
  Pr  Pr33  1  0.66569455  0.37447939  -0.00067800  1
  Pr  Pr34  1  0.83347010  0.12424223  0.83618284  1
  Pr  Pr35  1  0.00460293  0.12911201  0.99808609  1
  Pr  Pr36  1  0.16558383  0.87069575  0.82834039  1
  Pr  Pr37  1  0.33627155  0.62490538  0.99400103  1
  Pr  Pr38  1  0.17002811  0.12229635  0.83398459  1
  Pr  Pr39  1  0.67134128  0.12310754  0.66619579  1
  Pr  Pr40  1  0.33975665  0.12308305  0.66185449  1
  Pr  Pr41  1  0.32994754  0.37325515  0.33769141  1
  Pr  Pr42  1  0.66297050  0.37154325  0.34082323  1
  Pr  Pr43  1  0.66931684  0.62816248  0.99720189  1
  Pr  Pr44  1  0.16198957  0.37550925  0.49611900  1
  Pr  Pr45  1  -0.00733241  0.38132186  -0.00047063  1
  Pr  Pr46  1  0.00214578  0.12826958  0.66176523  1
  Pr  Pr47  1  0.49970696  0.37651187  0.16621276  1
  Pr  Pr48  1  0.66969751  0.12201183  1.00091392  1
  Pr  Pr49  1  0.17054954  0.62345938  0.16510908  1
  Pr  Pr50  1  0.50457145  0.87464637  0.16024413  1
  Pr  Pr51  1  0.17539882  0.12606979  0.17233912  1
  Pr  Pr52  1  0.49406864  0.63071656  0.17041558  1
  Pr  Pr53  1  0.49834542  0.87544239  0.50085501  1
  Pr  Pr54  1  0.67312372  0.62586661  0.66320427  1
  Pr  Pr55  1  0.16294164  0.87681355  0.16326844  1
  Pr  Pr56  1  0.33022880  0.87690331  0.67004222  1
  Pr  Pr57  1  0.66720149  0.12969049  0.33009148  1
  Pr  Pr58  1  0.00766043  0.12560226  0.32979095  1
  Pr  Pr59  1  0.33458519  0.62514838  0.33511256  1
  Pr  Pr60  1  0.83800262  0.62660258  0.16815115  1
  Pr  Pr61  1  0.50362925  0.62650460  0.83339897  1
  Pr  Pr62  1  -0.00810419  0.87760212  0.33829407  1
  Pr  Pr63  1  -0.00715216  0.37244579  0.33488233  1
  Pr  Pr64  1  0.82600034  0.87428529  0.16340772  1
  Pr  Pr65  1  0.16083036  0.37321577  0.16365701  1
  Pr  Pr66  1  0.82925419  0.87346230  0.50087629  1
  Pr  Pr67  1  0.50797358  0.12272186  0.83510024  1
  Pr  Pr68  1  0.33653996  0.62772887  0.66475850  1
  Pr  Pr69  1  0.66269181  0.87936074  0.33527281  1
  Pr  Pr70  1  0.33323868  0.87780446  0.33417870  1
  Pr  Pr71  1  0.82782816  0.37541803  0.16448539  1
  Mn  Mn72  1  0.00207266  -0.00139414  0.16581681  1
  Mn  Mn73  1  -0.00096241  0.00026815  0.49937516  1
  Mn  Mn74  1  0.00083332  0.00309294  0.83461993  1
  Mn  Mn75  1  0.00031128  0.50058839  0.16766075  1
  Mn  Mn76  1  0.00043348  0.50010568  0.49689249  1
  Mn  Mn77  1  -0.00000098  0.49893075  0.83202421  1
  Mn  Mn78  1  0.33350758  0.00000785  0.16867412  1
  Mn  Mn79  1  0.33417058  -0.00080205  0.50019702  1
  Mn  Mn80  1  0.33219244  0.00221886  0.83315507  1
  Mn  Mn81  1  0.33274931  0.49952325  0.16702999  1
  Mn  Mn82  1  0.33135620  0.49926880  0.50014486  1
  Mn  Mn83  1  0.33411664  0.49790774  0.83357310  1
  Mn  Mn84  1  0.66661433  0.00032402  0.16757848  1
  Mn  Mn85  1  0.66579410  -0.00185953  0.50197212  1
  Mn  Mn86  1  0.66774091  -0.00075189  0.83413342  1
  Mn  Mn87  1  0.66611645  0.49991561  0.16535220  1
  Mn  Mn88  1  0.66734456  0.50047942  0.49855546  1
  Mn  Mn89  1  0.66347505  0.50174521  0.83430043  1
  Mn  Mn90  1  0.00144859  0.25128900  0.16427418  1
  Mn  Mn91  1  0.00082892  0.24913179  0.49833562  1
  Mn  Mn92  1  0.00172842  0.24749371  0.83131921  1
  Mn  Mn93  1  0.00145695  0.75077526  0.16827359  1
  Mn  Mn94  1  -0.00071054  0.75042255  0.49779343  1
  Mn  Mn95  1  -0.00010493  0.75082729  0.83328707  1
  Mn  Mn96  1  0.33503189  0.25281430  0.16764814  1
  Mn  Mn97  1  0.33178823  0.24953125  0.50062670  1
  Mn  Mn98  1  0.33266163  0.24827600  0.83404254  1
  Mn  Mn99  1  0.32997795  0.74906562  0.16785305  1
  Mn  Mn100  1  0.33374016  0.75147490  0.49956525  1
  Mn  Mn101  1  0.33368848  0.74951914  0.83285924  1
  Mn  Mn102  1  0.66468203  0.25272770  0.16714411  1
  Mn  Mn103  1  0.66593312  0.24715288  0.49983192  1
  Mn  Mn104  1  0.66593220  0.24736351  0.83585245  1
  Mn  Mn105  1  0.66756654  0.74830094  0.16493769  1
  Mn  Mn106  1  0.66660244  0.75274085  0.50074748  1
  Mn  Mn107  1  0.66563645  0.75032097  0.83277810  1
  Mn  Mn108  1  0.16738415  0.24928556  0.00046388  1
  Mn  Mn109  1  0.16827728  0.25213804  0.33061134  1
  Mn  Mn110  1  0.16724550  0.25125301  0.66752947  1
  Mn  Mn111  1  0.16662673  0.75179427  -0.00053479  1
  Mn  Mn112  1  0.16720511  0.74817384  0.33069690  1
  Mn  Mn113  1  0.16659785  0.74846010  0.66636819  1
  Mn  Mn114  1  0.50098207  0.25053785  0.00035697  1
  Mn  Mn115  1  0.49867828  0.24968780  0.32966782  1
  Mn  Mn116  1  0.49853555  0.24857097  0.66878199  1
  Mn  Mn117  1  0.50093801  0.74879383  0.00219945  1
  Mn  Mn118  1  0.49900907  0.75141555  0.33192792  1
  Mn  Mn119  1  0.49991554  0.75021317  0.66763724  1
  Mn  Mn120  1  0.83347769  0.24903328  0.00115921  1
  Mn  Mn121  1  0.83410549  0.24882394  0.33092905  1
  Mn  Mn122  1  0.83330808  0.24766722  0.66845302  1
  Mn  Mn123  1  0.83228620  0.75234163  0.00030655  1
  Mn  Mn124  1  0.83351627  0.75025728  0.33343003  1
  Mn  Mn125  1  0.83381302  0.75206406  0.66601589  1
  Mn  Mn126  1  0.16541505  0.00333145  0.00093454  1
  Mn  Mn127  1  0.16858267  -0.00042462  0.32900109  1
  Mn  Mn128  1  0.16655202  0.00139449  0.66932037  1
  Mn  Mn129  1  0.16815653  0.49667654  0.00009373  1
  Mn  Mn130  1  0.16655910  0.50063292  0.33254216  1
  Mn  Mn131  1  0.16728592  0.49840177  0.66453219  1
  Mn  Mn132  1  0.50139990  0.00141747  0.00341255  1
  Mn  Mn133  1  0.50007058  -0.00213894  0.33185719  1
  Mn  Mn134  1  0.49977544  -0.00037283  0.66711122  1
  Mn  Mn135  1  0.50111168  0.49916592  -0.00055327  1
  Mn  Mn136  1  0.49879289  0.50187718  0.32993138  1
  Mn  Mn137  1  0.49819583  0.49993390  0.66943438  1
  Mn  Mn138  1  0.83487407  0.00156198  0.00059475  1
  Mn  Mn139  1  0.83287856  -0.00130637  0.33341655  1
  Mn  Mn140  1  0.83366564  -0.00017847  0.66873628  1
  Mn  Mn141  1  0.83068548  0.49797204  0.00168219  1
  Mn  Mn142  1  0.83395603  0.50150581  0.33160530  1
  Mn  Mn143  1  0.83433933  0.50088434  0.66577076  1
  O  O144  1  0.15798257  0.12825115  0.02955091  1
  O  O145  1  0.15658059  0.12768995  0.34069720  1
  O  O146  1  0.15916831  0.12822349  0.69111926  1
  O  O147  1  0.17170045  0.61812921  0.02112576  1
  O  O148  1  0.16199427  0.62111920  0.36142139  1
  O  O149  1  0.16758633  0.62171809  0.67598647  1
  O  O150  1  0.49871917  0.12865010  0.02301753  1
  O  O151  1  0.50198630  0.12116547  0.34080519  1
  O  O152  1  0.48848874  0.12542587  0.69032232  1
  O  O153  1  0.49563221  0.62102054  0.02829499  1
  O  O154  1  0.49099536  0.62774087  0.34474587  1
  O  O155  1  0.48782565  0.62413036  0.68921139  1
  O  O156  1  0.83317142  0.12578213  0.01619853  1
  O  O157  1  0.82638095  0.12225475  0.34129749  1
  O  O158  1  0.83107757  0.12213198  0.69091982  1
  O  O159  1  0.82476431  0.62120653  0.02443416  1
  O  O160  1  0.83767631  0.62776283  0.35928199  1
  O  O161  1  0.82683522  0.62798012  0.67341737  1
  O  O162  1  0.17530745  0.37839464  0.30528148  1
  O  O163  1  0.17384380  0.37477241  0.63972519  1
  O  O164  1  0.17683303  0.37086665  0.97632711  1
  O  O165  1  0.17673628  0.87396390  0.30607565  1
  O  O166  1  0.17609428  0.87533343  0.65853948  1
  O  O167  1  0.16482493  0.88518401  0.97360902  1
  O  O168  1  0.50248580  0.37821277  0.31045807  1
  O  O169  1  0.49794668  0.37362661  0.65982068  1
  O  O170  1  0.50434109  0.37517117  0.97031847  1
  O  O171  1  0.50435745  0.87267116  0.30557550  1
  O  O172  1  0.49912392  0.87477583  0.64610482  1
  O  O173  1  0.50284531  0.87483007  0.99297194  1
  O  O174  1  0.84086904  0.37593854  0.30806007  1
  O  O175  1  0.84026512  0.37462040  0.65828968  1
  O  O176  1  0.83450944  0.37104716  0.98752032  1
  O  O177  1  0.84065831  0.87378325  0.30615457  1
  O  O178  1  0.83282051  0.87606332  0.64569548  1
  O  O179  1  0.83707258  0.88312071  0.97520143  1
  O  O180  1  0.00321330  0.37753243  0.19261322  1
  O  O181  1  0.00563895  0.37446311  0.51890349  1
  O  O182  1  0.00340090  0.36859921  0.85478992  1
  O  O183  1  0.00852131  0.87156726  0.19540287  1
  O  O184  1  -0.00534135  0.87628154  0.50882286  1
  O  O185  1  0.00117424  0.88188242  0.85470265  1
  O  O186  1  0.33499104  0.37788380  0.19423795  1
  O  O187  1  0.32380994  0.37513766  0.52041300  1
  O  O188  1  0.33742389  0.36967035  0.86104972  1
  O  O189  1  0.32235933  0.86950199  0.19042964  1
  O  O190  1  0.33646111  0.87368484  0.52357762  1
  O  O191  1  0.32451484  0.87607430  0.84534532  1
  O  O192  1  0.66485213  0.37919407  0.19551318  1
  O  O193  1  0.66419898  0.37461132  0.50637355  1
  O  O194  1  0.65636885  0.37378582  0.85446223  1
  O  O195  1  0.66553917  0.87120795  0.18911287  1
  O  O196  1  0.66405903  0.87568065  0.52193399  1
  O  O197  1  0.67249638  0.87617685  0.85104226  1
  O  O198  1  0.00765581  0.12701345  0.14159523  1
  O  O199  1  0.00251976  0.12422930  0.47522749  1
  O  O200  1  0.00563867  0.12520268  0.80500001  1
  O  O201  1  -0.00154659  0.62597227  0.15084107  1
  O  O202  1  0.00095404  0.62511913  0.47497861  1
  O  O203  1  0.00116639  0.62457037  0.82120028  1
  O  O204  1  0.33040998  0.13136032  0.14373972  1
  O  O205  1  0.33423507  0.12456307  0.48584248  1
  O  O206  1  0.32630167  0.12785514  0.80526802  1
  O  O207  1  0.33366853  0.62267712  0.13756462  1
  O  O208  1  0.32824430  0.62569305  0.47869816  1
  O  O209  1  0.34020375  0.62479451  0.80991856  1
  O  O210  1  0.66419356  0.12829071  0.14494619  1
  O  O211  1  0.66685153  0.11907154  0.47423178  1
  O  O212  1  0.66685396  0.12260414  0.81292639  1
  O  O213  1  0.67372398  0.62329290  0.14053197  1
  O  O214  1  0.67620101  0.62827144  0.48942624  1
  O  O215  1  0.66047396  0.62616843  0.81099169  1
  O  O216  1  0.09384393  0.01624039  0.23613309  1
  O  O217  1  0.08316679  0.01455718  0.58845446  1
  O  O218  1  0.08565766  0.02934182  0.91704307  1
  O  O219  1  0.08936404  0.52104436  0.24577077  1
  O  O220  1  0.09040273  0.51151931  0.57278143  1
  O  O221  1  0.08799362  0.49776173  0.91609089  1
  O  O222  1  0.41692327  0.00398033  0.25145389  1
  O  O223  1  0.41795534  0.00922764  0.58301670  1
  O  O224  1  0.41817973  0.02239997  0.91212873  1
  O  O225  1  0.41573154  0.52260690  0.24502219  1
  O  O226  1  0.41243116  0.51050446  0.58892356  1
  O  O227  1  0.42218745  0.52151195  0.91581448  1
  O  O228  1  0.74762457  0.00624744  0.25391869  1
  O  O229  1  0.74796670  0.01396359  0.58834532  1
  O  O230  1  0.75340389  0.02291171  0.91590892  1
  O  O231  1  0.76119751  0.51574909  0.23888486  1
  O  O232  1  0.75380067  0.51603404  0.57999440  1
  O  O233  1  0.74127597  0.51021431  0.92406291  1
  O  O234  1  0.25510883  0.23404636  0.25383018  1
  O  O235  1  0.25534110  0.23344902  0.59659812  1
  O  O236  1  0.25645723  0.22444040  0.92229001  1
  O  O237  1  0.25003968  0.71826604  0.25022009  1
  O  O238  1  0.25280721  0.73118889  0.58356820  1
  O  O239  1  0.25783067  0.73298950  0.92243674  1
  O  O240  1  0.58790658  0.23503483  0.25238524  1
  O  O241  1  0.58707216  0.23002952  0.59502380  1
  O  O242  1  0.58897028  0.22440022  0.92452100  1
  O  O243  1  0.57750214  0.73513264  0.24220479  1
  O  O244  1  0.58868536  0.73475103  0.59164109  1
  O  O245  1  0.58292754  0.72755180  0.91912275  1
  O  O246  1  0.92876397  0.23542167  0.25472383  1
  O  O247  1  0.92198692  0.23639446  0.58876020  1
  O  O248  1  0.92215127  0.22658402  0.91464991  1
  O  O249  1  0.92277699  0.72970191  0.25617305  1
  O  O250  1  0.91757506  0.73271735  0.57988530  1
  O  O251  1  0.91708377  0.74848109  0.92010042  1
  O  O252  1  0.08138497  0.47575154  0.08071166  1
  O  O253  1  0.08063203  0.47478475  0.40865525  1
  O  O254  1  0.08311523  0.47685571  0.74239488  1
  O  O255  1  0.07666558  0.97621598  0.07623720  1
  O  O256  1  0.07686093  0.98644316  0.39977205  1
  O  O257  1  0.08783603  0.98521805  0.75859947  1
  O  O258  1  0.41736088  0.47432801  0.07973385  1
  O  O259  1  0.40526936  0.48652306  0.40783525  1
  O  O260  1  0.40916275  0.47666219  0.74851526  1
  O  O261  1  0.41654313  0.98759381  0.08905249  1
  O  O262  1  0.41897455  0.97484733  0.41479921  1
  O  O263  1  0.40727441  0.98655179  0.74153135  1
  O  O264  1  0.74660092  0.47261098  0.08272685  1
  O  O265  1  0.74771392  0.48346497  0.40444546  1
  O  O266  1  0.74221633  0.49631027  0.74891788  1
  O  O267  1  0.74943013  0.98328205  0.08461567  1
  O  O268  1  0.74708846  0.97363800  0.41741401  1
  O  O269  1  0.75087671  0.98311504  0.75314013  1
  O  O270  1  0.24738464  0.27214022  0.09216065  1
  O  O271  1  0.24438775  0.27128912  0.41823761  1
  O  O272  1  0.24505007  0.27308780  0.75826544  1
  O  O273  1  0.24042417  0.76239291  0.09183072  1
  O  O274  1  0.25559115  0.76245072  0.40966914  1
  O  O275  1  0.25004863  0.76339383  0.75139105  1
  O  O276  1  0.58152287  0.27815024  0.08717904  1
  O  O277  1  0.58384414  0.25921620  0.41024942  1
  O  O278  1  0.57125993  0.25450746  0.76409351  1
  O  O279  1  0.58411081  0.76183690  0.08447960  1
  O  O280  1  0.58241539  0.77173298  0.41826156  1
  O  O281  1  0.57968680  0.75636242  0.75304890  1
  O  O282  1  0.91659624  0.27193172  0.08679094  1
  O  O283  1  0.92027362  0.26101930  0.41136603  1
  O  O284  1  0.92233865  0.25727398  0.74685739  1
  O  O285  1  0.91284463  0.77098955  0.09264855  1
  O  O286  1  0.90973987  0.77101698  0.42033987  1
  O  O287  1  0.91166748  0.76596707  0.75587374  1
  O  O288  1  0.24558182  0.47694223  0.09019888  1
  O  O289  1  0.24286131  0.47901149  0.41890827  1
  O  O290  1  0.24687006  0.47633002  0.75184253  1
  O  O291  1  0.23881713  0.98959933  0.09161616  1
  O  O292  1  0.25440412  0.98585237  0.41182439  1
  O  O293  1  0.24406850  0.98715856  0.75951807  1
  O  O294  1  0.58402690  0.47385745  0.07910736  1
  O  O295  1  0.58359224  0.48920998  0.40936418  1
  O  O296  1  0.56894579  0.49138429  0.76420200  1
  O  O297  1  0.58285946  0.98481666  0.09032338  1
  O  O298  1  0.58008413  0.97477853  0.41869413  1
  O  O299  1  0.58013979  0.99630265  0.75284377  1
  O  O300  1  0.91218778  0.47969754  0.08947789  1
  O  O301  1  0.92077949  0.48532742  0.41001676  1
  O  O302  1  0.92167830  0.49021436  0.74308324  1
  O  O303  1  0.91460963  0.97587822  0.08998573  1
  O  O304  1  0.90879148  0.97989655  0.41936482  1
  O  O305  1  0.90830240  0.98789930  0.76440841  1
  O  O306  1  0.07688381  0.27793520  0.07618569  1
  O  O307  1  0.08194537  0.27289858  0.40828177  1
  O  O308  1  0.08242303  0.27440703  0.74621473  1
  O  O309  1  0.07970184  0.77264447  0.08131737  1
  O  O310  1  0.07436955  0.76467806  0.40267941  1
  O  O311  1  0.08494708  0.76286017  0.75294683  1
  O  O312  1  0.41280083  0.27509619  0.07695295  1
  O  O313  1  0.40993030  0.26480685  0.40544061  1
  O  O314  1  0.40760712  0.26940577  0.74751944  1
  O  O315  1  0.42099487  0.76342666  0.09381170  1
  O  O316  1  0.41712723  0.77516068  0.41677512  1
  O  O317  1  0.40936467  0.76613949  0.74390873  1
  O  O318  1  0.74381448  0.27273815  0.08469469  1
  O  O319  1  0.74559834  0.26062593  0.40818670  1
  O  O320  1  0.74808071  0.25122246  0.75374429  1
  O  O321  1  0.75030934  0.77096636  0.08316299  1
  O  O322  1  0.74782902  0.77689664  0.41076048  1
  O  O323  1  0.74878067  0.76585886  0.74909466  1
  O  O324  1  0.25369142  0.02158794  0.25174860  1
  O  O325  1  0.25657897  0.01347562  0.59629361  1
  O  O326  1  0.25181491  0.02921301  0.92448986  1
  O  O327  1  0.25128852  0.52666100  0.25555976  1
  O  O328  1  0.25321855  0.52081062  0.58612544  1
  O  O329  1  0.26107131  0.51192798  0.92572518  1
  O  O330  1  0.59021607  0.01334869  0.25687553  1
  O  O331  1  0.58760324  0.01725558  0.59036397  1
  O  O332  1  0.58817494  0.02151280  0.92113884  1
  O  O333  1  0.57619124  0.51823858  0.23656452  1
  O  O334  1  0.58783423  0.51720237  0.59662811  1
  O  O335  1  0.58415675  0.52789787  0.92161853  1
  O  O336  1  0.93211754  0.01419091  0.25946697  1
  O  O337  1  0.92060270  0.01835353  0.59413891  1
  O  O338  1  0.92404071  0.02658377  0.92150475  1
  O  O339  1  0.91974193  0.52313673  0.25215774  1
  O  O340  1  0.91915123  0.51692673  0.57767331  1
  O  O341  1  0.91625422  0.50263831  0.92320243  1
  O  O342  1  0.09131926  0.23749351  0.23909523  1
  O  O343  1  0.08242030  0.23810998  0.58484498  1
  O  O344  1  0.08708402  0.22759721  0.90922823  1
  O  O345  1  0.09039846  0.72647080  0.24202958  1
  O  O346  1  0.08632959  0.73457658  0.57524245  1
  O  O347  1  0.08646530  0.74968189  0.91580870  1
  O  O348  1  0.42342216  0.24171378  0.24035742  1
  O  O349  1  0.41447010  0.24070825  0.58808941  1
  O  O350  1  0.42111386  0.22603197  0.90873130  1
  O  O351  1  0.40899150  0.73208645  0.25255658  1
  O  O352  1  0.41421145  0.73639325  0.58488887  1
  O  O353  1  0.41911589  0.72907741  0.91727491  1
  O  O354  1  0.74809926  0.24158821  0.24960126  1
  O  O355  1  0.74798437  0.23354854  0.58902934  1
  O  O356  1  0.74870152  0.22900621  0.91827465  1
  O  O357  1  0.75995398  0.73536906  0.24118734  1
  O  O358  1  0.75617933  0.73904991  0.57595500  1
  O  O359  1  0.74467612  0.73653124  0.91946868  1
