# generated using pymatgen
data_Ba17Sr5La8Pr42Mn72O216
_symmetry_space_group_name_H-M   'P 1'
_cell_length_a   16.67567111
_cell_length_b   15.70298798
_cell_length_c   16.81861109
_cell_angle_alpha   90.00160894
_cell_angle_beta   89.98726342
_cell_angle_gamma   89.99516006
_symmetry_Int_Tables_number   1
_chemical_formula_structural   Ba17Sr5La8Pr42Mn72O216
_chemical_formula_sum   'Ba17 Sr5 La8 Pr42 Mn72 O216'
_cell_volume   4404.08543114
_cell_formula_units_Z   1
loop_
 _symmetry_equiv_pos_site_id
 _symmetry_equiv_pos_as_xyz
  1  'x, y, z'
loop_
 _atom_site_type_symbol
 _atom_site_label
 _atom_site_symmetry_multiplicity
 _atom_site_fract_x
 _atom_site_fract_y
 _atom_site_fract_z
 _atom_site_occupancy
  Ba  Ba0  1  0.50125755  0.12427337  0.16800942  1
  Ba  Ba1  1  0.83364929  0.87482968  0.16310359  1
  Ba  Ba2  1  0.50244983  0.62562527  0.17121384  1
  Ba  Ba3  1  0.16278281  0.87490197  0.83093386  1
  Ba  Ba4  1  0.66688049  0.37471003  0.33799061  1
  Ba  Ba5  1  0.16851690  0.62465047  0.49789086  1
  Ba  Ba6  1  0.32870377  0.87353480  0.66840730  1
  Ba  Ba7  1  0.33542042  0.12633691  0.99911962  1
  Ba  Ba8  1  0.16666120  0.37567846  0.16637447  1
  Ba  Ba9  1  0.66796456  0.12526595  0.67054924  1
  Ba  Ba10  1  0.83253163  0.87511551  0.49627096  1
  Ba  Ba11  1  0.83468681  0.12817155  0.83159305  1
  Ba  Ba12  1  0.16783116  0.62308761  0.16898505  1
  Ba  Ba13  1  0.00112442  0.87571566  -0.00031670  1
  Ba  Ba14  1  0.33124853  0.37738370  0.66609907  1
  Ba  Ba15  1  0.33147935  0.12591454  0.66457977  1
  Ba  Ba16  1  0.49951226  0.12520446  0.83639314  1
  Sr  Sr17  1  0.49799589  0.62549680  0.83908588  1
  Sr  Sr18  1  0.83316428  0.37291649  0.49574106  1
  Sr  Sr19  1  0.33341681  0.62661782  0.66519556  1
  Sr  Sr20  1  -0.00257833  0.37677508  0.66474623  1
  Sr  Sr21  1  0.33474392  0.62552729  0.33055942  1
  La  La22  1  0.17192349  0.87418447  0.50090938  1
  La  La23  1  0.49753477  0.37471456  0.83366166  1
  La  La24  1  0.66103206  0.87574906  0.33556095  1
  La  La25  1  0.33641695  0.37545292  0.00017128  1
  La  La26  1  -0.00483479  0.87340552  0.67009583  1
  La  La27  1  0.49863755  0.37693188  0.16968083  1
  La  La28  1  -0.00026493  0.62601968  0.33126400  1
  La  La29  1  0.83355878  0.12303109  0.16069055  1
  Pr  Pr30  1  0.17017814  0.62407611  0.83139374  1
  Pr  Pr31  1  0.82700667  0.87453350  0.82650040  1
  Pr  Pr32  1  0.83004305  0.37504922  0.16519840  1
  Pr  Pr33  1  0.49579259  0.37366100  0.50133731  1
  Pr  Pr34  1  -0.00366588  0.37366481  0.00304211  1
  Pr  Pr35  1  -0.00089563  0.12400881  0.66395130  1
  Pr  Pr36  1  0.00177314  0.62552331  0.66231533  1
  Pr  Pr37  1  -0.00641380  0.12467251  0.33270559  1
  Pr  Pr38  1  0.50269436  0.62327946  0.50596093  1
  Pr  Pr39  1  0.00778978  0.87446164  0.33345921  1
  Pr  Pr40  1  0.83579823  0.12919220  0.50499187  1
  Pr  Pr41  1  0.33779353  0.86975603  0.33250102  1
  Pr  Pr42  1  0.65587450  0.87492305  0.67075173  1
  Pr  Pr43  1  0.82721237  0.37490232  0.82770355  1
  Pr  Pr44  1  0.33511795  0.87488947  -0.00052434  1
  Pr  Pr45  1  0.16525556  0.12736949  0.50204424  1
  Pr  Pr46  1  0.66273399  0.37407654  0.66648716  1
  Pr  Pr47  1  0.33359786  0.62275773  0.99844281  1
  Pr  Pr48  1  0.67678132  0.62444222  0.99682084  1
  Pr  Pr49  1  0.16322544  0.12461815  0.16850550  1
  Pr  Pr50  1  0.33114535  0.12440241  0.32668264  1
  Pr  Pr51  1  0.33817063  0.38068872  0.33452375  1
  Pr  Pr52  1  0.67440563  0.62510891  0.33192994  1
  Pr  Pr53  1  0.16935355  0.12609624  0.83275738  1
  Pr  Pr54  1  0.49382994  0.87639371  0.50461741  1
  Pr  Pr55  1  0.00589331  0.12478522  0.99664885  1
  Pr  Pr56  1  0.49895813  0.87339970  0.16747214  1
  Pr  Pr57  1  0.67122711  0.12383153  0.99107984  1
  Pr  Pr58  1  0.83783650  0.62633861  0.16627892  1
  Pr  Pr59  1  0.16525016  0.37406163  0.82929791  1
  Pr  Pr60  1  0.84150881  0.62145729  0.83230854  1
  Pr  Pr61  1  0.67494741  0.12503012  0.33447595  1
  Pr  Pr62  1  0.50570225  0.12669951  0.50855597  1
  Pr  Pr63  1  0.00485831  0.37638693  0.33904839  1
  Pr  Pr64  1  0.00706573  0.62532791  1.00027565  1
  Pr  Pr65  1  0.17184838  0.87238337  0.15955356  1
  Pr  Pr66  1  0.48992081  0.87579249  0.83239575  1
  Pr  Pr67  1  0.66998094  0.62556953  0.66530519  1
  Pr  Pr68  1  0.66136534  0.37381762  0.00453646  1
  Pr  Pr69  1  0.17302088  0.37516155  0.49562839  1
  Pr  Pr70  1  0.66394890  0.87511870  0.00165177  1
  Pr  Pr71  1  0.83668703  0.62070980  0.50016967  1
  Mn  Mn72  1  0.00153231  0.00274109  0.16689019  1
  Mn  Mn73  1  0.00235845  -0.00047032  0.49865420  1
  Mn  Mn74  1  -0.00338048  0.00151432  0.83177289  1
  Mn  Mn75  1  -0.00214320  0.49756578  0.16746219  1
  Mn  Mn76  1  0.00021636  0.49843782  0.49998559  1
  Mn  Mn77  1  0.00038660  0.49822934  0.83312755  1
  Mn  Mn78  1  0.33330644  0.00031824  0.16692113  1
  Mn  Mn79  1  0.33309743  -0.00050568  0.49425024  1
  Mn  Mn80  1  0.33073302  0.00073931  0.83364077  1
  Mn  Mn81  1  0.33507362  0.49913880  0.16743403  1
  Mn  Mn82  1  0.33479486  0.50231766  0.50065442  1
  Mn  Mn83  1  0.33254641  0.50118356  0.83369219  1
  Mn  Mn84  1  0.66705523  0.00169137  0.16648338  1
  Mn  Mn85  1  0.66529368  -0.00167623  0.50065094  1
  Mn  Mn86  1  0.66680221  -0.00349446  0.83565614  1
  Mn  Mn87  1  0.66872183  0.50005077  0.16698678  1
  Mn  Mn88  1  0.66662862  0.50182513  0.50137223  1
  Mn  Mn89  1  0.66647161  0.50150960  0.83360702  1
  Mn  Mn90  1  -0.00191894  0.24983909  0.16737357  1
  Mn  Mn91  1  0.00162954  0.25111061  0.49956223  1
  Mn  Mn92  1  0.00002487  0.25264888  0.83313116  1
  Mn  Mn93  1  0.00085391  0.74990557  0.16650735  1
  Mn  Mn94  1  0.00125484  0.75165528  0.49886530  1
  Mn  Mn95  1  -0.00309676  0.74764656  0.83212924  1
  Mn  Mn96  1  0.33290910  0.25000815  0.16742828  1
  Mn  Mn97  1  0.33349240  0.24980764  0.49507839  1
  Mn  Mn98  1  0.33141479  0.25212897  0.83351557  1
  Mn  Mn99  1  0.33524836  0.75044903  0.16657068  1
  Mn  Mn100  1  0.33508038  0.74907899  0.49920044  1
  Mn  Mn101  1  0.33227677  0.74656031  0.83378328  1
  Mn  Mn102  1  0.66725995  0.24943848  0.16727419  1
  Mn  Mn103  1  0.66678856  0.25051332  0.50107585  1
  Mn  Mn104  1  0.66639527  0.25401389  0.83602270  1
  Mn  Mn105  1  0.66830504  0.74933475  0.16688316  1
  Mn  Mn106  1  0.66550370  0.74973822  0.50072028  1
  Mn  Mn107  1  0.66631976  0.74651631  0.83379946  1
  Mn  Mn108  1  0.16604561  0.25200594  -0.00164022  1
  Mn  Mn109  1  0.16718158  0.24823111  0.33404634  1
  Mn  Mn110  1  0.16203300  0.25226418  0.66547275  1
  Mn  Mn111  1  0.16866900  0.74842194  -0.00084554  1
  Mn  Mn112  1  0.16775703  0.75176641  0.33117013  1
  Mn  Mn113  1  0.16320512  0.74781668  0.66549244  1
  Mn  Mn114  1  0.50193488  0.25249442  0.00241225  1
  Mn  Mn115  1  0.49940361  0.24802908  0.33697342  1
  Mn  Mn116  1  0.49952400  0.25160937  0.66767856  1
  Mn  Mn117  1  0.50159053  0.74837733  0.00134485  1
  Mn  Mn118  1  0.50198224  0.74982908  0.33784388  1
  Mn  Mn119  1  0.50017580  0.74695625  0.67116175  1
  Mn  Mn120  1  0.83387520  0.25346551  -0.00112132  1
  Mn  Mn121  1  0.83553764  0.24817571  0.33187267  1
  Mn  Mn122  1  0.83367630  0.25342548  0.66456784  1
  Mn  Mn123  1  0.83502184  0.74738634  -0.00381984  1
  Mn  Mn124  1  0.83383155  0.75159166  0.33195202  1
  Mn  Mn125  1  0.83025006  0.74790148  0.66448999  1
  Mn  Mn126  1  0.16883232  0.00071494  0.00001795  1
  Mn  Mn127  1  0.16713540  0.00037148  0.33221282  1
  Mn  Mn128  1  0.16231584  0.00254931  0.66512893  1
  Mn  Mn129  1  0.16592267  0.49987006  -0.00301167  1
  Mn  Mn130  1  0.16727341  0.49950154  0.33329669  1
  Mn  Mn131  1  0.16357262  0.49877072  0.66576493  1
  Mn  Mn132  1  0.50251492  -0.00335246  0.00165288  1
  Mn  Mn133  1  0.49967230  0.00075473  0.33762240  1
  Mn  Mn134  1  0.49824174  0.00025816  0.66788239  1
  Mn  Mn135  1  0.50148285  0.50214385  0.00161709  1
  Mn  Mn136  1  0.50214790  0.50141062  0.33783014  1
  Mn  Mn137  1  0.50151985  0.50178427  0.67045728  1
  Mn  Mn138  1  0.83474438  -0.00054543  -0.00367521  1
  Mn  Mn139  1  0.83372032  -0.00069998  0.33229083  1
  Mn  Mn140  1  0.83165838  -0.00059285  0.66328939  1
  Mn  Mn141  1  0.83545916  0.49879789  -0.00178692  1
  Mn  Mn142  1  0.83547570  0.50011781  0.33279738  1
  Mn  Mn143  1  0.83167068  0.49832928  0.66559305  1
  O  O144  1  0.16104962  0.12815654  0.02349753  1
  O  O145  1  0.17424608  0.12311015  0.36055155  1
  O  O146  1  0.15673428  0.12890998  0.68740864  1
  O  O147  1  0.16184086  0.62402203  0.01406484  1
  O  O148  1  0.16167025  0.62510021  0.34209485  1
  O  O149  1  0.15458158  0.62086639  0.68620184  1
  O  O150  1  0.50823309  0.12377133  0.00998001  1
  O  O151  1  0.48927249  0.12266591  0.36392002  1
  O  O152  1  0.50041828  0.12574310  0.67449690  1
  O  O153  1  0.48877862  0.62529975  0.01578698  1
  O  O154  1  0.50222030  0.62692563  0.36113954  1
  O  O155  1  0.50878838  0.62446850  0.68975503  1
  O  O156  1  0.82352607  0.13167593  0.01705688  1
  O  O157  1  0.83675634  0.12183259  0.35902512  1
  O  O158  1  0.84083923  0.12759049  0.67474535  1
  O  O159  1  0.82786295  0.62039163  0.02361009  1
  O  O160  1  0.83646852  0.62764614  0.35546451  1
  O  O161  1  0.82938681  0.62185439  0.68969226  1
  O  O162  1  0.15841449  0.37197484  0.32257973  1
  O  O163  1  0.16215222  0.37459285  0.64020408  1
  O  O164  1  0.15957223  0.37720010  0.97376323  1
  O  O165  1  0.15926749  0.88027691  0.30325309  1
  O  O166  1  0.15678059  0.87679762  0.64705355  1
  O  O167  1  0.17434239  0.87180507  0.98820136  1
  O  O168  1  0.49790326  0.37251871  0.31409384  1
  O  O169  1  0.50641963  0.37844605  0.64613615  1
  O  O170  1  0.50962840  0.38088421  0.97987620  1
  O  O171  1  0.50460117  0.87686351  0.31123333  1
  O  O172  1  0.50414398  0.87244899  0.65013589  1
  O  O173  1  0.51169708  0.86889959  0.97683391  1
  O  O174  1  0.83904522  0.37312909  0.30967627  1
  O  O175  1  0.82810964  0.37773698  0.64445302  1
  O  O176  1  0.84471049  0.37826727  0.97052175  1
  O  O177  1  0.82750539  0.87643212  0.31932193  1
  O  O178  1  0.83669483  0.87168678  0.65246018  1
  O  O179  1  0.83341858  0.86817693  0.97221341  1
  O  O180  1  -0.00961135  0.37189721  0.19432694  1
  O  O181  1  0.00502341  0.37333992  0.51476023  1
  O  O182  1  0.00158570  0.37647614  0.86164573  1
  O  O183  1  0.00562434  0.88098411  0.18803475  1
  O  O184  1  0.00704162  0.87941471  0.52529757  1
  O  O185  1  -0.01144605  0.87126871  0.84276101  1
  O  O186  1  0.33862404  0.37171190  0.18886301  1
  O  O187  1  0.33215274  0.37703109  0.51095160  1
  O  O188  1  0.32314382  0.37854259  0.85336934  1
  O  O189  1  0.32971225  0.87713299  0.18809947  1
  O  O190  1  0.33364136  0.87451250  0.51305335  1
  O  O191  1  0.33272419  0.87116626  0.85172580  1
  O  O192  1  0.67195811  0.37541564  0.18305853  1
  O  O193  1  0.66844850  0.37898953  0.52146983  1
  O  O194  1  0.67078267  0.38113537  0.86017530  1
  O  O195  1  0.66489091  0.87600399  0.19204265  1
  O  O196  1  0.66691267  0.87179969  0.52638442  1
  O  O197  1  0.67579350  0.86792076  0.85777971  1
  O  O198  1  0.00638459  0.12780658  0.14137426  1
  O  O199  1  -0.00086872  0.12414473  0.47549435  1
  O  O200  1  0.00463756  0.13079240  0.80821188  1
  O  O201  1  -0.00474767  0.61938703  0.14522885  1
  O  O202  1  -0.00790389  0.62283418  0.47593721  1
  O  O203  1  -0.00311257  0.62055660  0.80573246  1
  O  O204  1  0.32878521  0.12555281  0.15476919  1
  O  O205  1  0.32886288  0.12322257  0.47071692  1
  O  O206  1  0.32901454  0.12826366  0.82507298  1
  O  O207  1  0.33666177  0.62682716  0.14487389  1
  O  O208  1  0.34411838  0.62564027  0.48079698  1
  O  O209  1  0.33536117  0.62259855  0.81721558  1
  O  O210  1  0.67038822  0.12729972  0.13723714  1
  O  O211  1  0.65479441  0.12268927  0.48002599  1
  O  O212  1  0.66587688  0.12633982  0.83015070  1
  O  O213  1  0.67290849  0.62220856  0.14092695  1
  O  O214  1  0.65510767  0.62706182  0.47535692  1
  O  O215  1  0.66845105  0.62333897  0.80735986  1
  O  O216  1  0.08006417  0.02796933  0.25692281  1
  O  O217  1  0.08275214  0.02679973  0.57970763  1
  O  O218  1  0.08487051  0.02060593  0.91527331  1
  O  O219  1  0.07479532  0.50813465  0.25675307  1
  O  O220  1  0.07518083  0.51557962  0.58755448  1
  O  O221  1  0.08538713  0.52274099  0.91075921  1
  O  O222  1  0.41096852  0.01051355  0.25644662  1
  O  O223  1  0.42052548  0.01246070  0.57109168  1
  O  O224  1  0.42035673  -0.00469819  0.92071132  1
  O  O225  1  0.41952513  0.50725853  0.25512191  1
  O  O226  1  0.42510443  0.51565533  0.58130402  1
  O  O227  1  0.41187234  0.50910827  0.92356320  1
  O  O228  1  0.75166162  0.02601756  0.24313746  1
  O  O229  1  0.75666953  0.01840846  0.57174330  1
  O  O230  1  0.75449998  0.00773869  0.91071613  1
  O  O231  1  0.75564747  0.52103934  0.24557443  1
  O  O232  1  0.74947214  0.52566284  0.58015368  1
  O  O233  1  0.75726107  0.52116821  0.90976099  1
  O  O234  1  0.24345066  0.22841256  0.24856537  1
  O  O235  1  0.24214992  0.23799764  0.56944590  1
  O  O236  1  0.24271524  0.24031852  0.91045605  1
  O  O237  1  0.25022898  0.74549772  0.24848071  1
  O  O238  1  0.25103977  0.74174755  0.58085824  1
  O  O239  1  0.25127505  0.72453521  0.91790522  1
  O  O240  1  0.58777743  0.22985330  0.26278521  1
  O  O241  1  0.58520921  0.24355811  0.58608072  1
  O  O242  1  0.59244497  0.24353891  0.92824490  1
  O  O243  1  0.59287221  0.73596693  0.26625921  1
  O  O244  1  0.59106054  0.73199849  0.59297410  1
  O  O245  1  0.59396854  0.72796342  0.92735170  1
  O  O246  1  0.91550312  0.22184860  0.24695590  1
  O  O247  1  0.91896392  0.23351541  0.57798812  1
  O  O248  1  0.92713272  0.23480672  0.92832212  1
  O  O249  1  0.91619508  0.73122925  0.24756677  1
  O  O250  1  0.91545816  0.72823622  0.58703263  1
  O  O251  1  0.92083893  0.71947481  0.91836816  1
  O  O252  1  0.07386136  0.48505717  0.07578209  1
  O  O253  1  0.08585207  0.48147293  0.42002658  1
  O  O254  1  0.07968269  0.47731699  0.75216150  1
  O  O255  1  0.09359679  0.98855723  0.09314665  1
  O  O256  1  0.09000600  0.97830905  0.41924180  1
  O  O257  1  0.06743172  0.98877708  0.74053863  1
  O  O258  1  0.41945854  0.47685339  0.08431746  1
  O  O259  1  0.41725363  0.47945888  0.41703094  1
  O  O260  1  0.42077668  0.48454735  0.75785920  1
  O  O261  1  0.42005492  0.97508240  0.08403290  1
  O  O262  1  0.41543463  0.97306126  0.41387057  1
  O  O263  1  0.41686369  0.98686422  0.75298700  1
  O  O264  1  0.75016790  0.47648581  0.07455126  1
  O  O265  1  0.75266228  0.49740417  0.41809341  1
  O  O266  1  0.74452889  0.47825680  0.74546207  1
  O  O267  1  0.74452031  0.98568242  0.07081761  1
  O  O268  1  0.73625268  0.99089523  0.40754913  1
  O  O269  1  0.74179232  0.97776488  0.74459842  1
  O  O270  1  0.25234480  0.26818061  0.07462199  1
  O  O271  1  0.25493562  0.27160192  0.40829538  1
  O  O272  1  0.24133313  0.26279824  0.75107173  1
  O  O273  1  0.25697806  0.76629119  0.07976570  1
  O  O274  1  0.25187723  0.76941394  0.41059675  1
  O  O275  1  0.24209855  0.74861068  0.75205052  1
  O  O276  1  0.58118012  0.27306897  0.08982372  1
  O  O277  1  0.57453783  0.26384790  0.42832747  1
  O  O278  1  0.58336865  0.27399559  0.75727986  1
  O  O279  1  0.58115911  0.77034436  0.09177676  1
  O  O280  1  0.57707527  0.77449155  0.42848692  1
  O  O281  1  0.57904870  0.77278721  0.75986575  1
  O  O282  1  0.90968404  0.27100688  0.08683434  1
  O  O283  1  0.92575095  0.26448847  0.40987401  1
  O  O284  1  0.91257055  0.27273610  0.75555459  1
  O  O285  1  0.91704947  0.75219606  0.08083184  1
  O  O286  1  0.92649430  0.76658119  0.40956729  1
  O  O287  1  0.90293420  0.75956065  0.75701040  1
  O  O288  1  0.25536825  0.48773295  0.07337793  1
  O  O289  1  0.25050578  0.48251445  0.41550267  1
  O  O290  1  0.23968037  0.48991690  0.75636893  1
  O  O291  1  0.25487684  0.97991129  0.08110984  1
  O  O292  1  0.25373501  0.97460029  0.40615507  1
  O  O293  1  0.24088462  0.99763841  0.74784225  1
  O  O294  1  0.58322381  0.48135650  0.08860809  1
  O  O295  1  0.57440849  0.48417030  0.43135361  1
  O  O296  1  0.58361565  0.47575957  0.75390523  1
  O  O297  1  0.58039881  0.97621400  0.09139838  1
  O  O298  1  0.57602845  0.97744306  0.42643188  1
  O  O299  1  0.58015504  0.97610207  0.76076645  1
  O  O300  1  0.91181021  0.47593311  0.08710559  1
  O  O301  1  0.92171305  0.48135221  0.41231200  1
  O  O302  1  0.90911475  0.48249308  0.75936106  1
  O  O303  1  0.91639188  1.00043116  0.08259709  1
  O  O304  1  0.92842171  0.98442312  0.40982085  1
  O  O305  1  0.90734918  0.98304155  0.75195822  1
  O  O306  1  0.07489942  0.26701473  0.07744916  1
  O  O307  1  0.09160503  0.26336155  0.42431458  1
  O  O308  1  0.08039925  0.27402970  0.75235924  1
  O  O309  1  0.09032792  0.76293893  0.08893535  1
  O  O310  1  0.08964122  0.77406896  0.41703691  1
  O  O311  1  0.06736783  0.76003039  0.74170149  1
  O  O312  1  0.42072549  0.27205240  0.08416270  1
  O  O313  1  0.41598439  0.27398769  0.41562058  1
  O  O314  1  0.41865773  0.26645523  0.75464541  1
  O  O315  1  0.41812799  0.77720847  0.08423371  1
  O  O316  1  0.41783754  0.77281480  0.41597943  1
  O  O317  1  0.41816335  0.76227707  0.75599389  1
  O  O318  1  0.75077590  0.27568969  0.07818016  1
  O  O319  1  0.75173977  0.25183095  0.41671412  1
  O  O320  1  0.74529847  0.27264260  0.74875809  1
  O  O321  1  0.74361870  0.76199803  0.06800615  1
  O  O322  1  0.73964158  0.75918983  0.40710180  1
  O  O323  1  0.73950029  0.76667695  0.73839615  1
  O  O324  1  0.24273815  0.02142956  0.24598141  1
  O  O325  1  0.24303333  0.01237357  0.56899886  1
  O  O326  1  0.24542639  0.01494576  0.91420718  1
  O  O327  1  0.25390205  0.50492485  0.25430382  1
  O  O328  1  0.25214518  0.51187551  0.58441903  1
  O  O329  1  0.24972074  0.52278115  0.91543547  1
  O  O330  1  0.58998719  0.01818540  0.26611896  1
  O  O331  1  0.58494101  0.00691765  0.58591386  1
  O  O332  1  0.59554530  0.00620445  0.93004061  1
  O  O333  1  0.59071708  0.51595692  0.26310514  1
  O  O334  1  0.58947852  0.52050164  0.59115471  1
  O  O335  1  0.59034451  0.52117695  0.92359149  1
  O  O336  1  0.91849437  0.02308158  0.24625047  1
  O  O337  1  0.92134117  0.01901117  0.58103404  1
  O  O338  1  0.92403485  0.01996744  0.92153205  1
  O  O339  1  0.91539105  0.52264791  0.24863260  1
  O  O340  1  0.91489925  0.51975508  0.58293681  1
  O  O341  1  0.92372681  0.52481190  0.92356468  1
  O  O342  1  0.08091517  0.22695463  0.25644021  1
  O  O343  1  0.07869320  0.22641761  0.58433613  1
  O  O344  1  0.08527850  0.22818773  0.91350537  1
  O  O345  1  0.07490441  0.73947705  0.25898773  1
  O  O346  1  0.07771339  0.73408593  0.58390200  1
  O  O347  1  0.08414372  0.72979058  0.91234118  1
  O  O348  1  0.41225622  0.23502732  0.25938660  1
  O  O349  1  0.42005637  0.23829552  0.57232140  1
  O  O350  1  0.41827230  0.25626713  0.92019096  1
  O  O351  1  0.41782814  0.74583553  0.25259123  1
  O  O352  1  0.42637752  0.73486533  0.58109440  1
  O  O353  1  0.41369703  0.73988001  0.92282906  1
  O  O354  1  0.75352363  0.22731455  0.24627227  1
  O  O355  1  0.75381769  0.23546356  0.57601742  1
  O  O356  1  0.75243178  0.24611517  0.91727555  1
  O  O357  1  0.75415035  0.72604065  0.24299795  1
  O  O358  1  0.75330777  0.72185126  0.57505652  1
  O  O359  1  0.75809458  0.72320836  0.90570813  1
