# generated using pymatgen
data_Ba17Sr5La8Pr42Mn72O216
_symmetry_space_group_name_H-M   'P 1'
_cell_length_a   16.67648840
_cell_length_b   15.69919347
_cell_length_c   16.81921194
_cell_angle_alpha   89.99800935
_cell_angle_beta   90.02645545
_cell_angle_gamma   90.00892047
_symmetry_Int_Tables_number   1
_chemical_formula_structural   Ba17Sr5La8Pr42Mn72O216
_chemical_formula_sum   'Ba17 Sr5 La8 Pr42 Mn72 O216'
_cell_volume   4403.39392429
_cell_formula_units_Z   1
loop_
 _symmetry_equiv_pos_site_id
 _symmetry_equiv_pos_as_xyz
  1  'x, y, z'
loop_
 _atom_site_type_symbol
 _atom_site_label
 _atom_site_symmetry_multiplicity
 _atom_site_fract_x
 _atom_site_fract_y
 _atom_site_fract_z
 _atom_site_occupancy
  Ba  Ba0  1  0.83519734  0.37521047  0.49754796  1
  Ba  Ba1  1  0.33192293  0.62570112  0.33542818  1
  Ba  Ba2  1  0.33450526  0.87425231  -0.00011807  1
  Ba  Ba3  1  0.16466606  0.12260578  0.17026957  1
  Ba  Ba4  1  0.33363005  0.12485528  0.33590293  1
  Ba  Ba5  1  -0.00200258  0.37182185  0.33444645  1
  Ba  Ba6  1  0.66775408  0.12373244  0.33056271  1
  Ba  Ba7  1  0.00062929  0.62483602  1.00159074  1
  Ba  Ba8  1  0.50044272  0.12651167  0.83443075  1
  Ba  Ba9  1  0.16573258  0.37377909  0.16801760  1
  Ba  Ba10  1  0.66809069  0.62694525  0.32872610  1
  Ba  Ba11  1  0.00056030  0.37331829  0.66628273  1
  Ba  Ba12  1  0.50247198  0.12532697  0.50170984  1
  Ba  Ba13  1  -0.00021062  0.87625754  0.66996119  1
  Ba  Ba14  1  0.16968659  0.62630029  0.50123072  1
  Ba  Ba15  1  0.16460475  0.62742559  0.16915999  1
  Ba  Ba16  1  0.33303761  0.37525478  0.33491240  1
  Sr  Sr17  1  0.00461753  0.12444846  0.66583542  1
  Sr  Sr18  1  -0.00024887  0.12621091  0.33590207  1
  Sr  Sr19  1  0.50096237  0.62489226  0.83486092  1
  Sr  Sr20  1  0.83853230  0.12615564  0.83064900  1
  Sr  Sr21  1  0.33216773  0.87435562  0.67235497  1
  La  La22  1  0.49470524  0.87520720  0.50085183  1
  La  La23  1  0.00062133  0.62114409  0.33011715  1
  La  La24  1  0.83876345  0.62450615  0.83186074  1
  La  La25  1  0.16795662  0.12740397  0.50199343  1
  La  La26  1  -0.00435487  0.87708550  0.00201777  1
  La  La27  1  0.16429921  0.12300582  0.83353708  1
  La  La28  1  0.49944026  0.12323595  0.17069930  1
  La  La29  1  -0.00127190  0.87694912  0.33698365  1
  Pr  Pr30  1  0.84145559  0.12702596  0.50202672  1
  Pr  Pr31  1  0.66994670  0.12504487  0.99290287  1
  Pr  Pr32  1  0.66829594  0.62418110  0.99332689  1
  Pr  Pr33  1  0.82865485  0.87371285  0.82621287  1
  Pr  Pr34  1  0.83013807  0.37679522  0.82582573  1
  Pr  Pr35  1  0.33396751  0.37548306  0.66858837  1
  Pr  Pr36  1  0.84331431  0.62359156  0.49840141  1
  Pr  Pr37  1  0.82950363  0.87716305  0.49477381  1
  Pr  Pr38  1  0.00820556  0.62415953  0.66593861  1
  Pr  Pr39  1  0.16888896  0.87668117  0.16919843  1
  Pr  Pr40  1  0.16352170  0.37339108  0.49248128  1
  Pr  Pr41  1  0.67299106  0.12490787  0.65825732  1
  Pr  Pr42  1  0.16708170  0.87715557  0.50263805  1
  Pr  Pr43  1  0.49844095  0.87330383  0.16744554  1
  Pr  Pr44  1  0.16469177  0.37599737  0.83452233  1
  Pr  Pr45  1  0.65986159  0.37415636  -0.00391974  1
  Pr  Pr46  1  0.83832419  0.12539496  0.16731609  1
  Pr  Pr47  1  0.82516487  0.87552376  0.16178200  1
  Pr  Pr48  1  0.49775400  0.62712323  0.16850490  1
  Pr  Pr49  1  0.33628495  0.37403705  0.00785214  1
  Pr  Pr50  1  0.16522748  0.87462897  0.83135327  1
  Pr  Pr51  1  0.49835510  0.37717043  0.16990235  1
  Pr  Pr52  1  0.82540294  0.37401963  0.16514947  1
  Pr  Pr53  1  0.32839112  0.62269224  0.99873845  1
  Pr  Pr54  1  0.16642280  0.62880623  0.83769925  1
  Pr  Pr55  1  0.66526303  0.37430827  0.33500722  1
  Pr  Pr56  1  0.49660040  0.37746569  0.83206208  1
  Pr  Pr57  1  -0.01097867  0.37300184  0.00546276  1
  Pr  Pr58  1  0.66440858  0.37285129  0.66598920  1
  Pr  Pr59  1  0.50132111  0.37536009  0.49614024  1
  Pr  Pr60  1  0.32597027  0.12596395  0.99911313  1
  Pr  Pr61  1  0.50155586  0.62244968  0.50328045  1
  Pr  Pr62  1  0.66100390  0.87504255  0.66717624  1
  Pr  Pr63  1  0.83742381  0.62550564  0.16665025  1
  Pr  Pr64  1  0.65927873  0.87582583  0.33260018  1
  Pr  Pr65  1  0.67162691  0.62450870  0.65834647  1
  Pr  Pr66  1  0.32571903  0.87560303  0.33526164  1
  Pr  Pr67  1  0.33542191  0.12089364  0.66250152  1
  Pr  Pr68  1  0.34039919  0.62894946  0.66444189  1
  Pr  Pr69  1  0.49262373  0.87351487  0.82787286  1
  Pr  Pr70  1  0.65857037  0.87571425  -0.00494618  1
  Pr  Pr71  1  0.00574017  0.12743681  0.99774791  1
  Mn  Mn72  1  -0.00482883  -0.00226279  0.16861452  1
  Mn  Mn73  1  0.00001476  -0.00124908  0.50275725  1
  Mn  Mn74  1  -0.00231057  0.00198316  0.83590747  1
  Mn  Mn75  1  -0.00300258  0.49819357  0.16624639  1
  Mn  Mn76  1  0.00268742  0.50200089  0.50042928  1
  Mn  Mn77  1  0.00047224  0.49854560  0.83415810  1
  Mn  Mn78  1  0.33506408  -0.00130721  0.16736034  1
  Mn  Mn79  1  0.33293488  -0.00247674  0.50347418  1
  Mn  Mn80  1  0.33335911  0.00180324  0.83372888  1
  Mn  Mn81  1  0.33360297  0.50051815  0.16645594  1
  Mn  Mn82  1  0.33543174  0.50101257  0.50504942  1
  Mn  Mn83  1  0.33265167  0.49952452  0.83473986  1
  Mn  Mn84  1  0.66563753  -0.00118759  0.16119177  1
  Mn  Mn85  1  0.66890893  -0.00197692  0.49919340  1
  Mn  Mn86  1  0.66795760  0.00055624  0.83066050  1
  Mn  Mn87  1  0.66577200  0.49969970  0.16195345  1
  Mn  Mn88  1  0.66822677  0.50165338  0.49759423  1
  Mn  Mn89  1  0.66621461  0.50095892  0.82955599  1
  Mn  Mn90  1  -0.00399949  0.24960273  0.16673307  1
  Mn  Mn91  1  0.00193970  0.24671818  0.50182659  1
  Mn  Mn92  1  -0.00079110  0.24959702  0.83523388  1
  Mn  Mn93  1  -0.00417800  0.75434677  0.16963114  1
  Mn  Mn94  1  -0.00048269  0.75234805  0.50181097  1
  Mn  Mn95  1  -0.00087709  0.75104491  0.83458764  1
  Mn  Mn96  1  0.33498791  0.24990306  0.16658756  1
  Mn  Mn97  1  0.33473614  0.24993136  0.50506292  1
  Mn  Mn98  1  0.33231903  0.25163075  0.83511692  1
  Mn  Mn99  1  0.33414564  0.75069557  0.16749290  1
  Mn  Mn100  1  0.33446394  0.75227817  0.50321216  1
  Mn  Mn101  1  0.33406131  0.74729429  0.83395946  1
  Mn  Mn102  1  0.66496732  0.25106048  0.16208534  1
  Mn  Mn103  1  0.66931080  0.25020757  0.49880655  1
  Mn  Mn104  1  0.66751644  0.24983708  0.83093147  1
  Mn  Mn105  1  0.66629508  0.75045651  0.16083208  1
  Mn  Mn106  1  0.66788491  0.75048652  0.49845089  1
  Mn  Mn107  1  0.66644154  0.74791380  0.82986993  1
  Mn  Mn108  1  0.16626268  0.25041006  -0.00181107  1
  Mn  Mn109  1  0.16591267  0.24820828  0.33429154  1
  Mn  Mn110  1  0.16997207  0.25165706  0.66884144  1
  Mn  Mn111  1  0.16543351  0.75250763  0.00159317  1
  Mn  Mn112  1  0.16371890  0.75305455  0.33554008  1
  Mn  Mn113  1  0.16942386  0.75008496  0.67045771  1
  Mn  Mn114  1  0.50015959  0.25010727  0.00226252  1
  Mn  Mn115  1  0.50124219  0.24997914  0.33296438  1
  Mn  Mn116  1  0.50135973  0.25160108  0.66839563  1
  Mn  Mn117  1  0.50098630  0.74805679  -0.00138685  1
  Mn  Mn118  1  0.49905323  0.75071167  0.33427307  1
  Mn  Mn119  1  0.50310840  0.74854379  0.66854720  1
  Mn  Mn120  1  0.82999927  0.24884682  -0.00241509  1
  Mn  Mn121  1  0.83252297  0.24699508  0.33149904  1
  Mn  Mn122  1  0.83381371  0.24918976  0.66673434  1
  Mn  Mn123  1  0.83067891  0.75106083  -0.00381869  1
  Mn  Mn124  1  0.83255973  0.75255781  0.33044384  1
  Mn  Mn125  1  0.83300349  0.74895069  0.66357166  1
  Mn  Mn126  1  0.16506254  -0.00176318  0.00093730  1
  Mn  Mn127  1  0.16399523  -0.00134250  0.33558233  1
  Mn  Mn128  1  0.16886656  -0.00026372  0.66951684  1
  Mn  Mn129  1  0.16630587  0.49957062  -0.00155045  1
  Mn  Mn130  1  0.16575501  0.49987673  0.33435146  1
  Mn  Mn131  1  0.17031352  0.49812165  0.66945227  1
  Mn  Mn132  1  0.50020357  0.00053288  0.00087709  1
  Mn  Mn133  1  0.49915163  -0.00161554  0.33303987  1
  Mn  Mn134  1  0.50205763  -0.00019455  0.66863469  1
  Mn  Mn135  1  0.50022207  0.50125440  -0.00027079  1
  Mn  Mn136  1  0.50136622  0.50222792  0.33381126  1
  Mn  Mn137  1  0.50210642  0.49966458  0.66805201  1
  Mn  Mn138  1  0.83108717  0.00065415  -0.00365911  1
  Mn  Mn139  1  0.83286371  -0.00055028  0.33016226  1
  Mn  Mn140  1  0.83331621  -0.00059971  0.66469573  1
  Mn  Mn141  1  0.82973652  0.49941102  -0.00300391  1
  Mn  Mn142  1  0.83182336  0.50132988  0.33043134  1
  Mn  Mn143  1  0.83314621  0.50087596  0.66536819  1
  O  O144  1  0.16460016  0.12354442  0.01344839  1
  O  O145  1  0.16363036  0.11954129  0.35363508  1
  O  O146  1  0.17586548  0.12684161  0.69148395  1
  O  O147  1  0.17080544  0.62583418  0.01218901  1
  O  O148  1  0.15714960  0.63018566  0.34230267  1
  O  O149  1  0.16779169  0.62329003  0.69347832  1
  O  O150  1  0.51130649  0.12975588  0.02601104  1
  O  O151  1  0.50155759  0.12294254  0.34163788  1
  O  O152  1  0.50441407  0.12555524  0.67816184  1
  O  O153  1  0.51170978  0.62405379  0.02550214  1
  O  O154  1  0.50103243  0.62847740  0.35853148  1
  O  O155  1  0.50490287  0.62343176  0.68657352  1
  O  O156  1  0.82161750  0.12343724  0.02519369  1
  O  O157  1  0.83019737  0.11987378  0.35601254  1
  O  O158  1  0.82232093  0.12466618  0.68197380  1
  O  O159  1  0.82156296  0.62185383  0.02360167  1
  O  O160  1  0.83285074  0.63060052  0.35404754  1
  O  O161  1  0.82422116  0.62580731  0.68902232  1
  O  O162  1  0.16610855  0.37308999  0.33280333  1
  O  O163  1  0.17618331  0.37473300  0.63877725  1
  O  O164  1  0.17583955  0.37444171  0.97816848  1
  O  O165  1  0.16812277  0.87620788  0.31632334  1
  O  O166  1  0.17065838  0.87445698  0.64762328  1
  O  O167  1  0.16219043  0.87707669  0.97520969  1
  O  O168  1  0.50747501  0.37712312  0.31528315  1
  O  O169  1  0.49924508  0.37743268  0.64063050  1
  O  O170  1  0.49507759  0.37624032  0.97364202  1
  O  O171  1  0.50497935  0.87292984  0.31163588  1
  O  O172  1  0.50478117  0.87293875  0.64747195  1
  O  O173  1  0.50427036  0.86999292  0.96962761  1
  O  O174  1  0.82665619  0.37444635  0.30972309  1
  O  O175  1  0.82865400  0.37600879  0.65424998  1
  O  O176  1  0.83526363  0.37479687  0.97031389  1
  O  O177  1  0.83951258  0.87595911  0.30509762  1
  O  O178  1  0.82997261  0.87165859  0.63985534  1
  O  O179  1  0.83509199  0.87946923  0.96908289  1
  O  O180  1  -0.01416882  0.37361599  0.17557500  1
  O  O181  1  0.00896977  0.37321213  0.50962304  1
  O  O182  1  -0.00189042  0.37335838  0.85828139  1
  O  O183  1  -0.01896974  0.87622940  0.19212969  1
  O  O184  1  -0.00863557  0.87461663  0.51590147  1
  O  O185  1  -0.00339408  0.87779503  0.85529974  1
  O  O186  1  0.34027886  0.37617455  0.17335191  1
  O  O187  1  0.33797525  0.37655111  0.52539088  1
  O  O188  1  0.33594199  0.37653119  0.86441584  1
  O  O189  1  0.34065999  0.87378789  0.18720243  1
  O  O190  1  0.32845636  0.87440685  0.52397384  1
  O  O191  1  0.34023480  0.87299857  0.84502004  1
  O  O192  1  0.67108593  0.37730233  0.19117083  1
  O  O193  1  0.66388655  0.37817399  0.52151031  1
  O  O194  1  0.67597123  0.37765978  0.85392962  1
  O  O195  1  0.67166278  0.87321811  0.18859666  1
  O  O196  1  0.67400878  0.87288427  0.52372521  1
  O  O197  1  0.67723413  0.87321736  0.85348823  1
  O  O198  1  -0.00878646  0.12226990  0.13996875  1
  O  O199  1  0.00164949  0.11979741  0.48650787  1
  O  O200  1  0.00379820  0.12572481  0.81613755  1
  O  O201  1  -0.00600506  0.62702602  0.15700669  1
  O  O202  1  -0.00324156  0.63185689  0.47703950  1
  O  O203  1  0.00267314  0.62423214  0.81159038  1
  O  O204  1  0.34176688  0.12468346  0.14515100  1
  O  O205  1  0.33110745  0.12125857  0.49388036  1
  O  O206  1  0.32776355  0.12987778  0.80634135  1
  O  O207  1  0.33968627  0.62638271  0.14487176  1
  O  O208  1  0.34288494  0.62835039  0.49178663  1
  O  O209  1  0.32656151  0.62119268  0.80618814  1
  O  O210  1  0.65912290  0.12441823  0.13646352  1
  O  O211  1  0.67214792  0.12232882  0.48947604  1
  O  O212  1  0.66594443  0.12413808  0.80382833  1
  O  O213  1  0.66494880  0.62509458  0.13590136  1
  O  O214  1  0.65851629  0.62696319  0.48483374  1
  O  O215  1  0.66362784  0.62368286  0.80227821  1
  O  O216  1  0.07823196  0.00068401  0.25310462  1
  O  O217  1  0.09194558  0.01296266  0.58268457  1
  O  O218  1  0.08088537  0.01721176  0.92005932  1
  O  O219  1  0.07657825  0.50815859  0.25316210  1
  O  O220  1  0.08364889  0.51688490  0.59101238  1
  O  O221  1  0.09107700  0.51081344  0.91039727  1
  O  O222  1  0.42036422  0.00925794  0.24634495  1
  O  O223  1  0.41834205  0.00762644  0.58757061  1
  O  O224  1  0.41241344  0.01992426  0.92421395  1
  O  O225  1  0.42255287  0.51416353  0.24495657  1
  O  O226  1  0.42175463  0.52254635  0.58780151  1
  O  O227  1  0.41400174  0.52288801  0.92046513  1
  O  O228  1  0.75697831  0.01351403  0.23336953  1
  O  O229  1  0.75963947  0.01475035  0.57260804  1
  O  O230  1  0.75287521  0.02078551  0.90926091  1
  O  O231  1  0.75681434  0.51672972  0.23365105  1
  O  O232  1  0.75426572  0.52290618  0.57580704  1
  O  O233  1  0.75033624  0.52329411  0.90907659  1
  O  O234  1  0.25149120  0.24195185  0.24943651  1
  O  O235  1  0.25390664  0.22884375  0.59054153  1
  O  O236  1  0.24727068  0.22813656  0.91172844  1
  O  O237  1  0.25059463  0.75167413  0.25348177  1
  O  O238  1  0.26051307  0.73491153  0.59576735  1
  O  O239  1  0.25410570  0.73007160  0.91701356  1
  O  O240  1  0.58409463  0.24058748  0.24288147  1
  O  O241  1  0.59540987  0.24131251  0.59133025  1
  O  O242  1  0.59014104  0.24077819  0.92340102  1
  O  O243  1  0.58228066  0.73769989  0.24045693  1
  O  O244  1  0.59160649  0.73442674  0.59222561  1
  O  O245  1  0.58987552  0.73144885  0.92004190  1
  O  O246  1  0.91407634  0.22896668  0.24922955  1
  O  O247  1  0.91930840  0.23156693  0.58682102  1
  O  O248  1  0.92289203  0.23168250  0.93018985  1
  O  O249  1  0.91642329  0.72759741  0.25416659  1
  O  O250  1  0.91946242  0.72278492  0.58857971  1
  O  O251  1  0.91285425  0.73547541  0.91571703  1
  O  O252  1  0.07574036  0.48197754  0.07526709  1
  O  O253  1  0.08600522  0.49181763  0.42309315  1
  O  O254  1  0.08866640  0.48243446  0.75304921  1
  O  O255  1  0.07646981  0.97483695  0.08703549  1
  O  O256  1  0.08203548  0.97706453  0.42048049  1
  O  O257  1  0.08929273  0.98737661  0.75782781  1
  O  O258  1  0.41996829  0.48464509  0.08238846  1
  O  O259  1  0.42429385  0.48847972  0.42868114  1
  O  O260  1  0.41546233  0.47794233  0.75257276  1
  O  O261  1  0.42272520  0.98670150  0.08913335  1
  O  O262  1  0.41234225  0.97595874  0.41776215  1
  O  O263  1  0.41910325  0.98726816  0.75274364  1
  O  O264  1  0.74330491  0.47400818  0.07316839  1
  O  O265  1  0.74386028  0.48530978  0.40599710  1
  O  O266  1  0.74457831  0.48188145  0.74374380  1
  O  O267  1  0.74228972  0.97663750  0.07160731  1
  O  O268  1  0.74611299  0.97288673  0.40599308  1
  O  O269  1  0.74422795  0.97755201  0.73939504  1
  O  O270  1  0.25797350  0.25832568  0.07390197  1
  O  O271  1  0.24777510  0.25893497  0.43097345  1
  O  O272  1  0.25282710  0.27931970  0.75152995  1
  O  O273  1  0.24425031  0.76788074  0.08965391  1
  O  O274  1  0.24644858  0.77151184  0.42141550  1
  O  O275  1  0.24507631  0.76701159  0.75894552  1
  O  O276  1  0.58043824  0.28071234  0.08417863  1
  O  O277  1  0.58386328  0.27084465  0.41944384  1
  O  O278  1  0.58040800  0.27716630  0.75344333  1
  O  O279  1  0.58265996  0.77560925  0.08118445  1
  O  O280  1  0.58007729  0.77393757  0.42157050  1
  O  O281  1  0.58051991  0.77419137  0.75541049  1
  O  O282  1  0.90373272  0.26661652  0.08743502  1
  O  O283  1  0.91424070  0.24902744  0.42115060  1
  O  O284  1  0.90826794  0.26359413  0.76106806  1
  O  O285  1  0.91002185  0.76873472  0.08729704  1
  O  O286  1  0.90842829  0.76991367  0.41869966  1
  O  O287  1  0.90669139  0.76144195  0.75532692  1
  O  O288  1  0.25745082  0.48995815  0.07360323  1
  O  O289  1  0.24964755  0.48819293  0.42952654  1
  O  O290  1  0.25009454  0.47113905  0.75518324  1
  O  O291  1  0.24599408  0.98465419  0.08884688  1
  O  O292  1  0.24620670  0.97900324  0.42314862  1
  O  O293  1  0.24838385  0.98156759  0.75472243  1
  O  O294  1  0.58198493  0.47315876  0.08150711  1
  O  O295  1  0.58427609  0.47981647  0.41860687  1
  O  O296  1  0.58193430  0.47271188  0.75067122  1
  O  O297  1  0.58084666  0.97185416  0.08365182  1
  O  O298  1  0.58147790  0.97680557  0.42130861  1
  O  O299  1  0.58060628  0.97371270  0.75664719  1
  O  O300  1  0.90698144  0.48144025  0.08351845  1
  O  O301  1  0.91464497  0.50019442  0.41703085  1
  O  O302  1  0.90954476  0.48990024  0.75603579  1
  O  O303  1  0.90736906  0.97910897  0.08504669  1
  O  O304  1  0.91048924  0.98218486  0.41900914  1
  O  O305  1  0.90575975  0.98612193  0.75824146  1
  O  O306  1  0.07063451  0.26313611  0.07328071  1
  O  O307  1  0.08823117  0.25357540  0.42490284  1
  O  O308  1  0.09180140  0.26579034  0.75519166  1
  O  O309  1  0.07746558  0.77735219  0.08866964  1
  O  O310  1  0.08314887  0.77608618  0.42099503  1
  O  O311  1  0.08710005  0.76384454  0.75603615  1
  O  O312  1  0.42121339  0.26996172  0.08476081  1
  O  O313  1  0.42107357  0.26438494  0.42741084  1
  O  O314  1  0.41732406  0.27555587  0.75800158  1
  O  O315  1  0.42382514  0.76097679  0.08729429  1
  O  O316  1  0.41202542  0.77589042  0.41760562  1
  O  O317  1  0.41707430  0.75957217  0.74952757  1
  O  O318  1  0.74148896  0.27374016  0.07267638  1
  O  O319  1  0.74335914  0.26616358  0.40616635  1
  O  O320  1  0.74416745  0.26976954  0.74279939  1
  O  O321  1  0.74374905  0.77409157  0.07159904  1
  O  O322  1  0.74605942  0.77618857  0.40570839  1
  O  O323  1  0.74446711  0.76914698  0.73972032  1
  O  O324  1  0.25229665  -0.00012326  0.25256348  1
  O  O325  1  0.25191275  0.01813445  0.58833361  1
  O  O326  1  0.25027031  0.01946077  0.91479123  1
  O  O327  1  0.25044363  0.50656895  0.24896733  1
  O  O328  1  0.26276651  0.51631453  0.59867702  1
  O  O329  1  0.25009871  0.52263335  0.91332813  1
  O  O330  1  0.58438212  0.00634168  0.24346283  1
  O  O331  1  0.59548540  0.00778535  0.59519960  1
  O  O332  1  0.59239470  0.01301009  0.92351507  1
  O  O333  1  0.58152798  0.51552287  0.24062068  1
  O  O334  1  0.58764822  0.51814976  0.58460306  1
  O  O335  1  0.58730412  0.51333858  0.91815148  1
  O  O336  1  0.91580701  0.02365507  0.25055470  1
  O  O337  1  0.91776952  0.01965237  0.58628703  1
  O  O338  1  0.92122937  0.02232045  0.92697417  1
  O  O339  1  0.91385693  0.52040463  0.25044782  1
  O  O340  1  0.92092239  0.52394577  0.58641171  1
  O  O341  1  0.91252224  0.51476591  0.91586987  1
  O  O342  1  0.07768468  0.23978453  0.24773047  1
  O  O343  1  0.09058784  0.23178277  0.58413393  1
  O  O344  1  0.08489506  0.23255518  0.91441082  1
  O  O345  1  0.07476326  0.75036449  0.25680127  1
  O  O346  1  0.08415783  0.73552663  0.59187626  1
  O  O347  1  0.08759706  0.74039599  0.91420174  1
  O  O348  1  0.42252707  0.24077288  0.24416678  1
  O  O349  1  0.41167321  0.23734768  0.59601800  1
  O  O350  1  0.40847003  0.23187402  0.92792322  1
  O  O351  1  0.42127477  0.73546401  0.24638337  1
  O  O352  1  0.42879558  0.73340364  0.58049130  1
  O  O353  1  0.41647852  0.72552954  0.91925293  1
  O  O354  1  0.75586780  0.23435924  0.23250386  1
  O  O355  1  0.75602007  0.23208128  0.57745056  1
  O  O356  1  0.75229377  0.23011456  0.91169475  1
  O  O357  1  0.75847306  0.73665077  0.23385243  1
  O  O358  1  0.75754058  0.72727095  0.57330621  1
  O  O359  1  0.75080291  0.72547437  0.90603572  1
