# generated using pymatgen
data_Ba17Sr5La8Pr42Mn72O216
_symmetry_space_group_name_H-M   'P 1'
_cell_length_a   16.67261751
_cell_length_b   15.69975287
_cell_length_c   16.81722073
_cell_angle_alpha   90.01858900
_cell_angle_beta   90.01589821
_cell_angle_gamma   90.00622798
_symmetry_Int_Tables_number   1
_chemical_formula_structural   Ba17Sr5La8Pr42Mn72O216
_chemical_formula_sum   'Ba17 Sr5 La8 Pr42 Mn72 O216'
_cell_volume   4402.00757320
_cell_formula_units_Z   1
loop_
 _symmetry_equiv_pos_site_id
 _symmetry_equiv_pos_as_xyz
  1  'x, y, z'
loop_
 _atom_site_type_symbol
 _atom_site_label
 _atom_site_symmetry_multiplicity
 _atom_site_fract_x
 _atom_site_fract_y
 _atom_site_fract_z
 _atom_site_occupancy
  Ba  Ba0  1  0.16224517  0.87247814  0.16885305  1
  Ba  Ba1  1  0.83193762  0.87003176  0.49790768  1
  Ba  Ba2  1  -0.00127850  0.12610546  0.33163915  1
  Ba  Ba3  1  0.16419628  0.12523566  0.16802817  1
  Ba  Ba4  1  0.49958590  0.12542916  0.16856114  1
  Ba  Ba5  1  0.32928781  0.87574766  0.66716200  1
  Ba  Ba6  1  0.33409544  0.37677799  -0.00023514  1
  Ba  Ba7  1  0.66458061  0.12548297  0.33231276  1
  Ba  Ba8  1  0.83233706  0.12567413  0.16787988  1
  Ba  Ba9  1  0.50135416  0.37635356  0.83150892  1
  Ba  Ba10  1  0.33678266  0.62476144  0.33401767  1
  Ba  Ba11  1  0.83307234  0.37946283  0.50009650  1
  Ba  Ba12  1  0.16459377  0.12586142  0.50032164  1
  Ba  Ba13  1  0.33099090  0.87165216  0.33620741  1
  Ba  Ba14  1  0.50010569  0.12546400  0.49875129  1
  Ba  Ba15  1  0.33661751  0.62523909  0.99986916  1
  Ba  Ba16  1  0.33239817  0.12543594  1.00333173  1
  Sr  Sr17  1  0.67409688  0.62455735  0.99567889  1
  Sr  Sr18  1  0.00597377  0.62474630  0.66193571  1
  Sr  Sr19  1  0.66395487  0.12634971  0.66355367  1
  Sr  Sr20  1  0.83917470  0.62351286  0.50385558  1
  Sr  Sr21  1  -0.00081195  0.12378999  1.00010284  1
  La  La22  1  0.33488447  0.12622223  0.66693228  1
  La  La23  1  0.82935509  0.12512352  0.50095788  1
  La  La24  1  0.00044699  0.62395914  0.33498286  1
  La  La25  1  0.66660249  0.37684309  0.00110544  1
  La  La26  1  0.50226953  0.12282110  0.83669527  1
  La  La27  1  0.83743491  0.37527702  0.83003175  1
  La  La28  1  0.84217596  0.62434094  0.83364148  1
  La  La29  1  0.82957192  0.87711810  0.16837340  1
  Pr  Pr30  1  0.17399455  0.62267843  0.16952923  1
  Pr  Pr31  1  0.83180512  0.37187351  0.16746425  1
  Pr  Pr32  1  0.49305124  0.87540101  0.16757389  1
  Pr  Pr33  1  0.50088028  0.37376285  0.50158283  1
  Pr  Pr34  1  -0.00388021  0.87453978  0.66460637  1
  Pr  Pr35  1  0.50975097  0.62801975  0.83812507  1
  Pr  Pr36  1  0.66736541  0.12411267  0.99843466  1
  Pr  Pr37  1  0.00352462  0.37716698  0.66791702  1
  Pr  Pr38  1  0.33210569  0.12324565  0.32594076  1
  Pr  Pr39  1  -0.00110648  0.37506971  0.00184302  1
  Pr  Pr40  1  0.17439976  0.62531904  0.50473227  1
  Pr  Pr41  1  0.82862529  0.87390236  0.82835732  1
  Pr  Pr42  1  0.33387228  0.37104829  0.67273986  1
  Pr  Pr43  1  0.34034955  0.62275941  0.66502648  1
  Pr  Pr44  1  0.67371366  0.37179990  0.66907734  1
  Pr  Pr45  1  -0.00364194  0.12539538  0.66180085  1
  Pr  Pr46  1  0.66059468  0.87279887  0.00298916  1
  Pr  Pr47  1  0.49692470  0.87745537  0.49762708  1
  Pr  Pr48  1  0.16239543  0.37582856  0.16522617  1
  Pr  Pr49  1  0.00639501  0.62676759  0.99437400  1
  Pr  Pr50  1  0.83278186  0.12668741  0.83737574  1
  Pr  Pr51  1  0.50899565  0.62198585  0.16817979  1
  Pr  Pr52  1  0.33348415  0.37346063  0.33417610  1
  Pr  Pr53  1  0.49847336  0.37548120  0.16259005  1
  Pr  Pr54  1  0.16060523  0.87196383  0.49439268  1
  Pr  Pr55  1  0.66250069  0.87906044  0.33428878  1
  Pr  Pr56  1  0.16757712  0.12362765  0.84034910  1
  Pr  Pr57  1  0.66052686  0.87715264  0.66778438  1
  Pr  Pr58  1  0.49131570  0.87437280  0.83220400  1
  Pr  Pr59  1  0.66945341  0.62202975  0.66222432  1
  Pr  Pr60  1  -0.00681493  0.87510006  0.00326025  1
  Pr  Pr61  1  0.17200927  0.37594042  0.83343640  1
  Pr  Pr62  1  0.50194434  0.62965538  0.50104058  1
  Pr  Pr63  1  0.17372009  0.62704839  0.83342765  1
  Pr  Pr64  1  0.16509234  0.37741923  0.49946797  1
  Pr  Pr65  1  0.67507892  0.62420615  0.33107036  1
  Pr  Pr66  1  0.15894043  0.87567888  0.83500297  1
  Pr  Pr67  1  -0.00184915  0.87965836  0.33438342  1
  Pr  Pr68  1  0.00006258  0.37129799  0.33435460  1
  Pr  Pr69  1  0.83805451  0.62346304  0.16383820  1
  Pr  Pr70  1  0.66521048  0.37102309  0.33345880  1
  Pr  Pr71  1  0.32541635  0.87573706  0.00554814  1
  Mn  Mn72  1  -0.00301092  -0.00157150  0.16655919  1
  Mn  Mn73  1  -0.00250789  0.00045467  0.50116642  1
  Mn  Mn74  1  -0.00165217  -0.00050670  0.83196801  1
  Mn  Mn75  1  -0.00118304  0.50171539  0.16489434  1
  Mn  Mn76  1  0.00278336  0.49984003  0.50002392  1
  Mn  Mn77  1  0.00381270  0.50061954  0.83292044  1
  Mn  Mn78  1  0.33159660  -0.00201446  0.16786968  1
  Mn  Mn79  1  0.33087990  0.00206783  0.50187015  1
  Mn  Mn80  1  0.33111750  -0.00140578  0.83513378  1
  Mn  Mn81  1  0.33588269  0.50150852  0.16839982  1
  Mn  Mn82  1  0.33542817  0.49848782  0.50249478  1
  Mn  Mn83  1  0.33519324  0.50182638  0.83065748  1
  Mn  Mn84  1  0.66514373  -0.00359821  0.16597949  1
  Mn  Mn85  1  0.66654650  -0.00098017  0.50249994  1
  Mn  Mn86  1  0.66711028  -0.00129186  0.83366176  1
  Mn  Mn87  1  0.66966318  0.50167533  0.16551913  1
  Mn  Mn88  1  0.66477246  0.50110761  0.49810540  1
  Mn  Mn89  1  0.67062970  0.50067466  0.83178301  1
  Mn  Mn90  1  -0.00126556  0.25292231  0.16648582  1
  Mn  Mn91  1  -0.00167453  0.25128237  0.50152814  1
  Mn  Mn92  1  0.00192602  0.25054419  0.83181168  1
  Mn  Mn93  1  -0.00320638  0.74598330  0.16511544  1
  Mn  Mn94  1  0.00116186  0.74731220  0.49969218  1
  Mn  Mn95  1  0.00046104  0.74986292  0.83193801  1
  Mn  Mn96  1  0.33228620  0.25303744  0.16908349  1
  Mn  Mn97  1  0.33238544  0.25195288  0.50128235  1
  Mn  Mn98  1  0.33322673  0.24907306  0.83314407  1
  Mn  Mn99  1  0.33472338  0.74875890  0.16591994  1
  Mn  Mn100  1  0.33378405  0.74862069  0.50345026  1
  Mn  Mn101  1  0.33289206  0.75038246  0.83395389  1
  Mn  Mn102  1  0.66681118  0.25305890  0.16582041  1
  Mn  Mn103  1  0.66623584  0.25217536  0.50206858  1
  Mn  Mn104  1  0.66865272  0.24865409  0.83324563  1
  Mn  Mn105  1  0.66779597  0.74736408  0.16520658  1
  Mn  Mn106  1  0.66624166  0.74845148  0.49902360  1
  Mn  Mn107  1  0.66904720  0.75142593  0.83244164  1
  Mn  Mn108  1  0.16341145  0.25140536  -0.00080173  1
  Mn  Mn109  1  0.16725308  0.25372051  0.33390471  1
  Mn  Mn110  1  0.16502885  0.24974464  0.66945170  1
  Mn  Mn111  1  0.16495633  0.74951874  -0.00073643  1
  Mn  Mn112  1  0.16343074  0.74678908  0.33460850  1
  Mn  Mn113  1  0.16569363  0.75117734  0.66730239  1
  Mn  Mn114  1  0.50184628  0.24999415  -0.00038719  1
  Mn  Mn115  1  0.49805524  0.25408821  0.33281572  1
  Mn  Mn116  1  0.50104983  0.25011522  0.66683368  1
  Mn  Mn117  1  0.50303107  0.75014326  -0.00023304  1
  Mn  Mn118  1  0.50432873  0.74727180  0.33385456  1
  Mn  Mn119  1  0.50125834  0.74928328  0.66911740  1
  Mn  Mn120  1  0.83350680  0.25075326  -0.00209867  1
  Mn  Mn121  1  0.83221610  0.25304299  0.33418128  1
  Mn  Mn122  1  0.83461870  0.24917765  0.66829569  1
  Mn  Mn123  1  0.83349247  0.74975560  -0.00234298  1
  Mn  Mn124  1  0.83344914  0.74563379  0.33154531  1
  Mn  Mn125  1  0.83275070  0.74932421  0.66587688  1
  Mn  Mn126  1  0.16259218  0.00019083  -0.00028964  1
  Mn  Mn127  1  0.16587844  -0.00098445  0.33531948  1
  Mn  Mn128  1  0.16267682  -0.00052444  0.66921616  1
  Mn  Mn129  1  0.16553673  0.50044951  -0.00063647  1
  Mn  Mn130  1  0.16624655  0.49998115  0.33430277  1
  Mn  Mn131  1  0.16869727  0.50026278  0.66722283  1
  Mn  Mn132  1  0.50119607  -0.00170418  -0.00062650  1
  Mn  Mn133  1  0.49813098  -0.00174866  0.33366071  1
  Mn  Mn134  1  0.49941675  -0.00057945  0.66794425  1
  Mn  Mn135  1  0.50397675  0.50236141  -0.00020996  1
  Mn  Mn136  1  0.50282195  0.49951659  0.33398438  1
  Mn  Mn137  1  0.50207787  0.50104082  0.66514320  1
  Mn  Mn138  1  0.83229109  -0.00048428  -0.00290867  1
  Mn  Mn139  1  0.83162701  -0.00232626  0.33323268  1
  Mn  Mn140  1  0.83161001  -0.00109085  0.66752714  1
  Mn  Mn141  1  0.83540631  0.49983748  -0.00158461  1
  Mn  Mn142  1  0.83366399  0.50216621  0.33235282  1
  Mn  Mn143  1  0.83586092  0.50104789  0.66670778  1
  O  O144  1  0.16311400  0.12484092  0.00810547  1
  O  O145  1  0.17519662  0.12890881  0.34303233  1
  O  O146  1  0.15502029  0.12574477  0.69594238  1
  O  O147  1  0.15830206  0.62450818  0.02407373  1
  O  O148  1  0.15806129  0.62170926  0.35959652  1
  O  O149  1  0.16614749  0.62426270  0.69147192  1
  O  O150  1  0.51025153  0.12235135  0.01153673  1
  O  O151  1  0.49191850  0.12827577  0.34169277  1
  O  O152  1  0.50189316  0.12235718  0.69011462  1
  O  O153  1  0.50879847  0.62779836  0.02297934  1
  O  O154  1  0.51190064  0.62251813  0.35798113  1
  O  O155  1  0.50431705  0.62592634  0.69452804  1
  O  O156  1  0.83062995  0.12389908  0.01193219  1
  O  O157  1  0.83215929  0.12886853  0.35425255  1
  O  O158  1  0.84093885  0.12317513  0.69406167  1
  O  O159  1  0.83921317  0.62228338  0.02098949  1
  O  O160  1  0.82786340  0.62359929  0.35461351  1
  O  O161  1  0.82802062  0.62580344  0.68960490  1
  O  O162  1  0.16527415  0.37979454  0.31052617  1
  O  O163  1  0.16976618  0.37628568  0.64316938  1
  O  O164  1  0.15613783  0.37804513  0.97613243  1
  O  O165  1  0.15930147  0.87012702  0.32775306  1
  O  O166  1  0.16026303  0.87467565  0.63946365  1
  O  O167  1  0.16048835  0.87341528  0.97967622  1
  O  O168  1  0.49815160  0.37965100  0.30765270  1
  O  O169  1  0.49156980  0.37961649  0.64609434  1
  O  O170  1  0.50687141  0.37786280  0.98888899  1
  O  O171  1  0.50645879  0.86860122  0.31334334  1
  O  O172  1  0.50438820  0.87125781  0.64338904  1
  O  O173  1  0.50926663  0.87378062  0.97326458  1
  O  O174  1  0.83181667  0.38213287  0.31273232  1
  O  O175  1  0.83134017  0.37536387  0.65691257  1
  O  O176  1  0.83304162  0.37686637  0.97292050  1
  O  O177  1  0.83618694  0.86526098  0.31279182  1
  O  O178  1  0.83535844  0.87350602  0.65355532  1
  O  O179  1  0.83692363  0.87659930  0.97149409  1
  O  O180  1  0.00282200  0.38231331  0.18974528  1
  O  O181  1  0.00610410  0.37699792  0.52379531  1
  O  O182  1  0.00196816  0.37767073  0.85887656  1
  O  O183  1  -0.00696297  0.86461048  0.18945311  1
  O  O184  1  0.00663737  0.87353592  0.52024872  1
  O  O185  1  0.00279225  0.87256845  0.86075797  1
  O  O186  1  0.34174075  0.37997901  0.18743179  1
  O  O187  1  0.33432297  0.37720639  0.53037172  1
  O  O188  1  0.33104964  0.37588625  0.84098503  1
  O  O189  1  0.34039723  0.87045045  0.17551735  1
  O  O190  1  0.33692317  0.87016493  0.51214949  1
  O  O191  1  0.34017001  0.87297028  0.85826605  1
  O  O192  1  0.67509563  0.38306056  0.18928717  1
  O  O193  1  0.66117368  0.38001637  0.52578078  1
  O  O194  1  0.67682997  0.37183865  0.85599227  1
  O  O195  1  0.67353730  0.86622898  0.18946656  1
  O  O196  1  0.66268228  0.87089202  0.52437061  1
  O  O197  1  0.67708710  0.87505169  0.86062947  1
  O  O198  1  -0.00220270  0.13106731  0.15243928  1
  O  O199  1  -0.00745754  0.12597193  0.49015818  1
  O  O200  1  -0.00037377  0.12497612  0.80491646  1
  O  O201  1  -0.00988375  0.62236349  0.13488005  1
  O  O202  1  0.00856198  0.62195077  0.48041693  1
  O  O203  1  -0.00119526  0.62512061  0.81108159  1
  O  O204  1  0.33168973  0.12599025  0.16449306  1
  O  O205  1  0.33160768  0.13283100  0.47238786  1
  O  O206  1  0.32304919  0.12432638  0.81415840  1
  O  O207  1  0.32730537  0.62496101  0.15626931  1
  O  O208  1  0.33123883  0.62217509  0.48918603  1
  O  O209  1  0.32445015  0.62696856  0.80940530  1
  O  O210  1  0.66599764  0.12632553  0.14360421  1
  O  O211  1  0.67265393  0.12608756  0.49137058  1
  O  O212  1  0.66585704  0.12249974  0.81293288  1
  O  O213  1  0.66164940  0.62387764  0.14255941  1
  O  O214  1  0.65509505  0.62453197  0.47350812  1
  O  O215  1  0.66190899  0.62986520  0.80669254  1
  O  O216  1  0.07976316  0.00069869  0.25389639  1
  O  O217  1  0.07441368  0.01386462  0.59211519  1
  O  O218  1  0.08580592  0.01561377  0.90721208  1
  O  O219  1  0.08321393  0.52386566  0.24193574  1
  O  O220  1  0.09438738  0.51436487  0.57805593  1
  O  O221  1  0.08725777  0.52511934  0.91171725  1
  O  O222  1  0.41488711  0.00524454  0.25281607  1
  O  O223  1  0.41199349  0.01575164  0.58719660  1
  O  O224  1  0.42622462  0.01282811  0.91143922  1
  O  O225  1  0.42985834  0.51806256  0.24541871  1
  O  O226  1  0.42381523  0.52454637  0.57924256  1
  O  O227  1  0.42398395  0.51969584  0.90420524  1
  O  O228  1  0.74899797  0.00053160  0.24783029  1
  O  O229  1  0.75327479  0.01581021  0.58403268  1
  O  O230  1  0.75224064  0.02195398  0.91182255  1
  O  O231  1  0.75511899  0.52426547  0.24017410  1
  O  O232  1  0.74587307  0.51868327  0.58088877  1
  O  O233  1  0.76106665  0.51954801  0.91096890  1
  O  O234  1  0.25373868  0.24799545  0.25762491  1
  O  O235  1  0.25023453  0.23415825  0.59044532  1
  O  O236  1  0.24270190  0.24230072  0.90942632  1
  O  O237  1  0.24413279  0.73437088  0.25162706  1
  O  O238  1  0.25525790  0.72795013  0.59359346  1
  O  O239  1  0.24984052  0.73890649  0.91774004  1
  O  O240  1  0.58060661  0.25338691  0.24584731  1
  O  O241  1  0.58052283  0.24771919  0.58262916  1
  O  O242  1  0.58621432  0.23067242  0.91339366  1
  O  O243  1  0.59378291  0.72706035  0.25512694  1
  O  O244  1  0.58599312  0.72687480  0.58906679  1
  O  O245  1  0.59351035  0.73471795  0.92130654  1
  O  O246  1  0.91338253  0.25366431  0.24687079  1
  O  O247  1  0.90970404  0.23002313  0.58255832  1
  O  O248  1  0.91092390  0.23686273  0.90504899  1
  O  O249  1  0.91876254  0.72057377  0.24938273  1
  O  O250  1  0.92529750  0.73717570  0.58744801  1
  O  O251  1  0.92712975  0.73082537  0.92291522  1
  O  O252  1  0.07659275  0.47987744  0.07919381  1
  O  O253  1  0.08197805  0.47511398  0.41380697  1
  O  O254  1  0.08417939  0.47707995  0.74810999  1
  O  O255  1  0.07233591  0.98535291  0.07450742  1
  O  O256  1  0.08119349  0.98285965  0.41953455  1
  O  O257  1  0.07720055  0.97153020  0.74854920  1
  O  O258  1  0.42185520  0.49279597  0.08701172  1
  O  O259  1  0.41413795  0.47799506  0.41688481  1
  O  O260  1  0.40856205  0.49179861  0.73745637  1
  O  O261  1  0.41636374  0.97863605  0.07736022  1
  O  O262  1  0.42020386  0.98577106  0.41990442  1
  O  O263  1  0.41797134  0.98883669  0.75311922  1
  O  O264  1  0.74791092  0.48137036  0.08089176  1
  O  O265  1  0.73841308  0.48751140  0.40637497  1
  O  O266  1  0.75100909  0.48271817  0.74928905  1
  O  O267  1  0.74399116  0.97874708  0.07539989  1
  O  O268  1  0.74459142  0.98351162  0.41288014  1
  O  O269  1  0.74665760  0.97772944  0.74854046  1
  O  O270  1  0.24497954  0.26928967  0.09133013  1
  O  O271  1  0.25061032  0.28018692  0.41991347  1
  O  O272  1  0.24982264  0.26816434  0.74861247  1
  O  O273  1  0.24714174  0.76254709  0.07905557  1
  O  O274  1  0.23949245  0.75590037  0.43174542  1
  O  O275  1  0.23522849  0.76783244  0.75915685  1
  O  O276  1  0.58933582  0.27220612  0.08116557  1
  O  O277  1  0.58098983  0.27276866  0.41404979  1
  O  O278  1  0.59490346  0.26710801  0.74424295  1
  O  O279  1  0.57703531  0.77318784  0.09166334  1
  O  O280  1  0.57971030  0.77439131  0.42273495  1
  O  O281  1  0.58012500  0.77576375  0.75671091  1
  O  O282  1  0.91720349  0.27441391  0.07983773  1
  O  O283  1  0.92030366  0.26922877  0.41150461  1
  O  O284  1  0.92617334  0.27217764  0.74328751  1
  O  O285  1  0.90716592  0.77113223  0.08799384  1
  O  O286  1  0.92004803  0.75613997  0.41218927  1
  O  O287  1  0.91062713  0.76744758  0.76098931  1
  O  O288  1  0.23953463  0.48680276  0.08912460  1
  O  O289  1  0.24826380  0.47991953  0.42521706  1
  O  O290  1  0.24726787  0.48006559  0.75045140  1
  O  O291  1  0.24960931  0.98456372  0.08061490  1
  O  O292  1  0.24262571  0.98509518  0.42690754  1
  O  O293  1  0.23665837  0.98418392  0.75972111  1
  O  O294  1  0.58576194  0.47980885  0.09144492  1
  O  O295  1  0.57944788  0.47186055  0.41887528  1
  O  O296  1  0.59056613  0.48377026  0.73841954  1
  O  O297  1  0.58053172  0.97330042  0.08486367  1
  O  O298  1  0.58111856  0.97961822  0.41880000  1
  O  O299  1  0.58094965  0.97441351  0.75789201  1
  O  O300  1  0.91225257  0.47356590  0.08549773  1
  O  O301  1  0.92296178  0.48983505  0.41016883  1
  O  O302  1  0.91962005  0.48110284  0.75596350  1
  O  O303  1  0.91085886  0.97750683  0.08163256  1
  O  O304  1  0.91839915  0.98380589  0.41397347  1
  O  O305  1  0.91504315  0.97554484  0.75136607  1
  O  O306  1  0.08024595  0.27482711  0.08326182  1
  O  O307  1  0.08662506  0.27220392  0.41884195  1
  O  O308  1  0.08782803  0.27879588  0.75471197  1
  O  O309  1  0.06842104  0.76185275  0.07018784  1
  O  O310  1  0.07578649  0.76723438  0.41141728  1
  O  O311  1  0.07420918  0.77330776  0.74257752  1
  O  O312  1  0.42076066  0.26357954  0.09122142  1
  O  O313  1  0.41705799  0.27931043  0.42053731  1
  O  O314  1  0.41297910  0.25684482  0.74646452  1
  O  O315  1  0.41608526  0.77155965  0.07230700  1
  O  O316  1  0.42264041  0.75653805  0.42298113  1
  O  O317  1  0.41762881  0.76204524  0.75045911  1
  O  O318  1  0.75070208  0.27409923  0.08330028  1
  O  O319  1  0.74645498  0.26786376  0.41553510  1
  O  O320  1  0.76017058  0.26395975  0.75872720  1
  O  O321  1  0.74237490  0.76733485  0.07402995  1
  O  O322  1  0.73840880  0.76107320  0.40229523  1
  O  O323  1  0.74157031  0.77191033  0.74405236  1
  O  O324  1  0.25223770  0.00746619  0.25897250  1
  O  O325  1  0.25039482  0.02035048  0.59555096  1
  O  O326  1  0.24746962  0.00524631  0.91807098  1
  O  O327  1  0.24875302  0.51103822  0.25087123  1
  O  O328  1  0.25570787  0.52091152  0.59073703  1
  O  O329  1  0.24691480  0.51284358  0.91145112  1
  O  O330  1  0.58284899  -0.00088118  0.25035327  1
  O  O331  1  0.58583149  0.00576208  0.58989940  1
  O  O332  1  0.59096872  0.01631888  0.92089114  1
  O  O333  1  0.59410470  0.51937922  0.25155186  1
  O  O334  1  0.58239015  0.52399979  0.58081323  1
  O  O335  1  0.58961800  0.51716700  0.91418173  1
  O  O336  1  0.91418729  -0.00013589  0.24842008  1
  O  O337  1  0.91422782  0.01723125  0.58552039  1
  O  O338  1  0.91630829  0.01872972  0.91225366  1
  O  O339  1  0.91867953  0.52272811  0.24774743  1
  O  O340  1  0.92295790  0.51223136  0.58770708  1
  O  O341  1  0.92482069  0.51867094  0.92016965  1
  O  O342  1  0.08233146  0.25119737  0.25112121  1
  O  O343  1  0.07366552  0.24050333  0.59629413  1
  O  O344  1  0.07837418  0.23112739  0.91391321  1
  O  O345  1  0.08160457  0.72190664  0.24186391  1
  O  O346  1  0.09485654  0.73243995  0.57401245  1
  O  O347  1  0.09069006  0.72925451  0.90610480  1
  O  O348  1  0.40736104  0.24410484  0.26193690  1
  O  O349  1  0.41008914  0.23568406  0.58753972  1
  O  O350  1  0.41923361  0.23392523  0.91071496  1
  O  O351  1  0.43227593  0.73423685  0.24033538  1
  O  O352  1  0.42121438  0.72699673  0.58539500  1
  O  O353  1  0.43158045  0.73402765  0.90874450  1
  O  O354  1  0.74763703  0.24887282  0.25093890  1
  O  O355  1  0.74929526  0.23803078  0.59115894  1
  O  O356  1  0.74607267  0.22737659  0.91935632  1
  O  O357  1  0.75705521  0.72518947  0.23795199  1
  O  O358  1  0.74835946  0.72709297  0.57779503  1
  O  O359  1  0.76332292  0.73138273  0.90279591  1
