# generated using pymatgen
data_Ba17Sr5La8Pr42Mn72O216
_symmetry_space_group_name_H-M   'P 1'
_cell_length_a   16.68138271
_cell_length_b   15.70739539
_cell_length_c   16.83056494
_cell_angle_alpha   90.00201914
_cell_angle_beta   89.99472856
_cell_angle_gamma   90.02878897
_symmetry_Int_Tables_number   1
_chemical_formula_structural   Ba17Sr5La8Pr42Mn72O216
_chemical_formula_sum   'Ba17 Sr5 La8 Pr42 Mn72 O216'
_cell_volume   4409.96212099
_cell_formula_units_Z   1
loop_
 _symmetry_equiv_pos_site_id
 _symmetry_equiv_pos_as_xyz
  1  'x, y, z'
loop_
 _atom_site_type_symbol
 _atom_site_label
 _atom_site_symmetry_multiplicity
 _atom_site_fract_x
 _atom_site_fract_y
 _atom_site_fract_z
 _atom_site_occupancy
  Ba  Ba0  1  0.00173891  0.37495964  0.66990068  1
  Ba  Ba1  1  0.66682046  0.62360441  0.33209476  1
  Ba  Ba2  1  0.00376866  0.62439792  0.66433370  1
  Ba  Ba3  1  0.49818423  0.37421873  0.50126072  1
  Ba  Ba4  1  0.83198356  0.87473353  0.50071702  1
  Ba  Ba5  1  0.83376087  0.12499009  0.49907906  1
  Ba  Ba6  1  0.49866766  0.12570853  0.16771417  1
  Ba  Ba7  1  0.83366699  0.62578624  0.49888479  1
  Ba  Ba8  1  -0.00045470  0.37558510  -0.00007669  1
  Ba  Ba9  1  0.66477315  0.87365808  0.33231108  1
  Ba  Ba10  1  0.33241757  0.62405062  0.33175945  1
  Ba  Ba11  1  -0.00193262  0.87499853  0.66871383  1
  Ba  Ba12  1  0.00123215  0.12611139  0.33131687  1
  Ba  Ba13  1  0.00251811  0.62478218  0.33290317  1
  Ba  Ba14  1  0.83430981  0.12495300  0.16932815  1
  Ba  Ba15  1  0.49884914  0.12472941  0.49996507  1
  Ba  Ba16  1  0.66528684  0.12331015  0.33207875  1
  Sr  Sr17  1  0.83019140  0.87503365  0.17121340  1
  Sr  Sr18  1  0.49703489  0.87589010  0.49556963  1
  Sr  Sr19  1  0.16710781  0.12576042  0.17053719  1
  Sr  Sr20  1  0.16754746  0.62487680  0.16834519  1
  Sr  Sr21  1  0.16144317  0.87335082  0.16786450  1
  La  La22  1  0.49747676  0.87456260  0.83122565  1
  La  La23  1  0.66601502  0.37091165  0.33357487  1
  La  La24  1  0.16735785  0.62628268  0.83294159  1
  La  La25  1  0.00636840  0.62661674  1.00047263  1
  La  La26  1  0.16725943  0.12503137  0.83585119  1
  La  La27  1  0.49726191  0.87438858  0.16992283  1
  La  La28  1  0.49731086  0.37635717  0.16935561  1
  La  La29  1  0.33302529  0.62754923  0.99866387  1
  Pr  Pr30  1  0.16226188  0.87291282  0.49405002  1
  Pr  Pr31  1  0.17215009  0.37637816  0.82755785  1
  Pr  Pr32  1  0.83298602  0.37609975  0.82948324  1
  Pr  Pr33  1  0.84147392  0.62406499  0.17269537  1
  Pr  Pr34  1  0.16343324  0.37698376  0.49807467  1
  Pr  Pr35  1  -0.00629406  0.87806279  0.33464195  1
  Pr  Pr36  1  0.82310330  0.87387906  0.82832115  1
  Pr  Pr37  1  0.83405765  0.37848843  0.49869981  1
  Pr  Pr38  1  -0.00398272  0.37436654  0.33271912  1
  Pr  Pr39  1  0.66454270  0.37293028  0.00130613  1
  Pr  Pr40  1  0.50446959  0.12593868  0.83872744  1
  Pr  Pr41  1  0.33521968  0.12525728  0.33126895  1
  Pr  Pr42  1  0.16795989  0.12357173  0.50127904  1
  Pr  Pr43  1  0.32768906  0.87627005  0.00541600  1
  Pr  Pr44  1  0.84541895  0.62460830  0.83369083  1
  Pr  Pr45  1  0.66969308  0.37306248  0.66580777  1
  Pr  Pr46  1  0.33974719  0.37359781  0.67001202  1
  Pr  Pr47  1  0.50394256  0.62432154  0.83638686  1
  Pr  Pr48  1  0.50188291  0.62844099  0.50117857  1
  Pr  Pr49  1  0.82852014  0.37491684  0.16810244  1
  Pr  Pr50  1  0.84492634  0.12535461  0.83813398  1
  Pr  Pr51  1  0.50584790  0.37699634  0.82898565  1
  Pr  Pr52  1  0.32935770  0.87822208  0.33269501  1
  Pr  Pr53  1  0.66906186  0.62467089  0.66030562  1
  Pr  Pr54  1  0.33201156  0.37192659  0.00308421  1
  Pr  Pr55  1  0.66466851  0.87617949  0.66264289  1
  Pr  Pr56  1  0.65750864  0.87548544  0.00540730  1
  Pr  Pr57  1  0.33420935  0.87766847  0.66513035  1
  Pr  Pr58  1  0.16691074  0.87566753  0.83102867  1
  Pr  Pr59  1  0.67328291  0.12332730  0.99863755  1
  Pr  Pr60  1  0.67352828  0.62455200  0.99605180  1
  Pr  Pr61  1  0.16867304  0.62705914  0.50139853  1
  Pr  Pr62  1  0.00506211  0.12348527  1.00380400  1
  Pr  Pr63  1  0.50212022  0.62495452  0.16917358  1
  Pr  Pr64  1  0.33696182  0.62703467  0.66145331  1
  Pr  Pr65  1  0.00589018  0.12544165  0.66166689  1
  Pr  Pr66  1  0.33574376  0.12293907  0.66473279  1
  Pr  Pr67  1  -0.00997675  0.87473936  0.00565053  1
  Pr  Pr68  1  0.33023289  0.37162516  0.33615103  1
  Pr  Pr69  1  0.33343359  0.12108053  0.99927586  1
  Pr  Pr70  1  0.66926184  0.12426112  0.66027441  1
  Pr  Pr71  1  0.16390278  0.37847686  0.16713456  1
  Mn  Mn72  1  -0.00018144  -0.00208698  0.16706403  1
  Mn  Mn73  1  0.00145151  0.00115151  0.50043847  1
  Mn  Mn74  1  0.00151864  -0.00004509  0.83621242  1
  Mn  Mn75  1  0.00109661  0.49865422  0.16574185  1
  Mn  Mn76  1  0.00221128  0.49775423  0.49968664  1
  Mn  Mn77  1  0.00293376  0.50039837  0.83535372  1
  Mn  Mn78  1  0.33021810  0.00003164  0.16683210  1
  Mn  Mn79  1  0.33115921  -0.00058679  0.49977802  1
  Mn  Mn80  1  0.33492430  -0.00028556  0.83350813  1
  Mn  Mn81  1  0.33250747  0.49921982  0.16492224  1
  Mn  Mn82  1  0.33221712  0.49973441  0.50131095  1
  Mn  Mn83  1  0.33618102  0.50164403  0.83373835  1
  Mn  Mn84  1  0.66508994  -0.00240244  0.16482820  1
  Mn  Mn85  1  0.66459205  0.00018174  0.49978235  1
  Mn  Mn86  1  0.66655614  0.00041819  0.83305997  1
  Mn  Mn87  1  0.66501710  0.49995349  0.16222343  1
  Mn  Mn88  1  0.66514856  0.49857498  0.49975098  1
  Mn  Mn89  1  0.66862752  0.50149670  0.83233711  1
  Mn  Mn90  1  0.00146826  0.25219253  0.16623092  1
  Mn  Mn91  1  0.00118505  0.25074729  0.50119798  1
  Mn  Mn92  1  0.00319586  0.24920845  0.83471394  1
  Mn  Mn93  1  -0.00083126  0.75173146  0.16603623  1
  Mn  Mn94  1  0.00198488  0.75093264  0.49872542  1
  Mn  Mn95  1  0.00148028  0.75105220  0.83703083  1
  Mn  Mn96  1  0.33092364  0.25109231  0.16749670  1
  Mn  Mn97  1  0.33019975  0.24955966  0.50206504  1
  Mn  Mn98  1  0.33612077  0.24874893  0.83543404  1
  Mn  Mn99  1  0.33170613  0.75048409  0.16512091  1
  Mn  Mn100  1  0.33320742  0.75102293  0.49915319  1
  Mn  Mn101  1  0.33488343  0.75133654  0.83196643  1
  Mn  Mn102  1  0.66494046  0.25259159  0.16493961  1
  Mn  Mn103  1  0.66671932  0.25074797  0.50172268  1
  Mn  Mn104  1  0.66842415  0.24859261  0.83278514  1
  Mn  Mn105  1  0.66487051  0.74906704  0.16190346  1
  Mn  Mn106  1  0.66353786  0.74943015  0.50001167  1
  Mn  Mn107  1  0.66653015  0.74848421  0.83289336  1
  Mn  Mn108  1  0.16818578  0.24874969  0.00084234  1
  Mn  Mn109  1  0.16720682  0.25102341  0.33325710  1
  Mn  Mn110  1  0.17203754  0.24921331  0.66751040  1
  Mn  Mn111  1  0.16695595  0.75109430  -0.00023349  1
  Mn  Mn112  1  0.16623782  0.75095760  0.33051218  1
  Mn  Mn113  1  0.17116907  0.75301388  0.66668074  1
  Mn  Mn114  1  0.49965859  0.25029120  -0.00046948  1
  Mn  Mn115  1  0.49749041  0.25142596  0.33281631  1
  Mn  Mn116  1  0.50108124  0.24994963  0.67132235  1
  Mn  Mn117  1  0.49850464  0.74853118  -0.00099189  1
  Mn  Mn118  1  0.49647862  0.74886207  0.33324455  1
  Mn  Mn119  1  0.50016043  0.75160806  0.66747157  1
  Mn  Mn120  1  0.83385102  0.25024456  -0.00053281  1
  Mn  Mn121  1  0.83251338  0.25240737  0.33296679  1
  Mn  Mn122  1  0.83342739  0.24908977  0.66998867  1
  Mn  Mn123  1  0.83134522  0.74870587  -0.00025925  1
  Mn  Mn124  1  0.83361415  0.74923359  0.33225833  1
  Mn  Mn125  1  0.83129794  0.75105552  0.66852173  1
  Mn  Mn126  1  0.16609787  0.00014214  0.00088040  1
  Mn  Mn127  1  0.16693124  -0.00047632  0.33197889  1
  Mn  Mn128  1  0.16923344  -0.00057300  0.66750950  1
  Mn  Mn129  1  0.16914362  0.50026559  -0.00113799  1
  Mn  Mn130  1  0.16689976  0.49893692  0.33203650  1
  Mn  Mn131  1  0.17283810  0.50027649  0.66624405  1
  Mn  Mn132  1  0.49944635  0.00104282  -0.00081916  1
  Mn  Mn133  1  0.49710658  -0.00111781  0.33318295  1
  Mn  Mn134  1  0.50013906  -0.00182668  0.66893913  1
  Mn  Mn135  1  0.49876835  0.49890075  -0.00058945  1
  Mn  Mn136  1  0.49770299  0.49924765  0.33360807  1
  Mn  Mn137  1  0.50072286  0.50100680  0.66873593  1
  Mn  Mn138  1  0.83280917  -0.00024964  -0.00165143  1
  Mn  Mn139  1  0.83258590  -0.00038109  0.33275941  1
  Mn  Mn140  1  0.83146385  0.00041537  0.67126156  1
  Mn  Mn141  1  0.83205802  0.50097580  0.00017715  1
  Mn  Mn142  1  0.83307915  0.49949978  0.33134267  1
  Mn  Mn143  1  0.83238615  0.49857265  0.66722535  1
  O  O144  1  0.17205226  0.12414450  0.02125693  1
  O  O145  1  0.17333072  0.12689940  0.35799063  1
  O  O146  1  0.17096760  0.12379541  0.69314796  1
  O  O147  1  0.17230021  0.62855780  0.01854166  1
  O  O148  1  0.16691240  0.62273422  0.35696934  1
  O  O149  1  0.17875176  0.63060769  0.69028169  1
  O  O150  1  0.50048678  0.12449456  0.01329912  1
  O  O151  1  0.49068941  0.12656677  0.34158476  1
  O  O152  1  0.49720616  0.12455379  0.69478744  1
  O  O153  1  0.49736883  0.61897605  0.02662774  1
  O  O154  1  0.49722654  0.62222798  0.35476853  1
  O  O155  1  0.49569419  0.62674206  0.69448104  1
  O  O156  1  0.82966697  0.12544462  0.01307915  1
  O  O157  1  0.83342743  0.12949745  0.33959824  1
  O  O158  1  0.82103518  0.12506080  0.69557246  1
  O  O159  1  0.82550933  0.62480050  0.02828659  1
  O  O160  1  0.83409719  0.62137174  0.33719432  1
  O  O161  1  0.82205228  0.62449897  0.68920153  1
  O  O162  1  0.17676282  0.37413929  0.31050591  1
  O  O163  1  0.17977515  0.36968962  0.64373450  1
  O  O164  1  0.17538212  0.37131023  0.96984710  1
  O  O165  1  0.17613898  0.87554507  0.31654381  1
  O  O166  1  0.17665905  0.87755888  0.64059924  1
  O  O167  1  0.17179778  0.87612938  0.97325227  1
  O  O168  1  0.49105977  0.37725250  0.31490946  1
  O  O169  1  0.49734144  0.37657943  0.65711094  1
  O  O170  1  0.49691767  0.37597792  0.96970045  1
  O  O171  1  0.49018780  0.87229332  0.31482418  1
  O  O172  1  0.50118169  0.87252216  0.64574584  1
  O  O173  1  0.50240766  0.87855818  0.97243733  1
  O  O174  1  0.82763678  0.37852124  0.31323125  1
  O  O175  1  0.82924606  0.37383167  0.64709865  1
  O  O176  1  0.82417434  0.37543904  0.97085404  1
  O  O177  1  0.84005240  0.87251889  0.32266735  1
  O  O178  1  0.82927516  0.87537041  0.66111521  1
  O  O179  1  0.83677298  0.87418266  0.97127435  1
  O  O180  1  0.01035815  0.37585056  0.18361100  1
  O  O181  1  0.00283687  0.37261426  0.51528968  1
  O  O182  1  0.00480870  0.37587253  0.84437776  1
  O  O183  1  0.00245817  0.87386346  0.18551182  1
  O  O184  1  0.00815273  0.87714113  0.51164817  1
  O  O185  1  0.00835494  0.87646339  0.86113916  1
  O  O186  1  0.33107896  0.37497512  0.19004018  1
  O  O187  1  0.32316840  0.37608345  0.52815981  1
  O  O188  1  0.33280143  0.37081716  0.86076638  1
  O  O189  1  0.33804592  0.87406929  0.18620193  1
  O  O190  1  0.32712156  0.87525879  0.52343315  1
  O  O191  1  0.33671001  0.87290053  0.86236636  1
  O  O192  1  0.67299303  0.37916026  0.18351147  1
  O  O193  1  0.67114900  0.37506605  0.52223947  1
  O  O194  1  0.66645922  0.37447560  0.86003216  1
  O  O195  1  0.66501295  0.87187407  0.17012661  1
  O  O196  1  0.65908758  0.87298689  0.51863629  1
  O  O197  1  0.67091580  0.87160876  0.86265948  1
  O  O198  1  0.00164985  0.12608441  0.14717094  1
  O  O199  1  0.00920455  0.12796870  0.48976162  1
  O  O200  1  -0.00020178  0.12340955  0.80707356  1
  O  O201  1  -0.00752711  0.62462040  0.14532080  1
  O  O202  1  0.01243679  0.62267133  0.49050454  1
  O  O203  1  0.00053333  0.62564988  0.82178475  1
  O  O204  1  0.32899760  0.12746315  0.14205573  1
  O  O205  1  0.32527616  0.12291966  0.47604367  1
  O  O206  1  0.33512270  0.12637357  0.80679777  1
  O  O207  1  0.33527364  0.62404155  0.14014763  1
  O  O208  1  0.33788482  0.62506536  0.48842381  1
  O  O209  1  0.33414508  0.63078222  0.80457991  1
  O  O210  1  0.66430955  0.12661350  0.14342441  1
  O  O211  1  0.66558792  0.12866765  0.49511575  1
  O  O212  1  0.65775258  0.12667124  0.80409894  1
  O  O213  1  0.65460859  0.62268837  0.13787209  1
  O  O214  1  0.65953665  0.62234241  0.49249863  1
  O  O215  1  0.65730218  0.62700192  0.80407941  1
  O  O216  1  0.08952353  0.00795515  0.24630448  1
  O  O217  1  0.08821689  0.02086299  0.58535323  1
  O  O218  1  0.08785323  0.02506671  0.91589457  1
  O  O219  1  0.08824885  0.50637223  0.24721843  1
  O  O220  1  0.09467648  0.50815719  0.57529561  1
  O  O221  1  0.08725012  0.52021157  0.91846626  1
  O  O222  1  0.40966420  0.00992918  0.25328255  1
  O  O223  1  0.40961817  0.01263054  0.58965829  1
  O  O224  1  0.42054107  0.02216004  0.91319558  1
  O  O225  1  0.42193253  0.51356023  0.23682920  1
  O  O226  1  0.41494675  0.51723482  0.58921402  1
  O  O227  1  0.41811779  0.52610053  0.91643642  1
  O  O228  1  0.74998675  0.00198015  0.24433835  1
  O  O229  1  0.74735754  0.00912386  0.59142785  1
  O  O230  1  0.75669388  0.02226135  0.90592864  1
  O  O231  1  0.75577290  0.51372580  0.23393471  1
  O  O232  1  0.74201650  0.50936213  0.59128077  1
  O  O233  1  0.75364664  0.52674684  0.91004103  1
  O  O234  1  0.25436772  0.23181820  0.25646297  1
  O  O235  1  0.25034849  0.22082143  0.58503930  1
  O  O236  1  0.25397679  0.22472873  0.91706363  1
  O  O237  1  0.25282839  0.74134255  0.24966596  1
  O  O238  1  0.25767557  0.73111189  0.58855493  1
  O  O239  1  0.25500618  0.73091010  0.91472726  1
  O  O240  1  0.58060151  0.25535506  0.24610781  1
  O  O241  1  0.58591408  0.23961327  0.59465714  1
  O  O242  1  0.58777767  0.22949153  0.91573330  1
  O  O243  1  0.58120551  0.73747650  0.24353871  1
  O  O244  1  0.58267937  0.72775852  0.59095196  1
  O  O245  1  0.58883985  0.72610363  0.91940339  1
  O  O246  1  0.91975023  0.25638389  0.25265813  1
  O  O247  1  0.92152636  0.23238711  0.59632900  1
  O  O248  1  0.92132409  0.22894847  0.92254388  1
  O  O249  1  0.91611564  0.73910082  0.24533742  1
  O  O250  1  0.91719074  0.74235643  0.58857797  1
  O  O251  1  0.92112332  0.72722915  0.92855492  1
  O  O252  1  0.08699349  0.48946320  0.08489544  1
  O  O253  1  0.08261545  0.47497804  0.41193213  1
  O  O254  1  0.09806771  0.48979935  0.75413601  1
  O  O255  1  0.07394930  0.98405895  0.07251076  1
  O  O256  1  0.08629601  0.98180291  0.41306272  1
  O  O257  1  0.09044342  0.98527556  0.75511058  1
  O  O258  1  0.41375604  0.47488571  0.07779198  1
  O  O259  1  0.40649362  0.48132995  0.41510043  1
  O  O260  1  0.42208872  0.48048098  0.75632882  1
  O  O261  1  0.41149356  0.98215151  0.07683164  1
  O  O262  1  0.40755066  0.98422344  0.41352266  1
  O  O263  1  0.41578800  0.97713453  0.74944852  1
  O  O264  1  0.74042243  0.48122402  0.07107392  1
  O  O265  1  0.75184256  0.48065404  0.41783465  1
  O  O266  1  0.74949695  0.47527579  0.75103851  1
  O  O267  1  0.73908750  0.98776886  0.06597845  1
  O  O268  1  0.74896819  0.99468514  0.41520003  1
  O  O269  1  0.74069736  0.97690775  0.74784918  1
  O  O270  1  0.24898188  0.27479005  0.08450746  1
  O  O271  1  0.24486705  0.27250292  0.42078893  1
  O  O272  1  0.25838899  0.27132179  0.74942922  1
  O  O273  1  0.24880825  0.77009420  0.08069421  1
  O  O274  1  0.24218977  0.76395158  0.42474618  1
  O  O275  1  0.25292704  0.77929001  0.75214215  1
  O  O276  1  0.58117372  0.27464819  0.08055243  1
  O  O277  1  0.58485862  0.26478596  0.41111382  1
  O  O278  1  0.58474936  0.27339889  0.75418729  1
  O  O279  1  0.57339541  0.76996666  0.08435512  1
  O  O280  1  0.57188044  0.75418373  0.42665642  1
  O  O281  1  0.57929600  0.77318145  0.75503215  1
  O  O282  1  0.90925934  0.26875434  0.08900488  1
  O  O283  1  0.91287303  0.27365878  0.41855947  1
  O  O284  1  0.90806304  0.26141175  0.76059354  1
  O  O285  1  0.90910639  0.76874688  0.08443624  1
  O  O286  1  0.92250434  0.76049682  0.41481878  1
  O  O287  1  0.90659779  0.76084643  0.76586870  1
  O  O288  1  0.25171850  0.47683822  0.07938331  1
  O  O289  1  0.24477661  0.47977299  0.42137795  1
  O  O290  1  0.25890512  0.47651229  0.74845471  1
  O  O291  1  0.24806268  0.98066132  0.08177601  1
  O  O292  1  0.24664994  0.97860662  0.42081481  1
  O  O293  1  0.25269429  0.97763582  0.75006824  1
  O  O294  1  0.57906071  0.47256853  0.08013215  1
  O  O295  1  0.58774561  0.48275246  0.41258999  1
  O  O296  1  0.58696193  0.47967232  0.74968393  1
  O  O297  1  0.57723124  0.97951181  0.08161026  1
  O  O298  1  0.57532636  0.99126000  0.41855250  1
  O  O299  1  0.57935672  0.97564937  0.75824602  1
  O  O300  1  0.90477506  0.48401391  0.09038912  1
  O  O301  1  0.91769671  0.47823756  0.41725678  1
  O  O302  1  0.90973583  0.49009707  0.75930194  1
  O  O303  1  0.91230844  0.98139532  0.08216222  1
  O  O304  1  0.92051347  0.98986482  0.41554603  1
  O  O305  1  0.90484952  0.98721863  0.76695454  1
  O  O306  1  0.08722229  0.26341148  0.08336965  1
  O  O307  1  0.08394565  0.27336043  0.41198595  1
  O  O308  1  0.09687162  0.26190341  0.75632686  1
  O  O309  1  0.07234277  0.76488712  0.07286600  1
  O  O310  1  0.08259380  0.77186707  0.40976805  1
  O  O311  1  0.09267251  0.76528964  0.75259442  1
  O  O312  1  0.41290484  0.27206673  0.08366612  1
  O  O313  1  0.40653582  0.26271773  0.41467302  1
  O  O314  1  0.42182730  0.27161438  0.75901069  1
  O  O315  1  0.40857882  0.76947355  0.07416250  1
  O  O316  1  0.40514008  0.77015757  0.41187572  1
  O  O317  1  0.41381314  0.77471739  0.74627857  1
  O  O318  1  0.74496585  0.26983027  0.07616573  1
  O  O319  1  0.75103664  0.27278329  0.41760238  1
  O  O320  1  0.74797334  0.27631285  0.75149548  1
  O  O321  1  0.73441244  0.76172776  0.06359797  1
  O  O322  1  0.74678785  0.75415697  0.41513492  1
  O  O323  1  0.74154458  0.77127682  0.74850165  1
  O  O324  1  0.25408026  0.01765522  0.25723544  1
  O  O325  1  0.25025710  0.02394195  0.58534830  1
  O  O326  1  0.25375958  0.01942012  0.91770337  1
  O  O327  1  0.24926214  0.50950892  0.24535200  1
  O  O328  1  0.25231756  0.52592485  0.58440084  1
  O  O329  1  0.25202759  0.52244251  0.91198470  1
  O  O330  1  0.57704819  -0.00093481  0.24567444  1
  O  O331  1  0.58747384  0.01293642  0.59669873  1
  O  O332  1  0.59013270  0.02221835  0.91955265  1
  O  O333  1  0.58114972  0.50865343  0.24007561  1
  O  O334  1  0.57750931  0.52080088  0.58560735  1
  O  O335  1  0.58431486  0.52068709  0.91660179  1
  O  O336  1  0.92017989  0.00091452  0.25247327  1
  O  O337  1  0.92117742  0.01847254  0.59946842  1
  O  O338  1  0.92493963  0.02226693  0.92526276  1
  O  O339  1  0.91829418  0.50254732  0.24799312  1
  O  O340  1  0.91365471  0.50406194  0.58292806  1
  O  O341  1  0.91746585  0.52174138  0.92470764  1
  O  O342  1  0.09054562  0.24438550  0.24695700  1
  O  O343  1  0.09052706  0.23041104  0.58650133  1
  O  O344  1  0.08619293  0.22469161  0.91973202  1
  O  O345  1  0.08818151  0.73998095  0.24263011  1
  O  O346  1  0.09724627  0.73990572  0.57453788  1
  O  O347  1  0.08991044  0.73014674  0.91425429  1
  O  O348  1  0.40988697  0.24140706  0.25316136  1
  O  O349  1  0.40942094  0.23739391  0.59554165  1
  O  O350  1  0.41547398  0.22485754  0.91823654  1
  O  O351  1  0.42305697  0.73490678  0.23629624  1
  O  O352  1  0.42122321  0.73074928  0.58190017  1
  O  O353  1  0.42237591  0.72703585  0.91043463  1
  O  O354  1  0.74859679  0.24962890  0.24792609  1
  O  O355  1  0.74811453  0.23884683  0.59217232  1
  O  O356  1  0.75180926  0.22522309  0.91064586  1
  O  O357  1  0.75376912  0.73483914  0.23184202  1
  O  O358  1  0.74213693  0.74084833  0.58990929  1
  O  O359  1  0.75738213  0.72320534  0.90646298  1
