# generated using pymatgen
data_Ba17Sr5La8Pr42Mn72O216
_symmetry_space_group_name_H-M   'P 1'
_cell_length_a   16.67135170
_cell_length_b   15.70654892
_cell_length_c   16.81617718
_cell_angle_alpha   89.98718052
_cell_angle_beta   89.99775597
_cell_angle_gamma   90.00129964
_symmetry_Int_Tables_number   1
_chemical_formula_structural   Ba17Sr5La8Pr42Mn72O216
_chemical_formula_sum   'Ba17 Sr5 La8 Pr42 Mn72 O216'
_cell_volume   4403.30580884
_cell_formula_units_Z   1
loop_
 _symmetry_equiv_pos_site_id
 _symmetry_equiv_pos_as_xyz
  1  'x, y, z'
loop_
 _atom_site_type_symbol
 _atom_site_label
 _atom_site_symmetry_multiplicity
 _atom_site_fract_x
 _atom_site_fract_y
 _atom_site_fract_z
 _atom_site_occupancy
  Ba  Ba0  1  0.66479009  0.87475351  0.00057776  1
  Ba  Ba1  1  0.83653072  0.62530207  0.49715091  1
  Ba  Ba2  1  0.00621728  0.62571581  0.33322695  1
  Ba  Ba3  1  -0.00240497  0.12526508  0.33217345  1
  Ba  Ba4  1  0.33279044  0.12648335  0.33252921  1
  Ba  Ba5  1  0.16636044  0.12452549  0.50110964  1
  Ba  Ba6  1  0.66786577  0.37535263  0.33357713  1
  Ba  Ba7  1  0.83394350  0.87316430  0.16218026  1
  Ba  Ba8  1  0.00044217  0.12511205  0.99863777  1
  Ba  Ba9  1  0.17218729  0.62589790  0.50251105  1
  Ba  Ba10  1  0.49871066  0.12521012  0.16794533  1
  Ba  Ba11  1  0.83092096  0.12712968  0.83268911  1
  Ba  Ba12  1  0.33294789  0.62393160  1.00145179  1
  Ba  Ba13  1  0.66939617  0.62151194  0.33466090  1
  Ba  Ba14  1  0.66440962  0.12298238  0.99943542  1
  Ba  Ba15  1  0.16879959  0.62476962  0.83504307  1
  Ba  Ba16  1  0.83284611  0.37502414  0.83188737  1
  Sr  Sr17  1  0.50679708  0.62314419  0.49865928  1
  Sr  Sr18  1  -0.00219847  0.87623402  0.00116661  1
  Sr  Sr19  1  -0.00129267  0.37440048  -0.00108470  1
  Sr  Sr20  1  0.16878758  0.62332955  0.17085361  1
  Sr  Sr21  1  0.33314045  0.37369182  0.33470048  1
  La  La22  1  -0.00070867  0.87193427  0.66694842  1
  La  La23  1  0.82853574  0.12272338  0.16275219  1
  La  La24  1  0.67108735  0.62560536  1.00048753  1
  La  La25  1  0.67376409  0.62405333  0.66091355  1
  La  La26  1  0.00422368  0.37710884  0.66804266  1
  La  La27  1  0.49647633  0.87463273  0.16577238  1
  La  La28  1  0.49976921  0.12833851  0.49871951  1
  La  La29  1  -0.00726170  0.12552691  0.66186925  1
  Pr  Pr30  1  0.32935308  0.37932614  0.00427881  1
  Pr  Pr31  1  0.50353225  0.62574079  0.83633456  1
  Pr  Pr32  1  0.16243458  0.12614780  0.17394855  1
  Pr  Pr33  1  0.16620544  0.37374676  0.16898510  1
  Pr  Pr34  1  0.16244552  0.37666481  0.83609441  1
  Pr  Pr35  1  0.33897807  0.62281591  0.32952995  1
  Pr  Pr36  1  0.16804312  0.12608219  0.83699795  1
  Pr  Pr37  1  0.66615882  0.12597476  0.32691142  1
  Pr  Pr38  1  0.83267244  0.87381996  0.49363394  1
  Pr  Pr39  1  0.50366811  0.62573218  0.17124246  1
  Pr  Pr40  1  0.49238960  0.87662094  0.83338765  1
  Pr  Pr41  1  0.15987085  0.87293188  0.83673661  1
  Pr  Pr42  1  0.84327865  0.62722690  0.16975631  1
  Pr  Pr43  1  0.00449517  0.37690613  0.33194884  1
  Pr  Pr44  1  0.32793396  0.87108110  0.00364602  1
  Pr  Pr45  1  0.83570513  0.37540200  0.16188186  1
  Pr  Pr46  1  0.49998826  0.12458458  0.83991865  1
  Pr  Pr47  1  0.49394593  0.37517870  0.16822593  1
  Pr  Pr48  1  0.00121088  0.62715187  0.99912077  1
  Pr  Pr49  1  0.66532446  0.87568473  0.33472532  1
  Pr  Pr50  1  0.66400401  0.12551040  0.66817304  1
  Pr  Pr51  1  0.82734423  0.12610206  0.50094250  1
  Pr  Pr52  1  0.32513170  0.87638023  0.66970914  1
  Pr  Pr53  1  0.49776611  0.37712011  0.49457133  1
  Pr  Pr54  1  0.16196031  0.87743279  0.16615668  1
  Pr  Pr55  1  0.83672451  0.37626046  0.49593512  1
  Pr  Pr56  1  0.66829093  0.36971284  0.00390255  1
  Pr  Pr57  1  0.16768926  0.37520699  0.49584374  1
  Pr  Pr58  1  0.33501184  0.12430902  0.66294647  1
  Pr  Pr59  1  0.16166909  0.87572771  0.49767994  1
  Pr  Pr60  1  0.49671013  0.37445100  0.83290743  1
  Pr  Pr61  1  0.00380424  0.62162045  0.65807527  1
  Pr  Pr62  1  -0.00110300  0.87443784  0.33159848  1
  Pr  Pr63  1  0.33317329  0.12589288  1.00054050  1
  Pr  Pr64  1  0.83021378  0.88288287  0.83458442  1
  Pr  Pr65  1  0.34514312  0.62554749  0.66240941  1
  Pr  Pr66  1  0.66443753  0.37922664  0.66795493  1
  Pr  Pr67  1  0.66399895  0.86976028  0.67161708  1
  Pr  Pr68  1  0.49824609  0.87334791  0.49714774  1
  Pr  Pr69  1  0.33027903  0.87729085  0.33459319  1
  Pr  Pr70  1  0.83811094  0.62621820  0.83141332  1
  Pr  Pr71  1  0.32792833  0.37343904  0.66866157  1
  Mn  Mn72  1  -0.00104125  0.00077187  0.16546795  1
  Mn  Mn73  1  -0.00272819  -0.00049640  0.49960070  1
  Mn  Mn74  1  0.00050804  -0.00212093  0.83066175  1
  Mn  Mn75  1  0.00201676  0.49814726  0.16479091  1
  Mn  Mn76  1  0.00244695  0.49791290  0.50017368  1
  Mn  Mn77  1  0.00027818  0.50149977  0.83225084  1
  Mn  Mn78  1  0.33088888  -0.00135284  0.16610965  1
  Mn  Mn79  1  0.33511733  -0.00069893  0.50294916  1
  Mn  Mn80  1  0.33125846  0.00083784  0.83437534  1
  Mn  Mn81  1  0.33287419  0.49983423  0.16865007  1
  Mn  Mn82  1  0.33711330  0.50068251  0.50115788  1
  Mn  Mn83  1  0.33476348  0.49780239  0.83297273  1
  Mn  Mn84  1  0.66532006  -0.00096273  0.16828157  1
  Mn  Mn85  1  0.66497202  0.00046341  0.50122084  1
  Mn  Mn86  1  0.66358605  -0.00295385  0.83120732  1
  Mn  Mn87  1  0.66646250  0.49839904  0.16254574  1
  Mn  Mn88  1  0.66840520  0.49935998  0.50256045  1
  Mn  Mn89  1  0.66486584  0.50226003  0.83349563  1
  Mn  Mn90  1  -0.00168027  0.25126553  0.16585333  1
  Mn  Mn91  1  -0.00180559  0.25038891  0.49953165  1
  Mn  Mn92  1  0.00139326  0.25155060  0.83083581  1
  Mn  Mn93  1  0.00409618  0.75011835  0.16436453  1
  Mn  Mn94  1  0.00140539  0.75141318  0.50082307  1
  Mn  Mn95  1  -0.00169705  0.75077543  0.83253547  1
  Mn  Mn96  1  0.33171930  0.25183032  0.16622597  1
  Mn  Mn97  1  0.33444244  0.24981813  0.50304394  1
  Mn  Mn98  1  0.33291189  0.25028747  0.83415078  1
  Mn  Mn99  1  0.33256770  0.75034502  0.16904134  1
  Mn  Mn100  1  0.33680595  0.75148943  0.50109951  1
  Mn  Mn101  1  0.33327953  0.75077645  0.83303729  1
  Mn  Mn102  1  0.66711522  0.25146549  0.16810986  1
  Mn  Mn103  1  0.66615413  0.24849403  0.50104798  1
  Mn  Mn104  1  0.66339324  0.25335303  0.83263303  1
  Mn  Mn105  1  0.66584693  0.74808246  0.16663998  1
  Mn  Mn106  1  0.66669202  0.75188198  0.50327425  1
  Mn  Mn107  1  0.66584141  0.74821348  0.83254762  1
  Mn  Mn108  1  0.16780601  0.25001884  0.00157691  1
  Mn  Mn109  1  0.16672999  0.25136271  0.33433970  1
  Mn  Mn110  1  0.16654330  0.24965746  0.66940753  1
  Mn  Mn111  1  0.16490336  0.75047770  0.00258627  1
  Mn  Mn112  1  0.17084629  0.75138972  0.33358897  1
  Mn  Mn113  1  0.16837959  0.75084684  0.66802000  1
  Mn  Mn114  1  0.49741418  0.25173489  -0.00086187  1
  Mn  Mn115  1  0.49948231  0.25139395  0.33407755  1
  Mn  Mn116  1  0.49975882  0.25020200  0.66724701  1
  Mn  Mn117  1  0.49841042  0.74866366  0.00066316  1
  Mn  Mn118  1  0.50095390  0.75067292  0.33335163  1
  Mn  Mn119  1  0.49960208  0.75218398  0.66679706  1
  Mn  Mn120  1  0.83367284  0.25127548  -0.00171874  1
  Mn  Mn121  1  0.83449658  0.25078143  0.33228634  1
  Mn  Mn122  1  0.83034236  0.24995791  0.66191205  1
  Mn  Mn123  1  0.83425066  0.74650451  -0.00171009  1
  Mn  Mn124  1  0.83326207  0.75004269  0.33034010  1
  Mn  Mn125  1  0.83389844  0.75273181  0.66685761  1
  Mn  Mn126  1  0.16750235  0.00162223  0.00095635  1
  Mn  Mn127  1  0.16628584  -0.00118477  0.33272750  1
  Mn  Mn128  1  0.16521324  -0.00055419  0.67001014  1
  Mn  Mn129  1  0.16412366  0.49906235  0.00255124  1
  Mn  Mn130  1  0.17116928  0.49974291  0.33460202  1
  Mn  Mn131  1  0.16996507  0.49946177  0.66729677  1
  Mn  Mn132  1  0.49551633  -0.00161584  -0.00041121  1
  Mn  Mn133  1  0.50074955  -0.00253197  0.33429669  1
  Mn  Mn134  1  0.50004166  0.00034074  0.66650441  1
  Mn  Mn135  1  0.50112761  0.49926727  0.00019719  1
  Mn  Mn136  1  0.49964285  0.49951993  0.33352729  1
  Mn  Mn137  1  0.50029963  0.49842927  0.66713428  1
  Mn  Mn138  1  0.83363814  -0.00025806  -0.00203510  1
  Mn  Mn139  1  0.83180419  -0.00123906  0.33299392  1
  Mn  Mn140  1  0.83041755  -0.00131075  0.66236587  1
  Mn  Mn141  1  0.83281776  0.50173677  -0.00185810  1
  Mn  Mn142  1  0.83648114  0.49932466  0.32907888  1
  Mn  Mn143  1  0.83398571  0.49908430  0.66554163  1
  O  O144  1  0.17545208  0.12641522  0.02859234  1
  O  O145  1  0.16468976  0.12398173  0.34055550  1
  O  O146  1  0.17003358  0.12246862  0.69368696  1
  O  O147  1  0.15649758  0.62411155  0.02024033  1
  O  O148  1  0.17597189  0.62621495  0.34601740  1
  O  O149  1  0.16135522  0.62535765  0.67813484  1
  O  O150  1  0.49375653  0.12541540  0.01158893  1
  O  O151  1  0.50672648  0.12245216  0.35348619  1
  O  O152  1  0.50014877  0.12651610  0.69747838  1
  O  O153  1  0.50316638  0.62125636  0.02611545  1
  O  O154  1  0.49196047  0.62561772  0.34840635  1
  O  O155  1  0.49393506  0.62731735  0.69362407  1
  O  O156  1  0.83338764  0.12809437  0.01422510  1
  O  O157  1  0.82669865  0.12224217  0.35848970  1
  O  O158  1  0.83952927  0.12352003  0.67584614  1
  O  O159  1  0.83486958  0.62258449  0.02283362  1
  O  O160  1  0.83619147  0.62431007  0.33947426  1
  O  O161  1  0.83599035  0.62887178  0.68701851  1
  O  O162  1  0.16974141  0.37587648  0.31658626  1
  O  O163  1  0.17064638  0.37561740  0.64057859  1
  O  O164  1  0.17228120  0.37156025  0.97832025  1
  O  O165  1  0.17657842  0.87552994  0.31202159  1
  O  O166  1  0.17205433  0.87597125  0.64239879  1
  O  O167  1  0.17166186  0.87948453  0.97880536  1
  O  O168  1  0.49703936  0.37713390  0.31607413  1
  O  O169  1  0.50240868  0.37022683  0.63704760  1
  O  O170  1  0.49561648  0.37670068  0.97521112  1
  O  O171  1  0.50723959  0.87382835  0.31130123  1
  O  O172  1  0.50309973  0.87627621  0.63934639  1
  O  O173  1  0.48853319  0.87447379  0.97811865  1
  O  O174  1  0.84007946  0.37609561  0.30754183  1
  O  O175  1  0.82228576  0.37031167  0.64233487  1
  O  O176  1  0.82615384  0.37899001  0.98996682  1
  O  O177  1  0.82808776  0.87538874  0.31919006  1
  O  O178  1  0.82572455  0.87687378  0.63896784  1
  O  O179  1  0.83526653  0.86806254  0.97901596  1
  O  O180  1  -0.01029712  0.37509563  0.18714149  1
  O  O181  1  0.00202622  0.37337780  0.52327566  1
  O  O182  1  0.00661314  0.37828413  0.84691595  1
  O  O183  1  0.00357636  0.87570361  0.18552925  1
  O  O184  1  -0.00110773  0.87597022  0.52128950  1
  O  O185  1  0.00383707  0.87330936  0.85185564  1
  O  O186  1  0.33421702  0.37696947  0.18461932  1
  O  O187  1  0.34055222  0.37300882  0.52592960  1
  O  O188  1  0.34183906  0.37165176  0.86098149  1
  O  O189  1  0.33105114  0.87341610  0.18936298  1
  O  O190  1  0.34308759  0.87570395  0.52720608  1
  O  O191  1  0.34015047  0.88077075  0.86035277  1
  O  O192  1  0.67839444  0.37543589  0.17639905  1
  O  O193  1  0.66689834  0.37390138  0.52481491  1
  O  O194  1  0.66006046  0.38322223  0.85897484  1
  O  O195  1  0.66291388  0.87553427  0.18836650  1
  O  O196  1  0.66377639  0.87943624  0.52946376  1
  O  O197  1  0.67400603  0.87048357  0.84352758  1
  O  O198  1  0.01123079  0.12665126  0.15744366  1
  O  O199  1  -0.00950012  0.12492807  0.48905603  1
  O  O200  1  0.00935848  0.12205003  0.80602096  1
  O  O201  1  0.00388016  0.62256613  0.14485792  1
  O  O202  1  0.00350771  0.62524710  0.49399224  1
  O  O203  1  -0.00622333  0.62814738  0.80355946  1
  O  O204  1  0.32599364  0.12537494  0.14502509  1
  O  O205  1  0.33746660  0.12341789  0.48930869  1
  O  O206  1  0.32875549  0.12587421  0.80459635  1
  O  O207  1  0.33471384  0.62567616  0.15819376  1
  O  O208  1  0.33689333  0.62925916  0.47537500  1
  O  O209  1  0.33866625  0.62133581  0.80632070  1
  O  O210  1  0.66947424  0.12679573  0.15910426  1
  O  O211  1  0.66728906  0.12118102  0.46997336  1
  O  O212  1  0.65291932  0.12151906  0.81269916  1
  O  O213  1  0.65293419  0.61975957  0.14437634  1
  O  O214  1  0.66414698  0.62488779  0.49410762  1
  O  O215  1  0.65575237  0.62600729  0.80468250  1
  O  O216  1  0.08291847  0.00321040  0.24987162  1
  O  O217  1  0.07751953  0.01123535  0.59109155  1
  O  O218  1  0.09363763  0.01459588  0.91049844  1
  O  O219  1  0.08927790  0.50116050  0.24578754  1
  O  O220  1  0.08422420  0.50763695  0.58696380  1
  O  O221  1  0.07870909  0.51332531  0.92094340  1
  O  O222  1  0.41459691  0.00113266  0.25106310  1
  O  O223  1  0.42053237  0.02272897  0.58622279  1
  O  O224  1  0.41248701  0.02482054  0.91306074  1
  O  O225  1  0.42096449  0.51660971  0.24508451  1
  O  O226  1  0.42438917  0.51985376  0.58010474  1
  O  O227  1  0.42685205  0.51511943  0.90630498  1
  O  O228  1  0.74702591  0.01779477  0.25588047  1
  O  O229  1  0.74523932  0.02627204  0.58305934  1
  O  O230  1  0.74756089  0.00436677  0.91061823  1
  O  O231  1  0.75788230  0.51368990  0.23124705  1
  O  O232  1  0.75189687  0.51250504  0.58479185  1
  O  O233  1  0.75274998  0.52784082  0.90712365  1
  O  O234  1  0.24145262  0.24014536  0.23978351  1
  O  O235  1  0.25604818  0.23585272  0.59466972  1
  O  O236  1  0.25429572  0.22661599  0.91865005  1
  O  O237  1  0.26621522  0.73885233  0.26609038  1
  O  O238  1  0.26427383  0.73816490  0.59832546  1
  O  O239  1  0.25184110  0.74580892  0.92357517  1
  O  O240  1  0.58624135  0.24132011  0.25363048  1
  O  O241  1  0.58180488  0.22317180  0.58808470  1
  O  O242  1  0.57313950  0.24111321  0.90970874  1
  O  O243  1  0.58433720  0.73583324  0.25359180  1
  O  O244  1  0.59143250  0.73660294  0.59671985  1
  O  O245  1  0.58807987  0.72987083  0.91968916  1
  O  O246  1  0.90565884  0.23429458  0.23922238  1
  O  O247  1  0.90319962  0.23980209  0.56813857  1
  O  O248  1  0.91979252  0.24515796  0.91076051  1
  O  O249  1  0.92258957  0.73927197  0.24505517  1
  O  O250  1  0.92538161  0.73983640  0.59662837  1
  O  O251  1  0.91653446  0.72430174  0.91460840  1
  O  O252  1  0.08266566  0.47387914  0.08511811  1
  O  O253  1  0.08490572  0.47819506  0.41690193  1
  O  O254  1  0.08617572  0.48210900  0.74861914  1
  O  O255  1  0.08876197  0.98525284  0.08554607  1
  O  O256  1  0.08362983  0.97684658  0.41672070  1
  O  O257  1  0.08317982  0.97308309  0.74919033  1
  O  O258  1  0.41455533  0.47873818  0.08124815  1
  O  O259  1  0.41457179  0.48232504  0.41615403  1
  O  O260  1  0.41222849  0.47442533  0.74233336  1
  O  O261  1  0.41008522  0.98002835  0.08130380  1
  O  O262  1  0.42070192  0.97822433  0.41660346  1
  O  O263  1  0.41195563  0.97921464  0.74999319  1
  O  O264  1  0.73758672  0.48977597  0.06873828  1
  O  O265  1  0.75590889  0.48445678  0.41961334  1
  O  O266  1  0.73902966  0.48926197  0.74352846  1
  O  O267  1  0.74941838  0.99643943  0.08800231  1
  O  O268  1  0.74886130  0.97592340  0.42152538  1
  O  O269  1  0.74753704  0.98284539  0.74452346  1
  O  O270  1  0.25242346  0.27432743  0.08061362  1
  O  O271  1  0.25038892  0.26749646  0.42460995  1
  O  O272  1  0.24896648  0.27614858  0.75935752  1
  O  O273  1  0.24489489  0.76924725  0.09229744  1
  O  O274  1  0.24754713  0.77691266  0.42776760  1
  O  O275  1  0.24527788  0.77458372  0.75710442  1
  O  O276  1  0.58163922  0.27179801  0.08277977  1
  O  O277  1  0.58014718  0.26391311  0.42680302  1
  O  O278  1  0.58109782  0.27683094  0.74730114  1
  O  O279  1  0.57222848  0.76357606  0.09303232  1
  O  O280  1  0.58037821  0.77112598  0.42312388  1
  O  O281  1  0.57369046  0.77337072  0.75714488  1
  O  O282  1  0.91648415  0.26547402  0.08253101  1
  O  O283  1  0.92305355  0.27456301  0.40904935  1
  O  O284  1  0.92266557  0.26160310  0.73161222  1
  O  O285  1  0.92045130  0.75165291  0.07795174  1
  O  O286  1  0.91588865  0.77085388  0.41772262  1
  O  O287  1  0.90862917  0.77772131  0.75496467  1
  O  O288  1  0.24665010  0.48118928  0.08929586  1
  O  O289  1  0.24876490  0.48095619  0.42758230  1
  O  O290  1  0.24838478  0.47352381  0.75488643  1
  O  O291  1  0.25076857  0.97640367  0.08151960  1
  O  O292  1  0.24983580  0.97859995  0.41934616  1
  O  O293  1  0.24483096  0.97465153  0.75938272  1
  O  O294  1  0.57849989  0.47094817  0.08403152  1
  O  O295  1  0.57840410  0.48658839  0.42658919  1
  O  O296  1  0.57457987  0.47790713  0.75691633  1
  O  O297  1  0.57566067  0.98472850  0.09010177  1
  O  O298  1  0.58355200  0.97428580  0.42066471  1
  O  O299  1  0.58213811  0.97492668  0.74656158  1
  O  O300  1  0.91146181  0.48723029  0.08599328  1
  O  O301  1  0.92192104  0.47686659  0.41709924  1
  O  O302  1  0.91939031  0.48683838  0.74430677  1
  O  O303  1  0.91992110  0.99472316  0.08106803  1
  O  O304  1  0.91677680  0.97585897  0.41146842  1
  O  O305  1  0.91549247  0.97823964  0.74172025  1
  O  O306  1  0.08811476  0.26866796  0.08894352  1
  O  O307  1  0.08527095  0.27146181  0.42191229  1
  O  O308  1  0.08692510  0.27323955  0.75045492  1
  O  O309  1  0.08384692  0.77264394  0.08253318  1
  O  O310  1  0.08342450  0.77507279  0.41105834  1
  O  O311  1  0.08092516  0.77054491  0.74759241  1
  O  O312  1  0.41445787  0.27163478  0.08067411  1
  O  O313  1  0.42026654  0.26351547  0.42454019  1
  O  O314  1  0.41495946  0.27229756  0.74866013  1
  O  O315  1  0.40796356  0.76981522  0.08104005  1
  O  O316  1  0.41304107  0.77552116  0.40911828  1
  O  O317  1  0.41064993  0.77426012  0.74008140  1
  O  O318  1  0.75300236  0.26304389  0.08807603  1
  O  O319  1  0.76181431  0.26529101  0.42487808  1
  O  O320  1  0.74248687  0.25911115  0.74267778  1
  O  O321  1  0.74447911  0.74933061  0.07712909  1
  O  O322  1  0.74475979  0.77169077  0.41809807  1
  O  O323  1  0.74563862  0.76416470  0.74465899  1
  O  O324  1  0.24302517  0.01277923  0.24166240  1
  O  O325  1  0.25523233  0.01273610  0.59662972  1
  O  O326  1  0.25275494  0.02649306  0.91943966  1
  O  O327  1  0.25905731  0.51335960  0.25912141  1
  O  O328  1  0.26473997  0.51360088  0.59601138  1
  O  O329  1  0.25288890  0.50303770  0.92058059  1
  O  O330  1  0.58956404  0.01105421  0.26039513  1
  O  O331  1  0.58344916  0.02816460  0.58140315  1
  O  O332  1  0.57220718  0.00433481  0.90726720  1
  O  O333  1  0.57991810  0.50822803  0.24445079  1
  O  O334  1  0.59183458  0.51214069  0.59779527  1
  O  O335  1  0.58770298  0.52494150  0.92067274  1
  O  O336  1  0.90963984  0.01378582  0.24436495  1
  O  O337  1  0.90766103  0.01248881  0.57628636  1
  O  O338  1  0.91516143  0.00277460  0.90756943  1
  O  O339  1  0.92001799  0.51607574  0.24466663  1
  O  O340  1  0.92359205  0.50783844  0.58622770  1
  O  O341  1  0.91678720  0.52350144  0.91587059  1
  O  O342  1  0.07937471  0.25066599  0.25051496  1
  O  O343  1  0.07055224  0.23503114  0.59121029  1
  O  O344  1  0.09482131  0.23614877  0.91206185  1
  O  O345  1  0.09518902  0.74571699  0.24443804  1
  O  O346  1  0.08709333  0.74597899  0.58466981  1
  O  O347  1  0.07867610  0.73694944  0.91972193  1
  O  O348  1  0.41479461  0.24568519  0.24736900  1
  O  O349  1  0.41838121  0.22721055  0.58711595  1
  O  O350  1  0.41357764  0.22658993  0.91391355  1
  O  O351  1  0.42438387  0.73603889  0.24275103  1
  O  O352  1  0.42526144  0.73085062  0.57727493  1
  O  O353  1  0.42568280  0.73438924  0.90434342  1
  O  O354  1  0.74881520  0.23085059  0.25602174  1
  O  O355  1  0.74357882  0.22262555  0.58427413  1
  O  O356  1  0.74317775  0.24691578  0.91956086  1
  O  O357  1  0.75464664  0.73261220  0.24083521  1
  O  O358  1  0.75252774  0.73898221  0.58409767  1
  O  O359  1  0.75389727  0.72512167  0.90856252  1
