# generated using pymatgen
data_Ba17Sr5La8Pr42Mn72O216
_symmetry_space_group_name_H-M   'P 1'
_cell_length_a   16.67785935
_cell_length_b   15.70584313
_cell_length_c   16.83238542
_cell_angle_alpha   90.00178384
_cell_angle_beta   89.99899580
_cell_angle_gamma   89.98626290
_symmetry_Int_Tables_number   1
_chemical_formula_structural   Ba17Sr5La8Pr42Mn72O216
_chemical_formula_sum   'Ba17 Sr5 La8 Pr42 Mn72 O216'
_cell_volume   4409.07226140
_cell_formula_units_Z   1
loop_
 _symmetry_equiv_pos_site_id
 _symmetry_equiv_pos_as_xyz
  1  'x, y, z'
loop_
 _atom_site_type_symbol
 _atom_site_label
 _atom_site_symmetry_multiplicity
 _atom_site_fract_x
 _atom_site_fract_y
 _atom_site_fract_z
 _atom_site_occupancy
  Ba  Ba0  1  -0.00202327  0.62495594  0.33071263  1
  Ba  Ba1  1  0.33476253  0.37489385  0.66691505  1
  Ba  Ba2  1  0.50096246  0.87664007  0.50092858  1
  Ba  Ba3  1  0.00148181  0.37320131  0.33465081  1
  Ba  Ba4  1  0.16862577  0.87773146  0.16373250  1
  Ba  Ba5  1  0.83669651  0.37599282  0.83451021  1
  Ba  Ba6  1  0.33463605  0.62386161  0.33099510  1
  Ba  Ba7  1  0.66690461  0.87395771  0.00148873  1
  Ba  Ba8  1  0.16868981  0.87688872  0.49896342  1
  Ba  Ba9  1  0.16586806  0.62716163  0.49872488  1
  Ba  Ba10  1  0.33221326  0.62314187  0.66562280  1
  Ba  Ba11  1  0.66858055  0.37453343  0.33557257  1
  Ba  Ba12  1  0.50103338  0.87582899  0.83286817  1
  Ba  Ba13  1  0.66725169  0.87531308  0.66940691  1
  Ba  Ba14  1  0.33490695  0.37156810  0.33350201  1
  Ba  Ba15  1  0.83336254  0.87811764  0.49972399  1
  Ba  Ba16  1  0.00066504  0.37284921  0.66662997  1
  Sr  Sr17  1  0.65998174  0.62400337  0.99972677  1
  Sr  Sr18  1  0.82902596  0.12891264  0.49988755  1
  Sr  Sr19  1  0.83685322  0.37231414  0.49730794  1
  Sr  Sr20  1  0.49971792  0.62630431  0.16731613  1
  Sr  Sr21  1  0.16238501  0.12540533  0.16930362  1
  La  La22  1  0.50003900  0.37752497  0.49859662  1
  La  La23  1  0.66318728  0.62569184  0.66845098  1
  La  La24  1  0.34067880  0.37193337  0.00304605  1
  La  La25  1  0.66291878  0.62666156  0.33452639  1
  La  La26  1  0.84284404  0.37623406  0.16505032  1
  La  La27  1  -0.00433143  0.62716678  0.99853483  1
  La  La28  1  0.00659754  0.87584040  0.33375192  1
  La  La29  1  0.83094917  0.61941870  0.49851867  1
  Pr  Pr30  1  0.49340935  0.12374421  0.83634736  1
  Pr  Pr31  1  0.66527214  0.12384337  0.33735657  1
  Pr  Pr32  1  0.33086365  0.12016483  0.33121478  1
  Pr  Pr33  1  0.66663960  0.87438599  0.34018632  1
  Pr  Pr34  1  0.32355525  0.12192166  0.99692112  1
  Pr  Pr35  1  0.83940312  0.87374267  0.16335637  1
  Pr  Pr36  1  0.67739653  0.37752448  0.00997327  1
  Pr  Pr37  1  0.00540835  0.87612543  0.66652579  1
  Pr  Pr38  1  0.82282922  0.62593465  0.16986233  1
  Pr  Pr39  1  0.17078509  0.37444653  0.82949886  1
  Pr  Pr40  1  0.83791834  0.87312093  0.82473952  1
  Pr  Pr41  1  0.82618708  0.12488045  0.16851604  1
  Pr  Pr42  1  0.49799031  0.62111479  0.50166200  1
  Pr  Pr43  1  0.67305214  0.37317426  0.66830203  1
  Pr  Pr44  1  0.00981247  0.37119329  0.00326130  1
  Pr  Pr45  1  0.82516494  0.62295336  0.83341921  1
  Pr  Pr46  1  0.65991869  0.12730441  0.99771875  1
  Pr  Pr47  1  0.33448845  0.87090944  0.66735483  1
  Pr  Pr48  1  -0.00899601  0.12539418  0.66320507  1
  Pr  Pr49  1  0.33150837  0.87368936  0.33351253  1
  Pr  Pr50  1  -0.00503578  0.62424452  0.65927837  1
  Pr  Pr51  1  0.49323585  0.62825388  0.83716404  1
  Pr  Pr52  1  -0.00634984  0.12154439  0.99846304  1
  Pr  Pr53  1  0.50618163  0.37971009  0.16710909  1
  Pr  Pr54  1  0.17521352  0.37607881  0.16727349  1
  Pr  Pr55  1  0.49915366  0.13070832  0.50359142  1
  Pr  Pr56  1  0.49988506  0.12523662  0.16917024  1
  Pr  Pr57  1  -0.00872347  0.12131601  0.33182840  1
  Pr  Pr58  1  0.66392916  0.12452963  0.66648387  1
  Pr  Pr59  1  0.17216999  0.87770706  0.82966752  1
  Pr  Pr60  1  0.15891109  0.12950262  0.83590872  1
  Pr  Pr61  1  0.32711824  0.62685780  0.99673632  1
  Pr  Pr62  1  0.00281944  0.87632585  -0.00022267  1
  Pr  Pr63  1  0.33981147  0.87501331  0.00208458  1
  Pr  Pr64  1  0.33194359  0.12216916  0.66443928  1
  Pr  Pr65  1  0.49966416  0.87164005  0.16424041  1
  Pr  Pr66  1  0.16029990  0.62167683  0.83144714  1
  Pr  Pr67  1  0.17001684  0.37832126  0.49730166  1
  Pr  Pr68  1  0.16200274  0.12914570  0.50102988  1
  Pr  Pr69  1  0.16496674  0.62471049  0.17427184  1
  Pr  Pr70  1  0.50866984  0.37729422  0.83174559  1
  Pr  Pr71  1  0.82694132  0.12718606  0.83379943  1
  Mn  Mn72  1  -0.00194602  0.00148989  0.16431310  1
  Mn  Mn73  1  -0.00073392  0.00159025  0.49899803  1
  Mn  Mn74  1  -0.00016371  0.00119202  0.83210467  1
  Mn  Mn75  1  0.00201765  0.49853649  0.16239770  1
  Mn  Mn76  1  -0.00101156  0.49929244  0.49987982  1
  Mn  Mn77  1  0.00027595  0.50213277  0.83342481  1
  Mn  Mn78  1  0.33461474  0.00260170  0.16499472  1
  Mn  Mn79  1  0.33436006  0.00194281  0.49830962  1
  Mn  Mn80  1  0.33134877  0.00190052  0.83171305  1
  Mn  Mn81  1  0.33568576  0.49786185  0.16304612  1
  Mn  Mn82  1  0.33352826  0.49892420  0.49976485  1
  Mn  Mn83  1  0.33262850  0.49945333  0.83614550  1
  Mn  Mn84  1  0.66597219  0.00039303  0.16927831  1
  Mn  Mn85  1  0.66586348  0.00150585  0.50085123  1
  Mn  Mn86  1  0.66805548  0.00222422  0.83487961  1
  Mn  Mn87  1  0.66720939  0.50150279  0.16827774  1
  Mn  Mn88  1  0.66692105  0.50018932  0.50249815  1
  Mn  Mn89  1  0.66586392  0.49920668  0.83628628  1
  Mn  Mn90  1  0.00102860  0.24721979  0.16646317  1
  Mn  Mn91  1  -0.00047240  0.24836903  0.49929034  1
  Mn  Mn92  1  -0.00015649  0.24815634  0.83482147  1
  Mn  Mn93  1  -0.00044339  0.75078612  0.16236809  1
  Mn  Mn94  1  -0.00236817  0.75156197  0.49858514  1
  Mn  Mn95  1  0.00093687  0.74964825  0.83089619  1
  Mn  Mn96  1  0.33511097  0.24765354  0.16613854  1
  Mn  Mn97  1  0.33319854  0.24755553  0.50043242  1
  Mn  Mn98  1  0.33343807  0.24987069  0.83503140  1
  Mn  Mn99  1  0.33377638  0.75025262  0.16400738  1
  Mn  Mn100  1  0.33529102  0.75126868  0.49959669  1
  Mn  Mn101  1  0.33048945  0.74952838  0.83402910  1
  Mn  Mn102  1  0.66711966  0.24897808  0.16720540  1
  Mn  Mn103  1  0.66661657  0.24961313  0.50244393  1
  Mn  Mn104  1  0.66611328  0.25093584  0.83574788  1
  Mn  Mn105  1  0.66555588  0.75068481  0.16944407  1
  Mn  Mn106  1  0.66643242  0.74900139  0.50023397  1
  Mn  Mn107  1  0.66721167  0.74823690  0.83548801  1
  Mn  Mn108  1  0.16675504  0.24842656  0.00081741  1
  Mn  Mn109  1  0.16633431  0.24645185  0.33384433  1
  Mn  Mn110  1  0.16711140  0.24704323  0.66824042  1
  Mn  Mn111  1  0.16552365  0.74899332  -0.00244167  1
  Mn  Mn112  1  0.16677887  0.75049325  0.33069526  1
  Mn  Mn113  1  0.16508607  0.75264622  0.66788790  1
  Mn  Mn114  1  0.50078687  0.24993503  0.00051203  1
  Mn  Mn115  1  0.50023849  0.24762840  0.33508821  1
  Mn  Mn116  1  0.50059933  0.25099138  0.67009553  1
  Mn  Mn117  1  0.49858979  0.74842086  0.00201226  1
  Mn  Mn118  1  0.50037444  0.75115547  0.33167606  1
  Mn  Mn119  1  0.49978448  0.74851284  0.66756730  1
  Mn  Mn120  1  0.83484874  0.24848256  0.00189410  1
  Mn  Mn121  1  0.83270043  0.24780083  0.33343777  1
  Mn  Mn122  1  0.83224895  0.24989853  0.66707067  1
  Mn  Mn123  1  0.83295718  0.75024124  -0.00235390  1
  Mn  Mn124  1  0.83178261  0.75126441  0.33125788  1
  Mn  Mn125  1  0.83451952  0.74933827  0.66598132  1
  Mn  Mn126  1  0.16545477  0.00141263  -0.00263630  1
  Mn  Mn127  1  0.16661809  0.00205041  0.33239761  1
  Mn  Mn128  1  0.16697414  0.00238754  0.66723595  1
  Mn  Mn129  1  0.16682037  0.49999607  0.00021139  1
  Mn  Mn130  1  0.16669860  0.49842987  0.33157246  1
  Mn  Mn131  1  0.16500649  0.49915404  0.66693483  1
  Mn  Mn132  1  0.49947137  0.00157660  0.00294262  1
  Mn  Mn133  1  0.50117198  0.00157782  0.33194220  1
  Mn  Mn134  1  0.49897676  0.00284816  0.66816842  1
  Mn  Mn135  1  0.49878623  0.50017383  -0.00089378  1
  Mn  Mn136  1  0.50057700  0.49950614  0.33292558  1
  Mn  Mn137  1  0.50279655  0.49777183  0.66873115  1
  Mn  Mn138  1  0.83179303  -0.00056340  -0.00114403  1
  Mn  Mn139  1  0.83114423  0.00044642  0.33054670  1
  Mn  Mn140  1  0.83368845  0.00138701  0.66679452  1
  Mn  Mn141  1  0.83587811  0.50215987  0.00072092  1
  Mn  Mn142  1  0.83268449  0.49994832  0.33366018  1
  Mn  Mn143  1  0.83324769  0.50021324  0.66710616  1
  O  O144  1  0.17097217  0.12448815  0.02020898  1
  O  O145  1  0.17096098  0.12412615  0.35608615  1
  O  O146  1  0.17388674  0.12327922  0.69535714  1
  O  O147  1  0.16996244  0.61928114  0.02940419  1
  O  O148  1  0.16631622  0.62509134  0.33448009  1
  O  O149  1  0.15919577  0.63014647  0.68817066  1
  O  O150  1  0.50491639  0.12724535  0.02597481  1
  O  O151  1  0.50166466  0.12447852  0.35998957  1
  O  O152  1  0.49754415  0.12968882  0.69344856  1
  O  O153  1  0.48901704  0.62372174  0.01813261  1
  O  O154  1  0.50442699  0.62671932  0.35527349  1
  O  O155  1  0.50408329  0.61870396  0.69253229  1
  O  O156  1  0.83783384  0.12424163  0.02606125  1
  O  O157  1  0.83869476  0.12316614  0.34941268  1
  O  O158  1  0.83307707  0.12511429  0.68929895  1
  O  O159  1  0.84173130  0.62590868  0.02695272  1
  O  O160  1  0.82957235  0.62810102  0.35209365  1
  O  O161  1  0.83874176  0.62600037  0.68847953  1
  O  O162  1  0.16708125  0.36911822  0.31244538  1
  O  O163  1  0.16544779  0.36669259  0.64393357  1
  O  O164  1  0.16047839  0.37391757  0.97123845  1
  O  O165  1  0.16929115  0.87822653  0.32026530  1
  O  O166  1  0.16424894  0.88013182  0.65430286  1
  O  O167  1  0.16154090  0.87979186  0.97246039  1
  O  O168  1  0.50209603  0.36934645  0.31150218  1
  O  O169  1  0.50832885  0.37261229  0.64367074  1
  O  O170  1  0.49700146  0.37182726  0.97322541  1
  O  O171  1  0.50912623  0.87934460  0.30654132  1
  O  O172  1  0.49355773  0.87860411  0.65849864  1
  O  O173  1  0.49430232  0.87609703  0.98896452  1
  O  O174  1  0.83305284  0.37110794  0.30922191  1
  O  O175  1  0.82511745  0.37475919  0.64910533  1
  O  O176  1  0.82936832  0.37469791  0.99035510  1
  O  O177  1  0.82089956  0.87726063  0.30569116  1
  O  O178  1  0.83741050  0.87590939  0.65804491  1
  O  O179  1  0.83789068  0.87558025  0.96914067  1
  O  O180  1  -0.00681530  0.37156881  0.17697237  1
  O  O181  1  0.00313417  0.37253649  0.51062945  1
  O  O182  1  0.00498735  0.37090233  0.85990423  1
  O  O183  1  -0.00902258  0.88028677  0.18761481  1
  O  O184  1  -0.00060871  0.87960382  0.52154714  1
  O  O185  1  -0.00834136  0.87584767  0.85867417  1
  O  O186  1  0.32892925  0.37035353  0.17671446  1
  O  O187  1  0.33147682  0.37095404  0.51069071  1
  O  O188  1  0.32507780  0.37313095  0.85950539  1
  O  O189  1  0.33919355  0.88205784  0.18863473  1
  O  O190  1  0.33517479  0.88141689  0.52332258  1
  O  O191  1  0.32411496  0.87610276  0.85921795  1
  O  O192  1  0.66032350  0.37485239  0.17744374  1
  O  O193  1  0.66043310  0.37553721  0.52563979  1
  O  O194  1  0.65951685  0.37343609  0.86550156  1
  O  O195  1  0.65971622  0.87799885  0.19517288  1
  O  O196  1  0.66719623  0.87563871  0.51067507  1
  O  O197  1  0.67484003  0.87539766  0.84422032  1
  O  O198  1  -0.00495895  0.12416138  0.14077330  1
  O  O199  1  0.00609478  0.12368444  0.47688509  1
  O  O200  1  0.00919855  0.12280297  0.80673518  1
  O  O201  1  0.01113733  0.62167521  0.14223861  1
  O  O202  1  -0.00623921  0.62580800  0.49131180  1
  O  O203  1  0.01182630  0.63163231  0.80331023  1
  O  O204  1  0.34162036  0.12607669  0.13867809  1
  O  O205  1  0.33968949  0.12376570  0.47501448  1
  O  O206  1  0.33992108  0.12755134  0.80934199  1
  O  O207  1  0.32975634  0.61980649  0.14075084  1
  O  O208  1  0.34289434  0.62472329  0.49066450  1
  O  O209  1  0.34073043  0.62408282  0.82307953  1
  O  O210  1  0.66836150  0.12560469  0.13920561  1
  O  O211  1  0.66045813  0.12544509  0.48173429  1
  O  O212  1  0.67311366  0.12923506  0.81243904  1
  O  O213  1  0.67268867  0.62405930  0.14814483  1
  O  O214  1  0.66526012  0.62486016  0.47964646  1
  O  O215  1  0.66979676  0.62175578  0.81534418  1
  O  O216  1  0.07575957  0.01727093  0.25293561  1
  O  O217  1  0.08175650  0.02399597  0.59138797  1
  O  O218  1  0.07846307  0.02256891  0.91775933  1
  O  O219  1  0.08476039  0.50679825  0.24247832  1
  O  O220  1  0.07525844  0.51372328  0.59257208  1
  O  O221  1  0.07857192  0.52436723  0.92500681  1
  O  O222  1  0.41939446  0.02506042  0.24826879  1
  O  O223  1  0.41669095  0.02587034  0.58322401  1
  O  O224  1  0.41063453  0.02137919  0.91889958  1
  O  O225  1  0.42042986  0.50512647  0.24239530  1
  O  O226  1  0.42440435  0.50697720  0.58055041  1
  O  O227  1  0.40672883  0.51381748  0.92677694  1
  O  O228  1  0.74483123  0.02705340  0.25274755  1
  O  O229  1  0.74490705  0.01942544  0.59152999  1
  O  O230  1  0.74592581  0.02636766  0.92410328  1
  O  O231  1  0.74695184  0.52019051  0.25480218  1
  O  O232  1  0.74602511  0.52194559  0.58846715  1
  O  O233  1  0.74693979  0.51617407  0.92335052  1
  O  O234  1  0.24870746  0.22888286  0.24972920  1
  O  O235  1  0.24865228  0.22358246  0.58250643  1
  O  O236  1  0.24464195  0.22721287  0.91272960  1
  O  O237  1  0.24737909  0.73831233  0.23870811  1
  O  O238  1  0.25108946  0.74828931  0.58790239  1
  O  O239  1  0.24196787  0.72590504  0.91062835  1
  O  O240  1  0.58066076  0.22711400  0.24678912  1
  O  O241  1  0.58033339  0.22684200  0.58653977  1
  O  O242  1  0.57548874  0.22445859  0.91084245  1
  O  O243  1  0.58483192  0.73078794  0.25212474  1
  O  O244  1  0.58275262  0.72763527  0.58200854  1
  O  O245  1  0.57523336  0.73135014  0.91749061  1
  O  O246  1  0.91095173  0.22882721  0.24101078  1
  O  O247  1  0.91602310  0.23183884  0.58194366  1
  O  O248  1  0.91351088  0.22466656  0.91345709  1
  O  O249  1  0.90439723  0.73741893  0.23486076  1
  O  O250  1  0.90965289  0.73104027  0.57955722  1
  O  O251  1  0.91374495  0.72502120  0.90370929  1
  O  O252  1  0.09198993  0.47190375  0.08554289  1
  O  O253  1  0.08845503  0.48706996  0.42453106  1
  O  O254  1  0.09186131  0.48339068  0.76331229  1
  O  O255  1  0.07808993  0.98819959  0.07678466  1
  O  O256  1  0.08229766  0.99016931  0.41306262  1
  O  O257  1  0.08667143  0.97911828  0.75684657  1
  O  O258  1  0.42313728  0.47380820  0.08485833  1
  O  O259  1  0.42163745  0.48765616  0.42152573  1
  O  O260  1  0.42757359  0.48317836  0.76208633  1
  O  O261  1  0.41815348  0.98090140  0.08543604  1
  O  O262  1  0.41397358  0.98311204  0.40447380  1
  O  O263  1  0.40986236  0.98962099  0.74579070  1
  O  O264  1  0.75786949  0.48367750  0.09309046  1
  O  O265  1  0.75153923  0.49052111  0.42705763  1
  O  O266  1  0.74957336  0.48889422  0.74952892  1
  O  O267  1  0.75560494  0.98359635  0.09598261  1
  O  O268  1  0.74794012  0.99234655  0.41031073  1
  O  O269  1  0.76357754  0.99161504  0.76223201  1
  O  O270  1  0.25435787  0.26692144  0.07360750  1
  O  O271  1  0.24796428  0.25835156  0.42273590  1
  O  O272  1  0.25079288  0.26322130  0.75262030  1
  O  O273  1  0.25884316  0.76616382  0.06903866  1
  O  O274  1  0.25534942  0.76291428  0.40907803  1
  O  O275  1  0.24977128  0.77179574  0.75090071  1
  O  O276  1  0.59148891  0.26910500  0.07242147  1
  O  O277  1  0.58139086  0.26198615  0.42313465  1
  O  O278  1  0.58930197  0.27238714  0.74921651  1
  O  O279  1  0.57983717  0.76199687  0.09067616  1
  O  O280  1  0.58829263  0.76285747  0.41048517  1
  O  O281  1  0.58481738  0.75048350  0.75059601  1
  O  O282  1  0.92557447  0.26548128  0.07384910  1
  O  O283  1  0.91960230  0.25326865  0.41268726  1
  O  O284  1  0.91912818  0.25166892  0.75019350  1
  O  O285  1  0.92125408  0.77295505  0.07236424  1
  O  O286  1  0.91993078  0.77136664  0.40241909  1
  O  O287  1  0.92740397  0.77085093  0.74299725  1
  O  O288  1  0.25536258  0.47408691  0.07281228  1
  O  O289  1  0.24854587  0.48709470  0.41731265  1
  O  O290  1  0.24873025  0.48842271  0.75548200  1
  O  O291  1  0.25841943  0.98671884  0.06920263  1
  O  O292  1  0.25769505  0.98880518  0.40834253  1
  O  O293  1  0.25373255  0.97867579  0.74579193  1
  O  O294  1  0.58798791  0.48180143  0.07556367  1
  O  O295  1  0.58015309  0.48799229  0.42524889  1
  O  O296  1  0.59010852  0.47509268  0.74652362  1
  O  O297  1  0.58013094  0.98738993  0.09307064  1
  O  O298  1  0.58835199  0.98807920  0.40854404  1
  O  O299  1  0.58489627  1.00190089  0.75086726  1
  O  O300  1  0.93005331  0.48272805  0.06963310  1
  O  O301  1  0.91388852  0.49199921  0.41613927  1
  O  O302  1  0.92039147  0.49597698  0.74604569  1
  O  O303  1  0.91861954  0.97735079  0.07466324  1
  O  O304  1  0.92204721  0.98520945  0.40003483  1
  O  O305  1  0.92538258  0.98385168  0.74461355  1
  O  O306  1  0.09129087  0.26978168  0.08966929  1
  O  O307  1  0.09312911  0.26021863  0.42885943  1
  O  O308  1  0.09211564  0.26257618  0.76357752  1
  O  O309  1  0.08089719  0.76684841  0.07526150  1
  O  O310  1  0.08103155  0.76321009  0.41277119  1
  O  O311  1  0.08748057  0.77890945  0.75832351  1
  O  O312  1  0.42979373  0.27211083  0.08984564  1
  O  O313  1  0.42471776  0.26105898  0.42680990  1
  O  O314  1  0.42801694  0.26759124  0.76470894  1
  O  O315  1  0.41656411  0.77082266  0.08447206  1
  O  O316  1  0.41535268  0.77011835  0.40790700  1
  O  O317  1  0.41067122  0.76301223  0.74919966  1
  O  O318  1  0.75821311  0.26653224  0.09155966  1
  O  O319  1  0.75225306  0.25637543  0.42227742  1
  O  O320  1  0.74796517  0.26477468  0.75242719  1
  O  O321  1  0.75704136  0.76698126  0.09639930  1
  O  O322  1  0.74848365  0.76118556  0.41453052  1
  O  O323  1  0.76354912  0.75682360  0.75828643  1
  O  O324  1  0.25223485  0.02038097  0.24702500  1
  O  O325  1  0.24820254  0.02482057  0.58209191  1
  O  O326  1  0.24403831  0.02457757  0.90745737  1
  O  O327  1  0.24479724  0.50762075  0.23507773  1
  O  O328  1  0.24554622  0.50267563  0.58022620  1
  O  O329  1  0.24161719  0.52315570  0.91507469  1
  O  O330  1  0.58369632  0.03033110  0.25061697  1
  O  O331  1  0.57927380  0.02373100  0.58534335  1
  O  O332  1  0.58058498  0.02251466  0.91867861  1
  O  O333  1  0.58406010  0.51567829  0.24839397  1
  O  O334  1  0.58392805  0.52324311  0.58512502  1
  O  O335  1  0.56925614  0.51894800  0.90806131  1
  O  O336  1  0.90832129  0.01996196  0.24038654  1
  O  O337  1  0.91489108  0.02074062  0.58326936  1
  O  O338  1  0.91385658  0.02685468  0.90766106  1
  O  O339  1  0.90901294  0.51316296  0.23107553  1
  O  O340  1  0.91089274  0.51613586  0.57992731  1
  O  O341  1  0.91421090  0.52568461  0.90903087  1
  O  O342  1  0.07518605  0.22666599  0.25591283  1
  O  O343  1  0.08055669  0.22278480  0.59044604  1
  O  O344  1  0.07631288  0.22596254  0.92667936  1
  O  O345  1  0.08256844  0.74291539  0.24458598  1
  O  O346  1  0.07327335  0.74285826  0.59686476  1
  O  O347  1  0.07884998  0.72809258  0.91720484  1
  O  O348  1  0.41658937  0.22413590  0.25585573  1
  O  O349  1  0.41317626  0.22837646  0.58898388  1
  O  O350  1  0.40954797  0.22713930  0.92751577  1
  O  O351  1  0.42047946  0.74463793  0.24521770  1
  O  O352  1  0.42321461  0.73700671  0.58018611  1
  O  O353  1  0.40823356  0.73595635  0.92197451  1
  O  O354  1  0.74600489  0.22556561  0.25407399  1
  O  O355  1  0.74156107  0.23360207  0.59097876  1
  O  O356  1  0.74483243  0.23006921  0.92519153  1
  O  O357  1  0.74419589  0.72967956  0.25497239  1
  O  O358  1  0.74688431  0.72811924  0.58736685  1
  O  O359  1  0.74909623  0.72711921  0.92147697  1
