# generated using pymatgen
data_Ba17Sr5La8Pr42Mn72O216
_symmetry_space_group_name_H-M   'P 1'
_cell_length_a   16.67272507
_cell_length_b   15.70847830
_cell_length_c   16.81702947
_cell_angle_alpha   89.99426552
_cell_angle_beta   90.00940240
_cell_angle_gamma   90.01481921
_symmetry_Int_Tables_number   1
_chemical_formula_structural   Ba17Sr5La8Pr42Mn72O216
_chemical_formula_sum   'Ba17 Sr5 La8 Pr42 Mn72 O216'
_cell_volume   4404.43259226
_cell_formula_units_Z   1
loop_
 _symmetry_equiv_pos_site_id
 _symmetry_equiv_pos_as_xyz
  1  'x, y, z'
loop_
 _atom_site_type_symbol
 _atom_site_label
 _atom_site_symmetry_multiplicity
 _atom_site_fract_x
 _atom_site_fract_y
 _atom_site_fract_z
 _atom_site_occupancy
  Ba  Ba0  1  0.83842988  0.37668932  0.16451724  1
  Ba  Ba1  1  0.49860235  0.87355907  0.49795195  1
  Ba  Ba2  1  0.33366735  0.87330448  0.33608750  1
  Ba  Ba3  1  0.33195749  0.37345783  0.66941199  1
  Ba  Ba4  1  0.83052018  0.12723486  0.50070810  1
  Ba  Ba5  1  0.50097504  0.37398042  0.83105432  1
  Ba  Ba6  1  0.16471609  0.37609158  0.83274825  1
  Ba  Ba7  1  -0.00203167  0.12468928  0.66771016  1
  Ba  Ba8  1  0.66706866  0.12574841  0.99838389  1
  Ba  Ba9  1  -0.00162453  0.87292247  0.33608309  1
  Ba  Ba10  1  0.66347922  0.87430924  0.66378868  1
  Ba  Ba11  1  0.49689340  0.87517442  0.83239410  1
  Ba  Ba12  1  0.33132583  0.12283603  1.00167814  1
  Ba  Ba13  1  0.66681901  0.62389533  0.66371730  1
  Ba  Ba14  1  0.66375281  0.12579793  0.32997340  1
  Ba  Ba15  1  0.83223104  0.87498920  0.49890223  1
  Ba  Ba16  1  0.17001237  0.37601417  0.50090522  1
  Sr  Sr17  1  0.83537589  0.37529400  0.49826317  1
  Sr  Sr18  1  0.33305979  0.87482591  0.00607568  1
  Sr  Sr19  1  0.50615106  0.37531616  0.16223374  1
  Sr  Sr20  1  0.66162213  0.12444444  0.66185256  1
  Sr  Sr21  1  0.33113386  0.12659011  0.67024737  1
  La  La22  1  0.33167442  0.87711202  0.67002295  1
  La  La23  1  0.16462229  0.87773298  0.50134114  1
  La  La24  1  -0.00263818  0.12632855  0.99740603  1
  La  La25  1  0.34016601  0.37360853  0.00179130  1
  La  La26  1  0.82870662  0.87773856  0.82932126  1
  La  La27  1  0.00199406  0.62443981  0.33688420  1
  La  La28  1  0.82954474  0.12765300  0.17144142  1
  La  La29  1  0.82941429  0.87627452  0.16688106  1
  Pr  Pr30  1  0.49541361  0.12350049  0.50157134  1
  Pr  Pr31  1  0.16527183  0.12973438  0.83690376  1
  Pr  Pr32  1  0.50602315  0.37663863  0.49789151  1
  Pr  Pr33  1  0.17006971  0.62976492  0.16977181  1
  Pr  Pr34  1  0.16582547  0.87444359  0.16570819  1
  Pr  Pr35  1  0.66836815  0.62505563  0.33019449  1
  Pr  Pr36  1  0.50025545  0.62315318  0.16775339  1
  Pr  Pr37  1  0.83593298  0.62383692  0.16904289  1
  Pr  Pr38  1  -0.00137080  0.87360127  0.00659073  1
  Pr  Pr39  1  0.82720484  0.12312221  0.83151911  1
  Pr  Pr40  1  0.33752806  0.62121848  0.67048944  1
  Pr  Pr41  1  0.17247569  0.37655781  0.16501575  1
  Pr  Pr42  1  0.67508516  0.37310975  0.33098124  1
  Pr  Pr43  1  0.83454515  0.62949211  0.83498644  1
  Pr  Pr44  1  0.00470354  0.62372522  0.99749646  1
  Pr  Pr45  1  -0.00785441  0.87875812  0.66863780  1
  Pr  Pr46  1  0.16666458  0.12215693  0.50516745  1
  Pr  Pr47  1  0.66540950  0.87602334  0.33842086  1
  Pr  Pr48  1  0.83121186  0.37395246  0.83127812  1
  Pr  Pr49  1  0.34249477  0.62544088  0.99835276  1
  Pr  Pr50  1  0.34340595  0.37593779  0.33950334  1
  Pr  Pr51  1  0.32807673  0.12433697  0.33328402  1
  Pr  Pr52  1  0.00334072  0.62302059  0.66533805  1
  Pr  Pr53  1  0.50198190  0.87787436  0.16233366  1
  Pr  Pr54  1  -0.00600332  0.12577612  0.33573618  1
  Pr  Pr55  1  0.16412781  0.87837504  0.83549794  1
  Pr  Pr56  1  0.66297431  0.87288153  -0.00115245  1
  Pr  Pr57  1  0.00176378  0.37583715  0.33865138  1
  Pr  Pr58  1  0.00631087  0.37585059  0.00349776  1
  Pr  Pr59  1  0.17282275  0.62440427  0.83789382  1
  Pr  Pr60  1  0.67144190  0.61868796  0.99368626  1
  Pr  Pr61  1  0.49321566  0.12334406  0.83115441  1
  Pr  Pr62  1  0.48860726  0.12761860  0.17035629  1
  Pr  Pr63  1  0.67040042  0.37433695  0.00234851  1
  Pr  Pr64  1  -0.00421964  0.37060688  0.66876222  1
  Pr  Pr65  1  0.66838826  0.37302281  0.66444544  1
  Pr  Pr66  1  0.50396053  0.62366171  0.83299137  1
  Pr  Pr67  1  0.16367653  0.12199109  0.17066253  1
  Pr  Pr68  1  0.33295021  0.62446697  0.33498201  1
  Pr  Pr69  1  0.83752758  0.62553115  0.50329931  1
  Pr  Pr70  1  0.17021973  0.62928051  0.50546486  1
  Pr  Pr71  1  0.49849576  0.62588086  0.49922219  1
  Mn  Mn72  1  -0.00043665  -0.00059625  0.16684437  1
  Mn  Mn73  1  -0.00021477  0.00056914  0.50074121  1
  Mn  Mn74  1  -0.00056427  -0.00037581  0.83669991  1
  Mn  Mn75  1  0.00404317  0.50259469  0.16775668  1
  Mn  Mn76  1  0.00260587  0.50007129  0.50099206  1
  Mn  Mn77  1  -0.00196233  0.50182370  0.83270252  1
  Mn  Mn78  1  0.33178290  -0.00100872  0.16882021  1
  Mn  Mn79  1  0.33206524  0.00181080  0.50205669  1
  Mn  Mn80  1  0.32991991  -0.00130529  0.83503835  1
  Mn  Mn81  1  0.33453542  0.50078442  0.16805955  1
  Mn  Mn82  1  0.33436727  0.50038366  0.50022503  1
  Mn  Mn83  1  0.33399005  0.50181639  0.83549235  1
  Mn  Mn84  1  0.66560166  -0.00156054  0.16433170  1
  Mn  Mn85  1  0.66410102  0.00091249  0.49780793  1
  Mn  Mn86  1  0.66462140  0.00236185  0.83163243  1
  Mn  Mn87  1  0.66846804  0.50179806  0.16276185  1
  Mn  Mn88  1  0.66807479  0.49905552  0.49565091  1
  Mn  Mn89  1  0.66833785  0.49869393  0.83082995  1
  Mn  Mn90  1  0.00395320  0.24955046  0.16707377  1
  Mn  Mn91  1  0.00213032  0.25154148  0.50036755  1
  Mn  Mn92  1  -0.00291292  0.24997898  0.83573014  1
  Mn  Mn93  1  -0.00002200  0.74888290  0.16718485  1
  Mn  Mn94  1  0.00176676  0.74782978  0.50262835  1
  Mn  Mn95  1  0.00120279  0.75088136  0.83479035  1
  Mn  Mn96  1  0.33222244  0.25273492  0.16980911  1
  Mn  Mn97  1  0.33455681  0.25037166  0.49978882  1
  Mn  Mn98  1  0.33197263  0.24806402  0.83531862  1
  Mn  Mn99  1  0.33451780  0.74872399  0.16704528  1
  Mn  Mn100  1  0.33207656  0.74762200  0.50378020  1
  Mn  Mn101  1  0.33092502  0.75062108  0.83638145  1
  Mn  Mn102  1  0.66640774  0.25184578  0.16408407  1
  Mn  Mn103  1  0.66490156  0.25150004  0.49825881  1
  Mn  Mn104  1  0.66617461  0.24953834  0.82953119  1
  Mn  Mn105  1  0.66694940  0.74839878  0.16464042  1
  Mn  Mn106  1  0.66663344  0.74732848  0.49520352  1
  Mn  Mn107  1  0.66693934  0.74760432  0.83411468  1
  Mn  Mn108  1  0.16738768  0.25186533  0.00322142  1
  Mn  Mn109  1  0.16664442  0.25076176  0.33242881  1
  Mn  Mn110  1  0.16547328  0.24874012  0.66783176  1
  Mn  Mn111  1  0.16745265  0.74934515  0.00176971  1
  Mn  Mn112  1  0.16744307  0.74903071  0.33650399  1
  Mn  Mn113  1  0.16454243  0.75018581  0.67206729  1
  Mn  Mn114  1  0.50113162  0.24911550  0.00010463  1
  Mn  Mn115  1  0.49943117  0.25248678  0.33190768  1
  Mn  Mn116  1  0.49878498  0.24914484  0.66390125  1
  Mn  Mn117  1  0.50140134  0.74909256  0.00079051  1
  Mn  Mn118  1  0.50154301  0.74522948  0.33024036  1
  Mn  Mn119  1  0.49705522  0.74884310  0.66659998  1
  Mn  Mn120  1  0.83583623  0.24990440  -0.00230362  1
  Mn  Mn121  1  0.83504754  0.25212289  0.33264360  1
  Mn  Mn122  1  0.83051906  0.25203194  0.66552226  1
  Mn  Mn123  1  0.83412382  0.75033967  0.00097926  1
  Mn  Mn124  1  0.83266360  0.74563288  0.33284343  1
  Mn  Mn125  1  0.83451631  0.74809793  0.66871703  1
  Mn  Mn126  1  0.16475695  -0.00067643  0.00180527  1
  Mn  Mn127  1  0.16500862  0.00067689  0.33616134  1
  Mn  Mn128  1  0.16594464  -0.00139003  0.66874404  1
  Mn  Mn129  1  0.16967193  0.50093160  0.00283241  1
  Mn  Mn130  1  0.16830153  0.50142711  0.33207216  1
  Mn  Mn131  1  0.16403513  0.50141388  0.66900325  1
  Mn  Mn132  1  0.49998859  0.00020767  -0.00026762  1
  Mn  Mn133  1  0.49778627  0.00137600  0.33114334  1
  Mn  Mn134  1  0.49694869  0.00171489  0.66580356  1
  Mn  Mn135  1  0.50255649  0.49948258  0.00053136  1
  Mn  Mn136  1  0.50317451  0.49955217  0.33071339  1
  Mn  Mn137  1  0.50019104  0.50081742  0.66434877  1
  Mn  Mn138  1  0.83364092  -0.00196189  -0.00043442  1
  Mn  Mn139  1  0.83261732  0.00057005  0.33127589  1
  Mn  Mn140  1  0.82989001  0.00031590  0.66623434  1
  Mn  Mn141  1  0.83805973  0.50168138  -0.00245820  1
  Mn  Mn142  1  0.83524801  0.50050817  0.33439579  1
  Mn  Mn143  1  0.83433533  0.49948181  0.66600565  1
  O  O144  1  0.15885523  0.12777643  0.02639789  1
  O  O145  1  0.17288758  0.12793292  0.35962083  1
  O  O146  1  0.16494438  0.11919567  0.69275173  1
  O  O147  1  0.15934725  0.62484961  0.02710716  1
  O  O148  1  0.17152695  0.62412402  0.36020700  1
  O  O149  1  0.15282404  0.62915932  0.69654318  1
  O  O150  1  0.50072713  0.12514735  0.02612812  1
  O  O151  1  0.49557618  0.13209143  0.35433166  1
  O  O152  1  0.50212900  0.12613067  0.68500754  1
  O  O153  1  0.50105223  0.62397296  0.02438377  1
  O  O154  1  0.51161292  0.62033918  0.35562333  1
  O  O155  1  0.49472695  0.62504387  0.68800704  1
  O  O156  1  0.83816510  0.11907164  0.02797768  1
  O  O157  1  0.83737711  0.12854280  0.33833235  1
  O  O158  1  0.82863273  0.12810795  0.68732200  1
  O  O159  1  0.82918437  0.62720647  0.02668357  1
  O  O160  1  0.82656017  0.62114663  0.35767512  1
  O  O161  1  0.84107730  0.62303375  0.69206975  1
  O  O162  1  0.15974809  0.37771319  0.30673868  1
  O  O163  1  0.16013657  0.37766695  0.65782018  1
  O  O164  1  0.16497577  0.37773149  0.98820546  1
  O  O165  1  0.16622188  0.87213475  0.31004153  1
  O  O166  1  0.17446808  0.87205805  0.64450749  1
  O  O167  1  0.16299737  0.87030776  0.97933856  1
  O  O168  1  0.48961639  0.37836733  0.30924930  1
  O  O169  1  0.50175625  0.37662226  0.64377406  1
  O  O170  1  0.49971198  0.37669044  0.98847996  1
  O  O171  1  0.50452715  0.86812208  0.30654709  1
  O  O172  1  0.48999512  0.87295834  0.65675674  1
  O  O173  1  0.50432003  0.87227922  0.98875182  1
  O  O174  1  0.84207500  0.37819690  0.32038697  1
  O  O175  1  0.83710329  0.37832602  0.64716051  1
  O  O176  1  0.84347796  0.38065884  0.97499262  1
  O  O177  1  0.82921938  0.86997565  0.31181702  1
  O  O178  1  0.83945479  0.87144211  0.65900297  1
  O  O179  1  0.84193850  0.87285719  0.97319146  1
  O  O180  1  0.00956902  0.37717337  0.19507053  1
  O  O181  1  0.00041696  0.37824009  0.52183167  1
  O  O182  1  -0.01097332  0.37568420  0.86136885  1
  O  O183  1  0.00241404  0.87269742  0.18190808  1
  O  O184  1  0.00658607  0.86873927  0.52225412  1
  O  O185  1  0.00120530  0.87310393  0.86455927  1
  O  O186  1  0.32648756  0.37939938  0.19682134  1
  O  O187  1  0.34244520  0.37774845  0.51231797  1
  O  O188  1  0.33169969  0.37932251  0.85628329  1
  O  O189  1  0.33533625  0.87357483  0.18007089  1
  O  O190  1  0.32834219  0.87254436  0.52552897  1
  O  O191  1  0.32393995  0.87232466  0.85608655  1
  O  O192  1  0.66436610  0.37812000  0.18549823  1
  O  O193  1  0.66056051  0.37751901  0.52094175  1
  O  O194  1  0.67066896  0.37699646  0.85874321  1
  O  O195  1  0.66259583  0.86698663  0.19431536  1
  O  O196  1  0.66602411  0.87154419  0.50319934  1
  O  O197  1  0.67095363  0.87075243  0.85478638  1
  O  O198  1  0.00505614  0.12264953  0.14050890  1
  O  O199  1  0.00953707  0.12904405  0.48131110  1
  O  O200  1  0.01047225  0.12488511  0.82381437  1
  O  O201  1  0.00044235  0.62746075  0.14041678  1
  O  O202  1  0.00397651  0.62302248  0.48177911  1
  O  O203  1  0.00025035  0.62890719  0.80769060  1
  O  O204  1  0.33175039  0.12513576  0.15747443  1
  O  O205  1  0.33016265  0.12862166  0.47592693  1
  O  O206  1  0.33150166  0.12145028  0.82263310  1
  O  O207  1  0.33088362  0.62312864  0.14055363  1
  O  O208  1  0.32556747  0.62253760  0.47866141  1
  O  O209  1  0.33011970  0.62714756  0.81635833  1
  O  O210  1  0.67541027  0.12837759  0.15540769  1
  O  O211  1  0.65614340  0.12892475  0.48775933  1
  O  O212  1  0.67843173  0.12905870  0.81282665  1
  O  O213  1  0.67068785  0.62748142  0.13528023  1
  O  O214  1  0.66693262  0.62084514  0.47347726  1
  O  O215  1  0.67096177  0.62260873  0.82186495  1
  O  O216  1  0.08122857  0.02304706  0.25291922  1
  O  O217  1  0.08898085  0.00829320  0.58171429  1
  O  O218  1  0.08005349  0.01639180  0.92184587  1
  O  O219  1  0.08602092  0.52971950  0.25024647  1
  O  O220  1  0.08727707  0.52386005  0.58122020  1
  O  O221  1  0.08412198  0.52005894  0.91613522  1
  O  O222  1  0.41159471  0.02091009  0.25354806  1
  O  O223  1  0.41428591  0.02002975  0.58159400  1
  O  O224  1  0.41776953  0.01244398  0.91386739  1
  O  O225  1  0.41425268  0.52648133  0.25311056  1
  O  O226  1  0.41543819  0.52430257  0.58374553  1
  O  O227  1  0.41933369  0.52166236  0.92024692  1
  O  O228  1  0.75387466  0.00555837  0.24028775  1
  O  O229  1  0.74552126  0.00848263  0.58564068  1
  O  O230  1  0.75508179  0.01051896  0.91323838  1
  O  O231  1  0.75039862  0.52060470  0.24612769  1
  O  O232  1  0.75773314  0.51409358  0.57624590  1
  O  O233  1  0.75715999  0.51911134  0.91313359  1
  O  O234  1  0.23881662  0.23260182  0.24135480  1
  O  O235  1  0.24768256  0.23343248  0.57504889  1
  O  O236  1  0.24059873  0.23522866  0.91586666  1
  O  O237  1  0.25418515  0.72696650  0.25573779  1
  O  O238  1  0.25151786  0.72479570  0.59766159  1
  O  O239  1  0.25569048  0.72499219  0.92772531  1
  O  O240  1  0.56839904  0.23738051  0.23893744  1
  O  O241  1  0.56970619  0.24132765  0.56829667  1
  O  O242  1  0.57731421  0.23018028  0.90120742  1
  O  O243  1  0.58662078  0.71993862  0.24449200  1
  O  O244  1  0.58053060  0.73318441  0.57248710  1
  O  O245  1  0.58928000  0.72795119  0.92323007  1
  O  O246  1  0.91876529  0.23092860  0.24245480  1
  O  O247  1  0.91719695  0.24642889  0.58443508  1
  O  O248  1  0.91229961  0.22292935  0.91271292  1
  O  O249  1  0.91698697  0.72405669  0.25240373  1
  O  O250  1  0.92275859  0.72809287  0.58833539  1
  O  O251  1  0.92269954  0.72472163  0.92059838  1
  O  O252  1  0.08868920  0.48077323  0.08637650  1
  O  O253  1  0.08121892  0.48681330  0.40848551  1
  O  O254  1  0.06944898  0.48644249  0.74168178  1
  O  O255  1  0.08413052  0.97673562  0.08693953  1
  O  O256  1  0.08699928  0.98754740  0.42060545  1
  O  O257  1  0.08119065  0.97386141  0.75105557  1
  O  O258  1  0.41704160  0.48541402  0.08576485  1
  O  O259  1  0.42565091  0.48924675  0.41843024  1
  O  O260  1  0.41526082  0.49799638  0.75270558  1
  O  O261  1  0.42234442  0.98691485  0.09040095  1
  O  O262  1  0.41496933  0.99732015  0.41690373  1
  O  O263  1  0.40776950  0.99070887  0.74500256  1
  O  O264  1  0.75007589  0.48486468  0.07313313  1
  O  O265  1  0.74832175  0.47924435  0.41032063  1
  O  O266  1  0.74931785  0.47645392  0.74701335  1
  O  O267  1  0.75056232  0.97123737  0.07856829  1
  O  O268  1  0.74684871  0.98940067  0.40779966  1
  O  O269  1  0.75383154  0.98669202  0.75504151  1
  O  O270  1  0.25656082  0.27470279  0.08122469  1
  O  O271  1  0.26237534  0.26711407  0.40205615  1
  O  O272  1  0.24572311  0.25160973  0.75186427  1
  O  O273  1  0.23994983  0.76475294  0.09306527  1
  O  O274  1  0.24309345  0.76372711  0.43043438  1
  O  O275  1  0.23519724  0.76354339  0.76595109  1
  O  O276  1  0.59161594  0.26895635  0.07406397  1
  O  O277  1  0.58758815  0.27796163  0.40471991  1
  O  O278  1  0.59227189  0.26523793  0.73571963  1
  O  O279  1  0.58279527  0.77085920  0.08781099  1
  O  O280  1  0.58736469  0.76046505  0.40485722  1
  O  O281  1  0.57746432  0.75074976  0.75646451  1
  O  O282  1  0.93248901  0.26512777  0.07397469  1
  O  O283  1  0.92517502  0.26188031  0.40973062  1
  O  O284  1  0.91205229  0.26924869  0.75347118  1
  O  O285  1  0.91190316  0.76987181  0.08629415  1
  O  O286  1  0.91525066  0.74767228  0.42173165  1
  O  O287  1  0.91751249  0.77102097  0.75925222  1
  O  O288  1  0.25542046  0.47888100  0.08440422  1
  O  O289  1  0.25982356  0.48509558  0.40518433  1
  O  O290  1  0.24494019  0.50196178  0.75282618  1
  O  O291  1  0.24529056  0.98263090  0.08839669  1
  O  O292  1  0.24505033  0.98665659  0.42442901  1
  O  O293  1  0.24583375  0.97679961  0.75214946  1
  O  O294  1  0.59082994  0.48584882  0.07482525  1
  O  O295  1  0.58830694  0.47426227  0.40500724  1
  O  O296  1  0.58718905  0.48671427  0.74136119  1
  O  O297  1  0.58897839  0.97595350  0.07958041  1
  O  O298  1  0.58417359  0.98642530  0.40458204  1
  O  O299  1  0.58018037  0.99773071  0.74952633  1
  O  O300  1  0.92777007  0.48985365  0.07470544  1
  O  O301  1  0.92138345  0.48988007  0.41658270  1
  O  O302  1  0.91198724  0.47838962  0.75357135  1
  O  O303  1  0.91708507  0.97636909  0.08160425  1
  O  O304  1  0.91930013  0.99843051  0.41232724  1
  O  O305  1  0.91610512  0.98449110  0.75532672  1
  O  O306  1  0.09223890  0.27308101  0.09285840  1
  O  O307  1  0.08287252  0.26810434  0.41071478  1
  O  O308  1  0.07261846  0.26558895  0.75022459  1
  O  O309  1  0.08030879  0.76922102  0.07929679  1
  O  O310  1  0.08526462  0.75866966  0.42120449  1
  O  O311  1  0.07726666  0.77992134  0.74692587  1
  O  O312  1  0.41873690  0.26519545  0.09459117  1
  O  O313  1  0.42596139  0.27092254  0.42266036  1
  O  O314  1  0.42008879  0.25128988  0.75320992  1
  O  O315  1  0.41618499  0.76050510  0.08151714  1
  O  O316  1  0.41604653  0.74559798  0.41228010  1
  O  O317  1  0.39764850  0.76027656  0.74260593  1
  O  O318  1  0.75355056  0.26821791  0.07581082  1
  O  O319  1  0.74914104  0.26870710  0.41676098  1
  O  O320  1  0.75080266  0.27690361  0.75007768  1
  O  O321  1  0.74595812  0.77749084  0.08218987  1
  O  O322  1  0.74224830  0.75936341  0.40250642  1
  O  O323  1  0.75367535  0.75907109  0.75669994  1
  O  O324  1  0.24497059  0.01815247  0.25126766  1
  O  O325  1  0.24804610  0.01813666  0.58529791  1
  O  O326  1  0.23726891  0.01363501  0.91100604  1
  O  O327  1  0.24745738  0.52570679  0.24603800  1
  O  O328  1  0.24785662  0.52217819  0.58705425  1
  O  O329  1  0.25318004  0.52484070  0.92377998  1
  O  O330  1  0.56991149  0.01330179  0.23538927  1
  O  O331  1  0.57471911  0.01355365  0.57674943  1
  O  O332  1  0.57994364  0.01552930  0.91091131  1
  O  O333  1  0.58227735  0.52232479  0.24340329  1
  O  O334  1  0.57600699  0.51432783  0.56928605  1
  O  O335  1  0.58475524  0.52019018  0.91382988  1
  O  O336  1  0.91594702  0.01894670  0.24422142  1
  O  O337  1  0.91774214  0.00372828  0.58610869  1
  O  O338  1  0.91465566  0.02228851  0.91747906  1
  O  O339  1  0.91838336  0.52443714  0.25001977  1
  O  O340  1  0.92078202  0.52188209  0.58758109  1
  O  O341  1  0.91844968  0.53154036  0.91597922  1
  O  O342  1  0.07999362  0.22183129  0.25383280  1
  O  O343  1  0.08762395  0.23556131  0.58022366  1
  O  O344  1  0.07672248  0.23855013  0.92600327  1
  O  O345  1  0.08735649  0.72791874  0.24832323  1
  O  O346  1  0.08753670  0.72921126  0.58406013  1
  O  O347  1  0.08879799  0.72714912  0.91248508  1
  O  O348  1  0.40491254  0.23278878  0.26192595  1
  O  O349  1  0.41401539  0.22866804  0.58298197  1
  O  O350  1  0.41476114  0.24005125  0.92142970  1
  O  O351  1  0.42117481  0.72191166  0.24797491  1
  O  O352  1  0.41576013  0.72424021  0.58006972  1
  O  O353  1  0.42240035  0.72627940  0.91185504  1
  O  O354  1  0.74955103  0.24778810  0.24799966  1
  O  O355  1  0.73972580  0.24667343  0.58910944  1
  O  O356  1  0.75426289  0.24038399  0.90874484  1
  O  O357  1  0.75271423  0.72442180  0.24058748  1
  O  O358  1  0.75593664  0.73138115  0.57129893  1
  O  O359  1  0.75380145  0.72935990  0.91876981  1
