# generated using pymatgen
data_Ba17Sr5La8Pr42Mn72O216
_symmetry_space_group_name_H-M   'P 1'
_cell_length_a   16.68978969
_cell_length_b   15.71743675
_cell_length_c   16.82543608
_cell_angle_alpha   89.99371885
_cell_angle_beta   89.97943779
_cell_angle_gamma   89.99455099
_symmetry_Int_Tables_number   1
_chemical_formula_structural   Ba17Sr5La8Pr42Mn72O216
_chemical_formula_sum   'Ba17 Sr5 La8 Pr42 Mn72 O216'
_cell_volume   4413.66007478
_cell_formula_units_Z   1
loop_
 _symmetry_equiv_pos_site_id
 _symmetry_equiv_pos_as_xyz
  1  'x, y, z'
loop_
 _atom_site_type_symbol
 _atom_site_label
 _atom_site_symmetry_multiplicity
 _atom_site_fract_x
 _atom_site_fract_y
 _atom_site_fract_z
 _atom_site_occupancy
  Ba  Ba0  1  0.49929888  0.62419975  0.49867878  1
  Ba  Ba1  1  0.50139523  0.87694174  0.83207511  1
  Ba  Ba2  1  0.66867970  0.87438169  0.66936397  1
  Ba  Ba3  1  0.66952775  0.37463486  0.33665236  1
  Ba  Ba4  1  0.67058747  0.37603420  0.66881625  1
  Ba  Ba5  1  0.66395977  0.62432219  1.00225448  1
  Ba  Ba6  1  0.66955621  0.87604120  0.33740950  1
  Ba  Ba7  1  0.49744773  0.12484708  0.83682594  1
  Ba  Ba8  1  0.83710779  0.87647063  0.16762416  1
  Ba  Ba9  1  0.16650336  0.62313501  0.49889785  1
  Ba  Ba10  1  0.83627938  0.37390138  0.16563360  1
  Ba  Ba11  1  0.17005034  0.37334849  0.50064072  1
  Ba  Ba12  1  0.49392104  0.12501281  0.16736639  1
  Ba  Ba13  1  0.66941842  0.37483042  0.00260189  1
  Ba  Ba14  1  0.00135350  0.87704541  0.66680880  1
  Ba  Ba15  1  0.33446683  0.87451588  0.66444216  1
  Ba  Ba16  1  0.33209392  0.62689065  0.66269791  1
  Sr  Sr17  1  0.00754145  0.37335622  0.66569300  1
  Sr  Sr18  1  0.00789334  0.87565884  0.33556476  1
  Sr  Sr19  1  0.00780377  0.87616797  0.00361446  1
  Sr  Sr20  1  0.32679288  0.12457179  0.99568250  1
  Sr  Sr21  1  0.32626342  0.62505242  0.33160983  1
  La  La22  1  0.84272060  0.37881981  0.83154708  1
  La  La23  1  0.15929585  0.62833291  0.82964682  1
  La  La24  1  0.34064083  0.37283605  -0.00020903  1
  La  La25  1  0.33911488  0.37490315  0.33431432  1
  La  La26  1  0.00646961  0.37456638  0.33500246  1
  La  La27  1  0.65888438  0.12510229  0.33325947  1
  La  La28  1  0.00684722  0.37374102  0.00155174  1
  La  La29  1  -0.00730362  0.62772616  0.99910980  1
  Pr  Pr30  1  -0.00964029  0.12566574  0.33079164  1
  Pr  Pr31  1  0.65603714  0.62663579  0.32860785  1
  Pr  Pr32  1  0.50920478  0.37596057  0.83297064  1
  Pr  Pr33  1  0.82749243  0.62596830  0.50136082  1
  Pr  Pr34  1  0.17511596  0.37276732  0.82675860  1
  Pr  Pr35  1  0.82145076  0.12427078  0.50373316  1
  Pr  Pr36  1  0.83546093  0.87023543  0.83287858  1
  Pr  Pr37  1  0.82748008  0.62587927  0.83192044  1
  Pr  Pr38  1  0.50486605  0.37873280  0.50013822  1
  Pr  Pr39  1  0.50622567  0.37466064  0.16504779  1
  Pr  Pr40  1  0.84376304  0.37442976  0.49555362  1
  Pr  Pr41  1  0.32881854  0.12245838  0.66455403  1
  Pr  Pr42  1  0.15797989  0.12158824  0.83567915  1
  Pr  Pr43  1  0.17374251  0.37589567  0.16407057  1
  Pr  Pr44  1  0.49614733  0.62733527  0.83096541  1
  Pr  Pr45  1  0.15682689  0.12440909  0.50099108  1
  Pr  Pr46  1  0.50472437  0.87043887  0.50079030  1
  Pr  Pr47  1  0.82706051  0.12380141  0.83228381  1
  Pr  Pr48  1  0.17400711  0.87573127  0.83148332  1
  Pr  Pr49  1  -0.01168676  0.12664133  0.66537668  1
  Pr  Pr50  1  0.15525315  0.62617982  0.17105862  1
  Pr  Pr51  1  0.66281856  0.12503985  1.00078491  1
  Pr  Pr52  1  0.34005272  0.87536088  0.33407897  1
  Pr  Pr53  1  0.33852828  0.38014406  0.66627502  1
  Pr  Pr54  1  0.32635085  0.62552605  0.99481094  1
  Pr  Pr55  1  0.17665155  0.87367238  0.49550608  1
  Pr  Pr56  1  0.82316370  0.62571200  0.16994096  1
  Pr  Pr57  1  0.49683155  0.12580138  0.50183718  1
  Pr  Pr58  1  0.49104409  0.62180653  0.17269560  1
  Pr  Pr59  1  0.65894303  0.62545183  0.66792638  1
  Pr  Pr60  1  0.15924206  0.12471372  0.16511391  1
  Pr  Pr61  1  0.82418192  0.12478813  0.16821221  1
  Pr  Pr62  1  -0.00633761  0.62466451  0.33128203  1
  Pr  Pr63  1  0.66802112  0.87897807  0.00422873  1
  Pr  Pr64  1  0.32430201  0.12580602  0.32566779  1
  Pr  Pr65  1  -0.00433311  0.62249618  0.66061271  1
  Pr  Pr66  1  0.34120990  0.87675155  -0.00091059  1
  Pr  Pr67  1  0.84620070  0.87529326  0.49246161  1
  Pr  Pr68  1  0.50547384  0.87358962  0.16331531  1
  Pr  Pr69  1  0.17338696  0.87410385  0.16454290  1
  Pr  Pr70  1  -0.00947511  0.12248380  0.99836894  1
  Pr  Pr71  1  0.65497459  0.12565324  0.66827096  1
  Mn  Mn72  1  0.00151887  0.00025452  0.16643694  1
  Mn  Mn73  1  0.00127010  0.00161822  0.49898338  1
  Mn  Mn74  1  -0.00173782  -0.00147816  0.83536324  1
  Mn  Mn75  1  0.00017769  0.49963060  0.16527233  1
  Mn  Mn76  1  0.00049691  0.49984571  0.49816090  1
  Mn  Mn77  1  0.00194842  0.50143906  0.83236250  1
  Mn  Mn78  1  0.33034338  -0.00032785  0.16569858  1
  Mn  Mn79  1  0.33479020  0.00280536  0.49456900  1
  Mn  Mn80  1  0.33043984  0.00172043  0.83256317  1
  Mn  Mn81  1  0.33118747  0.49969745  0.16404962  1
  Mn  Mn82  1  0.33412116  0.49795301  0.49926032  1
  Mn  Mn83  1  0.33248945  0.49956134  0.83473893  1
  Mn  Mn84  1  0.66506921  0.00038450  0.16866396  1
  Mn  Mn85  1  0.66620966  0.00003070  0.50294182  1
  Mn  Mn86  1  0.66915551  0.00045985  0.83580560  1
  Mn  Mn87  1  0.66594264  0.50060387  0.16832131  1
  Mn  Mn88  1  0.66992640  0.50077959  0.50190996  1
  Mn  Mn89  1  0.66821368  0.49991269  0.83465624  1
  Mn  Mn90  1  0.00161586  0.24821501  0.16563555  1
  Mn  Mn91  1  -0.00020552  0.24782693  0.49903492  1
  Mn  Mn92  1  0.00104276  0.24883667  0.83390591  1
  Mn  Mn93  1  -0.00009089  0.75213697  0.16596137  1
  Mn  Mn94  1  0.00211741  0.75008412  0.49825776  1
  Mn  Mn95  1  -0.00088239  0.75088480  0.83337038  1
  Mn  Mn96  1  0.33027002  0.25043742  0.16504925  1
  Mn  Mn97  1  0.33465224  0.24734553  0.49778205  1
  Mn  Mn98  1  0.33210756  0.25048963  0.83206902  1
  Mn  Mn99  1  0.33158728  0.74973969  0.16414687  1
  Mn  Mn100  1  0.33410206  0.75093726  0.49666393  1
  Mn  Mn101  1  0.33182984  0.74799674  0.83349702  1
  Mn  Mn102  1  0.66528095  0.24891666  0.16822359  1
  Mn  Mn103  1  0.66674744  0.25039255  0.50271831  1
  Mn  Mn104  1  0.66955522  0.25031413  0.83536265  1
  Mn  Mn105  1  0.66548531  0.75106797  0.16693021  1
  Mn  Mn106  1  0.66908689  0.74902938  0.50150571  1
  Mn  Mn107  1  0.66700933  0.74829893  0.83582222  1
  Mn  Mn108  1  0.16601005  0.25012244  -0.00223555  1
  Mn  Mn109  1  0.16648514  0.24873085  0.33166363  1
  Mn  Mn110  1  0.16794546  0.24763031  0.66752265  1
  Mn  Mn111  1  0.16683541  0.74955302  0.00040222  1
  Mn  Mn112  1  0.16607164  0.75037689  0.33068849  1
  Mn  Mn113  1  0.16419622  0.75159369  0.66529793  1
  Mn  Mn114  1  0.49856028  0.24964922  0.00027325  1
  Mn  Mn115  1  0.49778836  0.24979018  0.33614062  1
  Mn  Mn116  1  0.49785790  0.24992121  0.66782609  1
  Mn  Mn117  1  0.49799128  0.74880709  0.00161522  1
  Mn  Mn118  1  0.49753594  0.75023489  0.33121182  1
  Mn  Mn119  1  0.50045577  0.75073534  0.66665263  1
  Mn  Mn120  1  0.83530331  0.24786442  -0.00078638  1
  Mn  Mn121  1  0.83387286  0.24910550  0.33466619  1
  Mn  Mn122  1  0.83413391  0.25159360  0.66708103  1
  Mn  Mn123  1  0.83418885  0.75041212  0.00028108  1
  Mn  Mn124  1  0.83563415  0.74985936  0.33534171  1
  Mn  Mn125  1  0.83414027  0.74942980  0.66548107  1
  Mn  Mn126  1  0.16666061  -0.00038994  0.00046194  1
  Mn  Mn127  1  0.16637167  0.00118510  0.33213123  1
  Mn  Mn128  1  0.16474154  0.00186474  0.66648103  1
  Mn  Mn129  1  0.16618418  0.50084081  -0.00162740  1
  Mn  Mn130  1  0.16652299  0.50051411  0.33026969  1
  Mn  Mn131  1  0.16629346  0.49819522  0.66762404  1
  Mn  Mn132  1  0.49858667  -0.00022154  0.00148003  1
  Mn  Mn133  1  0.49777514  0.00001816  0.33521359  1
  Mn  Mn134  1  0.49794855  0.00250876  0.66649003  1
  Mn  Mn135  1  0.49648145  0.50151942  0.00187465  1
  Mn  Mn136  1  0.49812874  0.49928417  0.33317954  1
  Mn  Mn137  1  0.50079180  0.49817956  0.66767566  1
  Mn  Mn138  1  0.83398029  0.00021901  -0.00042639  1
  Mn  Mn139  1  0.83538419  0.00121619  0.33517196  1
  Mn  Mn140  1  0.83194762  0.00030751  0.66716519  1
  Mn  Mn141  1  0.83596816  0.50064252  -0.00069171  1
  Mn  Mn142  1  0.83448676  0.50070652  0.33466731  1
  Mn  Mn143  1  0.83685184  0.49955604  0.66548017  1
  O  O144  1  0.16981699  0.12698013  0.02272368  1
  O  O145  1  0.17541050  0.12461424  0.35683124  1
  O  O146  1  0.17282120  0.12498897  0.69099424  1
  O  O147  1  0.17321368  0.62666148  0.02789832  1
  O  O148  1  0.16412125  0.62549142  0.34054454  1
  O  O149  1  0.15872951  0.62285875  0.68466196  1
  O  O150  1  0.50304287  0.12305635  0.01062449  1
  O  O151  1  0.49356626  0.12539619  0.35606342  1
  O  O152  1  0.49728903  0.12825589  0.67918874  1
  O  O153  1  0.48535992  0.62564181  0.02749399  1
  O  O154  1  0.50106002  0.62474602  0.34047978  1
  O  O155  1  0.50188701  0.62063152  0.68500326  1
  O  O156  1  0.84129049  0.12386050  0.02440715  1
  O  O157  1  0.83676577  0.12600163  0.35838230  1
  O  O158  1  0.83826473  0.12748038  0.68841989  1
  O  O159  1  0.84126911  0.62677325  0.02385818  1
  O  O160  1  0.84150679  0.62478224  0.35681592  1
  O  O161  1  0.84619295  0.62307209  0.68859685  1
  O  O162  1  0.16226152  0.37346653  0.30829746  1
  O  O163  1  0.16726077  0.37056441  0.65825269  1
  O  O164  1  0.15827638  0.37445216  0.97087180  1
  O  O165  1  0.16800431  0.87724955  0.30900613  1
  O  O166  1  0.16482798  0.88174776  0.64024995  1
  O  O167  1  0.16551072  0.87198284  0.97452116  1
  O  O168  1  0.49481225  0.37480453  0.30958324  1
  O  O169  1  0.49735430  0.37133203  0.64560717  1
  O  O170  1  0.49600016  0.37698589  0.97843592  1
  O  O171  1  0.49424800  0.87469208  0.30741931  1
  O  O172  1  0.50285412  0.88117751  0.64676651  1
  O  O173  1  0.49948521  0.87414292  0.98855951  1
  O  O174  1  0.83965043  0.37353814  0.32226109  1
  O  O175  1  0.83631481  0.37477133  0.63937563  1
  O  O176  1  0.84178097  0.37162632  0.97728843  1
  O  O177  1  0.83717299  0.87640566  0.32637345  1
  O  O178  1  0.83239342  0.87498796  0.63879999  1
  O  O179  1  0.82408215  0.87716189  0.97701466  1
  O  O180  1  0.00383961  0.37124960  0.19061823  1
  O  O181  1  -0.00823599  0.37140971  0.51416637  1
  O  O182  1  -0.00428332  0.37409719  0.85865320  1
  O  O183  1  0.00681427  0.87809593  0.18616719  1
  O  O184  1  -0.00482734  0.87804881  0.51027494  1
  O  O185  1  -0.01352750  0.87527195  0.85575578  1
  O  O186  1  0.32258984  0.37584985  0.19036751  1
  O  O187  1  0.33651614  0.36771051  0.52141838  1
  O  O188  1  0.32227545  0.37626260  0.85630976  1
  O  O189  1  0.32448536  0.87569576  0.19113520  1
  O  O190  1  0.32532353  0.87989387  0.50693512  1
  O  O191  1  0.32330799  0.87191183  0.85386576  1
  O  O192  1  0.65999514  0.37549148  0.17834918  1
  O  O193  1  0.66215461  0.37505044  0.51287928  1
  O  O194  1  0.66110264  0.37617028  0.84566971  1
  O  O195  1  0.66036586  0.87538424  0.17918527  1
  O  O196  1  0.65786705  0.87479415  0.51301517  1
  O  O197  1  0.67305621  0.87420551  0.85840018  1
  O  O198  1  0.00983869  0.12500476  0.14024194  1
  O  O199  1  0.00589100  0.12450640  0.47529943  1
  O  O200  1  0.00661344  0.12446003  0.80982927  1
  O  O201  1  0.00796378  0.62625955  0.14294635  1
  O  O202  1  -0.00334245  0.62507034  0.47665320  1
  O  O203  1  0.00679888  0.62681957  0.80516160  1
  O  O204  1  0.32547425  0.12472109  0.14643972  1
  O  O205  1  0.34748243  0.12488014  0.46667396  1
  O  O206  1  0.32751403  0.12937566  0.81114493  1
  O  O207  1  0.34036699  0.62314348  0.13799305  1
  O  O208  1  0.33458365  0.62730637  0.48394333  1
  O  O209  1  0.34416456  0.62169507  0.82178453  1
  O  O210  1  0.66971900  0.12344772  0.14804074  1
  O  O211  1  0.67116208  0.12567019  0.47809558  1
  O  O212  1  0.67677088  0.12670504  0.81186866  1
  O  O213  1  0.66882224  0.62639107  0.16130397  1
  O  O214  1  0.67619118  0.62461855  0.47362484  1
  O  O215  1  0.67445983  0.62288643  0.81394679  1
  O  O216  1  0.07682638  0.02503401  0.26024494  1
  O  O217  1  0.07574729  0.02730156  0.59045201  1
  O  O218  1  0.07536966  0.01957724  0.92732749  1
  O  O219  1  0.07381671  0.51771690  0.25434003  1
  O  O220  1  0.07211817  0.51006154  0.59196065  1
  O  O221  1  0.07566833  0.52358001  0.92607043  1
  O  O222  1  0.40092091  0.01216629  0.26000660  1
  O  O223  1  0.41160203  0.02208012  0.58082898  1
  O  O224  1  0.40686973  0.00563684  0.92410142  1
  O  O225  1  0.40978243  0.51458112  0.24964773  1
  O  O226  1  0.41774265  0.49978939  0.58630314  1
  O  O227  1  0.40451025  0.51323552  0.92801971  1
  O  O228  1  0.74705252  0.02130719  0.25527199  1
  O  O229  1  0.74141609  0.02537486  0.59411888  1
  O  O230  1  0.74805033  0.02602354  0.92208518  1
  O  O231  1  0.74563705  0.52144188  0.26173899  1
  O  O232  1  0.74818419  0.52574584  0.59159764  1
  O  O233  1  0.75330159  0.51141659  0.91606210  1
  O  O234  1  0.23870307  0.23193950  0.23813107  1
  O  O235  1  0.24714170  0.22139312  0.57096152  1
  O  O236  1  0.23639222  0.23500019  0.90280010  1
  O  O237  1  0.23872125  0.73370035  0.23306877  1
  O  O238  1  0.24528311  0.74729666  0.57463226  1
  O  O239  1  0.24299039  0.72657884  0.91211823  1
  O  O240  1  0.58068527  0.23479685  0.25647728  1
  O  O241  1  0.57816144  0.23029032  0.57991702  1
  O  O242  1  0.58779295  0.23828102  0.91833688  1
  O  O243  1  0.57466034  0.73364409  0.24332207  1
  O  O244  1  0.58813797  0.73383703  0.58513007  1
  O  O245  1  0.57179542  0.72987147  0.91290091  1
  O  O246  1  0.91256215  0.22423704  0.24023960  1
  O  O247  1  0.91000061  0.22707083  0.57351221  1
  O  O248  1  0.91051700  0.22647173  0.90711279  1
  O  O249  1  0.91167721  0.72687780  0.24219054  1
  O  O250  1  0.91082202  0.73218899  0.57454665  1
  O  O251  1  0.91264402  0.72738652  0.90926946  1
  O  O252  1  0.09307135  0.48008233  0.09094507  1
  O  O253  1  0.08341369  0.48506159  0.41503182  1
  O  O254  1  0.09385900  0.48366795  0.76391902  1
  O  O255  1  0.09615436  0.98524815  0.09499969  1
  O  O256  1  0.09946463  0.98669940  0.42867377  1
  O  O257  1  0.08974934  0.98377636  0.76811395  1
  O  O258  1  0.41936832  0.47283106  0.09077797  1
  O  O259  1  0.42140829  0.47654901  0.41839697  1
  O  O260  1  0.42098965  0.47629810  0.75930431  1
  O  O261  1  0.41845270  0.97717106  0.09118028  1
  O  O262  1  0.42427644  0.97364625  0.42248410  1
  O  O263  1  0.41397247  0.99654208  0.74760698  1
  O  O264  1  0.75561394  0.49729795  0.09224032  1
  O  O265  1  0.76498647  0.48629176  0.43190856  1
  O  O266  1  0.76588152  0.48754385  0.75590938  1
  O  O267  1  0.74768908  0.99032232  0.07997662  1
  O  O268  1  0.76118257  0.98874636  0.43477152  1
  O  O269  1  0.76107596  0.98410711  0.76303999  1
  O  O270  1  0.25286633  0.27447323  0.07268478  1
  O  O271  1  0.26369757  0.26286009  0.40286937  1
  O  O272  1  0.26266784  0.26795242  0.73826893  1
  O  O273  1  0.25887302  0.77213546  0.07280539  1
  O  O274  1  0.25642959  0.76776653  0.40422728  1
  O  O275  1  0.24630651  0.75889934  0.75330713  1
  O  O276  1  0.58009033  0.26115610  0.08760069  1
  O  O277  1  0.58359529  0.25807015  0.42039786  1
  O  O278  1  0.58575106  0.25900858  0.75136757  1
  O  O279  1  0.58513571  0.76855548  0.07846351  1
  O  O280  1  0.58522910  0.75811554  0.41596545  1
  O  O281  1  0.58645460  0.74926600  0.75113309  1
  O  O282  1  0.93111707  0.26140300  0.07042757  1
  O  O283  1  0.92603270  0.26398610  0.40721881  1
  O  O284  1  0.92683230  0.26459280  0.74242360  1
  O  O285  1  0.92635571  0.76304037  0.07528420  1
  O  O286  1  0.92649377  0.76348714  0.40913261  1
  O  O287  1  0.91626977  0.76399854  0.74871157  1
  O  O288  1  0.25671076  0.47791780  0.07114151  1
  O  O289  1  0.25740490  0.48627326  0.40261851  1
  O  O290  1  0.25673114  0.48166574  0.74705854  1
  O  O291  1  0.25555957  0.97532806  0.07533470  1
  O  O292  1  0.26071055  0.98516380  0.40135229  1
  O  O293  1  0.24840522  0.98674147  0.74856632  1
  O  O294  1  0.57653820  0.49145005  0.08734284  1
  O  O295  1  0.58442924  0.48944080  0.41878110  1
  O  O296  1  0.58164461  0.49166710  0.75290530  1
  O  O297  1  0.58318853  0.98275699  0.08430513  1
  O  O298  1  0.58319005  0.99321458  0.42125254  1
  O  O299  1  0.58999184  0.99883182  0.74901719  1
  O  O300  1  0.93127298  0.48562253  0.07141486  1
  O  O301  1  0.92584845  0.48293852  0.40653492  1
  O  O302  1  0.92692893  0.48188643  0.74145610  1
  O  O303  1  0.92538970  0.98950104  0.07414827  1
  O  O304  1  0.92742248  0.99027548  0.40995939  1
  O  O305  1  0.91840883  0.99310730  0.74747814  1
  O  O306  1  0.09298609  0.27000715  0.09194893  1
  O  O307  1  0.08677403  0.25889617  0.41763094  1
  O  O308  1  0.09420439  0.26219926  0.76681127  1
  O  O309  1  0.09523055  0.76616011  0.09372006  1
  O  O310  1  0.09356428  0.76959324  0.42563608  1
  O  O311  1  0.08986464  0.76945768  0.76376363  1
  O  O312  1  0.41768999  0.27294627  0.09264168  1
  O  O313  1  0.42589694  0.27416166  0.42624789  1
  O  O314  1  0.42050037  0.27685193  0.75689371  1
  O  O315  1  0.42036382  0.77495539  0.09035502  1
  O  O316  1  0.42058861  0.77349864  0.41598756  1
  O  O317  1  0.41935858  0.75501163  0.75599439  1
  O  O318  1  0.75741789  0.25130120  0.08687134  1
  O  O319  1  0.76210646  0.26149794  0.43307652  1
  O  O320  1  0.76424986  0.26618378  0.76484381  1
  O  O321  1  0.75080106  0.76135376  0.08543092  1
  O  O322  1  0.76419118  0.76363176  0.43306119  1
  O  O323  1  0.75925957  0.76071211  0.75657377  1
  O  O324  1  0.23761170  0.01965800  0.23869628  1
  O  O325  1  0.24789714  0.02511729  0.56859925  1
  O  O326  1  0.23840298  0.01543354  0.90956782  1
  O  O327  1  0.23863344  0.51622875  0.23271687  1
  O  O328  1  0.24948261  0.50225306  0.58366305  1
  O  O329  1  0.24072519  0.52269570  0.90835607  1
  O  O330  1  0.58096945  0.01567745  0.25579772  1
  O  O331  1  0.57892387  0.02366495  0.58047949  1
  O  O332  1  0.59097866  0.00996709  0.92417161  1
  O  O333  1  0.57796583  0.51631390  0.24829724  1
  O  O334  1  0.58858437  0.51385349  0.58682899  1
  O  O335  1  0.56805932  0.51661479  0.91235118  1
  O  O336  1  0.91394486  0.02545326  0.24115668  1
  O  O337  1  0.90972449  0.02147124  0.57605622  1
  O  O338  1  0.91033017  0.02265590  0.91034534  1
  O  O339  1  0.91081777  0.52381619  0.24145990  1
  O  O340  1  0.90958421  0.51849418  0.57311672  1
  O  O341  1  0.91347400  0.52241818  0.90430196  1
  O  O342  1  0.07570441  0.22612514  0.25500800  1
  O  O343  1  0.07633187  0.22801972  0.59002195  1
  O  O344  1  0.07316608  0.22780109  0.92839454  1
  O  O345  1  0.07376061  0.73186455  0.25698040  1
  O  O346  1  0.07193737  0.73390236  0.59095531  1
  O  O347  1  0.07826245  0.72843105  0.92446529  1
  O  O348  1  0.40286991  0.23910568  0.26206049  1
  O  O349  1  0.40773784  0.22785549  0.58751260  1
  O  O350  1  0.40519615  0.24324861  0.92316793  1
  O  O351  1  0.40867747  0.73281549  0.24898438  1
  O  O352  1  0.42042763  0.75149648  0.57772863  1
  O  O353  1  0.40642114  0.73640104  0.92678597  1
  O  O354  1  0.74637779  0.22781439  0.25728200  1
  O  O355  1  0.74213614  0.22704831  0.59320889  1
  O  O356  1  0.74827995  0.22564833  0.92436920  1
  O  O357  1  0.74600296  0.73050383  0.26099099  1
  O  O358  1  0.74715295  0.72296262  0.59143949  1
  O  O359  1  0.75215713  0.73513801  0.91562729  1
