# generated using pymatgen
data_Ba17Sr5La8Pr42Mn72O216
_symmetry_space_group_name_H-M   'P 1'
_cell_length_a   16.67607761
_cell_length_b   15.69832491
_cell_length_c   16.82493687
_cell_angle_alpha   90.00087424
_cell_angle_beta   89.99598345
_cell_angle_gamma   90.03283270
_symmetry_Int_Tables_number   1
_chemical_formula_structural   Ba17Sr5La8Pr42Mn72O216
_chemical_formula_sum   'Ba17 Sr5 La8 Pr42 Mn72 O216'
_cell_volume   4404.54034302
_cell_formula_units_Z   1
loop_
 _symmetry_equiv_pos_site_id
 _symmetry_equiv_pos_as_xyz
  1  'x, y, z'
loop_
 _atom_site_type_symbol
 _atom_site_label
 _atom_site_symmetry_multiplicity
 _atom_site_fract_x
 _atom_site_fract_y
 _atom_site_fract_z
 _atom_site_occupancy
  Ba  Ba0  1  -0.00066259  0.87616339  0.66388737  1
  Ba  Ba1  1  -0.00014702  0.62309832  0.66563989  1
  Ba  Ba2  1  0.50195486  0.62329723  0.83523743  1
  Ba  Ba3  1  0.66694559  0.62202426  0.33390689  1
  Ba  Ba4  1  0.50220183  0.62248736  0.50306821  1
  Ba  Ba5  1  0.00058335  0.62359028  0.99774381  1
  Ba  Ba6  1  0.00001955  0.12640235  0.66837294  1
  Ba  Ba7  1  0.50016983  0.62612648  0.16865403  1
  Ba  Ba8  1  0.16856459  0.87645768  0.49876454  1
  Ba  Ba9  1  0.33627320  0.62641759  0.66820461  1
  Ba  Ba10  1  0.33244343  0.12426532  0.99885160  1
  Ba  Ba11  1  0.00219288  0.62395216  0.33052308  1
  Ba  Ba12  1  0.50014675  0.37298625  0.50130992  1
  Ba  Ba13  1  0.83414679  0.87730420  0.49897649  1
  Ba  Ba14  1  -0.00036235  0.37368785  0.33043150  1
  Ba  Ba15  1  0.33372878  0.87614103  0.66477574  1
  Ba  Ba16  1  0.49995207  0.87551742  0.16901630  1
  Sr  Sr17  1  0.66632231  0.37421890  0.33472218  1
  Sr  Sr18  1  0.83310912  0.12718944  0.16581970  1
  Sr  Sr19  1  0.66835715  0.12729213  0.66842310  1
  Sr  Sr20  1  0.49601520  0.37116268  0.83281971  1
  Sr  Sr21  1  0.83291985  0.12180831  0.83604024  1
  La  La22  1  0.16137716  0.37413952  0.16231313  1
  La  La23  1  0.83133756  0.37415570  0.83197719  1
  La  La24  1  0.16728979  0.62380337  0.50079186  1
  La  La25  1  0.66497478  0.87726484  0.66884653  1
  La  La26  1  0.16972163  0.62302315  0.16816829  1
  La  La27  1  0.83310632  0.37319317  0.49801444  1
  La  La28  1  0.16390379  0.12770182  0.16548777  1
  La  La29  1  0.33452303  0.12472541  0.32979200  1
  Pr  Pr30  1  0.82709747  0.37749870  0.16497123  1
  Pr  Pr31  1  0.33048933  0.37784227  0.00324684  1
  Pr  Pr32  1  0.49878319  0.37591170  0.16802054  1
  Pr  Pr33  1  0.49627704  0.87763534  0.83372544  1
  Pr  Pr34  1  0.66156666  0.37364072  0.67198567  1
  Pr  Pr35  1  0.50551138  0.12606597  0.50425876  1
  Pr  Pr36  1  0.66004503  0.37327576  0.00407362  1
  Pr  Pr37  1  0.66616302  0.87666496  0.00199894  1
  Pr  Pr38  1  -0.01063507  0.37228802  0.00491946  1
  Pr  Pr39  1  -0.00110021  0.12189515  0.33184753  1
  Pr  Pr40  1  -0.00311267  0.37350553  0.66570271  1
  Pr  Pr41  1  0.66943356  0.62269537  0.66116136  1
  Pr  Pr42  1  0.83530916  0.62321706  0.17100246  1
  Pr  Pr43  1  0.83163372  0.87425987  0.82594200  1
  Pr  Pr44  1  0.00019859  0.87500547  0.33993877  1
  Pr  Pr45  1  0.16600348  0.37676434  0.49871400  1
  Pr  Pr46  1  0.16477390  0.87518291  0.82516134  1
  Pr  Pr47  1  0.16636413  0.12810009  0.50272519  1
  Pr  Pr48  1  0.67133264  0.62809937  0.99972528  1
  Pr  Pr49  1  0.66370477  0.87349284  0.33791324  1
  Pr  Pr50  1  0.32768537  0.87316239  0.00108941  1
  Pr  Pr51  1  0.16278698  0.12004513  0.83533606  1
  Pr  Pr52  1  0.16237789  0.87583995  0.16599807  1
  Pr  Pr53  1  0.50177347  0.12440584  0.17072304  1
  Pr  Pr54  1  0.49888193  0.87438707  0.49847333  1
  Pr  Pr55  1  0.33930535  0.62828570  0.99633296  1
  Pr  Pr56  1  0.33415085  0.37587719  0.33560329  1
  Pr  Pr57  1  0.16485118  0.37535241  0.83085370  1
  Pr  Pr58  1  -0.00382264  0.87758577  -0.00213891  1
  Pr  Pr59  1  0.33529747  0.12703363  0.66584339  1
  Pr  Pr60  1  0.83457638  0.12816330  0.50357434  1
  Pr  Pr61  1  -0.00339454  0.12741023  0.99236319  1
  Pr  Pr62  1  0.83687218  0.62721311  0.83433929  1
  Pr  Pr63  1  0.33976796  0.87449434  0.33930932  1
  Pr  Pr64  1  0.33451307  0.37968509  0.67003817  1
  Pr  Pr65  1  0.50015512  0.12425841  0.83705048  1
  Pr  Pr66  1  0.83232310  0.87274016  0.16684393  1
  Pr  Pr67  1  0.66886383  0.12628615  0.33286927  1
  Pr  Pr68  1  0.17514561  0.62964998  0.83469224  1
  Pr  Pr69  1  0.33609773  0.62536295  0.33390933  1
  Pr  Pr70  1  0.83579319  0.62113351  0.49973856  1
  Pr  Pr71  1  0.66175595  0.12241194  0.99763036  1
  Mn  Mn72  1  -0.00208590  0.00066004  0.16548693  1
  Mn  Mn73  1  0.00114097  0.00224801  0.49701194  1
  Mn  Mn74  1  -0.00229217  0.00038859  0.83472589  1
  Mn  Mn75  1  -0.00094084  0.49864974  0.16333987  1
  Mn  Mn76  1  0.00012499  0.49866253  0.49913933  1
  Mn  Mn77  1  0.00108538  0.49785086  0.83311388  1
  Mn  Mn78  1  0.33113276  0.00019707  0.16705222  1
  Mn  Mn79  1  0.33484662  0.00486321  0.49826934  1
  Mn  Mn80  1  0.33198848  0.00159777  0.83299957  1
  Mn  Mn81  1  0.33231398  0.49815429  0.16749380  1
  Mn  Mn82  1  0.33277726  0.49739735  0.50080154  1
  Mn  Mn83  1  0.33323955  0.49805908  0.83724332  1
  Mn  Mn84  1  0.66927329  0.00183688  0.16765730  1
  Mn  Mn85  1  0.66752004  0.00198633  0.50097519  1
  Mn  Mn86  1  0.66610953  0.00092789  0.83543463  1
  Mn  Mn87  1  0.66583173  0.49765627  0.16635455  1
  Mn  Mn88  1  0.66894564  0.49715418  0.50135546  1
  Mn  Mn89  1  0.66736719  0.49956342  0.83544272  1
  Mn  Mn90  1  -0.00312225  0.24755428  0.16438320  1
  Mn  Mn91  1  0.00095388  0.25064930  0.49857299  1
  Mn  Mn92  1  -0.00044623  0.25284937  0.83411528  1
  Mn  Mn93  1  0.00006514  0.75278512  0.16481644  1
  Mn  Mn94  1  0.00071988  0.74907510  0.49727803  1
  Mn  Mn95  1  0.00072021  0.74828427  0.83340899  1
  Mn  Mn96  1  0.33317200  0.24897618  0.16719274  1
  Mn  Mn97  1  0.33254846  0.24880064  0.49923236  1
  Mn  Mn98  1  0.33104489  0.25029510  0.83274669  1
  Mn  Mn99  1  0.33064380  0.75171071  0.16705536  1
  Mn  Mn100  1  0.33466577  0.75022882  0.49926455  1
  Mn  Mn101  1  0.33445908  0.75215911  0.83571777  1
  Mn  Mn102  1  0.66622576  0.24845070  0.16759079  1
  Mn  Mn103  1  0.66806808  0.24950249  0.50057246  1
  Mn  Mn104  1  0.66673380  0.24859855  0.83620688  1
  Mn  Mn105  1  0.66853635  0.75160596  0.16701409  1
  Mn  Mn106  1  0.66872920  0.75075562  0.50204616  1
  Mn  Mn107  1  0.66712360  0.74995623  0.83362511  1
  Mn  Mn108  1  0.16526817  0.25017979  -0.00296791  1
  Mn  Mn109  1  0.16792495  0.24970421  0.33318860  1
  Mn  Mn110  1  0.16907868  0.25174841  0.66651924  1
  Mn  Mn111  1  0.16553317  0.75211879  0.00016119  1
  Mn  Mn112  1  0.16961600  0.74995355  0.32975280  1
  Mn  Mn113  1  0.16629347  0.74917071  0.66632806  1
  Mn  Mn114  1  0.49821077  0.25110347  0.00117237  1
  Mn  Mn115  1  0.50120820  0.24872951  0.33425635  1
  Mn  Mn116  1  0.49998045  0.24892039  0.66958191  1
  Mn  Mn117  1  0.50175583  0.75135331  0.00067243  1
  Mn  Mn118  1  0.50067140  0.74988310  0.33520589  1
  Mn  Mn119  1  0.50322142  0.75274628  0.66824895  1
  Mn  Mn120  1  0.82879552  0.24801698  -0.00046389  1
  Mn  Mn121  1  0.83256481  0.24842191  0.33281125  1
  Mn  Mn122  1  0.83143206  0.24907706  0.66693328  1
  Mn  Mn123  1  0.83322693  0.75282579  -0.00120300  1
  Mn  Mn124  1  0.83365578  0.75049515  0.33132774  1
  Mn  Mn125  1  0.83217344  0.74959468  0.66599959  1
  Mn  Mn126  1  0.16317234  -0.00179488  -0.00065909  1
  Mn  Mn127  1  0.16776216  0.00317560  0.33033498  1
  Mn  Mn128  1  0.16790549  0.00304531  0.66696832  1
  Mn  Mn129  1  0.16680134  0.49975569  -0.00217429  1
  Mn  Mn130  1  0.16969954  0.49793248  0.33203910  1
  Mn  Mn131  1  0.16666764  0.49768126  0.66592791  1
  Mn  Mn132  1  0.49885649  -0.00113254  0.00151086  1
  Mn  Mn133  1  0.50168443  0.00263313  0.33639920  1
  Mn  Mn134  1  0.50158976  0.00303716  0.66780711  1
  Mn  Mn135  1  0.50027548  0.49778540  0.00158640  1
  Mn  Mn136  1  0.49998700  0.49770216  0.33355205  1
  Mn  Mn137  1  0.50173981  0.49776932  0.67050061  1
  Mn  Mn138  1  0.83227910  -0.00038046  0.00053994  1
  Mn  Mn139  1  0.83232360  0.00289540  0.33055549  1
  Mn  Mn140  1  0.83150715  0.00311954  0.66707424  1
  Mn  Mn141  1  0.82921773  0.49964288  -0.00225591  1
  Mn  Mn142  1  0.83302069  0.49706291  0.33237999  1
  Mn  Mn143  1  0.83215332  0.49658546  0.66675963  1
  O  O144  1  0.15686386  0.12345266  0.02228186  1
  O  O145  1  0.16519143  0.12791730  0.35874051  1
  O  O146  1  0.17331651  0.13046219  0.69209104  1
  O  O147  1  0.17173678  0.62786661  0.02604031  1
  O  O148  1  0.17521893  0.62113557  0.35529712  1
  O  O149  1  0.16675093  0.61915709  0.68935863  1
  O  O150  1  0.50327461  0.12552657  0.02618478  1
  O  O151  1  0.50322895  0.12521079  0.35934610  1
  O  O152  1  0.49662548  0.12604737  0.69444165  1
  O  O153  1  0.49191702  0.62385199  0.01203456  1
  O  O154  1  0.49316028  0.62586471  0.34398849  1
  O  O155  1  0.51091503  0.62399170  0.67840896  1
  O  O156  1  0.83984041  0.12323312  0.01851360  1
  O  O157  1  0.82980941  0.12578129  0.35892109  1
  O  O158  1  0.83147919  0.12777220  0.68678642  1
  O  O159  1  0.82573271  0.62740605  0.02746884  1
  O  O160  1  0.83289017  0.62360531  0.35174992  1
  O  O161  1  0.82561539  0.61954133  0.69231420  1
  O  O162  1  0.17681695  0.37239195  0.30577202  1
  O  O163  1  0.17828889  0.37345166  0.64152882  1
  O  O164  1  0.17551243  0.37338870  0.97456204  1
  O  O165  1  0.16598262  0.87971597  0.30880247  1
  O  O166  1  0.16666080  0.87746012  0.66150933  1
  O  O167  1  0.16574402  0.87541953  0.97082232  1
  O  O168  1  0.49356808  0.37001070  0.31247399  1
  O  O169  1  0.50108045  0.37007410  0.65837823  1
  O  O170  1  0.50682498  0.37319851  0.98104197  1
  O  O171  1  0.49773750  0.87869007  0.32634281  1
  O  O172  1  0.50786122  0.88237355  0.64314674  1
  O  O173  1  0.51083059  0.87713695  0.97866251  1
  O  O174  1  0.83022845  0.37014599  0.30909829  1
  O  O175  1  0.83003094  0.37269123  0.64302693  1
  O  O176  1  0.82552711  0.37287286  0.97577604  1
  O  O177  1  0.83464938  0.87933711  0.31050966  1
  O  O178  1  0.82478158  0.87891152  0.65740110  1
  O  O179  1  0.83052514  0.87652052  0.97048201  1
  O  O180  1  -0.00032511  0.37263770  0.17394256  1
  O  O181  1  -0.00027615  0.37349182  0.52031714  1
  O  O182  1  0.00640493  0.37543643  0.86094983  1
  O  O183  1  0.00189223  0.88077092  0.19559403  1
  O  O184  1  0.00128629  0.87744642  0.50344448  1
  O  O185  1  0.00323768  0.87528867  0.85353438  1
  O  O186  1  0.33016587  0.37242237  0.19168820  1
  O  O187  1  0.32531076  0.36987844  0.52571273  1
  O  O188  1  0.32487175  0.37269537  0.85974851  1
  O  O189  1  0.32114194  0.88070096  0.19565030  1
  O  O190  1  0.34093106  0.88204950  0.50712730  1
  O  O191  1  0.32797765  0.87789015  0.85495278  1
  O  O192  1  0.67118057  0.37045134  0.18471607  1
  O  O193  1  0.67657191  0.37167856  0.52612906  1
  O  O194  1  0.67605284  0.37356227  0.86206103  1
  O  O195  1  0.67621245  0.88181211  0.19373539  1
  O  O196  1  0.66284754  0.87892575  0.52335463  1
  O  O197  1  0.67133499  0.87639135  0.85967382  1
  O  O198  1  0.00266426  0.12268089  0.13571948  1
  O  O199  1  0.00496007  0.12798816  0.47693832  1
  O  O200  1  0.00080522  0.12845839  0.82539619  1
  O  O201  1  -0.00180361  0.62310960  0.15269496  1
  O  O202  1  -0.00134479  0.62162241  0.48824102  1
  O  O203  1  -0.00800936  0.62006683  0.82195427  1
  O  O204  1  0.33969325  0.12454836  0.15260450  1
  O  O205  1  0.32671727  0.12742290  0.47250253  1
  O  O206  1  0.33446440  0.12633679  0.81136338  1
  O  O207  1  0.32729642  0.61993911  0.13916516  1
  O  O208  1  0.32702464  0.62176251  0.47824630  1
  O  O209  1  0.32969564  0.62506633  0.82800175  1
  O  O210  1  0.66117392  0.12565371  0.14050190  1
  O  O211  1  0.66514050  0.12498366  0.47629448  1
  O  O212  1  0.65735158  0.12355948  0.81702604  1
  O  O213  1  0.67469049  0.62172311  0.14404603  1
  O  O214  1  0.67305138  0.62355920  0.49190746  1
  O  O215  1  0.67209272  0.62555849  0.80632471  1
  O  O216  1  0.08237347  0.02662023  0.24630661  1
  O  O217  1  0.09000472  0.01856580  0.57793605  1
  O  O218  1  0.07796978  0.01871714  0.92210465  1
  O  O219  1  0.09528458  0.50771187  0.24036628  1
  O  O220  1  0.08706828  0.50550688  0.57831746  1
  O  O221  1  0.09746488  0.51517543  0.90456612  1
  O  O222  1  0.41920210  0.01961358  0.25511732  1
  O  O223  1  0.41735065  0.02772253  0.58372449  1
  O  O224  1  0.41996012  0.01093962  0.91152953  1
  O  O225  1  0.41075689  0.50953505  0.25176889  1
  O  O226  1  0.41291000  0.50157485  0.58613877  1
  O  O227  1  0.41210223  0.50507863  0.92660312  1
  O  O228  1  0.74888206  0.02578282  0.24992640  1
  O  O229  1  0.75006622  0.02145319  0.57915975  1
  O  O230  1  0.74247869  0.01838971  0.92388858  1
  O  O231  1  0.75608651  0.51043051  0.23922313  1
  O  O232  1  0.75446119  0.51935408  0.58318429  1
  O  O233  1  0.75237971  0.52785677  0.91329749  1
  O  O234  1  0.25167942  0.22678403  0.25310134  1
  O  O235  1  0.25324429  0.22431542  0.58499144  1
  O  O236  1  0.24275364  0.22993872  0.90971418  1
  O  O237  1  0.25131083  0.72402087  0.24782226  1
  O  O238  1  0.24946908  0.73668492  0.57674457  1
  O  O239  1  0.25624431  0.73433999  0.92734169  1
  O  O240  1  0.58441149  0.22626304  0.24937004  1
  O  O241  1  0.58376328  0.23218514  0.58367111  1
  O  O242  1  0.58421608  0.22918580  0.92312927  1
  O  O243  1  0.58723390  0.74879527  0.25744550  1
  O  O244  1  0.59595985  0.74154832  0.59668893  1
  O  O245  1  0.59493491  0.73464264  0.92299315  1
  O  O246  1  0.91903267  0.22723109  0.25351559  1
  O  O247  1  0.91413862  0.23816942  0.58019245  1
  O  O248  1  0.91787178  0.24112348  0.92306499  1
  O  O249  1  0.91396030  0.73972495  0.24306330  1
  O  O250  1  0.91159248  0.73515430  0.57958610  1
  O  O251  1  0.91502429  0.73961178  0.91643931  1
  O  O252  1  0.07926184  0.47760333  0.07239340  1
  O  O253  1  0.09036419  0.48512585  0.41798219  1
  O  O254  1  0.08177799  0.47087151  0.74234768  1
  O  O255  1  0.08107927  0.97371506  0.08308934  1
  O  O256  1  0.08118402  0.98980124  0.40652031  1
  O  O257  1  0.08681342  0.99283779  0.76020530  1
  O  O258  1  0.41432525  0.47389686  0.08634239  1
  O  O259  1  0.40934045  0.48494639  0.41256949  1
  O  O260  1  0.41179883  0.48270656  0.75353393  1
  O  O261  1  0.41185374  0.97934375  0.07693382  1
  O  O262  1  0.42227121  0.98920695  0.42073945  1
  O  O263  1  0.42234458  0.98628734  0.75400949  1
  O  O264  1  0.74351702  0.47692289  0.07690645  1
  O  O265  1  0.75308446  0.48157028  0.42024621  1
  O  O266  1  0.74823468  0.47408334  0.74823137  1
  O  O267  1  0.75342964  0.97818559  0.08439554  1
  O  O268  1  0.74352400  0.98728690  0.40767390  1
  O  O269  1  0.74671424  0.98375464  0.75688584  1
  O  O270  1  0.24372737  0.26644928  0.08297602  1
  O  O271  1  0.24809981  0.27218154  0.41857445  1
  O  O272  1  0.24872276  0.27442755  0.74997276  1
  O  O273  1  0.24199840  0.77704638  0.08611059  1
  O  O274  1  0.25868578  0.76432394  0.40448037  1
  O  O275  1  0.24485810  0.75944048  0.76166780  1
  O  O276  1  0.57841129  0.27043007  0.09009640  1
  O  O277  1  0.58586066  0.25941102  0.41451556  1
  O  O278  1  0.58569773  0.26685473  0.75608695  1
  O  O279  1  0.58866942  0.76216604  0.08247098  1
  O  O280  1  0.58151778  0.77009513  0.42372619  1
  O  O281  1  0.58136078  0.77706865  0.75719136  1
  O  O282  1  0.90741471  0.27107578  0.08359035  1
  O  O283  1  0.91181325  0.26056082  0.41979918  1
  O  O284  1  0.91750759  0.27477810  0.75087178  1
  O  O285  1  0.91410654  0.77656298  0.08150990  1
  O  O286  1  0.91881900  0.76267124  0.40883380  1
  O  O287  1  0.90742073  0.76125993  0.75572420  1
  O  O288  1  0.24558943  0.47490298  0.08769290  1
  O  O289  1  0.25042530  0.47467878  0.41616935  1
  O  O290  1  0.24693844  0.47971141  0.75440074  1
  O  O291  1  0.24432271  0.97847480  0.07948203  1
  O  O292  1  0.25909154  0.98946731  0.40337616  1
  O  O293  1  0.24843125  0.99173361  0.75324642  1
  O  O294  1  0.57957310  0.47742181  0.08741270  1
  O  O295  1  0.58639649  0.48704508  0.41875644  1
  O  O296  1  0.58622198  0.47811932  0.75772350  1
  O  O297  1  0.59092081  0.98646246  0.07949461  1
  O  O298  1  0.58395100  0.98066105  0.41912948  1
  O  O299  1  0.58375748  0.97854878  0.75499037  1
  O  O300  1  0.90793312  0.47826806  0.08015309  1
  O  O301  1  0.91285233  0.48561745  0.42090032  1
  O  O302  1  0.91499919  0.47343010  0.74745195  1
  O  O303  1  0.91634935  0.97268918  0.08410271  1
  O  O304  1  0.92213100  0.99298416  0.40515866  1
  O  O305  1  0.91222297  0.98647954  0.75843962  1
  O  O306  1  0.07942705  0.27019301  0.07469534  1
  O  O307  1  0.08935144  0.26733219  0.41838180  1
  O  O308  1  0.08392796  0.27468815  0.74589220  1
  O  O309  1  0.07842887  0.77660037  0.07678172  1
  O  O310  1  0.08422030  0.76197755  0.40538095  1
  O  O311  1  0.08388737  0.75955679  0.75331496  1
  O  O312  1  0.41353779  0.27506284  0.07994379  1
  O  O313  1  0.40747679  0.26244071  0.40961412  1
  O  O314  1  0.40627467  0.26582848  0.74378431  1
  O  O315  1  0.40520852  0.76681682  0.07927033  1
  O  O316  1  0.41857194  0.76642562  0.41850353  1
  O  O317  1  0.42110043  0.76751461  0.75527080  1
  O  O318  1  0.74490185  0.26801480  0.08129998  1
  O  O319  1  0.75165308  0.26511029  0.41895933  1
  O  O320  1  0.74906165  0.27026436  0.75064849  1
  O  O321  1  0.74940601  0.77606136  0.07714984  1
  O  O322  1  0.74441593  0.76720825  0.40840006  1
  O  O323  1  0.74476658  0.77043424  0.74854334  1
  O  O324  1  0.24366548  0.02809519  0.24580125  1
  O  O325  1  0.25285938  0.02413305  0.58013161  1
  O  O326  1  0.24048909  0.01535380  0.91184423  1
  O  O327  1  0.25464978  0.52195806  0.25251243  1
  O  O328  1  0.24536270  0.51488580  0.57832906  1
  O  O329  1  0.25422019  0.52197842  0.92483804  1
  O  O330  1  0.58426404  0.02266871  0.25246647  1
  O  O331  1  0.58190064  0.02346291  0.58365539  1
  O  O332  1  0.57996252  0.02090192  0.91659927  1
  O  O333  1  0.58217411  0.49972434  0.24761372  1
  O  O334  1  0.59535188  0.50397291  0.59415345  1
  O  O335  1  0.59424232  0.51463093  0.92897405  1
  O  O336  1  0.91751127  0.02326929  0.24782890  1
  O  O337  1  0.91491672  0.01783997  0.57401749  1
  O  O338  1  0.91873596  0.01332550  0.92256996  1
  O  O339  1  0.91278402  0.50885928  0.24278873  1
  O  O340  1  0.91126180  0.50852436  0.58085818  1
  O  O341  1  0.90934209  0.50800641  0.91387143  1
  O  O342  1  0.08696323  0.23001570  0.24725426  1
  O  O343  1  0.09160619  0.23990770  0.57912194  1
  O  O344  1  0.08431179  0.23110342  0.91497551  1
  O  O345  1  0.09453810  0.73882175  0.23835292  1
  O  O346  1  0.08830670  0.73579760  0.57551667  1
  O  O347  1  0.09451528  0.73357558  0.90984871  1
  O  O348  1  0.42372475  0.22914709  0.24754873  1
  O  O349  1  0.41686662  0.22496193  0.57801839  1
  O  O350  1  0.42152125  0.23545530  0.90861674  1
  O  O351  1  0.40998178  0.74165358  0.25720767  1
  O  O352  1  0.42413834  0.74775684  0.58238097  1
  O  O353  1  0.41654412  0.74882757  0.91878391  1
  O  O354  1  0.74738656  0.22872014  0.25137278  1
  O  O355  1  0.75209817  0.22913806  0.58015348  1
  O  O356  1  0.74741087  0.22498059  0.91944798  1
  O  O357  1  0.75854904  0.73615544  0.23932321  1
  O  O358  1  0.75454696  0.72862829  0.58177839  1
  O  O359  1  0.75443543  0.72758029  0.91252721  1
