# generated using pymatgen
data_Ba17Sr5La8Pr42Mn72O216
_symmetry_space_group_name_H-M   'P 1'
_cell_length_a   16.68142728
_cell_length_b   15.70364310
_cell_length_c   16.82120530
_cell_angle_alpha   89.99822994
_cell_angle_beta   89.96424605
_cell_angle_gamma   90.01813429
_symmetry_Int_Tables_number   1
_chemical_formula_structural   Ba17Sr5La8Pr42Mn72O216
_chemical_formula_sum   'Ba17 Sr5 La8 Pr42 Mn72 O216'
_cell_volume   4406.46807321
_cell_formula_units_Z   1
loop_
 _symmetry_equiv_pos_site_id
 _symmetry_equiv_pos_as_xyz
  1  'x, y, z'
loop_
 _atom_site_type_symbol
 _atom_site_label
 _atom_site_symmetry_multiplicity
 _atom_site_fract_x
 _atom_site_fract_y
 _atom_site_fract_z
 _atom_site_occupancy
  Ba  Ba0  1  0.66619202  0.37471914  0.66186916  1
  Ba  Ba1  1  0.33141297  0.87549606  0.00126358  1
  Ba  Ba2  1  0.49819356  0.87518430  0.83239105  1
  Ba  Ba3  1  -0.00391511  0.87511064  0.33566623  1
  Ba  Ba4  1  0.16670115  0.12257400  0.50199700  1
  Ba  Ba5  1  0.16597481  0.37520755  0.16857471  1
  Ba  Ba6  1  0.16307338  0.87319815  0.50144942  1
  Ba  Ba7  1  0.50119595  0.12477403  0.49694271  1
  Ba  Ba8  1  0.66829770  0.12692608  0.99830878  1
  Ba  Ba9  1  0.33464756  0.62465772  0.66534423  1
  Ba  Ba10  1  0.16747888  0.12478514  0.83587809  1
  Ba  Ba11  1  0.16644412  0.37664045  0.50121175  1
  Ba  Ba12  1  0.00038708  0.37616274  0.66840730  1
  Ba  Ba13  1  0.33317380  0.37624772  0.33528606  1
  Ba  Ba14  1  0.49740967  0.87267294  0.16307746  1
  Ba  Ba15  1  0.66933010  0.62385589  0.99772856  1
  Ba  Ba16  1  0.49891762  0.37383575  0.49971463  1
  Sr  Sr17  1  0.33185035  0.12381771  1.00061398  1
  Sr  Sr18  1  0.16996610  0.62645051  0.50169982  1
  Sr  Sr19  1  0.50121634  0.62763455  0.16552649  1
  Sr  Sr20  1  0.17092574  0.12446662  0.16794843  1
  Sr  Sr21  1  0.33481082  0.37285736  0.66588913  1
  La  La22  1  0.66846350  0.12521155  0.66545096  1
  La  La23  1  0.65940947  0.87526350  0.00201723  1
  La  La24  1  0.82865285  0.37635646  0.49799113  1
  La  La25  1  0.00557147  0.62531671  0.66546721  1
  La  La26  1  0.66731732  0.62610361  0.66523365  1
  La  La27  1  0.83596240  0.12407806  0.50029786  1
  La  La28  1  0.82770080  0.87438999  0.16387105  1
  La  La29  1  0.50023667  0.37518844  0.16389070  1
  Pr  Pr30  1  0.00559435  0.12563388  0.66595006  1
  Pr  Pr31  1  0.65678181  0.87428751  0.33067952  1
  Pr  Pr32  1  0.83780857  0.13023721  0.83733767  1
  Pr  Pr33  1  0.83053636  0.37579798  0.83062076  1
  Pr  Pr34  1  0.50702719  0.37472427  0.82476458  1
  Pr  Pr35  1  0.66827574  0.62184591  0.32443389  1
  Pr  Pr36  1  0.17077793  0.37371090  0.82786414  1
  Pr  Pr37  1  0.84069729  0.62365062  0.17077930  1
  Pr  Pr38  1  0.33868309  0.62529031  0.99875200  1
  Pr  Pr39  1  0.49532212  0.12798015  0.83430082  1
  Pr  Pr40  1  0.66527626  0.37561668  -0.00390574  1
  Pr  Pr41  1  0.17404767  0.62293938  0.83351221  1
  Pr  Pr42  1  -0.00211568  0.37398101  0.34390482  1
  Pr  Pr43  1  0.49355348  0.11923568  0.16820867  1
  Pr  Pr44  1  0.00804613  0.62496663  1.00169287  1
  Pr  Pr45  1  0.50063714  0.62156240  0.49935854  1
  Pr  Pr46  1  0.66613287  0.12967123  0.32369212  1
  Pr  Pr47  1  0.16113417  0.87561400  0.16381198  1
  Pr  Pr48  1  0.17444778  0.62642968  0.17081528  1
  Pr  Pr49  1  0.82450790  0.87408777  0.49599271  1
  Pr  Pr50  1  -0.00398360  0.87631449  0.66887815  1
  Pr  Pr51  1  0.83970077  0.62050523  0.83725420  1
  Pr  Pr52  1  0.32388703  0.87676436  0.67019292  1
  Pr  Pr53  1  0.82642242  0.87455743  0.83312085  1
  Pr  Pr54  1  0.00547142  0.12673601  1.00265004  1
  Pr  Pr55  1  0.01129003  0.12326441  0.33357046  1
  Pr  Pr56  1  0.82887909  0.37587412  0.16898637  1
  Pr  Pr57  1  -0.00042047  0.37272761  0.00286697  1
  Pr  Pr58  1  0.83871193  0.12630612  0.17304731  1
  Pr  Pr59  1  -0.00236182  0.87884903  0.00626928  1
  Pr  Pr60  1  0.83752312  0.62679517  0.50117051  1
  Pr  Pr61  1  0.32923281  0.87581620  0.33296960  1
  Pr  Pr62  1  0.49195391  0.87408944  0.49688732  1
  Pr  Pr63  1  0.32916588  0.12911496  0.33298717  1
  Pr  Pr64  1  0.33750818  0.12247437  0.66332446  1
  Pr  Pr65  1  0.33258840  0.37186245  0.00337610  1
  Pr  Pr66  1  0.49845115  0.62087559  0.83572387  1
  Pr  Pr67  1  0.65961520  0.87703899  0.66594668  1
  Pr  Pr68  1  0.01195069  0.62751969  0.33407368  1
  Pr  Pr69  1  0.16380512  0.87410946  0.83209420  1
  Pr  Pr70  1  0.66013237  0.37641570  0.33680343  1
  Pr  Pr71  1  0.33453550  0.62188488  0.33522587  1
  Mn  Mn72  1  -0.00110227  0.00070809  0.16884813  1
  Mn  Mn73  1  -0.00476458  -0.00071583  0.50231333  1
  Mn  Mn74  1  -0.00304386  -0.00189642  0.83703754  1
  Mn  Mn75  1  -0.00020237  0.49943087  0.16982760  1
  Mn  Mn76  1  -0.00252065  0.50309355  0.50107198  1
  Mn  Mn77  1  0.00238041  0.50182447  0.83675717  1
  Mn  Mn78  1  0.33118420  0.00070180  0.16732820  1
  Mn  Mn79  1  0.33342381  -0.00203172  0.50034627  1
  Mn  Mn80  1  0.33206565  -0.00006587  0.83336193  1
  Mn  Mn81  1  0.33523665  0.49979964  0.16494609  1
  Mn  Mn82  1  0.33314164  0.50049830  0.50055295  1
  Mn  Mn83  1  0.33446926  0.49957783  0.83623084  1
  Mn  Mn84  1  0.66891304  0.00167416  0.16426589  1
  Mn  Mn85  1  0.66706788  -0.00034160  0.49692989  1
  Mn  Mn86  1  0.66780801  0.00071308  0.83173086  1
  Mn  Mn87  1  0.66786949  0.49847018  0.16401219  1
  Mn  Mn88  1  0.66797224  0.50360253  0.49507504  1
  Mn  Mn89  1  0.66905508  0.50150093  0.83044465  1
  Mn  Mn90  1  -0.00038608  0.25144394  0.17070464  1
  Mn  Mn91  1  -0.00297164  0.24897952  0.50219401  1
  Mn  Mn92  1  0.00073455  0.25058652  0.83672561  1
  Mn  Mn93  1  -0.00120665  0.74886013  0.16709085  1
  Mn  Mn94  1  -0.00366480  0.75003166  0.50163822  1
  Mn  Mn95  1  -0.00091697  0.75029991  0.83601070  1
  Mn  Mn96  1  0.33365098  0.25005846  0.16553346  1
  Mn  Mn97  1  0.33276838  0.24853717  0.50034769  1
  Mn  Mn98  1  0.33412435  0.25059840  0.83518709  1
  Mn  Mn99  1  0.33248678  0.74754928  0.16724777  1
  Mn  Mn100  1  0.33409488  0.75088774  0.49988623  1
  Mn  Mn101  1  0.33315143  0.74954478  0.83323018  1
  Mn  Mn102  1  0.66719756  0.25225039  0.16296734  1
  Mn  Mn103  1  0.66838414  0.24751498  0.49570093  1
  Mn  Mn104  1  0.66854606  0.24832965  0.83127138  1
  Mn  Mn105  1  0.66912819  0.74783196  0.16424719  1
  Mn  Mn106  1  0.66570222  0.74962194  0.49680156  1
  Mn  Mn107  1  0.66838034  0.75029128  0.83056432  1
  Mn  Mn108  1  0.16647598  0.25094835  0.00037428  1
  Mn  Mn109  1  0.16570359  0.24974879  0.33348961  1
  Mn  Mn110  1  0.16872198  0.25044565  0.66893034  1
  Mn  Mn111  1  0.16516769  0.74829046  0.00045196  1
  Mn  Mn112  1  0.16827140  0.74972817  0.33320073  1
  Mn  Mn113  1  0.16446680  0.74993356  0.66839662  1
  Mn  Mn114  1  0.49884321  0.25119978  -0.00261503  1
  Mn  Mn115  1  0.49984561  0.24721201  0.32921107  1
  Mn  Mn116  1  0.49970181  0.24896504  0.66748755  1
  Mn  Mn117  1  0.50105656  0.74705046  -0.00120444  1
  Mn  Mn118  1  0.49932145  0.75023691  0.33313903  1
  Mn  Mn119  1  0.50065324  0.74977755  0.66375550  1
  Mn  Mn120  1  0.83573860  0.25222214  0.00286036  1
  Mn  Mn121  1  0.83386333  0.24979523  0.33442108  1
  Mn  Mn122  1  0.83393070  0.24869065  0.66793994  1
  Mn  Mn123  1  0.83617869  0.74945359  -0.00113454  1
  Mn  Mn124  1  0.83051263  0.74939761  0.33322349  1
  Mn  Mn125  1  0.83256964  0.75074396  0.66749140  1
  Mn  Mn126  1  0.16548553  0.00015972  0.00112133  1
  Mn  Mn127  1  0.16738119  -0.00089338  0.33236019  1
  Mn  Mn128  1  0.16420386  -0.00082140  0.66998195  1
  Mn  Mn129  1  0.16658128  0.50049385  -0.00028392  1
  Mn  Mn130  1  0.16586787  0.50172968  0.33398962  1
  Mn  Mn131  1  0.16830800  0.49983017  0.66721637  1
  Mn  Mn132  1  0.49955452  0.00349119  -0.00057845  1
  Mn  Mn133  1  0.49952013  -0.00124856  0.33273284  1
  Mn  Mn134  1  0.49998371  -0.00044374  0.66512385  1
  Mn  Mn135  1  0.49957195  0.49746944  -0.00271913  1
  Mn  Mn136  1  0.50040430  0.50357505  0.33050841  1
  Mn  Mn137  1  0.50064930  0.50132481  0.66667149  1
  Mn  Mn138  1  0.83439713  0.00125634  -0.00013303  1
  Mn  Mn139  1  0.83010537  -0.00023067  0.33395939  1
  Mn  Mn140  1  0.83300608  -0.00144957  0.66735000  1
  Mn  Mn141  1  0.83684438  0.49847662  0.00203250  1
  Mn  Mn142  1  0.83489588  0.50180037  0.33392095  1
  Mn  Mn143  1  0.83341229  0.50218463  0.66761870  1
  O  O144  1  0.15908318  0.12490279  0.01801331  1
  O  O145  1  0.16686156  0.12339302  0.34271281  1
  O  O146  1  0.15867888  0.12296670  0.67894656  1
  O  O147  1  0.16047368  0.62366656  0.02876281  1
  O  O148  1  0.16425649  0.62689179  0.34873445  1
  O  O149  1  0.15919953  0.62734226  0.68851656  1
  O  O150  1  0.49996612  0.13127374  0.02339620  1
  O  O151  1  0.50650982  0.12051596  0.34003646  1
  O  O152  1  0.49182408  0.12378373  0.68845043  1
  O  O153  1  0.49636677  0.61999341  0.01397791  1
  O  O154  1  0.50461952  0.63042034  0.35560230  1
  O  O155  1  0.50381508  0.62810250  0.69048224  1
  O  O156  1  0.83617255  0.13132957  0.02945755  1
  O  O157  1  0.81865522  0.12706350  0.35564637  1
  O  O158  1  0.82559695  0.11985545  0.69435116  1
  O  O159  1  0.83653233  0.62266360  0.02683150  1
  O  O160  1  0.81805022  0.62623665  0.35730941  1
  O  O161  1  0.82429423  0.62938462  0.69436842  1
  O  O162  1  0.15553111  0.37697559  0.32653117  1
  O  O163  1  0.17015991  0.37519154  0.66180005  1
  O  O164  1  0.16359296  0.38000768  0.97467867  1
  O  O165  1  0.17351187  0.87307151  0.30801206  1
  O  O166  1  0.17074540  0.87375965  0.66047607  1
  O  O167  1  0.15847239  0.87115969  0.97766554  1
  O  O168  1  0.50654067  0.37452845  0.31046514  1
  O  O169  1  0.50006965  0.37472790  0.66050329  1
  O  O170  1  0.49224313  0.37437978  0.96919467  1
  O  O171  1  0.50263427  0.87511845  0.31758330  1
  O  O172  1  0.51025914  0.87385588  0.64096356  1
  O  O173  1  0.50751518  0.87420593  0.99092051  1
  O  O174  1  0.84748964  0.37481096  0.31240756  1
  O  O175  1  0.83575486  0.37644652  0.64188594  1
  O  O176  1  0.84881861  0.37556639  0.97412892  1
  O  O177  1  0.83063120  0.87223746  0.30748304  1
  O  O178  1  0.84134549  0.87444464  0.63858828  1
  O  O179  1  0.84801334  0.87157864  0.97564353  1
  O  O180  1  -0.00669498  0.37850478  0.19933390  1
  O  O181  1  -0.00923557  0.37688612  0.50768876  1
  O  O182  1  0.00209551  0.38060387  0.85965809  1
  O  O183  1  0.00163924  0.87414167  0.17993509  1
  O  O184  1  -0.01341323  0.87342875  0.52228776  1
  O  O185  1  -0.00172908  0.87242807  0.86458021  1
  O  O186  1  0.34232478  0.37590940  0.17878212  1
  O  O187  1  0.33353876  0.37672327  0.51116177  1
  O  O188  1  0.32907022  0.38017071  0.86013755  1
  O  O189  1  0.32616718  0.87219341  0.18820789  1
  O  O190  1  0.34086509  0.87391187  0.52419918  1
  O  O191  1  0.32354835  0.87233036  0.84350218  1
  O  O192  1  0.66651472  0.37563207  0.19194622  1
  O  O193  1  0.67058984  0.37731511  0.50576731  1
  O  O194  1  0.66358020  0.37514908  0.85028280  1
  O  O195  1  0.67339474  0.87543611  0.18522736  1
  O  O196  1  0.67161320  0.87359059  0.52470016  1
  O  O197  1  0.67218779  0.87492676  0.85693665  1
  O  O198  1  -0.00815227  0.12430215  0.14491935  1
  O  O199  1  -0.00848912  0.12384266  0.48050115  1
  O  O200  1  -0.00846076  0.11902919  0.80874988  1
  O  O201  1  -0.00619857  0.62307847  0.14402606  1
  O  O202  1  -0.00939602  0.62680961  0.47874587  1
  O  O203  1  -0.00637574  0.62819439  0.80889623  1
  O  O204  1  0.33655528  0.12738537  0.15021672  1
  O  O205  1  0.33340855  0.11887730  0.48095559  1
  O  O206  1  0.34015935  0.12426913  0.80849585  1
  O  O207  1  0.32554916  0.62288265  0.14285361  1
  O  O208  1  0.33928040  0.62965458  0.48119382  1
  O  O209  1  0.33753903  0.62388740  0.82149348  1
  O  O210  1  0.67673013  0.12788419  0.15428872  1
  O  O211  1  0.67540922  0.12016960  0.46918384  1
  O  O212  1  0.67904345  0.12252751  0.81140984  1
  O  O213  1  0.67545954  0.62069537  0.15437586  1
  O  O214  1  0.66790509  0.62879931  0.46783538  1
  O  O215  1  0.67664530  0.62731777  0.81110136  1
  O  O216  1  0.08415503  0.01497197  0.24660075  1
  O  O217  1  0.07603150  0.00479262  0.59353148  1
  O  O218  1  0.07612437  0.01234062  0.92366819  1
  O  O219  1  0.08714327  0.52464332  0.24372651  1
  O  O220  1  0.07964856  0.51743683  0.58103078  1
  O  O221  1  0.08706833  0.52832826  0.91531190  1
  O  O222  1  0.41638353  0.01708631  0.24949371  1
  O  O223  1  0.41949605  0.01045880  0.58221141  1
  O  O224  1  0.41911709  0.01748647  0.90947354  1
  O  O225  1  0.41791386  0.52224019  0.25087737  1
  O  O226  1  0.42388016  0.51438026  0.58020151  1
  O  O227  1  0.41393789  0.52027821  0.91982235  1
  O  O228  1  0.75671638  0.01798080  0.24286912  1
  O  O229  1  0.75656542  0.01642196  0.57412661  1
  O  O230  1  0.76030709  0.01191737  0.90529326  1
  O  O231  1  0.76210435  0.51210914  0.24449080  1
  O  O232  1  0.75236507  0.52245866  0.57341604  1
  O  O233  1  0.76024499  0.50744318  0.90978435  1
  O  O234  1  0.25425271  0.23654382  0.25148292  1
  O  O235  1  0.25415116  0.23459035  0.59279822  1
  O  O236  1  0.25170955  0.24467924  0.91917703  1
  O  O237  1  0.25537781  0.72574210  0.25423561  1
  O  O238  1  0.25217646  0.74382635  0.58674061  1
  O  O239  1  0.25228379  0.72573401  0.92685327  1
  O  O240  1  0.58111863  0.23094764  0.24104685  1
  O  O241  1  0.58845066  0.23193512  0.58624561  1
  O  O242  1  0.57807480  0.23771625  0.90952382  1
  O  O243  1  0.59228857  0.73685266  0.26022446  1
  O  O244  1  0.59041184  0.72511778  0.58316343  1
  O  O245  1  0.58439182  0.73348392  0.90821059  1
  O  O246  1  0.92040203  0.22386993  0.26030504  1
  O  O247  1  0.91759369  0.22495841  0.59094054  1
  O  O248  1  0.92074573  0.22721845  0.92599016  1
  O  O249  1  0.92030105  0.72484017  0.25976433  1
  O  O250  1  0.91786669  0.72523056  0.59375671  1
  O  O251  1  0.92477633  0.72305462  0.92470100  1
  O  O252  1  0.07260975  0.48310926  0.07523312  1
  O  O253  1  0.06890474  0.49474902  0.40638563  1
  O  O254  1  0.08748062  0.49071066  0.75869819  1
  O  O255  1  0.07876842  0.98111384  0.08225025  1
  O  O256  1  0.07749806  0.99453506  0.41402958  1
  O  O257  1  0.07739706  0.97571167  0.75566497  1
  O  O258  1  0.41969155  0.48000113  0.08094647  1
  O  O259  1  0.41888134  0.50044741  0.41544951  1
  O  O260  1  0.42001428  0.48515990  0.76290099  1
  O  O261  1  0.41467770  0.99716244  0.08513316  1
  O  O262  1  0.41298122  0.97808557  0.41415707  1
  O  O263  1  0.40634088  0.98408084  0.74040074  1
  O  O264  1  0.74919969  0.47159815  0.07608840  1
  O  O265  1  0.74690796  0.47914633  0.40640935  1
  O  O266  1  0.75324575  0.48320761  0.74987893  1
  O  O267  1  0.74922539  0.97656103  0.07582363  1
  O  O268  1  0.74143825  0.97257618  0.40849267  1
  O  O269  1  0.74598967  0.97286495  0.74209364  1
  O  O270  1  0.25355975  0.26522176  0.07896065  1
  O  O271  1  0.24797268  0.25206629  0.41552086  1
  O  O272  1  0.25223951  0.26623122  0.75485122  1
  O  O273  1  0.23435316  0.76339813  0.09549758  1
  O  O274  1  0.25402018  0.76432507  0.41261719  1
  O  O275  1  0.23874220  0.75968401  0.76046775  1
  O  O276  1  0.58342868  0.27801533  0.07474225  1
  O  O277  1  0.59047562  0.25750224  0.40319444  1
  O  O278  1  0.58300727  0.25264770  0.75098778  1
  O  O279  1  0.58695756  0.75742528  0.08099385  1
  O  O280  1  0.57702398  0.77360604  0.42403558  1
  O  O281  1  0.58753535  0.76364201  0.74153486  1
  O  O282  1  0.91276755  0.27433908  0.09359191  1
  O  O283  1  0.90691859  0.26402105  0.42459788  1
  O  O284  1  0.91189150  0.26350824  0.76323615  1
  O  O285  1  0.90847869  0.76623843  0.09218381  1
  O  O286  1  0.89867722  0.76146069  0.42736963  1
  O  O287  1  0.91150169  0.77219901  0.75851615  1
  O  O288  1  0.25409455  0.48447694  0.07532626  1
  O  O289  1  0.24909944  0.50189834  0.41483945  1
  O  O290  1  0.25093947  0.48765259  0.76009634  1
  O  O291  1  0.23951593  0.98481778  0.09322741  1
  O  O292  1  0.25280491  0.98236652  0.41442692  1
  O  O293  1  0.24399980  0.98379033  0.75578726  1
  O  O294  1  0.58258863  0.47412887  0.07577548  1
  O  O295  1  0.58761132  0.49068858  0.40910006  1
  O  O296  1  0.58328221  0.49407525  0.75032553  1
  O  O297  1  0.58758504  0.99241400  0.08335403  1
  O  O298  1  0.58018042  0.97642129  0.42126528  1
  O  O299  1  0.58596584  0.99128077  0.74596600  1
  O  O300  1  0.91030789  0.47889642  0.09563847  1
  O  O301  1  0.90531772  0.48835067  0.42573355  1
  O  O302  1  0.91237014  0.48821602  0.76486154  1
  O  O303  1  0.91254921  0.98193700  0.09045768  1
  O  O304  1  0.89988956  0.98812560  0.42797952  1
  O  O305  1  0.91289651  0.97316821  0.75609619  1
  O  O306  1  0.07489387  0.26565841  0.07912518  1
  O  O307  1  0.06994348  0.25586163  0.40957644  1
  O  O308  1  0.08712864  0.26304669  0.75690329  1
  O  O309  1  0.07330733  0.76607852  0.07255767  1
  O  O310  1  0.07854681  0.75510666  0.41149478  1
  O  O311  1  0.07446630  0.77367105  0.75006361  1
  O  O312  1  0.42019649  0.27156030  0.08217267  1
  O  O313  1  0.41722046  0.25107947  0.41016674  1
  O  O314  1  0.42266282  0.26677392  0.75978579  1
  O  O315  1  0.40960551  0.75063030  0.08059256  1
  O  O316  1  0.41312820  0.77213502  0.41074158  1
  O  O317  1  0.41012624  0.76828296  0.73594806  1
  O  O318  1  0.74942097  0.27999377  0.07809453  1
  O  O319  1  0.74927290  0.27444334  0.40806825  1
  O  O320  1  0.75396210  0.26638000  0.75048711  1
  O  O321  1  0.74916440  0.77405193  0.07171522  1
  O  O322  1  0.73929958  0.77482553  0.40660186  1
  O  O323  1  0.74643212  0.77778088  0.74167973  1
  O  O324  1  0.25716858  0.01588455  0.25622030  1
  O  O325  1  0.25849857  0.00921597  0.59309738  1
  O  O326  1  0.25055596  0.00935634  0.92195109  1
  O  O327  1  0.25130014  0.51860998  0.24995098  1
  O  O328  1  0.24955243  0.51080267  0.58224459  1
  O  O329  1  0.25122188  0.52425361  0.91738938  1
  O  O330  1  0.59105787  0.01529769  0.25128484  1
  O  O331  1  0.59609779  0.01668869  0.58815770  1
  O  O332  1  0.58370874  0.01689036  0.90967515  1
  O  O333  1  0.58629819  0.51665322  0.24964358  1
  O  O334  1  0.58836832  0.52457349  0.57794890  1
  O  O335  1  0.57881506  0.51124829  0.90915963  1
  O  O336  1  0.91913260  0.02393017  0.25811133  1
  O  O337  1  0.91908297  0.02463250  0.59433715  1
  O  O338  1  0.91853387  0.02658751  0.92252281  1
  O  O339  1  0.92283773  0.52775161  0.26149175  1
  O  O340  1  0.91704143  0.52632332  0.58976858  1
  O  O341  1  0.92503688  0.52335526  0.92702337  1
  O  O342  1  0.08224697  0.23137533  0.24834498  1
  O  O343  1  0.07841722  0.23860491  0.58714190  1
  O  O344  1  0.07800266  0.23802258  0.92279249  1
  O  O345  1  0.08971570  0.73206301  0.24095850  1
  O  O346  1  0.08072490  0.73724429  0.58812235  1
  O  O347  1  0.09029329  0.72508780  0.90940204  1
  O  O348  1  0.41888791  0.22787375  0.24618440  1
  O  O349  1  0.41309372  0.23609418  0.59146506  1
  O  O350  1  0.41608734  0.22847643  0.91803827  1
  O  O351  1  0.41641891  0.73035626  0.25145600  1
  O  O352  1  0.43135248  0.73649651  0.56995373  1
  O  O353  1  0.42049207  0.73146575  0.91216813  1
  O  O354  1  0.75811369  0.23849693  0.24648957  1
  O  O355  1  0.75346032  0.22952049  0.57765389  1
  O  O356  1  0.75839379  0.24385052  0.91173443  1
  O  O357  1  0.75948824  0.73142810  0.24102953  1
  O  O358  1  0.75450379  0.73132978  0.57365123  1
  O  O359  1  0.76530492  0.73723384  0.90555579  1
