# generated using pymatgen
data_Ba17Sr5La8Pr42Mn72O216
_symmetry_space_group_name_H-M   'P 1'
_cell_length_a   16.68479419
_cell_length_b   15.71085350
_cell_length_c   16.82806622
_cell_angle_alpha   90.00075513
_cell_angle_beta   89.97217150
_cell_angle_gamma   90.00088212
_symmetry_Int_Tables_number   1
_chemical_formula_structural   Ba17Sr5La8Pr42Mn72O216
_chemical_formula_sum   'Ba17 Sr5 La8 Pr42 Mn72 O216'
_cell_volume   4411.18014165
_cell_formula_units_Z   1
loop_
 _symmetry_equiv_pos_site_id
 _symmetry_equiv_pos_as_xyz
  1  'x, y, z'
loop_
 _atom_site_type_symbol
 _atom_site_label
 _atom_site_symmetry_multiplicity
 _atom_site_fract_x
 _atom_site_fract_y
 _atom_site_fract_z
 _atom_site_occupancy
  Ba  Ba0  1  0.16953385  0.87597900  0.16666409  1
  Ba  Ba1  1  0.83670108  0.37449920  0.83827991  1
  Ba  Ba2  1  0.49621415  0.62408058  0.83237487  1
  Ba  Ba3  1  0.83331626  0.12469488  0.83764934  1
  Ba  Ba4  1  0.82658170  0.62382605  0.17001610  1
  Ba  Ba5  1  0.33303463  0.12643298  0.32929431  1
  Ba  Ba6  1  0.00068226  0.37718462  0.67104911  1
  Ba  Ba7  1  0.00358579  0.87323668  0.66669377  1
  Ba  Ba8  1  -0.00019832  0.12466673  1.00005998  1
  Ba  Ba9  1  0.49733910  0.12534644  0.83059241  1
  Ba  Ba10  1  0.33057890  0.12593145  0.66300512  1
  Ba  Ba11  1  0.66819439  0.87540753  0.66705799  1
  Ba  Ba12  1  0.00257226  0.37552621  0.33528618  1
  Ba  Ba13  1  0.82766196  0.62329243  0.50045545  1
  Ba  Ba14  1  0.50431944  0.87733416  0.16711293  1
  Ba  Ba15  1  0.33012177  0.62693052  0.99544803  1
  Ba  Ba16  1  0.50107452  0.37544453  0.83281723  1
  Sr  Sr17  1  0.16355014  0.12510423  0.83179819  1
  Sr  Sr18  1  0.49624075  0.12549055  0.16376914  1
  Sr  Sr19  1  0.15991717  0.62508811  0.83426469  1
  Sr  Sr20  1  0.66902706  0.37301536  0.00107386  1
  Sr  Sr21  1  0.00320705  0.37263271  0.00166182  1
  La  La22  1  0.33852775  0.87477640  0.66380159  1
  La  La23  1  0.15512663  0.62647208  0.16658250  1
  La  La24  1  0.34083625  0.37396924  0.32853141  1
  La  La25  1  0.17023236  0.87662445  0.83303834  1
  La  La26  1  0.49639073  0.12421559  0.50312983  1
  La  La27  1  0.33071166  0.12093594  0.99188509  1
  La  La28  1  0.50516665  0.37165947  0.49919843  1
  La  La29  1  0.50211563  0.87372182  0.83344434  1
  Pr  Pr30  1  0.83072464  0.12751494  0.50631739  1
  Pr  Pr31  1  0.50501906  0.36979654  0.15945103  1
  Pr  Pr32  1  0.15623059  0.12608237  0.50437954  1
  Pr  Pr33  1  0.16706422  0.37347089  0.83408166  1
  Pr  Pr34  1  -0.00816696  0.62661743  1.00143251  1
  Pr  Pr35  1  0.66332775  0.12585855  0.99887878  1
  Pr  Pr36  1  0.84076971  0.37644189  0.50224703  1
  Pr  Pr37  1  0.01227712  0.87134052  0.34085116  1
  Pr  Pr38  1  -0.00521805  0.12313338  0.33035165  1
  Pr  Pr39  1  0.32481942  0.62070653  0.66608013  1
  Pr  Pr40  1  0.33548906  0.37443299  0.66810467  1
  Pr  Pr41  1  0.49211846  0.62653292  0.50339052  1
  Pr  Pr42  1  -0.01440098  0.62542936  0.32984122  1
  Pr  Pr43  1  0.49543142  0.62033326  0.16465268  1
  Pr  Pr44  1  0.82877134  0.13135850  0.16875427  1
  Pr  Pr45  1  0.34124563  0.87367762  -0.00224053  1
  Pr  Pr46  1  0.17751893  0.37466819  0.49571488  1
  Pr  Pr47  1  0.15348364  0.62317538  0.50312527  1
  Pr  Pr48  1  0.50835753  0.88037570  0.49593235  1
  Pr  Pr49  1  -0.00471840  0.12528689  0.67145408  1
  Pr  Pr50  1  0.67150208  0.37653941  0.67435347  1
  Pr  Pr51  1  0.67291788  0.37446657  0.33339475  1
  Pr  Pr52  1  0.82868884  0.62663038  0.83642914  1
  Pr  Pr53  1  0.65771619  0.62205722  0.66575721  1
  Pr  Pr54  1  0.66077130  0.62410886  1.00050590  1
  Pr  Pr55  1  0.33973123  0.37600125  -0.00379874  1
  Pr  Pr56  1  0.83847155  0.87386241  0.16689770  1
  Pr  Pr57  1  0.84453579  0.87662308  0.83195076  1
  Pr  Pr58  1  0.84339120  0.37811194  0.15962431  1
  Pr  Pr59  1  0.18165064  0.87396542  0.49332676  1
  Pr  Pr60  1  0.16003047  0.12509731  0.16715485  1
  Pr  Pr61  1  0.17449096  0.37309596  0.15990774  1
  Pr  Pr62  1  0.67431885  0.87625400  0.34039785  1
  Pr  Pr63  1  0.66410223  0.13009361  0.66724281  1
  Pr  Pr64  1  0.66041087  0.12549404  0.33171291  1
  Pr  Pr65  1  0.34940151  0.87625562  0.33252426  1
  Pr  Pr66  1  0.67019319  0.87750627  0.00324298  1
  Pr  Pr67  1  0.65516077  0.62488829  0.33031409  1
  Pr  Pr68  1  0.00612344  0.87848620  -0.00033296  1
  Pr  Pr69  1  -0.01343206  0.62436872  0.66998664  1
  Pr  Pr70  1  0.32536816  0.62609119  0.32384360  1
  Pr  Pr71  1  0.84555954  0.87594253  0.49852676  1
  Mn  Mn72  1  -0.00157875  -0.00031540  0.16972143  1
  Mn  Mn73  1  0.00175750  0.00031474  0.49924363  1
  Mn  Mn74  1  0.00305337  -0.00050077  0.83374155  1
  Mn  Mn75  1  0.00134291  0.49970954  0.16785437  1
  Mn  Mn76  1  -0.00032335  0.49971527  0.50091815  1
  Mn  Mn77  1  0.00114127  0.50235339  0.83718280  1
  Mn  Mn78  1  0.33306543  0.00030232  0.16292244  1
  Mn  Mn79  1  0.33474458  0.00011317  0.49667318  1
  Mn  Mn80  1  0.33161810  -0.00170325  0.83019203  1
  Mn  Mn81  1  0.33192621  0.50085270  0.16527606  1
  Mn  Mn82  1  0.33343955  0.50088491  0.49532752  1
  Mn  Mn83  1  0.32885371  0.49956750  0.83156109  1
  Mn  Mn84  1  0.66924309  0.00130057  0.16868866  1
  Mn  Mn85  1  0.67033694  0.00259212  0.49973915  1
  Mn  Mn86  1  0.66656496  -0.00113008  0.83595842  1
  Mn  Mn87  1  0.66424905  0.49858770  0.16837140  1
  Mn  Mn88  1  0.66420783  0.49721528  0.50009559  1
  Mn  Mn89  1  0.66764075  0.50060939  0.83480906  1
  Mn  Mn90  1  0.00122124  0.24914965  0.16948409  1
  Mn  Mn91  1  0.00058119  0.25028247  0.50141340  1
  Mn  Mn92  1  0.00261862  0.25103859  0.83602763  1
  Mn  Mn93  1  -0.00204149  0.75299672  0.16830276  1
  Mn  Mn94  1  0.00102114  0.74776559  0.50196610  1
  Mn  Mn95  1  0.00158418  0.74887456  0.83530858  1
  Mn  Mn96  1  0.33247092  0.24920393  0.16167865  1
  Mn  Mn97  1  0.33423405  0.25170867  0.49659784  1
  Mn  Mn98  1  0.33068056  0.24988875  0.83123286  1
  Mn  Mn99  1  0.33321650  0.75091688  0.16481663  1
  Mn  Mn100  1  0.33436412  0.74635326  0.49615579  1
  Mn  Mn101  1  0.33044263  0.75151144  0.82955859  1
  Mn  Mn102  1  0.66703844  0.24917080  0.16815938  1
  Mn  Mn103  1  0.66889046  0.25182248  0.49985587  1
  Mn  Mn104  1  0.66684572  0.24979534  0.83504719  1
  Mn  Mn105  1  0.66518458  0.75141209  0.16914099  1
  Mn  Mn106  1  0.66659384  0.74886507  0.49951154  1
  Mn  Mn107  1  0.66714873  0.75030085  0.83582538  1
  Mn  Mn108  1  0.16890145  0.25039178  -0.00136758  1
  Mn  Mn109  1  0.16740976  0.25037563  0.33243353  1
  Mn  Mn110  1  0.16454805  0.25040706  0.66506371  1
  Mn  Mn111  1  0.16510146  0.74978176  -0.00124049  1
  Mn  Mn112  1  0.16905926  0.74773991  0.33469302  1
  Mn  Mn113  1  0.16683070  0.74827408  0.66488359  1
  Mn  Mn114  1  0.49954187  0.24911966  -0.00033194  1
  Mn  Mn115  1  0.50228490  0.25163732  0.32987792  1
  Mn  Mn116  1  0.50062770  0.25024099  0.66332507  1
  Mn  Mn117  1  0.50236343  0.75115254  -0.00008056  1
  Mn  Mn118  1  0.50160544  0.74812530  0.33525159  1
  Mn  Mn119  1  0.49828871  0.74993391  0.66433093  1
  Mn  Mn120  1  0.83339680  0.25123489  0.00383074  1
  Mn  Mn121  1  0.83233436  0.24959879  0.33685072  1
  Mn  Mn122  1  0.83334627  0.24826679  0.66849427  1
  Mn  Mn123  1  0.83146790  0.75152802  0.00046516  1
  Mn  Mn124  1  0.83130539  0.75193927  0.33429637  1
  Mn  Mn125  1  0.83021113  0.75098383  0.66876831  1
  Mn  Mn126  1  0.16810381  -0.00088092  -0.00114317  1
  Mn  Mn127  1  0.16889730  0.00081193  0.33432186  1
  Mn  Mn128  1  0.16621914  -0.00086525  0.66359316  1
  Mn  Mn129  1  0.16505358  0.50053769  -0.00064586  1
  Mn  Mn130  1  0.16769981  0.50095390  0.33271769  1
  Mn  Mn131  1  0.16490454  0.50123320  0.66594631  1
  Mn  Mn132  1  0.50119202  0.00057239  -0.00093907  1
  Mn  Mn133  1  0.50341351  0.00291773  0.33100055  1
  Mn  Mn134  1  0.50088716  -0.00131331  0.66524507  1
  Mn  Mn135  1  0.50090894  0.49806029  0.00083792  1
  Mn  Mn136  1  0.50003844  0.49768982  0.33389544  1
  Mn  Mn137  1  0.49794253  0.50049664  0.66315939  1
  Mn  Mn138  1  0.83223185  -0.00275428  0.00282951  1
  Mn  Mn139  1  0.83393074  0.00193837  0.33458746  1
  Mn  Mn140  1  0.83238900  -0.00016062  0.66771759  1
  Mn  Mn141  1  0.83325258  0.50179657  0.00232645  1
  Mn  Mn142  1  0.82988876  0.49718880  0.33412094  1
  Mn  Mn143  1  0.83000656  0.50150150  0.66950651  1
  O  O144  1  0.17708382  0.12517623  0.02229549  1
  O  O145  1  0.16414471  0.12200566  0.36025990  1
  O  O146  1  0.16262191  0.12482727  0.68070368  1
  O  O147  1  0.16268241  0.62548966  0.02237139  1
  O  O148  1  0.17889619  0.62440260  0.36037514  1
  O  O149  1  0.17779602  0.62412095  0.68427011  1
  O  O150  1  0.49298242  0.12489863  0.01437817  1
  O  O151  1  0.50510986  0.12726299  0.35725160  1
  O  O152  1  0.50301829  0.12493654  0.67188100  1
  O  O153  1  0.50522209  0.62426580  0.02126781  1
  O  O154  1  0.50285907  0.62022094  0.36030490  1
  O  O155  1  0.50431011  0.62572212  0.67461770  1
  O  O156  1  0.82636803  0.12219515  0.02500840  1
  O  O157  1  0.83425761  0.12411175  0.36353393  1
  O  O158  1  0.83240869  0.12303952  0.67816348  1
  O  O159  1  0.83735377  0.62901030  0.01664110  1
  O  O160  1  0.83383611  0.62419804  0.34364706  1
  O  O161  1  0.82912161  0.62782253  0.68890288  1
  O  O162  1  0.17042327  0.37980767  0.30492477  1
  O  O163  1  0.16821520  0.37848817  0.63798241  1
  O  O164  1  0.16604681  0.37641577  0.98025533  1
  O  O165  1  0.16019335  0.87326043  0.32351734  1
  O  O166  1  0.17072582  0.87213253  0.63697860  1
  O  O167  1  0.15735459  0.87296739  0.97948553  1
  O  O168  1  0.50540393  0.37686036  0.30442022  1
  O  O169  1  0.50173870  0.37712876  0.64405737  1
  O  O170  1  0.49994728  0.37432697  0.99244317  1
  O  O171  1  0.50692279  0.87696712  0.32583964  1
  O  O172  1  0.49654299  0.87121647  0.64014739  1
  O  O173  1  0.50863167  0.87566975  0.98033957  1
  O  O174  1  0.82562386  0.37176586  0.30650157  1
  O  O175  1  0.82540513  0.37336445  0.64667443  1
  O  O176  1  0.83394088  0.37818536  0.99685726  1
  O  O177  1  0.82660150  0.87952589  0.31074975  1
  O  O178  1  0.83352768  0.87594289  0.64299082  1
  O  O179  1  0.82082130  0.87133107  0.97321852  1
  O  O180  1  -0.00120232  0.37316056  0.17804179  1
  O  O181  1  -0.00616622  0.37617790  0.51399869  1
  O  O182  1  0.00686905  0.37980281  0.85020681  1
  O  O183  1  -0.00618918  0.87984406  0.19641778  1
  O  O184  1  -0.00474976  0.87434588  0.50981918  1
  O  O185  1  -0.00400547  0.87128578  0.85417418  1
  O  O186  1  0.32452359  0.37751579  0.18709985  1
  O  O187  1  0.32700250  0.37868001  0.52260948  1
  O  O188  1  0.32249889  0.37394843  0.85024461  1
  O  O189  1  0.33317116  0.87270914  0.18955809  1
  O  O190  1  0.33031288  0.87109964  0.51816871  1
  O  O191  1  0.32250366  0.87485280  0.85058314  1
  O  O192  1  0.65610405  0.37363582  0.19084422  1
  O  O193  1  0.65781035  0.37311350  0.53028366  1
  O  O194  1  0.66635902  0.37639639  0.84572540  1
  O  O195  1  0.67121052  0.88023346  0.19559695  1
  O  O196  1  0.65652057  0.87760693  0.50876158  1
  O  O197  1  0.65697360  0.87376595  0.85946779  1
  O  O198  1  0.00437189  0.12298766  0.15753640  1
  O  O199  1  0.00483555  0.12428099  0.47347012  1
  O  O200  1  0.00546622  0.12286449  0.81653109  1
  O  O201  1  0.00257152  0.62537327  0.14891002  1
  O  O202  1  0.00445557  0.62322770  0.47362380  1
  O  O203  1  0.00375875  0.62774975  0.81360309  1
  O  O204  1  0.33231628  0.12714701  0.13881098  1
  O  O205  1  0.34245386  0.12675706  0.48676626  1
  O  O206  1  0.33098955  0.12293882  0.82227293  1
  O  O207  1  0.34536519  0.62597165  0.15496654  1
  O  O208  1  0.34404560  0.62240376  0.46632534  1
  O  O209  1  0.33003095  0.62710126  0.81089604  1
  O  O210  1  0.68039708  0.12436228  0.14297400  1
  O  O211  1  0.67973763  0.12901760  0.47321998  1
  O  O212  1  0.66825912  0.12218942  0.81314024  1
  O  O213  1  0.66157043  0.62204347  0.14620918  1
  O  O214  1  0.66184405  0.61958020  0.47370541  1
  O  O215  1  0.67588248  0.62681968  0.81026430  1
  O  O216  1  0.07739066  0.01709461  0.26254301  1
  O  O217  1  0.07572099  0.02265491  0.58817101  1
  O  O218  1  0.08340475  0.00449808  0.91674465  1
  O  O219  1  0.07790983  0.52696603  0.26211253  1
  O  O220  1  0.07571283  0.52565679  0.59356852  1
  O  O221  1  0.07137299  0.51919323  0.93244998  1
  O  O222  1  0.41705573  0.00756800  0.25273515  1
  O  O223  1  0.41805811  0.00471948  0.57827560  1
  O  O224  1  0.41038701  0.00087006  0.91783740  1
  O  O225  1  0.40901486  0.51483887  0.26098910  1
  O  O226  1  0.40753842  0.52075105  0.58300350  1
  O  O227  1  0.41126809  0.50111432  0.92147894  1
  O  O228  1  0.74604677  0.02510639  0.25966981  1
  O  O229  1  0.74496087  0.02192132  0.58667407  1
  O  O230  1  0.73969281  0.01301876  0.93177648  1
  O  O231  1  0.73294249  0.51015781  0.26426729  1
  O  O232  1  0.73332214  0.51260437  0.59349744  1
  O  O233  1  0.74912327  0.52203011  0.92265855  1
  O  O234  1  0.24013686  0.23446821  0.23330191  1
  O  O235  1  0.23734179  0.23806862  0.57133208  1
  O  O236  1  0.24765169  0.23449499  0.91389919  1
  O  O237  1  0.24014308  0.72653888  0.24189435  1
  O  O238  1  0.24195391  0.72903912  0.56171391  1
  O  O239  1  0.23844343  0.74306387  0.90232387  1
  O  O240  1  0.58394240  0.22758456  0.24882701  1
  O  O241  1  0.58483047  0.22589198  0.57469441  1
  O  O242  1  0.58439454  0.23511576  0.92100997  1
  O  O243  1  0.57072200  0.72431600  0.24396300  1
  O  O244  1  0.57295288  0.73392190  0.57022838  1
  O  O245  1  0.58482376  0.73129158  0.91825415  1
  O  O246  1  0.91140514  0.22853638  0.25424401  1
  O  O247  1  0.91359740  0.22941192  0.58089855  1
  O  O248  1  0.91643550  0.24542485  0.92243632  1
  O  O249  1  0.91093573  0.74146995  0.24752034  1
  O  O250  1  0.91373390  0.73562578  0.58251257  1
  O  O251  1  0.90836170  0.73264647  0.91174378  1
  O  O252  1  0.09547079  0.48711728  0.09789474  1
  O  O253  1  0.10051624  0.48600657  0.42784510  1
  O  O254  1  0.09430842  0.48842397  0.76249679  1
  O  O255  1  0.08407183  0.98867674  0.08270233  1
  O  O256  1  0.09328071  0.98051082  0.42757774  1
  O  O257  1  0.09222787  0.98426641  0.75391608  1
  O  O258  1  0.42189300  0.48123767  0.09380179  1
  O  O259  1  0.42648574  0.47241161  0.42264028  1
  O  O260  1  0.41318781  0.48780939  0.74135939  1
  O  O261  1  0.41715971  0.98351530  0.07746096  1
  O  O262  1  0.42416666  0.98174527  0.41941152  1
  O  O263  1  0.41676175  0.97668842  0.75186938  1
  O  O264  1  0.75316215  0.48269036  0.09474102  1
  O  O265  1  0.75247647  0.47149610  0.42812187  1
  O  O266  1  0.75017946  0.48635514  0.75152578  1
  O  O267  1  0.75710244  0.97564877  0.09323775  1
  O  O268  1  0.76083817  0.97785422  0.42550343  1
  O  O269  1  0.75601071  0.97956854  0.76478388  1
  O  O270  1  0.25744026  0.27421506  0.07424327  1
  O  O271  1  0.25601667  0.27315544  0.40575131  1
  O  O272  1  0.25040538  0.27295465  0.74206618  1
  O  O273  1  0.25581875  0.76689448  0.06943914  1
  O  O274  1  0.26692261  0.76891884  0.40088572  1
  O  O275  1  0.26026211  0.76600574  0.73241364  1
  O  O276  1  0.58448651  0.25806828  0.08526788  1
  O  O277  1  0.59170294  0.27008976  0.41392807  1
  O  O278  1  0.58828394  0.26007455  0.73756405  1
  O  O279  1  0.59599289  0.76416902  0.07720748  1
  O  O280  1  0.59752771  0.76165817  0.40355327  1
  O  O281  1  0.58589881  0.76044030  0.75156110  1
  O  O282  1  0.91471197  0.25843273  0.09146306  1
  O  O283  1  0.91388878  0.26224939  0.42162219  1
  O  O284  1  0.92055599  0.25193361  0.74639172  1
  O  O285  1  0.91944959  0.77593460  0.07416366  1
  O  O286  1  0.92515985  0.76565056  0.40842419  1
  O  O287  1  0.92045040  0.75841325  0.75147399  1
  O  O288  1  0.25581939  0.48031432  0.07422248  1
  O  O289  1  0.26192401  0.47843031  0.40377015  1
  O  O290  1  0.25517351  0.48040124  0.73556955  1
  O  O291  1  0.25831235  0.98239043  0.06928559  1
  O  O292  1  0.26029906  0.97652378  0.40632822  1
  O  O293  1  0.25397091  0.97857311  0.73951519  1
  O  O294  1  0.58403312  0.48433853  0.08718822  1
  O  O295  1  0.59119058  0.47520915  0.40814391  1
  O  O296  1  0.58991966  0.49150756  0.73793585  1
  O  O297  1  0.59576564  0.99147296  0.07761100  1
  O  O298  1  0.59368727  0.99194575  0.41010986  1
  O  O299  1  0.58181950  0.98646229  0.75229209  1
  O  O300  1  0.92242880  0.48913736  0.08094408  1
  O  O301  1  0.91445584  0.48757928  0.41738635  1
  O  O302  1  0.91981953  0.50133853  0.75205670  1
  O  O303  1  0.91722034  0.97327300  0.08169521  1
  O  O304  1  0.92659088  0.98006072  0.40569430  1
  O  O305  1  0.92095516  0.98963025  0.74963041  1
  O  O306  1  0.09583181  0.26065683  0.09207450  1
  O  O307  1  0.09411299  0.26507662  0.43146578  1
  O  O308  1  0.09177583  0.26425989  0.75526129  1
  O  O309  1  0.08231834  0.76161542  0.08991879  1
  O  O310  1  0.09721170  0.76331151  0.42958599  1
  O  O311  1  0.09391460  0.76493127  0.76446025  1
  O  O312  1  0.41760705  0.27258942  0.08437403  1
  O  O313  1  0.42349867  0.27363878  0.41295555  1
  O  O314  1  0.41239944  0.26512275  0.74371698  1
  O  O315  1  0.42064608  0.76508801  0.08141696  1
  O  O316  1  0.43195648  0.76947659  0.42994673  1
  O  O317  1  0.41955678  0.77285570  0.75174365  1
  O  O318  1  0.75630983  0.26914363  0.09835186  1
  O  O319  1  0.75407944  0.27877491  0.42385370  1
  O  O320  1  0.74708388  0.25985341  0.74548535  1
  O  O321  1  0.75679042  0.77275307  0.08998797  1
  O  O322  1  0.76035830  0.77422750  0.42740981  1
  O  O323  1  0.76024111  0.76868399  0.76720416  1
  O  O324  1  0.24018747  0.01877334  0.23986807  1
  O  O325  1  0.23967925  0.01208231  0.56705276  1
  O  O326  1  0.24658692  0.01138475  0.91125073  1
  O  O327  1  0.24205011  0.52374173  0.23933445  1
  O  O328  1  0.24328933  0.52147699  0.56894421  1
  O  O329  1  0.23636286  0.50864600  0.90705111  1
  O  O330  1  0.58416781  0.02407292  0.24707472  1
  O  O331  1  0.58434311  0.02154723  0.57477379  1
  O  O332  1  0.58354286  0.01754545  0.91896829  1
  O  O333  1  0.57321331  0.52397083  0.24629594  1
  O  O334  1  0.57228512  0.51827848  0.57062125  1
  O  O335  1  0.58804038  0.51531441  0.91980745  1
  O  O336  1  0.90665998  0.02567068  0.24728785  1
  O  O337  1  0.91263214  0.01846267  0.57151599  1
  O  O338  1  0.91370571  -0.00077422  0.91926269  1
  O  O339  1  0.91618221  0.50814679  0.24792917  1
  O  O340  1  0.91055330  0.51308284  0.58825785  1
  O  O341  1  0.91347901  0.52406737  0.91460128  1
  O  O342  1  0.07920111  0.22822818  0.25905540  1
  O  O343  1  0.07445981  0.22738555  0.59026972  1
  O  O344  1  0.08694672  0.24237935  0.91858615  1
  O  O345  1  0.07512067  0.73108159  0.26697019  1
  O  O346  1  0.07606137  0.72296359  0.59363969  1
  O  O347  1  0.06880732  0.73599798  0.93034751  1
  O  O348  1  0.41445799  0.24566689  0.24370642  1
  O  O349  1  0.42253787  0.24622509  0.57601027  1
  O  O350  1  0.40840958  0.24356311  0.92254013  1
  O  O351  1  0.40871987  0.73891897  0.26664551  1
  O  O352  1  0.40209422  0.72669295  0.58828968  1
  O  O353  1  0.41325106  0.75302941  0.91550275  1
  O  O354  1  0.74527707  0.22786389  0.25991522  1
  O  O355  1  0.74740282  0.23085485  0.58462770  1
  O  O356  1  0.74459227  0.23802264  0.93021040  1
  O  O357  1  0.73339221  0.73861320  0.26515609  1
  O  O358  1  0.73494062  0.73224518  0.59327760  1
  O  O359  1  0.74267112  0.72744233  0.92633298  1
