# generated using pymatgen
data_Ba17Sr5La8Pr42Mn72O216
_symmetry_space_group_name_H-M   'P 1'
_cell_length_a   16.66953897
_cell_length_b   15.70623554
_cell_length_c   16.81088758
_cell_angle_alpha   90.00518509
_cell_angle_beta   89.99951648
_cell_angle_gamma   89.99342962
_symmetry_Int_Tables_number   1
_chemical_formula_structural   Ba17Sr5La8Pr42Mn72O216
_chemical_formula_sum   'Ba17 Sr5 La8 Pr42 Mn72 O216'
_cell_volume   4401.35434472
_cell_formula_units_Z   1
loop_
 _symmetry_equiv_pos_site_id
 _symmetry_equiv_pos_as_xyz
  1  'x, y, z'
loop_
 _atom_site_type_symbol
 _atom_site_label
 _atom_site_symmetry_multiplicity
 _atom_site_fract_x
 _atom_site_fract_y
 _atom_site_fract_z
 _atom_site_occupancy
  Ba  Ba0  1  0.49936297  0.37393904  0.16306602  1
  Ba  Ba1  1  0.33046558  0.37620503  0.33619711  1
  Ba  Ba2  1  0.33432333  0.87391036  0.00301315  1
  Ba  Ba3  1  0.49948316  0.37685946  0.49478604  1
  Ba  Ba4  1  0.16640101  0.12571716  0.50495734  1
  Ba  Ba5  1  0.66639932  0.37535972  0.33169097  1
  Ba  Ba6  1  -0.00019084  0.87483955  0.67082450  1
  Ba  Ba7  1  0.66434747  0.12383457  0.66190914  1
  Ba  Ba8  1  0.83006512  0.12420046  0.49955870  1
  Ba  Ba9  1  0.83416081  0.62407167  0.83555057  1
  Ba  Ba10  1  0.66809749  0.62616213  0.99606538  1
  Ba  Ba11  1  0.16459754  0.12572851  0.83758590  1
  Ba  Ba12  1  0.50037282  0.62603647  0.49912512  1
  Ba  Ba13  1  0.17024445  0.62415603  0.83691105  1
  Ba  Ba14  1  0.83494950  0.62584846  0.16690099  1
  Ba  Ba15  1  0.16342440  0.12387349  0.17110456  1
  Ba  Ba16  1  0.50157283  0.87698790  0.16034539  1
  Sr  Sr17  1  0.34020899  0.62434937  0.99793148  1
  Sr  Sr18  1  0.50176402  0.62511374  0.83580499  1
  Sr  Sr19  1  0.33383130  0.37701052  0.00368004  1
  Sr  Sr20  1  0.67016975  0.87239113  -0.00146760  1
  Sr  Sr21  1  0.16578004  0.37508236  0.49983374  1
  La  La22  1  0.66132383  0.62269473  0.32581205  1
  La  La23  1  0.33224698  0.12579493  0.66400822  1
  La  La24  1  0.83368624  0.37689600  0.83249809  1
  La  La25  1  -0.00060358  0.37517112  0.33543836  1
  La  La26  1  0.66099283  0.12368593  0.99367140  1
  La  La27  1  0.00244625  0.37235348  0.66746675  1
  La  La28  1  0.83624107  0.87495208  0.16246856  1
  La  La29  1  -0.00347875  0.12516488  0.33381215  1
  Pr  Pr30  1  0.83177252  0.87130412  0.83156513  1
  Pr  Pr31  1  0.00180124  0.62422540  0.99594722  1
  Pr  Pr32  1  0.49007686  0.12483549  0.16371889  1
  Pr  Pr33  1  0.33495646  0.37641480  0.66764808  1
  Pr  Pr34  1  0.16067856  0.87309141  0.50186761  1
  Pr  Pr35  1  0.17421209  0.37898236  0.83470400  1
  Pr  Pr36  1  0.33206919  0.12579221  1.00069472  1
  Pr  Pr37  1  0.67143715  0.37849090  0.00167065  1
  Pr  Pr38  1  0.00211598  0.62416653  0.66472743  1
  Pr  Pr39  1  0.83234159  0.62327178  0.50290691  1
  Pr  Pr40  1  0.33511913  0.87412865  0.67220114  1
  Pr  Pr41  1  0.33982192  0.62285340  0.33209389  1
  Pr  Pr42  1  0.82752404  0.12358588  0.17112819  1
  Pr  Pr43  1  0.49414744  0.12364053  0.83100942  1
  Pr  Pr44  1  0.00563141  0.62542429  0.33032312  1
  Pr  Pr45  1  0.32939177  0.87661627  0.33668544  1
  Pr  Pr46  1  0.50118105  0.87723589  0.49220170  1
  Pr  Pr47  1  -0.00110283  0.87557278  0.33664939  1
  Pr  Pr48  1  -0.00321773  0.12479497  0.66229707  1
  Pr  Pr49  1  0.83662483  0.37382507  0.16293961  1
  Pr  Pr50  1  0.17475131  0.87079225  0.83334069  1
  Pr  Pr51  1  0.16550462  0.87366022  0.16581325  1
  Pr  Pr52  1  0.66882797  0.87384785  0.66579127  1
  Pr  Pr53  1  0.17340622  0.62534914  0.16699679  1
  Pr  Pr54  1  0.50382339  0.87222465  0.83271692  1
  Pr  Pr55  1  -0.00375481  0.12554633  1.00002181  1
  Pr  Pr56  1  0.50069503  0.62688680  0.16291121  1
  Pr  Pr57  1  0.66717853  0.62494635  0.66522429  1
  Pr  Pr58  1  0.83340907  0.87849826  0.49972892  1
  Pr  Pr59  1  0.00340740  0.87308700  -0.00151789  1
  Pr  Pr60  1  0.83165186  0.12246905  0.83251329  1
  Pr  Pr61  1  0.33579620  0.62471613  0.66794604  1
  Pr  Pr62  1  0.49584784  0.13014620  0.49910200  1
  Pr  Pr63  1  0.83081096  0.37087142  0.49569569  1
  Pr  Pr64  1  0.65531607  0.12577457  0.32901239  1
  Pr  Pr65  1  0.32953099  0.13086490  0.33336173  1
  Pr  Pr66  1  0.50232856  0.37713495  0.83033968  1
  Pr  Pr67  1  0.66703436  0.37473406  0.66280980  1
  Pr  Pr68  1  0.16920608  0.62157510  0.50572912  1
  Pr  Pr69  1  0.00553246  0.37697228  0.00067065  1
  Pr  Pr70  1  0.67266624  0.87217295  0.33102366  1
  Pr  Pr71  1  0.16837682  0.37526189  0.16706817  1
  Mn  Mn72  1  -0.00165795  -0.00167756  0.16668931  1
  Mn  Mn73  1  -0.00059941  -0.00093279  0.50146852  1
  Mn  Mn74  1  -0.00127856  0.00095393  0.83559576  1
  Mn  Mn75  1  0.00267285  0.50107827  0.16794822  1
  Mn  Mn76  1  -0.00199854  0.50091906  0.49912540  1
  Mn  Mn77  1  0.00141899  0.49727563  0.83380371  1
  Mn  Mn78  1  0.33066380  0.00067216  0.16968806  1
  Mn  Mn79  1  0.33268998  -0.00312849  0.50319798  1
  Mn  Mn80  1  0.33377920  0.00012511  0.83393692  1
  Mn  Mn81  1  0.33357574  0.50187826  0.16549210  1
  Mn  Mn82  1  0.33106682  0.50278689  0.50137861  1
  Mn  Mn83  1  0.33768568  0.49860349  0.83648829  1
  Mn  Mn84  1  0.66737635  0.00156890  0.16274593  1
  Mn  Mn85  1  0.66420897  -0.00331774  0.49637447  1
  Mn  Mn86  1  0.66628293  0.00006707  0.83052990  1
  Mn  Mn87  1  0.66785831  0.49917118  0.16454658  1
  Mn  Mn88  1  0.66829903  0.50280185  0.49790510  1
  Mn  Mn89  1  0.66645487  0.49654926  0.83156350  1
  Mn  Mn90  1  -0.00174415  0.25112754  0.16670886  1
  Mn  Mn91  1  -0.00061775  0.25144376  0.50112643  1
  Mn  Mn92  1  -0.00078818  0.25043265  0.83432434  1
  Mn  Mn93  1  0.00269445  0.74988496  0.16777844  1
  Mn  Mn94  1  -0.00207792  0.74918006  0.49945531  1
  Mn  Mn95  1  0.00095686  0.75009134  0.83470051  1
  Mn  Mn96  1  0.33066091  0.25113279  0.16597326  1
  Mn  Mn97  1  0.33096738  0.25009810  0.50117330  1
  Mn  Mn98  1  0.33449722  0.25120499  0.83538325  1
  Mn  Mn99  1  0.33315619  0.74805651  0.16821255  1
  Mn  Mn100  1  0.33189217  0.75132197  0.50235169  1
  Mn  Mn101  1  0.33773462  0.74934933  0.83496699  1
  Mn  Mn102  1  0.66780781  0.24878619  0.16202737  1
  Mn  Mn103  1  0.66548950  0.24913433  0.49717441  1
  Mn  Mn104  1  0.66714745  0.24877498  0.83174960  1
  Mn  Mn105  1  0.66759453  0.75129210  0.16489412  1
  Mn  Mn106  1  0.66765637  0.75072487  0.49838776  1
  Mn  Mn107  1  0.66621953  0.75193309  0.83112462  1
  Mn  Mn108  1  0.16629998  0.25020218  0.00282188  1
  Mn  Mn109  1  0.16309147  0.25024802  0.33668030  1
  Mn  Mn110  1  0.16746801  0.25295963  0.67123904  1
  Mn  Mn111  1  0.16704302  0.75010485  0.00179708  1
  Mn  Mn112  1  0.16681108  0.75046066  0.33548857  1
  Mn  Mn113  1  0.16732828  0.74845953  0.66797869  1
  Mn  Mn114  1  0.50051307  0.24852359  -0.00442049  1
  Mn  Mn115  1  0.49790320  0.24784629  0.33121934  1
  Mn  Mn116  1  0.49929265  0.25139322  0.66500732  1
  Mn  Mn117  1  0.50217790  0.74925911  -0.00179164  1
  Mn  Mn118  1  0.49862604  0.75258456  0.33012804  1
  Mn  Mn119  1  0.50103104  0.75021408  0.66571478  1
  Mn  Mn120  1  0.83566408  0.24799917  -0.00033699  1
  Mn  Mn121  1  0.83170989  0.24965794  0.33068014  1
  Mn  Mn122  1  0.83348703  0.25332664  0.66611834  1
  Mn  Mn123  1  0.83607262  0.75184509  -0.00068800  1
  Mn  Mn124  1  0.83409834  0.75015784  0.33529116  1
  Mn  Mn125  1  0.83350408  0.74755638  0.66634393  1
  Mn  Mn126  1  0.16515121  0.00007124  0.00274016  1
  Mn  Mn127  1  0.16494969  -0.00166665  0.33738441  1
  Mn  Mn128  1  0.16705452  -0.00069474  0.67108062  1
  Mn  Mn129  1  0.16823931  0.49956599  0.00224146  1
  Mn  Mn130  1  0.16570146  0.50271061  0.33609382  1
  Mn  Mn131  1  0.16727439  0.49903709  0.66825165  1
  Mn  Mn132  1  0.50130816  0.00148956  -0.00281572  1
  Mn  Mn133  1  0.49716162  -0.00201949  0.33012424  1
  Mn  Mn134  1  0.49891490  -0.00223597  0.66209388  1
  Mn  Mn135  1  0.50099300  0.49914863  -0.00301778  1
  Mn  Mn136  1  0.49953366  0.50128225  0.33085917  1
  Mn  Mn137  1  0.50104372  0.50035875  0.66719608  1
  Mn  Mn138  1  0.83537575  0.00120991  0.00023888  1
  Mn  Mn139  1  0.83140423  -0.00071052  0.33094334  1
  Mn  Mn140  1  0.83265438  -0.00118898  0.66726280  1
  Mn  Mn141  1  0.83685865  0.49845443  -0.00030643  1
  Mn  Mn142  1  0.83478143  0.50139779  0.33474268  1
  Mn  Mn143  1  0.83386704  0.50012622  0.66496180  1
  O  O144  1  0.16697008  0.12534788  0.01470835  1
  O  O145  1  0.16427929  0.12433626  0.34795997  1
  O  O146  1  0.16852317  0.12924677  0.68228373  1
  O  O147  1  0.15880828  0.62533315  0.02275916  1
  O  O148  1  0.15989804  0.62993673  0.36294799  1
  O  O149  1  0.15953835  0.62366405  0.68150777  1
  O  O150  1  0.50724514  0.12515347  0.01872301  1
  O  O151  1  0.50206596  0.11803391  0.35456893  1
  O  O152  1  0.49527693  0.12495611  0.68799965  1
  O  O153  1  0.50319679  0.62365006  0.01614397  1
  O  O154  1  0.50349708  0.63052843  0.34115692  1
  O  O155  1  0.50397707  0.62525882  0.68676969  1
  O  O156  1  0.84245485  0.12558336  0.02893964  1
  O  O157  1  0.84243941  0.12370168  0.34316417  1
  O  O158  1  0.83836127  0.13036014  0.68794665  1
  O  O159  1  0.84267812  0.62408459  0.01060931  1
  O  O160  1  0.83877511  0.62892482  0.35891767  1
  O  O161  1  0.82754605  0.62289661  0.68160230  1
  O  O162  1  0.15805755  0.37680470  0.31184452  1
  O  O163  1  0.16924694  0.37804932  0.64843846  1
  O  O164  1  0.16148843  0.37321319  0.97931025  1
  O  O165  1  0.16371321  0.87203545  0.30859023  1
  O  O166  1  0.17431581  0.86929665  0.64516792  1
  O  O167  1  0.15992590  0.87635005  0.97801066  1
  O  O168  1  0.49707592  0.37329492  0.32250331  1
  O  O169  1  0.49555508  0.37508557  0.65004918  1
  O  O170  1  0.50054193  0.36952971  0.97539809  1
  O  O171  1  0.48545927  0.87567280  0.31492434  1
  O  O172  1  0.49510314  0.87346025  0.63576307  1
  O  O173  1  0.50089073  0.88017054  0.97812707  1
  O  O174  1  0.83752978  0.37417198  0.30752043  1
  O  O175  1  0.83570264  0.37918676  0.63914885  1
  O  O176  1  0.83589321  0.36966905  0.97692495  1
  O  O177  1  0.83165721  0.87460433  0.30710954  1
  O  O178  1  0.82991827  0.86867093  0.64350903  1
  O  O179  1  0.84035011  0.88031090  0.97560636  1
  O  O180  1  0.00041564  0.37870870  0.19248262  1
  O  O181  1  -0.00593455  0.38022383  0.52370902  1
  O  O182  1  -0.00694406  0.37269722  0.85765168  1
  O  O183  1  0.00275742  0.87293669  0.19348246  1
  O  O184  1  -0.00213122  0.87320630  0.51485753  1
  O  O185  1  -0.01133007  0.87940383  0.85548503  1
  O  O186  1  0.32866154  0.37705922  0.17846408  1
  O  O187  1  0.33168572  0.37979141  0.52088248  1
  O  O188  1  0.34003610  0.37217972  0.85480476  1
  O  O189  1  0.32939195  0.87297040  0.19117605  1
  O  O190  1  0.34178046  0.87315638  0.52911535  1
  O  O191  1  0.33443874  0.87585734  0.84570061  1
  O  O192  1  0.67498277  0.37224915  0.17512615  1
  O  O193  1  0.67175448  0.37989415  0.51693467  1
  O  O194  1  0.66375896  0.36802411  0.85747378  1
  O  O195  1  0.67366179  0.87861808  0.18689057  1
  O  O196  1  0.66052236  0.87256154  0.52208592  1
  O  O197  1  0.66431991  0.87971153  0.84936254  1
  O  O198  1  -0.00789492  0.12213397  0.14358142  1
  O  O199  1  0.00006735  0.12192633  0.47906235  1
  O  O200  1  -0.00228141  0.12821259  0.80545195  1
  O  O201  1  0.00653961  0.62555846  0.13975493  1
  O  O202  1  -0.00444303  0.62597231  0.47258465  1
  O  O203  1  0.00238779  0.61960925  0.81040955  1
  O  O204  1  0.32998326  0.12623860  0.14690826  1
  O  O205  1  0.33436997  0.11699206  0.47807968  1
  O  O206  1  0.33762560  0.12503038  0.80666040  1
  O  O207  1  0.32304667  0.62537292  0.14835841  1
  O  O208  1  0.32208269  0.63077065  0.47662985  1
  O  O209  1  0.33882516  0.62501284  0.81124070  1
  O  O210  1  0.67703049  0.12536176  0.13853357  1
  O  O211  1  0.66119228  0.11728462  0.47524306  1
  O  O212  1  0.67626428  0.12502664  0.81625752  1
  O  O213  1  0.66079611  0.62518743  0.15630230  1
  O  O214  1  0.67706292  0.63034660  0.47250152  1
  O  O215  1  0.66533773  0.62434796  0.80896340  1
  O  O216  1  0.06706245  0.01288205  0.26011623  1
  O  O217  1  0.08106871  0.01210888  0.59452533  1
  O  O218  1  0.07019530  0.01325307  0.92930986  1
  O  O219  1  0.08972630  0.52470924  0.24621901  1
  O  O220  1  0.08002844  0.52087048  0.57964240  1
  O  O221  1  0.08181917  0.51043328  0.92301191  1
  O  O222  1  0.41233873  0.02576443  0.25130527  1
  O  O223  1  0.41538608  0.02424789  0.58299107  1
  O  O224  1  0.41466065  0.02488656  0.91561918  1
  O  O225  1  0.41668548  0.52400523  0.24452708  1
  O  O226  1  0.41100619  0.51720940  0.59111941  1
  O  O227  1  0.42032161  0.51285687  0.91422218  1
  O  O228  1  0.74131312  0.02044007  0.25692970  1
  O  O229  1  0.74615311  0.00047650  0.58344300  1
  O  O230  1  0.75100476  0.02036322  0.92248617  1
  O  O231  1  0.74832578  0.51631186  0.25695294  1
  O  O232  1  0.74952514  0.52193329  0.58274295  1
  O  O233  1  0.75198896  0.49828321  0.91375000  1
  O  O234  1  0.24790303  0.23940231  0.25665781  1
  O  O235  1  0.25639027  0.24105848  0.59445019  1
  O  O236  1  0.25467924  0.23849074  0.92281850  1
  O  O237  1  0.25392522  0.72905800  0.26113630  1
  O  O238  1  0.24836042  0.72688584  0.58478200  1
  O  O239  1  0.25058720  0.74297296  0.92016856  1
  O  O240  1  0.57749033  0.22604757  0.24144486  1
  O  O241  1  0.57619029  0.23687832  0.57547996  1
  O  O242  1  0.57690027  0.22570514  0.90545175  1
  O  O243  1  0.58332672  0.73991265  0.24822124  1
  O  O244  1  0.59149566  0.73418014  0.58829350  1
  O  O245  1  0.58154677  0.74450849  0.90806203  1
  O  O246  1  0.90602668  0.23583283  0.23835687  1
  O  O247  1  0.91871721  0.23656780  0.58593199  1
  O  O248  1  0.91095139  0.22427154  0.91105896  1
  O  O249  1  0.92756505  0.73695163  0.25893220  1
  O  O250  1  0.91753255  0.72492109  0.58625483  1
  O  O251  1  0.92537061  0.73781883  0.92530884  1
  O  O252  1  0.08284884  0.47616687  0.08568917  1
  O  O253  1  0.07360894  0.48685518  0.40977871  1
  O  O254  1  0.08437923  0.47434230  0.75329585  1
  O  O255  1  0.08453529  0.97761658  0.09070301  1
  O  O256  1  0.08455850  0.97594542  0.42028632  1
  O  O257  1  0.08949169  0.98063683  0.76529239  1
  O  O258  1  0.41621140  0.49628910  0.08082522  1
  O  O259  1  0.41025275  0.50177865  0.41375619  1
  O  O260  1  0.41880077  0.47921621  0.75098470  1
  O  O261  1  0.41779212  1.00192753  0.08357545  1
  O  O262  1  0.41356728  0.97770113  0.42039324  1
  O  O263  1  0.42066821  0.97908828  0.74901562  1
  O  O264  1  0.75575978  0.48058612  0.08252036  1
  O  O265  1  0.75891823  0.48690343  0.42481236  1
  O  O266  1  0.74775981  0.47459339  0.74583744  1
  O  O267  1  0.76293939  0.98495108  0.09187997  1
  O  O268  1  0.75075956  0.97453801  0.41704659  1
  O  O269  1  0.75222378  0.97748088  0.75203169  1
  O  O270  1  0.24680837  0.26884391  0.08659442  1
  O  O271  1  0.24703816  0.25823288  0.42187938  1
  O  O272  1  0.25169709  0.27561110  0.75398858  1
  O  O273  1  0.24030706  0.76345645  0.09592515  1
  O  O274  1  0.24463970  0.77912909  0.42223924  1
  O  O275  1  0.25603718  0.76553804  0.74832068  1
  O  O276  1  0.59514827  0.26172937  0.06705784  1
  O  O277  1  0.58459197  0.25017646  0.40946896  1
  O  O278  1  0.58496976  0.27104018  0.74251344  1
  O  O279  1  0.58651333  0.76043217  0.07824096  1
  O  O280  1  0.58277499  0.77302447  0.41240025  1
  O  O281  1  0.58365612  0.77521475  0.74604013  1
  O  O282  1  0.92439467  0.27390013  0.07610106  1
  O  O283  1  0.91684523  0.26867738  0.41066516  1
  O  O284  1  0.91827598  0.27376277  0.74640579  1
  O  O285  1  0.91957737  0.77191525  0.08697459  1
  O  O286  1  0.91201596  0.77453015  0.41978146  1
  O  O287  1  0.91085620  0.76178748  0.75536001  1
  O  O288  1  0.24134917  0.48646759  0.09348210  1
  O  O289  1  0.23815245  0.49258048  0.42613544  1
  O  O290  1  0.25576905  0.47957563  0.75358678  1
  O  O291  1  0.24489127  0.98292188  0.09375235  1
  O  O292  1  0.24884194  0.97052279  0.42699296  1
  O  O293  1  0.25157014  0.97836163  0.75217302  1
  O  O294  1  0.58943454  0.48271504  0.07272046  1
  O  O295  1  0.58876792  0.49971474  0.41300702  1
  O  O296  1  0.58565072  0.47488347  0.74751163  1
  O  O297  1  0.59552989  0.99221291  0.07148584  1
  O  O298  1  0.58698293  0.97353722  0.40498655  1
  O  O299  1  0.58370961  0.97745629  0.73882073  1
  O  O300  1  0.91907778  0.47753707  0.08706110  1
  O  O301  1  0.91374394  0.47736462  0.42088377  1
  O  O302  1  0.91739747  0.47969966  0.74822992  1
  O  O303  1  0.92484456  0.97607706  0.07675339  1
  O  O304  1  0.91587568  0.97951687  0.41013863  1
  O  O305  1  0.91096847  0.98995104  0.75757976  1
  O  O306  1  0.08583454  0.27236122  0.09163998  1
  O  O307  1  0.07978782  0.26875548  0.41941599  1
  O  O308  1  0.08776891  0.27597609  0.75938927  1
  O  O309  1  0.08210204  0.77390211  0.08476092  1
  O  O310  1  0.07943695  0.77190680  0.41246494  1
  O  O311  1  0.09076495  0.76778503  0.75737272  1
  O  O312  1  0.41740927  0.25090634  0.07873488  1
  O  O313  1  0.41515001  0.24765982  0.41580453  1
  O  O314  1  0.41805506  0.26960159  0.75059265  1
  O  O315  1  0.41850836  0.75037283  0.08534612  1
  O  O316  1  0.41236903  0.76735823  0.41605929  1
  O  O317  1  0.42125691  0.77212979  0.75000221  1
  O  O318  1  0.76149595  0.26867719  0.08636673  1
  O  O319  1  0.75586577  0.26238750  0.41893358  1
  O  O320  1  0.75433655  0.27503573  0.75206016  1
  O  O321  1  0.75666519  0.76736100  0.08512240  1
  O  O322  1  0.75124751  0.77885352  0.41949050  1
  O  O323  1  0.74608633  0.77005578  0.74426340  1
  O  O324  1  0.25478557  0.01065632  0.26475638  1
  O  O325  1  0.25804436  0.01014046  0.59148840  1
  O  O326  1  0.25191941  0.01265426  0.92286643  1
  O  O327  1  0.25178399  0.52327139  0.25844198  1
  O  O328  1  0.25252355  0.52327239  0.58825366  1
  O  O329  1  0.25285449  0.50491335  0.92198534  1
  O  O330  1  0.57987055  0.02375446  0.23833496  1
  O  O331  1  0.57136315  0.01124228  0.56714039  1
  O  O332  1  0.57714268  0.02071187  0.90390661  1
  O  O333  1  0.58072674  0.51507472  0.24388107  1
  O  O334  1  0.59167819  0.51423594  0.58927710  1
  O  O335  1  0.58211851  0.50440487  0.90897154  1
  O  O336  1  0.90587893  0.01219060  0.23805746  1
  O  O337  1  0.91744340  0.01405843  0.58764041  1
  O  O338  1  0.91356498  0.02909327  0.91562561  1
  O  O339  1  0.92715647  0.51767061  0.25839570  1
  O  O340  1  0.91830962  0.52592774  0.58378709  1
  O  O341  1  0.92475813  0.50980099  0.92340929  1
  O  O342  1  0.06860556  0.23607795  0.26039164  1
  O  O343  1  0.07700110  0.24095054  0.59761448  1
  O  O344  1  0.07209764  0.23805718  0.93034463  1
  O  O345  1  0.08992912  0.72719232  0.24661473  1
  O  O346  1  0.08309966  0.73005125  0.58080701  1
  O  O347  1  0.08077416  0.73830918  0.92389882  1
  O  O348  1  0.41343539  0.22677422  0.24942990  1
  O  O349  1  0.41462339  0.22936094  0.58410847  1
  O  O350  1  0.41617133  0.22191775  0.91591891  1
  O  O351  1  0.41598057  0.72627303  0.24783728  1
  O  O352  1  0.41010603  0.73045991  0.59170789  1
  O  O353  1  0.41994442  0.73885742  0.91376313  1
  O  O354  1  0.74361365  0.22628558  0.25395585  1
  O  O355  1  0.74736859  0.24810164  0.58616010  1
  O  O356  1  0.74967768  0.22921674  0.92348637  1
  O  O357  1  0.74621925  0.73744305  0.25969745  1
  O  O358  1  0.75272750  0.72958182  0.58065644  1
  O  O359  1  0.75468396  0.75083091  0.91082929  1
