# generated using pymatgen
data_Ba17Sr5La8Pr42Mn72O216
_symmetry_space_group_name_H-M   'P 1'
_cell_length_a   16.67861861
_cell_length_b   15.70496059
_cell_length_c   16.82721034
_cell_angle_alpha   89.99776930
_cell_angle_beta   90.01346997
_cell_angle_gamma   89.97287610
_symmetry_Int_Tables_number   1
_chemical_formula_structural   Ba17Sr5La8Pr42Mn72O216
_chemical_formula_sum   'Ba17 Sr5 La8 Pr42 Mn72 O216'
_cell_volume   4407.66918468
_cell_formula_units_Z   1
loop_
 _symmetry_equiv_pos_site_id
 _symmetry_equiv_pos_as_xyz
  1  'x, y, z'
loop_
 _atom_site_type_symbol
 _atom_site_label
 _atom_site_symmetry_multiplicity
 _atom_site_fract_x
 _atom_site_fract_y
 _atom_site_fract_z
 _atom_site_occupancy
  Ba  Ba0  1  0.50206017  0.62406648  0.16961487  1
  Ba  Ba1  1  0.33215441  0.62537046  0.33227920  1
  Ba  Ba2  1  0.66777302  0.87498654  0.00048370  1
  Ba  Ba3  1  0.33815193  0.37616010  0.66568036  1
  Ba  Ba4  1  0.50068047  0.12582035  0.16790886  1
  Ba  Ba5  1  0.83239306  0.87689000  0.49805226  1
  Ba  Ba6  1  0.33151358  0.12531204  1.00058339  1
  Ba  Ba7  1  -0.00190395  0.37611782  0.33570858  1
  Ba  Ba8  1  0.16374791  0.62671026  0.49885542  1
  Ba  Ba9  1  0.33269616  0.12435237  0.33089574  1
  Ba  Ba10  1  0.16429976  0.12310542  0.16772770  1
  Ba  Ba11  1  0.16267799  0.62681719  0.16932015  1
  Ba  Ba12  1  0.00236902  0.37316156  0.66610597  1
  Ba  Ba13  1  0.83022064  0.12503598  0.49988973  1
  Ba  Ba14  1  0.83387459  0.62432287  0.83357587  1
  Ba  Ba15  1  0.33486460  0.37483471  0.33380071  1
  Ba  Ba16  1  0.16377897  0.87407496  0.16456366  1
  Sr  Sr17  1  0.66666915  0.62493714  0.33364979  1
  Sr  Sr18  1  0.50024249  0.37604541  0.17054225  1
  Sr  Sr19  1  -0.00445125  0.62539242  0.33326409  1
  Sr  Sr20  1  0.83504134  0.37251865  0.49680359  1
  Sr  Sr21  1  0.33664815  0.87218733  0.66852147  1
  La  La22  1  0.17143561  0.87849054  0.83197093  1
  La  La23  1  0.83236346  0.61997447  0.50118775  1
  La  La24  1  0.32761792  0.62727471  0.66058651  1
  La  La25  1  0.66310914  0.62510208  0.99889848  1
  La  La26  1  0.50289128  0.87674218  0.83071981  1
  La  La27  1  0.66301356  0.12598564  0.99845243  1
  La  La28  1  0.16464718  0.12900617  0.83724819  1
  La  La29  1  0.50864107  0.37386401  0.83163131  1
  Pr  Pr30  1  0.00477804  0.87425271  0.33413919  1
  Pr  Pr31  1  0.16377462  0.62205560  0.83278626  1
  Pr  Pr32  1  0.00278901  0.87558311  0.66712693  1
  Pr  Pr33  1  0.83000470  0.12517502  0.16855331  1
  Pr  Pr34  1  0.49548884  0.62391884  0.50084185  1
  Pr  Pr35  1  -0.00251976  0.12424405  0.66342784  1
  Pr  Pr36  1  0.82988496  0.62419144  0.16970399  1
  Pr  Pr37  1  0.16362285  0.12872949  0.49895176  1
  Pr  Pr38  1  0.00499979  0.37725887  0.00366183  1
  Pr  Pr39  1  0.66472212  0.37628052  0.33497647  1
  Pr  Pr40  1  0.83248177  0.87414986  0.16515867  1
  Pr  Pr41  1  0.32497684  0.62524877  1.00088673  1
  Pr  Pr42  1  -0.00392074  0.62471678  0.66056540  1
  Pr  Pr43  1  0.32993800  0.87443190  0.32995947  1
  Pr  Pr44  1  0.66009878  0.12470461  0.66261699  1
  Pr  Pr45  1  0.16851091  0.37726103  0.49457783  1
  Pr  Pr46  1  0.66435090  0.62575195  0.66232648  1
  Pr  Pr47  1  0.84092302  0.37513446  0.82875575  1
  Pr  Pr48  1  0.67485708  0.37445049  0.66660142  1
  Pr  Pr49  1  -0.00822457  0.12395537  0.33060245  1
  Pr  Pr50  1  0.50209007  0.37535541  0.49571550  1
  Pr  Pr51  1  0.49571483  0.87332096  0.16663243  1
  Pr  Pr52  1  0.49481263  0.62541858  0.83725014  1
  Pr  Pr53  1  0.67556522  0.37688168  0.00423377  1
  Pr  Pr54  1  0.67192484  0.87647107  0.66982519  1
  Pr  Pr55  1  0.66740240  0.12488447  0.33293669  1
  Pr  Pr56  1  0.33707078  0.87502027  0.00354733  1
  Pr  Pr57  1  -0.00070409  0.62767476  0.99980135  1
  Pr  Pr58  1  0.83606579  0.87412891  0.82750511  1
  Pr  Pr59  1  0.17784545  0.37417027  0.82881017  1
  Pr  Pr60  1  0.49423846  0.12566557  0.83776613  1
  Pr  Pr61  1  0.49835753  0.87422892  0.49850587  1
  Pr  Pr62  1  -0.00057156  0.12189043  0.99921881  1
  Pr  Pr63  1  0.34103145  0.37555669  0.00536623  1
  Pr  Pr64  1  0.17338874  0.37696010  0.16877783  1
  Pr  Pr65  1  0.32878457  0.12236719  0.66307462  1
  Pr  Pr66  1  0.16894822  0.87486053  0.49631534  1
  Pr  Pr67  1  -0.00265088  0.87277648  0.00222285  1
  Pr  Pr68  1  0.83196277  0.12658691  0.83327648  1
  Pr  Pr69  1  0.66299284  0.87349627  0.33434436  1
  Pr  Pr70  1  0.83826888  0.37435091  0.16794563  1
  Pr  Pr71  1  0.49464271  0.12624839  0.50013311  1
  Mn  Mn72  1  -0.00432112  -0.00015362  0.16520445  1
  Mn  Mn73  1  0.00120975  0.00018134  0.50011352  1
  Mn  Mn74  1  0.00047311  0.00021880  0.83290748  1
  Mn  Mn75  1  -0.00123703  0.49886420  0.16737340  1
  Mn  Mn76  1  -0.00142391  0.50009663  0.50029442  1
  Mn  Mn77  1  0.00195191  0.50019951  0.83453468  1
  Mn  Mn78  1  0.33306529  -0.00133421  0.16640254  1
  Mn  Mn79  1  0.33315338  -0.00140619  0.50078339  1
  Mn  Mn80  1  0.33433101  -0.00208656  0.83080315  1
  Mn  Mn81  1  0.33454029  0.49910481  0.16576406  1
  Mn  Mn82  1  0.33342238  0.50121581  0.50160033  1
  Mn  Mn83  1  0.33547804  0.50229775  0.83382560  1
  Mn  Mn84  1  0.66744158  -0.00041278  0.16763021  1
  Mn  Mn85  1  0.66200248  -0.00071673  0.50075273  1
  Mn  Mn86  1  0.66846685  0.00123160  0.83193786  1
  Mn  Mn87  1  0.66930216  0.49785565  0.16775038  1
  Mn  Mn88  1  0.66567766  0.50043603  0.50046067  1
  Mn  Mn89  1  0.66706251  0.49956636  0.83331509  1
  Mn  Mn90  1  -0.00044329  0.25080976  0.16568480  1
  Mn  Mn91  1  0.00011148  0.24860147  0.49990706  1
  Mn  Mn92  1  0.00051973  0.24897709  0.83536456  1
  Mn  Mn93  1  -0.00530742  0.74973743  0.16707921  1
  Mn  Mn94  1  -0.00200361  0.75129404  0.50008831  1
  Mn  Mn95  1  0.00258931  0.75124830  0.83245085  1
  Mn  Mn96  1  0.33413538  0.25081543  0.16670392  1
  Mn  Mn97  1  0.33315429  0.24778778  0.50141583  1
  Mn  Mn98  1  0.33580495  0.25102676  0.83262710  1
  Mn  Mn99  1  0.33318179  0.75075849  0.16595562  1
  Mn  Mn100  1  0.33391918  0.75338032  0.50132862  1
  Mn  Mn101  1  0.33363252  0.74914642  0.83291923  1
  Mn  Mn102  1  0.66871209  0.25118021  0.16648594  1
  Mn  Mn103  1  0.66396144  0.24987918  0.50074257  1
  Mn  Mn104  1  0.66850847  0.24980834  0.83279361  1
  Mn  Mn105  1  0.66769255  0.74995587  0.16858649  1
  Mn  Mn106  1  0.66487395  0.74914389  0.50008928  1
  Mn  Mn107  1  0.66699899  0.74963631  0.83192159  1
  Mn  Mn108  1  0.16508051  0.25246158  -0.00147451  1
  Mn  Mn109  1  0.16378689  0.24931222  0.33345154  1
  Mn  Mn110  1  0.16777882  0.24816030  0.66767684  1
  Mn  Mn111  1  0.16556243  0.74904307  -0.00391131  1
  Mn  Mn112  1  0.16416898  0.75071367  0.33322472  1
  Mn  Mn113  1  0.16556789  0.75363455  0.66841649  1
  Mn  Mn114  1  0.50188680  0.25165033  -0.00109365  1
  Mn  Mn115  1  0.50228352  0.25047423  0.33464775  1
  Mn  Mn116  1  0.50171128  0.25000347  0.66722752  1
  Mn  Mn117  1  0.49968768  0.74890541  -0.00072300  1
  Mn  Mn118  1  0.50144540  0.75137732  0.33387726  1
  Mn  Mn119  1  0.50236139  0.75039131  0.66763713  1
  Mn  Mn120  1  0.83510430  0.24921669  -0.00112122  1
  Mn  Mn121  1  0.83103163  0.24962375  0.33275708  1
  Mn  Mn122  1  0.83316840  0.24929765  0.66750992  1
  Mn  Mn123  1  0.83279411  0.74995704  -0.00006105  1
  Mn  Mn124  1  0.83129708  0.74996328  0.33282891  1
  Mn  Mn125  1  0.83305833  0.75002364  0.66542121  1
  Mn  Mn126  1  0.16536380  -0.00003792  -0.00281974  1
  Mn  Mn127  1  0.16461026  -0.00118125  0.33461479  1
  Mn  Mn128  1  0.16684188  0.00023338  0.66619106  1
  Mn  Mn129  1  0.16583602  0.49994949  -0.00235965  1
  Mn  Mn130  1  0.16395441  0.50043074  0.33273939  1
  Mn  Mn131  1  0.16681474  0.49930537  0.66768950  1
  Mn  Mn132  1  0.50084668  -0.00106731  -0.00100979  1
  Mn  Mn133  1  0.50132828  -0.00220860  0.33397051  1
  Mn  Mn134  1  0.50025019  -0.00066846  0.66672836  1
  Mn  Mn135  1  0.50105932  0.50053806  -0.00101795  1
  Mn  Mn136  1  0.50188262  0.50016637  0.33422477  1
  Mn  Mn137  1  0.50352991  0.50098714  0.66825367  1
  Mn  Mn138  1  0.83337150  0.00180903  -0.00149813  1
  Mn  Mn139  1  0.83137998  -0.00077095  0.33046464  1
  Mn  Mn140  1  0.83336159  0.00042456  0.66751206  1
  Mn  Mn141  1  0.83512814  0.49893593  0.00083770  1
  Mn  Mn142  1  0.83047594  0.50073713  0.33469680  1
  Mn  Mn143  1  0.83329086  0.49888347  0.66738492  1
  O  O144  1  0.16126537  0.12747650  0.01054563  1
  O  O145  1  0.16049759  0.12136587  0.35331012  1
  O  O146  1  0.17018249  0.12259992  0.69491506  1
  O  O147  1  0.17014236  0.62422056  0.01365453  1
  O  O148  1  0.16277588  0.62941414  0.34068747  1
  O  O149  1  0.16617246  0.63079014  0.68940167  1
  O  O150  1  0.50892742  0.12639743  0.00906821  1
  O  O151  1  0.50944581  0.12252282  0.35611954  1
  O  O152  1  0.50609412  0.12109336  0.69548756  1
  O  O153  1  0.51062789  0.62498932  0.01238134  1
  O  O154  1  0.50338722  0.62793958  0.35582249  1
  O  O155  1  0.50963097  0.62409338  0.69517655  1
  O  O156  1  0.83879881  0.12671356  0.02644136  1
  O  O157  1  0.83440796  0.12376247  0.34414700  1
  O  O158  1  0.83368028  0.12433342  0.68860676  1
  O  O159  1  0.84010908  0.62000665  0.02509987  1
  O  O160  1  0.83118617  0.62821162  0.35792557  1
  O  O161  1  0.83381284  0.62493848  0.67687547  1
  O  O162  1  0.16242862  0.37344238  0.31808404  1
  O  O163  1  0.16786231  0.36818197  0.64097433  1
  O  O164  1  0.15531341  0.37795425  0.96936594  1
  O  O165  1  0.15959747  0.87509787  0.32372671  1
  O  O166  1  0.15857498  0.87875046  0.63994969  1
  O  O167  1  0.15776995  0.87228413  0.97554755  1
  O  O168  1  0.50805460  0.37479093  0.32396771  1
  O  O169  1  0.50693379  0.37827801  0.63937396  1
  O  O170  1  0.49609381  0.37696976  0.97455771  1
  O  O171  1  0.51027890  0.87529192  0.31154360  1
  O  O172  1  0.50426212  0.87690852  0.64105635  1
  O  O173  1  0.49259894  0.87163454  0.97538396  1
  O  O174  1  0.82389886  0.37246945  0.31215639  1
  O  O175  1  0.82757903  0.37388674  0.64988089  1
  O  O176  1  0.82800970  0.37199052  0.97010255  1
  O  O177  1  0.82802978  0.87599202  0.30856155  1
  O  O178  1  0.83091595  0.87546027  0.65491293  1
  O  O179  1  0.83830445  0.88101066  0.96978110  1
  O  O180  1  -0.00233064  0.37331948  0.17951294  1
  O  O181  1  0.00400822  0.37326591  0.51028827  1
  O  O182  1  -0.00701381  0.37033639  0.85898044  1
  O  O183  1  -0.01212848  0.87650776  0.18866485  1
  O  O184  1  0.00499123  0.87729979  0.52349998  1
  O  O185  1  -0.00296336  0.87684437  0.85993546  1
  O  O186  1  0.33067570  0.37505307  0.17119203  1
  O  O187  1  0.33319019  0.37314732  0.51074516  1
  O  O188  1  0.33040175  0.38116341  0.85802287  1
  O  O189  1  0.33951475  0.87484073  0.18057110  1
  O  O190  1  0.33636612  0.87706700  0.52280708  1
  O  O191  1  0.33342995  0.87141800  0.85932457  1
  O  O192  1  0.67693659  0.37340638  0.18963637  1
  O  O193  1  0.65687363  0.37615756  0.52571749  1
  O  O194  1  0.66573415  0.37114995  0.86079143  1
  O  O195  1  0.67549343  0.87721323  0.19022350  1
  O  O196  1  0.65677641  0.87486248  0.52769479  1
  O  O197  1  0.67186725  0.87526287  0.84484728  1
  O  O198  1  -0.00913331  0.12651455  0.14199947  1
  O  O199  1  0.00751821  0.12226622  0.47556445  1
  O  O200  1  0.00389934  0.12303965  0.80644278  1
  O  O201  1  -0.01125645  0.62292273  0.14234800  1
  O  O202  1  -0.00769277  0.62724549  0.48627118  1
  O  O203  1  0.00935289  0.63083006  0.80366896  1
  O  O204  1  0.33217430  0.12454850  0.15874668  1
  O  O205  1  0.33649944  0.12095319  0.48660872  1
  O  O206  1  0.33912354  0.12056063  0.80838342  1
  O  O207  1  0.33175073  0.62522776  0.14639821  1
  O  O208  1  0.34060751  0.63022105  0.49077193  1
  O  O209  1  0.33743741  0.62697447  0.80430083  1
  O  O210  1  0.67190010  0.12726989  0.14142635  1
  O  O211  1  0.65699948  0.12340201  0.47688005  1
  O  O212  1  0.66959098  0.12684816  0.80576450  1
  O  O213  1  0.67371773  0.62115711  0.14192638  1
  O  O214  1  0.67149149  0.62399059  0.48213552  1
  O  O215  1  0.66049148  0.62663935  0.80754345  1
  O  O216  1  0.06962547  0.01094987  0.25821876  1
  O  O217  1  0.08399607  0.02585664  0.58741098  1
  O  O218  1  0.08103875  0.02082164  0.91317883  1
  O  O219  1  0.07674248  0.50952875  0.25076914  1
  O  O220  1  0.07583565  0.51599124  0.59257745  1
  O  O221  1  0.07950304  0.52506868  0.92031128  1
  O  O222  1  0.42108979  -0.00048603  0.25034301  1
  O  O223  1  0.41573020  0.02171951  0.58763142  1
  O  O224  1  0.41966852  0.01193843  0.90979191  1
  O  O225  1  0.41937337  0.50477288  0.25245865  1
  O  O226  1  0.41718707  0.52397691  0.59285835  1
  O  O227  1  0.40932471  0.52564936  0.92088257  1
  O  O228  1  0.74945040  0.02333869  0.24805823  1
  O  O229  1  0.73781772  0.01334485  0.59033049  1
  O  O230  1  0.75115197  0.02741486  0.91888202  1
  O  O231  1  0.75094902  0.51958627  0.24904363  1
  O  O232  1  0.74284161  0.51506270  0.58821984  1
  O  O233  1  0.74062119  0.51572875  0.92889543  1
  O  O234  1  0.24079985  0.24871809  0.24497121  1
  O  O235  1  0.24731762  0.22420836  0.58353510  1
  O  O236  1  0.23939216  0.24057338  0.90805411  1
  O  O237  1  0.25184472  0.75119683  0.25147842  1
  O  O238  1  0.25106737  0.74128753  0.58872803  1
  O  O239  1  0.24810995  0.72716065  0.90970685  1
  O  O240  1  0.59121502  0.23853776  0.25793358  1
  O  O241  1  0.57530149  0.22550895  0.57955564  1
  O  O242  1  0.58095956  0.23119840  0.90718926  1
  O  O243  1  0.58976766  0.74227961  0.25601394  1
  O  O244  1  0.58166278  0.72504482  0.58129704  1
  O  O245  1  0.57863835  0.73472918  0.91020054  1
  O  O246  1  0.90955412  0.23478051  0.24123252  1
  O  O247  1  0.92063381  0.23289250  0.58601555  1
  O  O248  1  0.91283900  0.22331287  0.91411705  1
  O  O249  1  0.90699236  0.73194466  0.24271115  1
  O  O250  1  0.91203104  0.73317229  0.58012638  1
  O  O251  1  0.92507894  0.73477263  0.92058521  1
  O  O252  1  0.08492864  0.48164351  0.08359626  1
  O  O253  1  0.08684451  0.48900392  0.42439079  1
  O  O254  1  0.09402508  0.48284202  0.76121567  1
  O  O255  1  0.07349943  0.98786792  0.07735925  1
  O  O256  1  0.08677625  0.97895288  0.42330767  1
  O  O257  1  0.08357328  0.97770158  0.74980566  1
  O  O258  1  0.41824473  0.48581299  0.07994676  1
  O  O259  1  0.42623567  0.49118073  0.42897657  1
  O  O260  1  0.43139165  0.48600567  0.76267337  1
  O  O261  1  0.41662384  0.98004959  0.08145762  1
  O  O262  1  0.41834860  0.97794222  0.41660157  1
  O  O263  1  0.42256469  0.97792322  0.75219959  1
  O  O264  1  0.75813497  0.47568649  0.08725714  1
  O  O265  1  0.74572742  0.47959840  0.41864289  1
  O  O266  1  0.75407009  0.47824202  0.75613722  1
  O  O267  1  0.75595392  0.98762377  0.08800256  1
  O  O268  1  0.74052613  0.98776160  0.41025070  1
  O  O269  1  0.75552040  0.98326228  0.75554346  1
  O  O270  1  0.24912308  0.27486176  0.07277901  1
  O  O271  1  0.24717349  0.25801773  0.42304309  1
  O  O272  1  0.25453634  0.26244642  0.74919359  1
  O  O273  1  0.25479364  0.76422065  0.06983037  1
  O  O274  1  0.25175783  0.77261855  0.41897916  1
  O  O275  1  0.24993796  0.77057214  0.75147196  1
  O  O276  1  0.59296456  0.26887205  0.07555262  1
  O  O277  1  0.58552158  0.27147058  0.41894076  1
  O  O278  1  0.59452758  0.27093710  0.74245142  1
  O  O279  1  0.58161427  0.76581658  0.08951811  1
  O  O280  1  0.57960035  0.77109828  0.42188730  1
  O  O281  1  0.58816656  0.77398750  0.74330476  1
  O  O282  1  0.92070580  0.27372330  0.07458543  1
  O  O283  1  0.91597917  0.25422529  0.41338933  1
  O  O284  1  0.91635686  0.25975570  0.75661913  1
  O  O285  1  0.91436716  0.77452547  0.08130711  1
  O  O286  1  0.92098848  0.76862328  0.40659358  1
  O  O287  1  0.92197142  0.77150106  0.74928638  1
  O  O288  1  0.25168920  0.47968699  0.07196071  1
  O  O289  1  0.24618877  0.48907209  0.41911711  1
  O  O290  1  0.25280367  0.48833476  0.75213969  1
  O  O291  1  0.25336218  0.98303134  0.07422487  1
  O  O292  1  0.25131125  0.97794569  0.41848489  1
  O  O293  1  0.25243427  0.97898857  0.74592602  1
  O  O294  1  0.59413780  0.48157934  0.07590229  1
  O  O295  1  0.58495614  0.48138993  0.41986128  1
  O  O296  1  0.59224597  0.47549982  0.74191668  1
  O  O297  1  0.58074248  0.98297277  0.09162711  1
  O  O298  1  0.57982054  0.97444963  0.42134996  1
  O  O299  1  0.58841860  0.97948744  0.74281258  1
  O  O300  1  0.91806467  0.47358642  0.08040265  1
  O  O301  1  0.90973024  0.49284909  0.42113931  1
  O  O302  1  0.91831387  0.48693115  0.75405964  1
  O  O303  1  0.91558498  0.97682483  0.07868549  1
  O  O304  1  0.92311580  0.98693667  0.40482335  1
  O  O305  1  0.91976327  0.97958406  0.75265236  1
  O  O306  1  0.08756024  0.27282738  0.08618781  1
  O  O307  1  0.09231845  0.26086785  0.42882626  1
  O  O308  1  0.09362196  0.26441909  0.76233851  1
  O  O309  1  0.07328176  0.75902834  0.07509970  1
  O  O310  1  0.08435124  0.77016210  0.42313360  1
  O  O311  1  0.08599985  0.78043090  0.75404059  1
  O  O312  1  0.41974878  0.26605771  0.07926723  1
  O  O313  1  0.42678535  0.25767362  0.42901817  1
  O  O314  1  0.43164917  0.26522378  0.75747999  1
  O  O315  1  0.41697046  0.76855169  0.08177825  1
  O  O316  1  0.41739730  0.77441484  0.41652356  1
  O  O317  1  0.42471687  0.76780028  0.75860713  1
  O  O318  1  0.75803919  0.27192271  0.08415835  1
  O  O319  1  0.74447096  0.26430971  0.41560540  1
  O  O320  1  0.75536832  0.27084939  0.75944226  1
  O  O321  1  0.75554949  0.76308169  0.09037922  1
  O  O322  1  0.74270405  0.76855387  0.41269571  1
  O  O323  1  0.75360290  0.76734217  0.75145044  1
  O  O324  1  0.25008905  -0.00118534  0.25272285  1
  O  O325  1  0.24593294  0.02139900  0.58252809  1
  O  O326  1  0.24452156  0.01092820  0.90491244  1
  O  O327  1  0.24451729  0.50074401  0.24328726  1
  O  O328  1  0.25057090  0.51386542  0.58657960  1
  O  O329  1  0.24711502  0.52219706  0.91081882  1
  O  O330  1  0.59333952  0.01356679  0.26029940  1
  O  O331  1  0.57670339  0.02468176  0.58135680  1
  O  O332  1  0.58436450  0.01682686  0.91104293  1
  O  O333  1  0.58929980  0.50466688  0.25332706  1
  O  O334  1  0.57982944  0.52674095  0.58053328  1
  O  O335  1  0.57598965  0.51589058  0.90648540  1
  O  O336  1  0.91030262  0.02035502  0.24170563  1
  O  O337  1  0.92161186  0.01374656  0.58846282  1
  O  O338  1  0.91660891  0.02666474  0.91402335  1
  O  O339  1  0.90897646  0.51261699  0.24370835  1
  O  O340  1  0.91345650  0.51632187  0.58272445  1
  O  O341  1  0.92013363  0.51375969  0.92253374  1
  O  O342  1  0.07149920  0.23131704  0.25828581  1
  O  O343  1  0.08276979  0.22309229  0.59014834  1
  O  O344  1  0.07382975  0.22936127  0.92368220  1
  O  O345  1  0.07033843  0.74506564  0.25333202  1
  O  O346  1  0.07302847  0.73814523  0.59638132  1
  O  O347  1  0.08485712  0.72651789  0.91281442  1
  O  O348  1  0.42203641  0.24583039  0.25431114  1
  O  O349  1  0.41224058  0.22657148  0.59083065  1
  O  O350  1  0.41770401  0.23827677  0.91380229  1
  O  O351  1  0.42036775  0.74957783  0.25120223  1
  O  O352  1  0.41951155  0.73165854  0.58747999  1
  O  O353  1  0.40974820  0.72475675  0.92015989  1
  O  O354  1  0.74888715  0.22680144  0.24923728  1
  O  O355  1  0.73708834  0.23580086  0.59161814  1
  O  O356  1  0.74731495  0.22433812  0.92079671  1
  O  O357  1  0.75082850  0.72959500  0.24896478  1
  O  O358  1  0.74401463  0.73318037  0.58495559  1
  O  O359  1  0.74589777  0.73201944  0.92374443  1
