# generated using pymatgen
data_Ba17Sr5La8Pr42Mn72O216
_symmetry_space_group_name_H-M   'P 1'
_cell_length_a   16.67610201
_cell_length_b   15.70029251
_cell_length_c   16.82575632
_cell_angle_alpha   90.00154460
_cell_angle_beta   89.98124290
_cell_angle_gamma   90.00110613
_symmetry_Int_Tables_number   1
_chemical_formula_structural   Ba17Sr5La8Pr42Mn72O216
_chemical_formula_sum   'Ba17 Sr5 La8 Pr42 Mn72 O216'
_cell_volume   4405.31388904
_cell_formula_units_Z   1
loop_
 _symmetry_equiv_pos_site_id
 _symmetry_equiv_pos_as_xyz
  1  'x, y, z'
loop_
 _atom_site_type_symbol
 _atom_site_label
 _atom_site_symmetry_multiplicity
 _atom_site_fract_x
 _atom_site_fract_y
 _atom_site_fract_z
 _atom_site_occupancy
  Ba  Ba0  1  0.16474647  0.62501759  0.16809651  1
  Ba  Ba1  1  0.16823928  0.62667417  0.83574885  1
  Ba  Ba2  1  0.00013949  0.87739941  -0.00245020  1
  Ba  Ba3  1  0.66521927  0.62427075  0.33387847  1
  Ba  Ba4  1  0.83512876  0.87570888  0.49797108  1
  Ba  Ba5  1  -0.00039581  0.12700506  0.99792163  1
  Ba  Ba6  1  0.66644485  0.37260076  0.66755023  1
  Ba  Ba7  1  0.49841108  0.62632340  0.50135715  1
  Ba  Ba8  1  0.33316302  0.37397918  0.66904816  1
  Ba  Ba9  1  0.83117960  0.62397182  0.82964028  1
  Ba  Ba10  1  0.00224385  0.87796118  0.66564516  1
  Ba  Ba11  1  -0.00052684  0.37389510  -0.00042438  1
  Ba  Ba12  1  0.83293052  0.87460064  0.16280881  1
  Ba  Ba13  1  0.00131662  0.12594144  0.66385839  1
  Ba  Ba14  1  0.49973990  0.12300525  0.17009296  1
  Ba  Ba15  1  0.66716161  0.37385307  0.33562582  1
  Ba  Ba16  1  0.33166656  0.37380434  0.33678128  1
  Sr  Sr17  1  0.66939291  0.87385922  0.66838713  1
  Sr  Sr18  1  0.16974112  0.87687366  0.83167327  1
  Sr  Sr19  1  0.50101092  0.62408172  0.83263582  1
  Sr  Sr20  1  0.66862480  0.87239013  -0.00079750  1
  Sr  Sr21  1  -0.00149687  0.12463096  0.33033031  1
  La  La22  1  0.33333724  0.62630112  0.66784411  1
  La  La23  1  0.82912270  0.37473580  0.16380709  1
  La  La24  1  0.00392413  0.37751587  0.33160885  1
  La  La25  1  0.83439330  0.62555726  0.16128461  1
  La  La26  1  0.83065251  0.12475277  0.49888207  1
  La  La27  1  0.66446253  0.62806175  0.99780869  1
  La  La28  1  0.82728843  0.62445944  0.50354594  1
  La  La29  1  0.33267455  0.62412980  0.33368802  1
  Pr  Pr30  1  0.50022304  0.37551645  0.83144987  1
  Pr  Pr31  1  0.16750993  0.12387071  0.83524384  1
  Pr  Pr32  1  0.49985410  0.37800241  0.49798643  1
  Pr  Pr33  1  0.49825472  0.62532111  0.17276789  1
  Pr  Pr34  1  0.33398627  0.87505100  0.33474180  1
  Pr  Pr35  1  0.50279145  0.87320608  0.49993421  1
  Pr  Pr36  1  0.49913558  0.37724228  0.16736205  1
  Pr  Pr37  1  0.00419501  0.87469921  0.33502533  1
  Pr  Pr38  1  0.50316592  0.12770222  0.83924380  1
  Pr  Pr39  1  0.16691473  0.12760785  0.50160633  1
  Pr  Pr40  1  0.33410554  0.62655289  0.99798299  1
  Pr  Pr41  1  0.83883270  0.37292981  0.49385577  1
  Pr  Pr42  1  -0.00476398  0.62761552  0.99300687  1
  Pr  Pr43  1  0.33331734  0.87030526  0.00137631  1
  Pr  Pr44  1  0.16064454  0.12653224  0.16787866  1
  Pr  Pr45  1  0.16547205  0.62168089  0.50537412  1
  Pr  Pr46  1  0.83116619  0.12350098  0.83211048  1
  Pr  Pr47  1  0.49917501  0.12871932  0.50197828  1
  Pr  Pr48  1  0.66576204  0.87649272  0.33584046  1
  Pr  Pr49  1  0.50454997  0.87213572  0.16351817  1
  Pr  Pr50  1  0.66186270  0.62731124  0.66062083  1
  Pr  Pr51  1  -0.00301276  0.62855752  0.66326491  1
  Pr  Pr52  1  0.16906441  0.37082536  0.49885882  1
  Pr  Pr53  1  0.67387792  0.12292329  0.32801180  1
  Pr  Pr54  1  0.33531972  0.12161570  0.99862567  1
  Pr  Pr55  1  0.32911376  0.12460551  0.32916359  1
  Pr  Pr56  1  0.66800904  0.11999716  0.99975931  1
  Pr  Pr57  1  0.16468067  0.37350398  0.83290260  1
  Pr  Pr58  1  0.83810454  0.87779059  0.82596314  1
  Pr  Pr59  1  0.50491656  0.87568353  0.83133623  1
  Pr  Pr60  1  0.83954819  0.37267971  0.82832688  1
  Pr  Pr61  1  -0.00455965  0.62775610  0.33033360  1
  Pr  Pr62  1  0.00214829  0.37620146  0.66846958  1
  Pr  Pr63  1  0.33662817  0.87242702  0.67182761  1
  Pr  Pr64  1  0.16722702  0.87767584  0.16131349  1
  Pr  Pr65  1  0.33296724  0.37848155  0.00500318  1
  Pr  Pr66  1  0.66604179  0.12162378  0.66513895  1
  Pr  Pr67  1  0.33309619  0.12189237  0.66689792  1
  Pr  Pr68  1  0.16760390  0.37267734  0.16529796  1
  Pr  Pr69  1  0.66360747  0.37666775  0.00221576  1
  Pr  Pr70  1  0.83708500  0.12421121  0.16480860  1
  Pr  Pr71  1  0.16725167  0.87957285  0.49997125  1
  Mn  Mn72  1  0.00055902  0.00131834  0.16755861  1
  Mn  Mn73  1  0.00187340  0.00145734  0.49602462  1
  Mn  Mn74  1  0.00146295  0.00176881  0.83181511  1
  Mn  Mn75  1  -0.00131112  0.49951898  0.16539494  1
  Mn  Mn76  1  0.00105026  0.49958389  0.49935654  1
  Mn  Mn77  1  0.00065037  0.49987008  0.83205245  1
  Mn  Mn78  1  0.33221566  -0.00062535  0.16680260  1
  Mn  Mn79  1  0.33429125  -0.00033020  0.50036847  1
  Mn  Mn80  1  0.33628038  0.00008969  0.83317874  1
  Mn  Mn81  1  0.33266843  0.50012923  0.16799338  1
  Mn  Mn82  1  0.33196542  0.50088055  0.50281229  1
  Mn  Mn83  1  0.33479039  0.49989569  0.83708042  1
  Mn  Mn84  1  0.66713888  -0.00040242  0.16582340  1
  Mn  Mn85  1  0.66429392  0.00080913  0.49855145  1
  Mn  Mn86  1  0.66636543  -0.00055958  0.83250694  1
  Mn  Mn87  1  0.66459546  0.49902718  0.16495903  1
  Mn  Mn88  1  0.66692047  0.49835463  0.50218491  1
  Mn  Mn89  1  0.66555126  0.49998622  0.83383606  1
  Mn  Mn90  1  -0.00090008  0.25034732  0.16725314  1
  Mn  Mn91  1  0.00119339  0.24981964  0.49650412  1
  Mn  Mn92  1  0.00063936  0.24990683  0.83024074  1
  Mn  Mn93  1  0.00020877  0.74966946  0.16524900  1
  Mn  Mn94  1  0.00218099  0.74955491  0.49681113  1
  Mn  Mn95  1  0.00098034  0.75035133  0.83095553  1
  Mn  Mn96  1  0.33300534  0.24955271  0.16712122  1
  Mn  Mn97  1  0.33395423  0.24709476  0.50166613  1
  Mn  Mn98  1  0.33467978  0.24877958  0.83678614  1
  Mn  Mn99  1  0.33263592  0.75110333  0.16813699  1
  Mn  Mn100  1  0.33014273  0.75336971  0.50192838  1
  Mn  Mn101  1  0.33670142  0.75070539  0.83519411  1
  Mn  Mn102  1  0.66550962  0.24990453  0.16645184  1
  Mn  Mn103  1  0.66569397  0.24830607  0.50049599  1
  Mn  Mn104  1  0.66672330  0.24972273  0.83574237  1
  Mn  Mn105  1  0.66607167  0.74863969  0.16513387  1
  Mn  Mn106  1  0.66638598  0.75281950  0.50032991  1
  Mn  Mn107  1  0.66636670  0.75066377  0.83252879  1
  Mn  Mn108  1  0.17105099  0.24958182  -0.00012406  1
  Mn  Mn109  1  0.16508382  0.24877145  0.33371010  1
  Mn  Mn110  1  0.16857108  0.25046372  0.66721482  1
  Mn  Mn111  1  0.16665540  0.75065217  0.00086177  1
  Mn  Mn112  1  0.16730025  0.75112358  0.33559261  1
  Mn  Mn113  1  0.16721055  0.74985477  0.66730134  1
  Mn  Mn114  1  0.49971379  0.24952774  0.00149305  1
  Mn  Mn115  1  0.49922223  0.24779890  0.33611922  1
  Mn  Mn116  1  0.49925001  0.24708226  0.66985570  1
  Mn  Mn117  1  0.50063681  0.75023334  0.00032393  1
  Mn  Mn118  1  0.49822100  0.75205572  0.33241538  1
  Mn  Mn119  1  0.50072414  0.75222867  0.66872448  1
  Mn  Mn120  1  0.82869803  0.24981921  -0.00254093  1
  Mn  Mn121  1  0.83612934  0.25003616  0.33109549  1
  Mn  Mn122  1  0.83254730  0.24996845  0.66331354  1
  Mn  Mn123  1  0.83202352  0.74973266  -0.00396434  1
  Mn  Mn124  1  0.83339596  0.74928588  0.33073584  1
  Mn  Mn125  1  0.83270075  0.75076572  0.66612205  1
  Mn  Mn126  1  0.16960635  0.00005802  -0.00055443  1
  Mn  Mn127  1  0.16679020  -0.00041619  0.33121905  1
  Mn  Mn128  1  0.17030924  0.00083645  0.66656655  1
  Mn  Mn129  1  0.16709066  0.49983441  0.00151021  1
  Mn  Mn130  1  0.16555146  0.50120981  0.33701877  1
  Mn  Mn131  1  0.16661220  0.50031410  0.66873514  1
  Mn  Mn132  1  0.50039002  -0.00164166  0.00065076  1
  Mn  Mn133  1  0.49840920  -0.00083212  0.33558662  1
  Mn  Mn134  1  0.50027130  0.00118782  0.66777439  1
  Mn  Mn135  1  0.49945671  0.50075552  0.00042193  1
  Mn  Mn136  1  0.49832180  0.49957034  0.33408808  1
  Mn  Mn137  1  0.49952870  0.49907687  0.66940084  1
  Mn  Mn138  1  0.83133161  0.00068022  -0.00263955  1
  Mn  Mn139  1  0.83530773  -0.00021897  0.33037488  1
  Mn  Mn140  1  0.83217060  0.00199018  0.66520265  1
  Mn  Mn141  1  0.82991768  0.49780659  -0.00264132  1
  Mn  Mn142  1  0.83504510  0.50126109  0.33200044  1
  Mn  Mn143  1  0.83279735  0.49860030  0.66444671  1
  O  O144  1  0.17704212  0.12520850  0.02420256  1
  O  O145  1  0.17109334  0.11920988  0.35839508  1
  O  O146  1  0.17499650  0.12557785  0.68991927  1
  O  O147  1  0.16909120  0.62510145  0.01242462  1
  O  O148  1  0.16488492  0.62635094  0.36113596  1
  O  O149  1  0.16365573  0.62341651  0.67955837  1
  O  O150  1  0.49987563  0.12366194  0.01616206  1
  O  O151  1  0.49325975  0.12064909  0.35841444  1
  O  O152  1  0.49742853  0.12290578  0.69652962  1
  O  O153  1  0.49833303  0.62561775  0.02939780  1
  O  O154  1  0.49238747  0.62849347  0.34300595  1
  O  O155  1  0.50166778  0.62917320  0.68278012  1
  O  O156  1  0.82412766  0.12776098  0.02075417  1
  O  O157  1  0.82957093  0.12524585  0.35366003  1
  O  O158  1  0.82368397  0.12657420  0.68745714  1
  O  O159  1  0.83671751  0.62051297  0.01581594  1
  O  O160  1  0.84122954  0.62395949  0.35742890  1
  O  O161  1  0.83278055  0.62326150  0.67316443  1
  O  O162  1  0.16411795  0.37683192  0.31032822  1
  O  O163  1  0.16384516  0.37664865  0.64213290  1
  O  O164  1  0.17817018  0.37304041  0.97655459  1
  O  O165  1  0.16837741  0.87877823  0.30402442  1
  O  O166  1  0.17780515  0.87622781  0.64420693  1
  O  O167  1  0.17567856  0.87671753  0.98317114  1
  O  O168  1  0.49856772  0.37228653  0.31384192  1
  O  O169  1  0.49923384  0.36763151  0.64215456  1
  O  O170  1  0.49845115  0.37321169  0.97337127  1
  O  O171  1  0.49814515  0.87644662  0.30801070  1
  O  O172  1  0.49429926  0.87913020  0.64230759  1
  O  O173  1  0.49623371  0.87593072  0.97434564  1
  O  O174  1  0.83986646  0.37599279  0.30903070  1
  O  O175  1  0.83932860  0.37456494  0.63742217  1
  O  O176  1  0.82005621  0.37345895  0.97167355  1
  O  O177  1  0.83343256  0.87520844  0.31995813  1
  O  O178  1  0.83269191  0.87807634  0.65737972  1
  O  O179  1  0.82816813  0.87606562  0.97420812  1
  O  O180  1  -0.00239904  0.37558169  0.18724846  1
  O  O181  1  -0.00572253  0.37845320  0.52565325  1
  O  O182  1  -0.00261446  0.37400971  0.84267865  1
  O  O183  1  0.00571431  0.87903422  0.18978989  1
  O  O184  1  0.00514653  0.87516520  0.50931388  1
  O  O185  1  -0.00970376  0.87651183  0.83919741  1
  O  O186  1  0.33294109  0.37502826  0.18153158  1
  O  O187  1  0.32784234  0.37030325  0.51325829  1
  O  O188  1  0.33659539  0.37083741  0.86137919  1
  O  O189  1  0.32558473  0.87785272  0.19220330  1
  O  O190  1  0.32624983  0.87779765  0.52922728  1
  O  O191  1  0.33873801  0.87698227  0.85759385  1
  O  O192  1  0.66765426  0.37366070  0.17997442  1
  O  O193  1  0.66743016  0.37260594  0.51153090  1
  O  O194  1  0.65951619  0.37282302  0.85948879  1
  O  O195  1  0.66237469  0.87590227  0.19106159  1
  O  O196  1  0.65991998  0.87907288  0.51709492  1
  O  O197  1  0.66226588  0.87772422  0.85253501  1
  O  O198  1  0.00426249  0.12640798  0.15451346  1
  O  O199  1  0.01226990  0.12675831  0.47869638  1
  O  O200  1  0.00620136  0.12910128  0.82212455  1
  O  O201  1  -0.00265358  0.61908568  0.13763954  1
  O  O202  1  0.01098043  0.62001127  0.47213096  1
  O  O203  1  0.00216310  0.62118637  0.81016409  1
  O  O204  1  0.32869220  0.12325079  0.14228843  1
  O  O205  1  0.33707185  0.12110676  0.47213436  1
  O  O206  1  0.33643205  0.12395717  0.80941761  1
  O  O207  1  0.34116326  0.62396279  0.14187947  1
  O  O208  1  0.32614989  0.63181966  0.47713072  1
  O  O209  1  0.33804034  0.62774071  0.81193570  1
  O  O210  1  0.66971955  0.12669038  0.14402573  1
  O  O211  1  0.66269976  0.12382711  0.47226257  1
  O  O212  1  0.66373103  0.12477637  0.80806937  1
  O  O213  1  0.65504674  0.62121317  0.14324255  1
  O  O214  1  0.67073957  0.62554097  0.49303083  1
  O  O215  1  0.66291995  0.62458888  0.80534200  1
  O  O216  1  0.08572999  0.01951981  0.25301974  1
  O  O217  1  0.09252682  0.01172341  0.57551883  1
  O  O218  1  0.09126825  0.01323291  0.91517564  1
  O  O219  1  0.07663898  0.51444895  0.26331221  1
  O  O220  1  0.07787808  0.51935297  0.58416825  1
  O  O221  1  0.08247891  0.51011451  0.92264039  1
  O  O222  1  0.40648113  0.01271755  0.25954341  1
  O  O223  1  0.41676286  0.02363297  0.58699627  1
  O  O224  1  0.41753786  0.02181206  0.91581833  1
  O  O225  1  0.41477534  0.51833122  0.24774947  1
  O  O226  1  0.41095131  0.51372564  0.58989145  1
  O  O227  1  0.41537428  0.52015207  0.92384923  1
  O  O228  1  0.75335337  0.02206493  0.24435837  1
  O  O229  1  0.74633068  0.02232757  0.58156955  1
  O  O230  1  0.74812255  0.02453508  0.91255440  1
  O  O231  1  0.75308891  0.51407294  0.23948399  1
  O  O232  1  0.74750775  0.51697482  0.58706221  1
  O  O233  1  0.74057800  0.51657983  0.92203113  1
  O  O234  1  0.24607968  0.22820109  0.24941537  1
  O  O235  1  0.25358507  0.22619692  0.58613383  1
  O  O236  1  0.25717275  0.22308820  0.92109917  1
  O  O237  1  0.25394197  0.73345501  0.25987099  1
  O  O238  1  0.24449087  0.72901801  0.57954475  1
  O  O239  1  0.25795026  0.73971624  0.92357408  1
  O  O240  1  0.58848692  0.23178455  0.25866973  1
  O  O241  1  0.58202293  0.22262624  0.58941007  1
  O  O242  1  0.58538825  0.22788489  0.92162638  1
  O  O243  1  0.57653103  0.73913866  0.24166363  1
  O  O244  1  0.58407062  0.74184346  0.58749774  1
  O  O245  1  0.58209314  0.73168208  0.91791931  1
  O  O246  1  0.91259459  0.23174568  0.24622833  1
  O  O247  1  0.91007480  0.23302416  0.56758454  1
  O  O248  1  0.90672312  0.23896017  0.90611812  1
  O  O249  1  0.91433729  0.72720664  0.24324741  1
  O  O250  1  0.91726659  0.72816860  0.57407088  1
  O  O251  1  0.91660111  0.73623032  0.91505385  1
  O  O252  1  0.08960089  0.47882953  0.09103377  1
  O  O253  1  0.08555716  0.47235479  0.42490205  1
  O  O254  1  0.08449828  0.47654318  0.74939359  1
  O  O255  1  0.09306276  0.99047396  0.09195899  1
  O  O256  1  0.08933598  0.97602519  0.41136435  1
  O  O257  1  0.09333035  0.99336987  0.75198604  1
  O  O258  1  0.41828566  0.47714614  0.08437291  1
  O  O259  1  0.41771395  0.48767395  0.42289981  1
  O  O260  1  0.42016725  0.48421849  0.75888044  1
  O  O261  1  0.41599924  0.97633929  0.08569668  1
  O  O262  1  0.41690782  0.97142568  0.42220039  1
  O  O263  1  0.41980001  0.97678183  0.75186901  1
  O  O264  1  0.74426803  0.48255182  0.07942125  1
  O  O265  1  0.76045892  0.48820432  0.42434665  1
  O  O266  1  0.75542253  0.47924620  0.75823141  1
  O  O267  1  0.74372525  0.99031509  0.07482608  1
  O  O268  1  0.74266241  0.98930270  0.40572201  1
  O  O269  1  0.75092744  0.98623167  0.75369482  1
  O  O270  1  0.25112462  0.27258252  0.08352649  1
  O  O271  1  0.24266681  0.25680191  0.42352993  1
  O  O272  1  0.24395426  0.26427937  0.76385084  1
  O  O273  1  0.25270823  0.76919262  0.08598928  1
  O  O274  1  0.25100379  0.77838451  0.41699526  1
  O  O275  1  0.26017513  0.76426895  0.74466020  1
  O  O276  1  0.57828599  0.27326023  0.08569675  1
  O  O277  1  0.57628917  0.26238349  0.42822033  1
  O  O278  1  0.57812353  0.26284260  0.76009754  1
  O  O279  1  0.58161623  0.77003278  0.08283307  1
  O  O280  1  0.58148515  0.77247869  0.41397221  1
  O  O281  1  0.58331379  0.77080660  0.75186812  1
  O  O282  1  0.90610295  0.26206143  0.08514935  1
  O  O283  1  0.92192160  0.27128130  0.41062335  1
  O  O284  1  0.91851510  0.26929742  0.74024342  1
  O  O285  1  0.91761976  0.75354972  0.07723396  1
  O  O286  1  0.92987362  0.76061323  0.40480821  1
  O  O287  1  0.91840092  0.75611684  0.74455462  1
  O  O288  1  0.24974756  0.47960527  0.08725654  1
  O  O289  1  0.24214311  0.48941801  0.42600247  1
  O  O290  1  0.24681190  0.48384688  0.75995227  1
  O  O291  1  0.25551952  0.97806513  0.07986683  1
  O  O292  1  0.25097629  0.97744287  0.41035017  1
  O  O293  1  0.26014623  0.98474937  0.74425070  1
  O  O294  1  0.58008574  0.47454471  0.08221294  1
  O  O295  1  0.58077187  0.48688279  0.42337603  1
  O  O296  1  0.57973216  0.48210353  0.75744652  1
  O  O297  1  0.58009681  0.98037735  0.08842378  1
  O  O298  1  0.57858585  0.97684063  0.41956536  1
  O  O299  1  0.58241033  0.98235490  0.75066002  1
  O  O300  1  0.90476614  0.48156586  0.08715904  1
  O  O301  1  0.92470400  0.47799464  0.41544796  1
  O  O302  1  0.91920574  0.48056617  0.74145701  1
  O  O303  1  0.91450427  0.99804058  0.08315325  1
  O  O304  1  0.92282735  0.99040830  0.40758441  1
  O  O305  1  0.91123189  0.99699633  0.75118538  1
  O  O306  1  0.09078458  0.26311688  0.08904196  1
  O  O307  1  0.08328195  0.27520264  0.41600091  1
  O  O308  1  0.08365927  0.27155864  0.74523695  1
  O  O309  1  0.08973707  0.76758502  0.09216965  1
  O  O310  1  0.09141705  0.77450972  0.42066206  1
  O  O311  1  0.09019018  0.76301212  0.75179675  1
  O  O312  1  0.41670625  0.27116105  0.08221719  1
  O  O313  1  0.42156729  0.26332551  0.42823543  1
  O  O314  1  0.41969179  0.26478802  0.75815224  1
  O  O315  1  0.41806197  0.77446770  0.08516982  1
  O  O316  1  0.41474116  0.77522182  0.42099070  1
  O  O317  1  0.42209824  0.77378245  0.75499017  1
  O  O318  1  0.74461611  0.27086648  0.07820747  1
  O  O319  1  0.76093118  0.26108600  0.42090337  1
  O  O320  1  0.75652560  0.26567577  0.76175339  1
  O  O321  1  0.74757866  0.75095297  0.08045055  1
  O  O322  1  0.74639838  0.76281887  0.41249509  1
  O  O323  1  0.75243404  0.76895796  0.75604635  1
  O  O324  1  0.24461926  0.02443172  0.24699291  1
  O  O325  1  0.25108971  0.02652925  0.57940324  1
  O  O326  1  0.25345200  0.02289519  0.91436007  1
  O  O327  1  0.25287550  0.51772926  0.25823718  1
  O  O328  1  0.24908432  0.52139810  0.58673831  1
  O  O329  1  0.25926133  0.51324627  0.92727545  1
  O  O330  1  0.59154372  0.01364895  0.26140621  1
  O  O331  1  0.57979124  0.02518088  0.58437611  1
  O  O332  1  0.58431563  0.02053884  0.91572178  1
  O  O333  1  0.57524969  0.50931005  0.24174961  1
  O  O334  1  0.58585447  0.51179472  0.58994856  1
  O  O335  1  0.58274644  0.51898943  0.92137927  1
  O  O336  1  0.91442276  0.01925472  0.24596810  1
  O  O337  1  0.91076500  0.01811976  0.57556169  1
  O  O338  1  0.90863626  0.01469513  0.91026221  1
  O  O339  1  0.91676408  0.52349153  0.24860231  1
  O  O340  1  0.91775550  0.52422892  0.57446406  1
  O  O341  1  0.91874738  0.51102554  0.91759403  1
  O  O342  1  0.08577590  0.23668727  0.25159452  1
  O  O343  1  0.09026853  0.24034907  0.57379347  1
  O  O344  1  0.09633414  0.24058984  0.90986139  1
  O  O345  1  0.07534760  0.73719574  0.26251499  1
  O  O346  1  0.07974025  0.72931635  0.58369556  1
  O  O347  1  0.07728163  0.73738528  0.92406970  1
  O  O348  1  0.41006890  0.23208977  0.25657816  1
  O  O349  1  0.41585423  0.22275414  0.58684249  1
  O  O350  1  0.41839895  0.22598877  0.91815906  1
  O  O351  1  0.41399441  0.73517948  0.24987419  1
  O  O352  1  0.40576106  0.73987856  0.59307620  1
  O  O353  1  0.41543091  0.73133407  0.92384580  1
  O  O354  1  0.75277009  0.22997623  0.24744074  1
  O  O355  1  0.74520816  0.22642787  0.58498686  1
  O  O356  1  0.74534809  0.22239261  0.91770930  1
  O  O357  1  0.75041195  0.73238034  0.24349640  1
  O  O358  1  0.74809871  0.73566780  0.58643361  1
  O  O359  1  0.74269657  0.73327979  0.92038917  1
