# generated using pymatgen
data_Ba17Sr5La8Pr42Mn72O216
_symmetry_space_group_name_H-M   'P 1'
_cell_length_a   16.67070839
_cell_length_b   15.70507653
_cell_length_c   16.81065064
_cell_angle_alpha   89.99955190
_cell_angle_beta   90.00506338
_cell_angle_gamma   90.01353850
_symmetry_Int_Tables_number   1
_chemical_formula_structural   Ba17Sr5La8Pr42Mn72O216
_chemical_formula_sum   'Ba17 Sr5 La8 Pr42 Mn72 O216'
_cell_volume   4401.27617127
_cell_formula_units_Z   1
loop_
 _symmetry_equiv_pos_site_id
 _symmetry_equiv_pos_as_xyz
  1  'x, y, z'
loop_
 _atom_site_type_symbol
 _atom_site_label
 _atom_site_symmetry_multiplicity
 _atom_site_fract_x
 _atom_site_fract_y
 _atom_site_fract_z
 _atom_site_occupancy
  Ba  Ba0  1  0.83099879  0.87534122  0.49715294  1
  Ba  Ba1  1  0.66677908  0.37530607  0.00383315  1
  Ba  Ba2  1  0.00051890  0.87565978  -0.00065059  1
  Ba  Ba3  1  0.33503521  0.12392314  0.32952112  1
  Ba  Ba4  1  0.33306683  0.12586011  0.99918435  1
  Ba  Ba5  1  0.32915055  0.87436194  0.66555043  1
  Ba  Ba6  1  0.83431728  0.37464467  0.16544814  1
  Ba  Ba7  1  0.00247063  0.37531608  0.33366555  1
  Ba  Ba8  1  0.83311214  0.37515615  0.49742811  1
  Ba  Ba9  1  0.16820422  0.37683764  0.49598664  1
  Ba  Ba10  1  0.66654378  0.37736563  0.33576799  1
  Ba  Ba11  1  0.49846031  0.12389102  0.83766589  1
  Ba  Ba12  1  0.49943865  0.62583007  0.83890002  1
  Ba  Ba13  1  0.49972705  0.12533034  0.50223342  1
  Ba  Ba14  1  0.16926185  0.87234136  0.49941812  1
  Ba  Ba15  1  0.00038503  0.37540756  0.66722272  1
  Ba  Ba16  1  0.83216022  0.87541980  0.16389452  1
  Sr  Sr17  1  0.16446935  0.62567041  0.16571876  1
  Sr  Sr18  1  0.50281734  0.12515023  0.17134960  1
  Sr  Sr19  1  0.66253525  0.87419297  0.33623089  1
  Sr  Sr20  1  0.17163567  0.37711463  0.16402199  1
  Sr  Sr21  1  0.83470186  0.12647587  0.83255190  1
  La  La22  1  0.33367130  0.87383185  -0.00309532  1
  La  La23  1  0.66969651  0.12547032  0.66498797  1
  La  La24  1  0.33448920  0.37399444  0.33115143  1
  La  La25  1  0.65773654  0.87544488  0.66979162  1
  La  La26  1  0.50365761  0.62422076  0.17152093  1
  La  La27  1  -0.00466750  0.87502510  0.67206122  1
  La  La28  1  0.49056598  0.87587039  0.83433152  1
  La  La29  1  0.83957384  0.62480555  0.16568128  1
  Pr  Pr30  1  0.67052192  0.12301175  0.33271698  1
  Pr  Pr31  1  0.49749347  0.87706426  0.17002286  1
  Pr  Pr32  1  0.83993632  0.62258101  0.49855555  1
  Pr  Pr33  1  0.17107319  0.37472873  0.82817324  1
  Pr  Pr34  1  0.83285439  0.12523914  0.16525921  1
  Pr  Pr35  1  0.00359334  0.37364257  0.00708924  1
  Pr  Pr36  1  0.16559861  0.62232508  0.49787530  1
  Pr  Pr37  1  0.33686880  0.37400468  0.66600197  1
  Pr  Pr38  1  0.66000744  0.87428624  0.00423458  1
  Pr  Pr39  1  0.00161594  0.62466858  0.33349510  1
  Pr  Pr40  1  -0.00183188  0.12468676  0.33385881  1
  Pr  Pr41  1  0.32971701  0.12457594  0.66020748  1
  Pr  Pr42  1  0.82806179  0.37308494  0.82859927  1
  Pr  Pr43  1  0.32897825  0.62073493  0.99723218  1
  Pr  Pr44  1  0.16285857  0.87856616  0.82664233  1
  Pr  Pr45  1  0.33914421  0.87661591  0.33540796  1
  Pr  Pr46  1  0.16204448  0.12511742  0.83379458  1
  Pr  Pr47  1  0.84050251  0.62441991  0.83371442  1
  Pr  Pr48  1  0.49796357  0.37373273  0.49890001  1
  Pr  Pr49  1  0.82468876  0.87700056  0.82830226  1
  Pr  Pr50  1  -0.00314601  0.12357464  0.99915263  1
  Pr  Pr51  1  0.16399777  0.12714116  0.49944651  1
  Pr  Pr52  1  0.16379187  0.62588739  0.83228546  1
  Pr  Pr53  1  0.67817828  0.62699426  0.33446470  1
  Pr  Pr54  1  0.00306527  0.62581344  0.66282169  1
  Pr  Pr55  1  0.00126808  0.62647145  1.00148277  1
  Pr  Pr56  1  0.67168200  0.12532822  0.99900818  1
  Pr  Pr57  1  0.33065673  0.62660949  0.32855502  1
  Pr  Pr58  1  0.50587019  0.62505953  0.50823568  1
  Pr  Pr59  1  0.00165120  0.87263533  0.33536781  1
  Pr  Pr60  1  0.34092129  0.37531546  0.00054644  1
  Pr  Pr61  1  0.67932276  0.62466954  0.99844710  1
  Pr  Pr62  1  0.67661863  0.62539866  0.66660893  1
  Pr  Pr63  1  0.83324147  0.12773474  0.49917063  1
  Pr  Pr64  1  0.49943665  0.37336987  0.83646416  1
  Pr  Pr65  1  -0.00341898  0.12420304  0.66287813  1
  Pr  Pr66  1  0.49929816  0.37071840  0.16706865  1
  Pr  Pr67  1  0.66201218  0.37415783  0.67133412  1
  Pr  Pr68  1  0.17096743  0.87436790  0.16310379  1
  Pr  Pr69  1  0.33469039  0.62445756  0.65936787  1
  Pr  Pr70  1  0.16354955  0.12393023  0.16866382  1
  Pr  Pr71  1  0.49617917  0.87616049  0.49958590  1
  Mn  Mn72  1  0.00149133  0.00078043  0.16716293  1
  Mn  Mn73  1  0.00054691  -0.00156440  0.49920833  1
  Mn  Mn74  1  -0.00284844  0.00189848  0.83275479  1
  Mn  Mn75  1  0.00383613  0.50015723  0.16578671  1
  Mn  Mn76  1  0.00151394  0.50133000  0.49919322  1
  Mn  Mn77  1  0.00002609  0.49945735  0.83612836  1
  Mn  Mn78  1  0.33334624  -0.00183462  0.16541333  1
  Mn  Mn79  1  0.33218602  -0.00010529  0.49829041  1
  Mn  Mn80  1  0.32919900  0.00071405  0.83216226  1
  Mn  Mn81  1  0.33427181  0.50225522  0.16469701  1
  Mn  Mn82  1  0.33581777  0.50145260  0.49627825  1
  Mn  Mn83  1  0.33124240  0.50022191  0.83127674  1
  Mn  Mn84  1  0.66585098  -0.00157211  0.16731153  1
  Mn  Mn85  1  0.66609448  -0.00096979  0.50069607  1
  Mn  Mn86  1  0.66585103  -0.00039415  0.83598812  1
  Mn  Mn87  1  0.66636841  0.50244212  0.16826303  1
  Mn  Mn88  1  0.66617175  0.50282484  0.50300898  1
  Mn  Mn89  1  0.66684800  0.50123046  0.83445274  1
  Mn  Mn90  1  0.00299002  0.24905267  0.16539418  1
  Mn  Mn91  1  0.00064935  0.24795069  0.49884541  1
  Mn  Mn92  1  -0.00074835  0.25033074  0.83591386  1
  Mn  Mn93  1  0.00249542  0.74970421  0.16718638  1
  Mn  Mn94  1  0.00142224  0.75114976  0.50040141  1
  Mn  Mn95  1  -0.00213384  0.74931939  0.83249539  1
  Mn  Mn96  1  0.33258343  0.25076097  0.16485251  1
  Mn  Mn97  1  0.33190914  0.25046599  0.49891888  1
  Mn  Mn98  1  0.33149207  0.25161284  0.83151104  1
  Mn  Mn99  1  0.33435154  0.74952541  0.16484228  1
  Mn  Mn100  1  0.33603195  0.74834353  0.49576476  1
  Mn  Mn101  1  0.32895226  0.74757058  0.83290815  1
  Mn  Mn102  1  0.66628236  0.24798758  0.16773773  1
  Mn  Mn103  1  0.66623789  0.24935851  0.50138442  1
  Mn  Mn104  1  0.66613005  0.24902064  0.83470233  1
  Mn  Mn105  1  0.66604670  0.74922236  0.16757955  1
  Mn  Mn106  1  0.66622095  0.74910255  0.50175618  1
  Mn  Mn107  1  0.66632878  0.74950016  0.83595101  1
  Mn  Mn108  1  0.16619076  0.25090666  -0.00150353  1
  Mn  Mn109  1  0.16775720  0.24906265  0.33111902  1
  Mn  Mn110  1  0.16650385  0.25075252  0.66680434  1
  Mn  Mn111  1  0.16772945  0.74893628  -0.00214471  1
  Mn  Mn112  1  0.16804428  0.74968172  0.32949428  1
  Mn  Mn113  1  0.16447120  0.74807502  0.66579957  1
  Mn  Mn114  1  0.50107534  0.24879325  0.00278022  1
  Mn  Mn115  1  0.50202365  0.25066431  0.33377844  1
  Mn  Mn116  1  0.49902043  0.25085117  0.66972900  1
  Mn  Mn117  1  0.49930178  0.74912756  0.00479866  1
  Mn  Mn118  1  0.50112049  0.74645760  0.33750977  1
  Mn  Mn119  1  0.49934323  0.74846689  0.67035597  1
  Mn  Mn120  1  0.83507700  0.24870666  -0.00262282  1
  Mn  Mn121  1  0.83377560  0.24725016  0.33279514  1
  Mn  Mn122  1  0.83220908  0.24965106  0.66697043  1
  Mn  Mn123  1  0.83405113  0.75098185  -0.00253408  1
  Mn  Mn124  1  0.83476380  0.75132325  0.33220222  1
  Mn  Mn125  1  0.83217639  0.75030646  0.66665218  1
  Mn  Mn126  1  0.16716705  -0.00015613  -0.00107555  1
  Mn  Mn127  1  0.16611365  -0.00164975  0.33136963  1
  Mn  Mn128  1  0.16291190  0.00183281  0.66569725  1
  Mn  Mn129  1  0.16601042  0.50062909  -0.00331458  1
  Mn  Mn130  1  0.16917560  0.50255453  0.32953013  1
  Mn  Mn131  1  0.16838752  0.49998138  0.66616979  1
  Mn  Mn132  1  0.50051275  -0.00185784  0.00335673  1
  Mn  Mn133  1  0.50321355  -0.00085209  0.33395186  1
  Mn  Mn134  1  0.49780836  0.00027719  0.66961006  1
  Mn  Mn135  1  0.50037369  0.50219856  0.00489791  1
  Mn  Mn136  1  0.49955548  0.50377922  0.33776704  1
  Mn  Mn137  1  0.50035272  0.50060280  0.67011360  1
  Mn  Mn138  1  0.83199623  0.00013534  -0.00301595  1
  Mn  Mn139  1  0.83376231  -0.00105105  0.33171318  1
  Mn  Mn140  1  0.83131696  0.00011356  0.66565892  1
  Mn  Mn141  1  0.83726399  0.50060332  -0.00216451  1
  Mn  Mn142  1  0.83504691  0.50177135  0.33282211  1
  Mn  Mn143  1  0.83291732  0.49985821  0.66745446  1
  O  O144  1  0.16341951  0.12699356  0.02458825  1
  O  O145  1  0.16555791  0.11892747  0.35434527  1
  O  O146  1  0.16961880  0.12778791  0.68970857  1
  O  O147  1  0.16848081  0.62543516  0.01832059  1
  O  O148  1  0.17369195  0.62818490  0.35328050  1
  O  O149  1  0.16884514  0.62268280  0.68837789  1
  O  O150  1  0.50385611  0.11998893  0.01809333  1
  O  O151  1  0.50786998  0.12344265  0.34460547  1
  O  O152  1  0.49519772  0.12895479  0.68106745  1
  O  O153  1  0.48691659  0.62667060  0.02538513  1
  O  O154  1  0.48756574  0.62530457  0.36629286  1
  O  O155  1  0.48978303  0.62297543  0.68348051  1
  O  O156  1  0.83109521  0.12235296  0.01913645  1
  O  O157  1  0.83452937  0.12020476  0.35404161  1
  O  O158  1  0.83403996  0.12401626  0.68456408  1
  O  O159  1  0.83323133  0.62740794  0.01840755  1
  O  O160  1  0.83601095  0.62930676  0.35249696  1
  O  O161  1  0.83346231  0.62536138  0.69115416  1
  O  O162  1  0.17243378  0.38005867  0.31611188  1
  O  O163  1  0.17080603  0.37591291  0.65225874  1
  O  O164  1  0.15591454  0.37758880  0.96993886  1
  O  O165  1  0.15993329  0.87261608  0.30696331  1
  O  O166  1  0.15405039  0.87465936  0.65714152  1
  O  O167  1  0.17150821  0.87080913  0.97038519  1
  O  O168  1  0.49895214  0.38181279  0.31063539  1
  O  O169  1  0.50246706  0.37747333  0.64297332  1
  O  O170  1  0.49823718  0.37953679  0.98088647  1
  O  O171  1  0.50133861  0.87014884  0.31357471  1
  O  O172  1  0.50471105  0.87144114  0.64555210  1
  O  O173  1  0.50911780  0.87130928  0.97871896  1
  O  O174  1  0.83415395  0.37655731  0.32364891  1
  O  O175  1  0.82458222  0.37578548  0.65428569  1
  O  O176  1  0.84385297  0.37610917  0.97425205  1
  O  O177  1  0.84039391  0.87445138  0.31895607  1
  O  O178  1  0.83350248  0.87439262  0.65388220  1
  O  O179  1  0.82841030  0.87526005  0.97325444  1
  O  O180  1  0.00273182  0.37566493  0.17573971  1
  O  O181  1  0.00118766  0.37576158  0.50826172  1
  O  O182  1  0.00095718  0.37627710  0.86139219  1
  O  O183  1  0.00690972  0.87606305  0.19107186  1
  O  O184  1  0.00149779  0.87436174  0.52645324  1
  O  O185  1  0.00707183  0.87532136  0.84232246  1
  O  O186  1  0.33445638  0.37943376  0.18761446  1
  O  O187  1  0.33692053  0.37763346  0.52230105  1
  O  O188  1  0.32239729  0.37779163  0.85655157  1
  O  O189  1  0.32855743  0.87163768  0.19176620  1
  O  O190  1  0.33918549  0.87310567  0.51020834  1
  O  O191  1  0.32232704  0.87050805  0.85134266  1
  O  O192  1  0.66199231  0.37688784  0.17912227  1
  O  O193  1  0.66385436  0.37953490  0.52567499  1
  O  O194  1  0.67286693  0.37612172  0.84687601  1
  O  O195  1  0.66303055  0.87231644  0.18663368  1
  O  O196  1  0.66343991  0.87203950  0.52577275  1
  O  O197  1  0.67674545  0.87264376  0.86047032  1
  O  O198  1  0.01018101  0.12456340  0.14202951  1
  O  O199  1  0.00019624  0.12011276  0.47959984  1
  O  O200  1  0.00309251  0.12567033  0.80713851  1
  O  O201  1  -0.00007136  0.62424422  0.14457709  1
  O  O202  1  -0.00256958  0.62938197  0.48153370  1
  O  O203  1  -0.00462493  0.62357319  0.80576581  1
  O  O204  1  0.33079599  0.12152715  0.15494584  1
  O  O205  1  0.32572706  0.12463086  0.48878227  1
  O  O206  1  0.32854086  0.13010246  0.80748479  1
  O  O207  1  0.34228232  0.62715043  0.13877197  1
  O  O208  1  0.34284402  0.62475541  0.47332331  1
  O  O209  1  0.32805088  0.62271687  0.80464906  1
  O  O210  1  0.66568485  0.12112398  0.14408188  1
  O  O211  1  0.66615851  0.12216493  0.48035667  1
  O  O212  1  0.66419193  0.12469091  0.80928894  1
  O  O213  1  0.66110964  0.62737144  0.14228132  1
  O  O214  1  0.65452932  0.62706640  0.47929199  1
  O  O215  1  0.66862482  0.62597295  0.81020350  1
  O  O216  1  0.07986938  0.02237270  0.25368862  1
  O  O217  1  0.08269251  0.02620276  0.58342327  1
  O  O218  1  0.08161949  0.02094669  0.91611923  1
  O  O219  1  0.08194409  0.52115674  0.25329380  1
  O  O220  1  0.08387534  0.52282842  0.58511003  1
  O  O221  1  0.07961778  0.52802071  0.91912012  1
  O  O222  1  0.42002366  0.00025261  0.24737418  1
  O  O223  1  0.41060138  0.01182738  0.58687529  1
  O  O224  1  0.41655143  -0.00309938  0.91929997  1
  O  O225  1  0.41939749  0.52386311  0.25325741  1
  O  O226  1  0.41796341  0.51727686  0.58272739  1
  O  O227  1  0.40571266  0.51217828  0.92240943  1
  O  O228  1  0.75391459  0.02194621  0.24345162  1
  O  O229  1  0.75261200  0.02139784  0.57905851  1
  O  O230  1  0.75214460  0.02107407  0.91134520  1
  O  O231  1  0.75280971  0.52378611  0.24746352  1
  O  O232  1  0.75333043  0.52772221  0.57885944  1
  O  O233  1  0.75706916  0.52004120  0.90958382  1
  O  O234  1  0.24278068  0.23761681  0.23775070  1
  O  O235  1  0.24396590  0.23013465  0.58014833  1
  O  O236  1  0.23751099  0.23688368  0.90245256  1
  O  O237  1  0.25206733  0.73048604  0.24408721  1
  O  O238  1  0.25462177  0.72707878  0.57889996  1
  O  O239  1  0.25076278  0.72203614  0.91692922  1
  O  O240  1  0.59088757  0.23417506  0.25688910  1
  O  O241  1  0.59134871  0.23915060  0.59580557  1
  O  O242  1  0.58891126  0.23666402  0.92353637  1
  O  O243  1  0.58615500  0.72468441  0.26259561  1
  O  O244  1  0.59102344  0.72878588  0.59623797  1
  O  O245  1  0.59509703  0.73315243  0.93271901  1
  O  O246  1  0.91649923  0.22563006  0.24539098  1
  O  O247  1  0.91702943  0.22883666  0.58335521  1
  O  O248  1  0.91934116  0.22758735  0.91744945  1
  O  O249  1  0.92115388  0.73016848  0.25156873  1
  O  O250  1  0.92225612  0.73089995  0.59015898  1
  O  O251  1  0.92183573  0.72760845  0.91906614  1
  O  O252  1  0.08665321  0.48465568  0.08017130  1
  O  O253  1  0.08797997  0.50494166  0.41865092  1
  O  O254  1  0.08833577  0.48766485  0.76123489  1
  O  O255  1  0.09316990  0.98343850  0.09100831  1
  O  O256  1  0.08183763  0.98169217  0.41299942  1
  O  O257  1  0.07602295  0.98808065  0.74602015  1
  O  O258  1  0.41814881  0.47584258  0.08631253  1
  O  O259  1  0.41623212  0.47261818  0.41616120  1
  O  O260  1  0.41704821  0.47336166  0.75299272  1
  O  O261  1  0.41626074  0.97427408  0.08354546  1
  O  O262  1  0.41927151  0.98132318  0.41470537  1
  O  O263  1  0.41483231  0.98485903  0.75392002  1
  O  O264  1  0.75439969  0.49832908  0.07728440  1
  O  O265  1  0.74702320  0.50431467  0.41622264  1
  O  O266  1  0.74319488  0.48584283  0.74241140  1
  O  O267  1  0.73925787  0.98674418  0.07316900  1
  O  O268  1  0.74414791  0.99142185  0.40912596  1
  O  O269  1  0.74191745  0.98041722  0.74675421  1
  O  O270  1  0.25422475  0.27312835  0.07020225  1
  O  O271  1  0.25700503  0.26434358  0.40731071  1
  O  O272  1  0.25670678  0.27120006  0.74132978  1
  O  O273  1  0.25288683  0.77040331  0.07866012  1
  O  O274  1  0.25831413  0.76228039  0.40548162  1
  O  O275  1  0.23387487  0.76195292  0.75817708  1
  O  O276  1  0.57659698  0.26121663  0.09395659  1
  O  O277  1  0.57804707  0.26804313  0.42725649  1
  O  O278  1  0.57935613  0.27347163  0.75608444  1
  O  O279  1  0.57495478  0.76755218  0.09483775  1
  O  O280  1  0.57379401  0.76553072  0.43195754  1
  O  O281  1  0.57929580  0.77255336  0.76288178  1
  O  O282  1  0.92554045  0.25730837  0.07662193  1
  O  O283  1  0.91810687  0.24891777  0.41548343  1
  O  O284  1  0.91126912  0.26639225  0.75683540  1
  O  O285  1  0.91592615  0.75553669  0.08450201  1
  O  O286  1  0.92105844  0.76304383  0.41531007  1
  O  O287  1  0.90597341  0.76791708  0.76039675  1
  O  O288  1  0.25724984  0.48618440  0.06664497  1
  O  O289  1  0.25901644  0.49284312  0.40647224  1
  O  O290  1  0.25636244  0.47973764  0.74312187  1
  O  O291  1  0.25365314  0.97579351  0.07795211  1
  O  O292  1  0.25513350  0.98109729  0.40573546  1
  O  O293  1  0.23845712  0.98850109  0.75252557  1
  O  O294  1  0.57343607  0.49091675  0.09950423  1
  O  O295  1  0.57210276  0.48745950  0.43347842  1
  O  O296  1  0.57960300  0.47807500  0.75720386  1
  O  O297  1  0.57754465  0.97607786  0.09133601  1
  O  O298  1  0.57922638  0.97817993  0.42596518  1
  O  O299  1  0.57856650  0.97527913  0.76160041  1
  O  O300  1  0.92514089  0.49022644  0.07545888  1
  O  O301  1  0.91705569  0.50148935  0.41717841  1
  O  O302  1  0.90837527  0.48305883  0.76139009  1
  O  O303  1  0.91681845  0.99686220  0.08306235  1
  O  O304  1  0.92388215  0.98594754  0.41016267  1
  O  O305  1  0.91158142  0.98103848  0.75228563  1
  O  O306  1  0.08800028  0.26924216  0.08369150  1
  O  O307  1  0.08809355  0.24908737  0.42024224  1
  O  O308  1  0.09162835  0.26419071  0.76040188  1
  O  O309  1  0.09007308  0.76421777  0.08582606  1
  O  O310  1  0.08028020  0.76094121  0.41197639  1
  O  O311  1  0.06835900  0.75922034  0.74229667  1
  O  O312  1  0.41593489  0.27089090  0.08413827  1
  O  O313  1  0.41866839  0.27026967  0.41792046  1
  O  O314  1  0.41734613  0.27853727  0.75343253  1
  O  O315  1  0.41658487  0.77883738  0.08624644  1
  O  O316  1  0.41710001  0.77391818  0.41410447  1
  O  O317  1  0.41358198  0.76454219  0.75391227  1
  O  O318  1  0.75095633  0.25161362  0.08299061  1
  O  O319  1  0.74800265  0.25010845  0.41545423  1
  O  O320  1  0.74325194  0.26572085  0.74565111  1
  O  O321  1  0.74093538  0.76108525  0.06862768  1
  O  O322  1  0.74206757  0.75582429  0.40977184  1
  O  O323  1  0.74102719  0.76739390  0.74250847  1
  O  O324  1  0.23863571  0.00872444  0.23782433  1
  O  O325  1  0.24487738  0.01811224  0.58348387  1
  O  O326  1  0.24205723  0.01695722  0.91030404  1
  O  O327  1  0.25303954  0.52204633  0.24444957  1
  O  O328  1  0.25309306  0.52582241  0.57596461  1
  O  O329  1  0.24204390  0.52144719  0.90570054  1
  O  O330  1  0.59190003  0.01333760  0.25749011  1
  O  O331  1  0.59113244  0.01202997  0.59693801  1
  O  O332  1  0.59404493  0.01082266  0.92978838  1
  O  O333  1  0.58503992  0.52896728  0.26556996  1
  O  O334  1  0.58985350  0.52275338  0.59554068  1
  O  O335  1  0.58920192  0.51904397  0.92984677  1
  O  O336  1  0.91840153  0.02402101  0.24708839  1
  O  O337  1  0.91868671  0.01937166  0.58344366  1
  O  O338  1  0.91920660  0.01819437  0.91674493  1
  O  O339  1  0.91821194  0.52161490  0.24805013  1
  O  O340  1  0.91876142  0.52152756  0.58705266  1
  O  O341  1  0.92008174  0.52765730  0.91810344  1
  O  O342  1  0.08086512  0.22697697  0.25205581  1
  O  O343  1  0.08016222  0.22668368  0.58808888  1
  O  O344  1  0.07839414  0.22533666  0.92204249  1
  O  O345  1  0.08142999  0.72917198  0.25302606  1
  O  O346  1  0.08783679  0.72403983  0.57916492  1
  O  O347  1  0.08455991  0.72850671  0.91081681  1
  O  O348  1  0.42125192  0.24720723  0.24824193  1
  O  O349  1  0.40757006  0.24147487  0.59248960  1
  O  O350  1  0.41418102  0.25051460  0.91623723  1
  O  O351  1  0.41922945  0.73074985  0.25066204  1
  O  O352  1  0.41936154  0.73067725  0.57809749  1
  O  O353  1  0.41140128  0.74141133  0.92411490  1
  O  O354  1  0.75175869  0.22501967  0.24786185  1
  O  O355  1  0.75187193  0.22748147  0.58023579  1
  O  O356  1  0.75103593  0.23327092  0.91379411  1
  O  O357  1  0.75495645  0.72705675  0.24274604  1
  O  O358  1  0.75466814  0.72403313  0.57704992  1
  O  O359  1  0.75840792  0.72727783  0.90627873  1
