# generated using pymatgen
data_Ba17Sr5La8Pr42Mn72O216
_symmetry_space_group_name_H-M   'P 1'
_cell_length_a   16.67712140
_cell_length_b   15.70885774
_cell_length_c   16.82046107
_cell_angle_alpha   89.99160288
_cell_angle_beta   90.02247671
_cell_angle_gamma   89.99043542
_symmetry_Int_Tables_number   1
_chemical_formula_structural   Ba17Sr5La8Pr42Mn72O216
_chemical_formula_sum   'Ba17 Sr5 La8 Pr42 Mn72 O216'
_cell_volume   4406.59917615
_cell_formula_units_Z   1
loop_
 _symmetry_equiv_pos_site_id
 _symmetry_equiv_pos_as_xyz
  1  'x, y, z'
loop_
 _atom_site_type_symbol
 _atom_site_label
 _atom_site_symmetry_multiplicity
 _atom_site_fract_x
 _atom_site_fract_y
 _atom_site_fract_z
 _atom_site_occupancy
  Ba  Ba0  1  0.16562332  0.12266550  0.16778197  1
  Ba  Ba1  1  -0.00373638  0.62576274  0.99738495  1
  Ba  Ba2  1  0.66492840  0.12370409  0.33229144  1
  Ba  Ba3  1  0.83357036  0.37356145  0.16321214  1
  Ba  Ba4  1  0.33368552  0.37627043  0.33607720  1
  Ba  Ba5  1  0.16796587  0.12437614  0.83711764  1
  Ba  Ba6  1  0.33292445  0.12474017  1.00397236  1
  Ba  Ba7  1  0.16330116  0.62613132  0.50201765  1
  Ba  Ba8  1  0.83030732  0.62518072  0.83051357  1
  Ba  Ba9  1  -0.00170291  0.62504582  0.66521819  1
  Ba  Ba10  1  0.49952516  0.12564327  0.16960837  1
  Ba  Ba11  1  0.33687624  0.87545117  0.66751883  1
  Ba  Ba12  1  0.33836340  0.12452303  0.66930233  1
  Ba  Ba13  1  0.66555955  0.62527098  0.66464352  1
  Ba  Ba14  1  0.16534886  0.62508914  0.83591005  1
  Ba  Ba15  1  0.16942135  0.37471480  0.49978304  1
  Ba  Ba16  1  0.33613908  0.37432680  0.66767549  1
  Sr  Sr17  1  0.50099054  0.12495270  0.49926576  1
  Sr  Sr18  1  0.17362266  0.87521228  0.50118619  1
  Sr  Sr19  1  0.15741296  0.62593560  0.16899709  1
  Sr  Sr20  1  0.50027326  0.37462438  0.16690307  1
  Sr  Sr21  1  0.33469176  0.87660254  0.33981602  1
  La  La22  1  0.83513847  0.37685578  0.49348613  1
  La  La23  1  0.49692381  0.12487808  0.83669214  1
  La  La24  1  0.33449010  0.87536795  0.00281090  1
  La  La25  1  0.49616105  0.62511363  0.83510008  1
  La  La26  1  0.66317018  0.12793766  0.99971183  1
  La  La27  1  0.00728362  0.87358123  0.66603474  1
  La  La28  1  0.00300780  0.37475867  0.33215299  1
  La  La29  1  0.66571709  0.37060142  0.33118845  1
  Pr  Pr30  1  0.50140229  0.37272431  0.83370333  1
  Pr  Pr31  1  0.82947990  0.12357928  0.83164693  1
  Pr  Pr32  1  0.50300371  0.87691410  0.50020804  1
  Pr  Pr33  1  0.83679354  0.37645079  0.82966898  1
  Pr  Pr34  1  0.66896048  0.12478521  0.65971260  1
  Pr  Pr35  1  -0.00541565  0.12658128  0.99507371  1
  Pr  Pr36  1  0.66063368  0.62480169  0.33160430  1
  Pr  Pr37  1  0.32788331  0.62596649  0.66589921  1
  Pr  Pr38  1  0.50258120  0.87714112  0.83153201  1
  Pr  Pr39  1  0.82958084  0.62535407  0.50494689  1
  Pr  Pr40  1  0.00569014  0.37785446  0.00001121  1
  Pr  Pr41  1  0.48934399  0.62523519  0.17140069  1
  Pr  Pr42  1  0.66858817  0.37365254  0.66559990  1
  Pr  Pr43  1  0.66851741  0.87918741  0.33395411  1
  Pr  Pr44  1  0.67069011  0.87314177  0.00086461  1
  Pr  Pr45  1  0.00585710  0.37649301  0.66649769  1
  Pr  Pr46  1  0.66980922  0.87624115  0.66794566  1
  Pr  Pr47  1  0.00689002  0.87301701  -0.00031421  1
  Pr  Pr48  1  -0.00551286  0.62523700  0.32906422  1
  Pr  Pr49  1  0.17606625  0.12395445  0.50199866  1
  Pr  Pr50  1  -0.00076855  0.12591161  0.32707303  1
  Pr  Pr51  1  0.17354924  0.87185554  0.16781137  1
  Pr  Pr52  1  0.16679787  0.37383973  0.83149154  1
  Pr  Pr53  1  0.50341784  0.87725908  0.16697794  1
  Pr  Pr54  1  0.66255800  0.62114548  0.99314483  1
  Pr  Pr55  1  0.49185273  0.62582669  0.50457844  1
  Pr  Pr56  1  0.83046558  0.12546142  0.16794657  1
  Pr  Pr57  1  0.83409811  0.12515893  0.49862077  1
  Pr  Pr58  1  0.66805944  0.37686886  0.00329905  1
  Pr  Pr59  1  0.00325480  0.12464733  0.66100603  1
  Pr  Pr60  1  0.83706436  0.87315376  0.49583965  1
  Pr  Pr61  1  0.83508928  0.87835792  0.16251800  1
  Pr  Pr62  1  0.50121952  0.37283416  0.49813022  1
  Pr  Pr63  1  0.33578365  0.12584014  0.33052555  1
  Pr  Pr64  1  0.17164828  0.87499549  0.83191871  1
  Pr  Pr65  1  0.83864539  0.87334437  0.82772347  1
  Pr  Pr66  1  0.33107925  0.37401432  0.00613865  1
  Pr  Pr67  1  0.31750871  0.62593914  0.33353333  1
  Pr  Pr68  1  0.00833725  0.87614367  0.33524019  1
  Pr  Pr69  1  0.16745697  0.37653847  0.16668347  1
  Pr  Pr70  1  0.32577061  0.62430345  1.00152713  1
  Pr  Pr71  1  0.82660310  0.62524147  0.16532710  1
  Mn  Mn72  1  -0.00136430  -0.00230059  0.16496783  1
  Mn  Mn73  1  0.00087084  0.00101712  0.49761449  1
  Mn  Mn74  1  -0.00146519  0.00057451  0.83245450  1
  Mn  Mn75  1  -0.00316567  0.50122254  0.16578654  1
  Mn  Mn76  1  -0.00194348  0.49862209  0.49737945  1
  Mn  Mn77  1  -0.00152016  0.49781115  0.83340939  1
  Mn  Mn78  1  0.33367950  -0.00321777  0.17216782  1
  Mn  Mn79  1  0.33723209  -0.00067065  0.49971371  1
  Mn  Mn80  1  0.33591192  -0.00121241  0.83746027  1
  Mn  Mn81  1  0.33082612  0.50115661  0.16845513  1
  Mn  Mn82  1  0.33566219  0.50130280  0.50172808  1
  Mn  Mn83  1  0.33582467  0.49977487  0.83761125  1
  Mn  Mn84  1  0.66756548  -0.00284092  0.16544551  1
  Mn  Mn85  1  0.66896471  -0.00045223  0.50024786  1
  Mn  Mn86  1  0.66786817  0.00058994  0.83240360  1
  Mn  Mn87  1  0.66361271  0.50310433  0.16460690  1
  Mn  Mn88  1  0.66647887  0.49968249  0.49668122  1
  Mn  Mn89  1  0.66535797  0.49748185  0.83306903  1
  Mn  Mn90  1  -0.00043200  0.24958335  0.16329783  1
  Mn  Mn91  1  -0.00031864  0.24717448  0.49756161  1
  Mn  Mn92  1  -0.00260229  0.24867426  0.83138160  1
  Mn  Mn93  1  -0.00410623  0.75189658  0.16748293  1
  Mn  Mn94  1  -0.00087070  0.75314283  0.49750363  1
  Mn  Mn95  1  -0.00077344  0.75237815  0.83360707  1
  Mn  Mn96  1  0.33235127  0.25119199  0.16956626  1
  Mn  Mn97  1  0.33744437  0.24824079  0.49997212  1
  Mn  Mn98  1  0.33555167  0.25158696  0.83788001  1
  Mn  Mn99  1  0.33266489  0.75033941  0.17075035  1
  Mn  Mn100  1  0.33540460  0.75092346  0.50067793  1
  Mn  Mn101  1  0.33617436  0.74914933  0.83737485  1
  Mn  Mn102  1  0.66589079  0.25148104  0.16515792  1
  Mn  Mn103  1  0.66804692  0.24942291  0.49991438  1
  Mn  Mn104  1  0.66784764  0.24989286  0.83177286  1
  Mn  Mn105  1  0.66550677  0.74893534  0.16564148  1
  Mn  Mn106  1  0.66679261  0.75185516  0.49673652  1
  Mn  Mn107  1  0.66533870  0.75143214  0.83437370  1
  Mn  Mn108  1  0.16460362  0.25095290  0.00115387  1
  Mn  Mn109  1  0.16487202  0.24760902  0.33425838  1
  Mn  Mn110  1  0.16816397  0.24833531  0.66775282  1
  Mn  Mn111  1  0.16672616  0.75180177  0.00195979  1
  Mn  Mn112  1  0.16408008  0.75124187  0.33413790  1
  Mn  Mn113  1  0.16765291  0.75232898  0.66753184  1
  Mn  Mn114  1  0.50023338  0.25166109  0.00059582  1
  Mn  Mn115  1  0.49996467  0.25151180  0.33415234  1
  Mn  Mn116  1  0.50462016  0.25059682  0.66735317  1
  Mn  Mn117  1  0.50043669  0.74950610  0.00297158  1
  Mn  Mn118  1  0.49985103  0.74854629  0.33529205  1
  Mn  Mn119  1  0.50234652  0.74953775  0.66776657  1
  Mn  Mn120  1  0.83194212  0.24780620  -0.00418849  1
  Mn  Mn121  1  0.83332726  0.24989355  0.33114150  1
  Mn  Mn122  1  0.83558519  0.24974488  0.66419737  1
  Mn  Mn123  1  0.83128045  0.75307964  -0.00138176  1
  Mn  Mn124  1  0.83139024  0.75035409  0.33136661  1
  Mn  Mn125  1  0.83338833  0.75250945  0.66227930  1
  Mn  Mn126  1  0.16523892  -0.00183621  0.00224904  1
  Mn  Mn127  1  0.16642150  -0.00048300  0.33667203  1
  Mn  Mn128  1  0.16818889  0.00041419  0.66715322  1
  Mn  Mn129  1  0.16580667  0.49937868  0.00130828  1
  Mn  Mn130  1  0.16270671  0.50183071  0.33244657  1
  Mn  Mn131  1  0.16719716  0.49832192  0.66866919  1
  Mn  Mn132  1  0.50163601  -0.00217148  -0.00000529  1
  Mn  Mn133  1  0.49942973  -0.00294252  0.33448254  1
  Mn  Mn134  1  0.50513361  -0.00006636  0.66710758  1
  Mn  Mn135  1  0.49839069  0.50108463  0.00210677  1
  Mn  Mn136  1  0.50072771  0.50277205  0.33530619  1
  Mn  Mn137  1  0.50183124  0.49993001  0.66743858  1
  Mn  Mn138  1  0.83224586  0.00004473  -0.00323063  1
  Mn  Mn139  1  0.83469289  -0.00159911  0.33048141  1
  Mn  Mn140  1  0.83622779  0.00087089  0.66433061  1
  Mn  Mn141  1  0.83135414  0.49868137  -0.00224248  1
  Mn  Mn142  1  0.83121971  0.50156466  0.33204651  1
  Mn  Mn143  1  0.83295766  0.49697026  0.66207647  1
  O  O144  1  0.15794327  0.12448436  0.01126123  1
  O  O145  1  0.15361517  0.12148543  0.35623481  1
  O  O146  1  0.15928630  0.12409719  0.67948360  1
  O  O147  1  0.17280241  0.62686302  0.01778896  1
  O  O148  1  0.15770028  0.62835092  0.34351124  1
  O  O149  1  0.17331553  0.62575563  0.67820587  1
  O  O150  1  0.50869008  0.12442452  0.01220498  1
  O  O151  1  0.49427182  0.12265698  0.34784712  1
  O  O152  1  0.51553809  0.12517090  0.69091067  1
  O  O153  1  0.51116816  0.62734549  0.02906125  1
  O  O154  1  0.51373999  0.62698057  0.36218464  1
  O  O155  1  0.50092511  0.62368394  0.69018750  1
  O  O156  1  0.83773925  0.12193776  0.02468038  1
  O  O157  1  0.83968319  0.12336090  0.35422559  1
  O  O158  1  0.83320779  0.12556023  0.69048192  1
  O  O159  1  0.82726144  0.63032773  0.02036138  1
  O  O160  1  0.83589958  0.62850388  0.36069147  1
  O  O161  1  0.83257030  0.62458560  0.67130425  1
  O  O162  1  0.16075281  0.37634741  0.31239377  1
  O  O163  1  0.16093420  0.37058705  0.65787958  1
  O  O164  1  0.16152093  0.37423711  0.97927825  1
  O  O165  1  0.16412964  0.87469976  0.31147731  1
  O  O166  1  0.16279164  0.87904710  0.65254449  1
  O  O167  1  0.16274497  0.87485163  0.97946718  1
  O  O168  1  0.50451981  0.38171337  0.31858526  1
  O  O169  1  0.50782970  0.37747454  0.64276477  1
  O  O170  1  0.49797873  0.37742427  0.97774431  1
  O  O171  1  0.50085986  0.86853459  0.31014935  1
  O  O172  1  0.50826718  0.87385567  0.64522015  1
  O  O173  1  0.49824373  0.87116746  0.97589081  1
  O  O174  1  0.83048187  0.37527675  0.31872371  1
  O  O175  1  0.83238730  0.37023768  0.63792510  1
  O  O176  1  0.82277646  0.36738449  0.97421468  1
  O  O177  1  0.82598645  0.87254479  0.30453083  1
  O  O178  1  0.83163557  0.87974334  0.64027682  1
  O  O179  1  0.82262545  0.88006304  0.97071050  1
  O  O180  1  0.00097108  0.37800302  0.18825352  1
  O  O181  1  -0.00975187  0.36737664  0.52202676  1
  O  O182  1  -0.00525684  0.36991989  0.85473557  1
  O  O183  1  -0.01439441  0.87543867  0.19290687  1
  O  O184  1  -0.01133858  0.88029605  0.52267323  1
  O  O185  1  -0.00882906  0.87981700  0.85476866  1
  O  O186  1  0.32769582  0.37865171  0.17992923  1
  O  O187  1  0.34264092  0.37658100  0.50882334  1
  O  O188  1  0.34633652  0.37846392  0.86041151  1
  O  O189  1  0.33282030  0.87079196  0.19096361  1
  O  O190  1  0.33896557  0.87365947  0.50975988  1
  O  O191  1  0.34423649  0.87164320  0.85661827  1
  O  O192  1  0.66500414  0.38279525  0.18716533  1
  O  O193  1  0.66565960  0.37257279  0.52067187  1
  O  O194  1  0.66820235  0.37114797  0.86041882  1
  O  O195  1  0.66838403  0.87015605  0.19087246  1
  O  O196  1  0.66706745  0.87740920  0.52336520  1
  O  O197  1  0.66676169  0.87779834  0.85827772  1
  O  O198  1  -0.00439347  0.11939309  0.13768665  1
  O  O199  1  -0.00479281  0.12269251  0.46911423  1
  O  O200  1  -0.00667923  0.12461430  0.80561841  1
  O  O201  1  -0.00502029  0.62789156  0.15281816  1
  O  O202  1  -0.00909770  0.62866805  0.47511115  1
  O  O203  1  -0.00206883  0.62505764  0.82382412  1
  O  O204  1  0.33373880  0.12312095  0.16170193  1
  O  O205  1  0.33786657  0.12239076  0.47972456  1
  O  O206  1  0.33977675  0.12487889  0.82869927  1
  O  O207  1  0.33661335  0.62665065  0.14449666  1
  O  O208  1  0.34268360  0.62709365  0.47999673  1
  O  O209  1  0.33815966  0.62441624  0.81148263  1
  O  O210  1  0.67135295  0.11970920  0.14446615  1
  O  O211  1  0.67120217  0.12342460  0.48748156  1
  O  O212  1  0.66899344  0.12526357  0.80263305  1
  O  O213  1  0.67078375  0.62856615  0.13670869  1
  O  O214  1  0.67571554  0.62811658  0.47448670  1
  O  O215  1  0.65871103  0.62498349  0.82227168  1
  O  O216  1  0.07314120  0.00988086  0.25792525  1
  O  O217  1  0.07926351  0.01993392  0.58120156  1
  O  O218  1  0.06874792  0.01091395  0.92407919  1
  O  O219  1  0.07112881  0.51528732  0.25414449  1
  O  O220  1  0.07530564  0.50169165  0.58524315  1
  O  O221  1  0.08017616  0.50100671  0.91948541  1
  O  O222  1  0.41202642  0.00868281  0.25746569  1
  O  O223  1  0.42749726  0.00846891  0.58177800  1
  O  O224  1  0.42229438  0.00939819  0.91712612  1
  O  O225  1  0.41188255  0.52634920  0.26047618  1
  O  O226  1  0.41323991  0.52331190  0.59259913  1
  O  O227  1  0.41453204  0.52896931  0.92495951  1
  O  O228  1  0.75514652  0.01251590  0.24233227  1
  O  O229  1  0.75508026  0.02131846  0.58275402  1
  O  O230  1  0.74635979  0.02672302  0.91668685  1
  O  O231  1  0.74316854  0.52615750  0.25193706  1
  O  O232  1  0.74663820  0.50862502  0.57947016  1
  O  O233  1  0.73942639  0.51209899  0.92233955  1
  O  O234  1  0.24928581  0.23562235  0.25616492  1
  O  O235  1  0.25134141  0.23422356  0.57968192  1
  O  O236  1  0.25107605  0.25249251  0.92287841  1
  O  O237  1  0.24165863  0.73339813  0.24574377  1
  O  O238  1  0.25440140  0.73907685  0.58624571  1
  O  O239  1  0.25521106  0.74124554  0.92276104  1
  O  O240  1  0.58474079  0.24830526  0.25305212  1
  O  O241  1  0.59408741  0.23624137  0.59092689  1
  O  O242  1  0.58577989  0.23160623  0.91284966  1
  O  O243  1  0.57558288  0.72701115  0.24271390  1
  O  O244  1  0.57627886  0.73690012  0.56827025  1
  O  O245  1  0.57511225  0.73304049  0.91486146  1
  O  O246  1  0.91638334  0.22768027  0.24296875  1
  O  O247  1  0.91902388  0.22155075  0.58044244  1
  O  O248  1  0.90914342  0.22560166  0.90757913  1
  O  O249  1  0.90476456  0.72744889  0.24341636  1
  O  O250  1  0.90656859  0.74026068  0.56814066  1
  O  O251  1  0.90786151  0.74911075  0.91128907  1
  O  O252  1  0.08593015  0.48016192  0.08781480  1
  O  O253  1  0.07840562  0.48568756  0.41349398  1
  O  O254  1  0.08313846  0.47828352  0.75440960  1
  O  O255  1  0.08465329  0.97063042  0.09093035  1
  O  O256  1  0.08368955  0.97669133  0.41943870  1
  O  O257  1  0.08336188  0.97907400  0.75564550  1
  O  O258  1  0.41645850  0.48829020  0.08557840  1
  O  O259  1  0.43321207  0.49151478  0.43082395  1
  O  O260  1  0.42761026  0.48596795  0.76411196  1
  O  O261  1  0.41870090  0.97624569  0.08847104  1
  O  O262  1  0.42354494  0.98090451  0.42041379  1
  O  O263  1  0.42764076  0.98984395  0.75774085  1
  O  O264  1  0.74722400  0.48784479  0.08149422  1
  O  O265  1  0.75406017  0.48198138  0.41824648  1
  O  O266  1  0.75448243  0.47533946  0.75004287  1
  O  O267  1  0.75120063  0.97766925  0.08137661  1
  O  O268  1  0.75250137  0.97925744  0.41634073  1
  O  O269  1  0.75267968  0.97928999  0.75176880  1
  O  O270  1  0.24644996  0.27076175  0.08593186  1
  O  O271  1  0.24812189  0.24578202  0.41724663  1
  O  O272  1  0.24948988  0.26511781  0.76074485  1
  O  O273  1  0.25327839  0.77272314  0.08178217  1
  O  O274  1  0.25699630  0.75600167  0.41064031  1
  O  O275  1  0.25116637  0.76593272  0.75823897  1
  O  O276  1  0.58549950  0.26882882  0.07794569  1
  O  O277  1  0.58328256  0.26879498  0.41974404  1
  O  O278  1  0.58756660  0.27688543  0.75089598  1
  O  O279  1  0.58736573  0.77698578  0.08000735  1
  O  O280  1  0.59350057  0.77387254  0.40679132  1
  O  O281  1  0.58985114  0.77339468  0.74602211  1
  O  O282  1  0.92346160  0.26352796  0.06749520  1
  O  O283  1  0.91540986  0.26730735  0.41555110  1
  O  O284  1  0.91708472  0.27361572  0.74499325  1
  O  O285  1  0.91776957  0.77572642  0.07755443  1
  O  O286  1  0.92029727  0.77547738  0.40644046  1
  O  O287  1  0.92090817  0.77261389  0.74336017  1
  O  O288  1  0.24842976  0.47945113  0.08230961  1
  O  O289  1  0.25470679  0.50154598  0.41365358  1
  O  O290  1  0.24974552  0.48259652  0.76138782  1
  O  O291  1  0.25169001  0.97690895  0.08978838  1
  O  O292  1  0.25003527  0.99429959  0.41782382  1
  O  O293  1  0.25049647  0.98464384  0.75916967  1
  O  O294  1  0.58651074  0.48168589  0.07687467  1
  O  O295  1  0.59588209  0.48232770  0.40487758  1
  O  O296  1  0.58986518  0.47517693  0.74588812  1
  O  O297  1  0.58654347  0.97535841  0.08066337  1
  O  O298  1  0.58491432  0.97765044  0.41718000  1
  O  O299  1  0.58895015  0.97456711  0.74982869  1
  O  O300  1  0.92161235  0.48385384  0.07458514  1
  O  O301  1  0.92003064  0.48070736  0.40866755  1
  O  O302  1  0.92005607  0.47584179  0.74282842  1
  O  O303  1  0.91881350  0.97556490  0.07521976  1
  O  O304  1  0.91828248  0.97666070  0.41150726  1
  O  O305  1  0.91903926  0.97922058  0.74486834  1
  O  O306  1  0.08465241  0.27475166  0.08648140  1
  O  O307  1  0.07627197  0.26587172  0.41202656  1
  O  O308  1  0.07991664  0.26873141  0.75252220  1
  O  O309  1  0.08599355  0.77280655  0.09177789  1
  O  O310  1  0.08404863  0.77299065  0.41904980  1
  O  O311  1  0.08523406  0.77225077  0.75537433  1
  O  O312  1  0.41359625  0.26797414  0.08108146  1
  O  O313  1  0.42338230  0.26119227  0.42133079  1
  O  O314  1  0.42697686  0.26102309  0.75589075  1
  O  O315  1  0.42450325  0.76765720  0.09359176  1
  O  O316  1  0.43180385  0.76391993  0.42942862  1
  O  O317  1  0.42859630  0.76186286  0.76554486  1
  O  O318  1  0.74495248  0.25898489  0.07365346  1
  O  O319  1  0.74853679  0.26671121  0.41765733  1
  O  O320  1  0.75115111  0.27202545  0.74956010  1
  O  O321  1  0.75584485  0.77461223  0.08852807  1
  O  O322  1  0.75425028  0.77545929  0.41699775  1
  O  O323  1  0.75472427  0.77327434  0.75158700  1
  O  O324  1  0.25015832  0.01280539  0.25790329  1
  O  O325  1  0.24953185  0.01397603  0.57867799  1
  O  O326  1  0.25213699  -0.00338686  0.92102422  1
  O  O327  1  0.24374359  0.51922102  0.24744089  1
  O  O328  1  0.25493441  0.51225451  0.58859354  1
  O  O329  1  0.25599270  0.50923888  0.92550732  1
  O  O330  1  0.58318883  -0.00064423  0.24971963  1
  O  O331  1  0.59278030  0.01377150  0.58986345  1
  O  O332  1  0.58543692  0.01879025  0.91134771  1
  O  O333  1  0.57743269  0.52747627  0.24299336  1
  O  O334  1  0.57545110  0.51429006  0.56779297  1
  O  O335  1  0.57542467  0.51504512  0.91406025  1
  O  O336  1  0.91372307  0.02278281  0.24280545  1
  O  O337  1  0.91785951  0.02677142  0.57830751  1
  O  O338  1  0.90958398  0.02319321  0.90910852  1
  O  O339  1  0.90762699  0.52355313  0.24543070  1
  O  O340  1  0.90643902  0.51077690  0.56966587  1
  O  O341  1  0.90894785  0.49969028  0.90934287  1
  O  O342  1  0.07695929  0.23636599  0.25453350  1
  O  O343  1  0.08092015  0.22682659  0.57765363  1
  O  O344  1  0.07123917  0.23821480  0.92394447  1
  O  O345  1  0.06807153  0.74151042  0.25852603  1
  O  O346  1  0.07579374  0.74951095  0.58565451  1
  O  O347  1  0.07919407  0.75011291  0.92061559  1
  O  O348  1  0.41301843  0.23983604  0.25712063  1
  O  O349  1  0.42745380  0.24058373  0.58201226  1
  O  O350  1  0.42460170  0.23856017  0.91429717  1
  O  O351  1  0.41110652  0.72285700  0.26260147  1
  O  O352  1  0.41412302  0.72837860  0.59274591  1
  O  O353  1  0.41260826  0.72427776  0.92990230  1
  O  O354  1  0.75331202  0.23480317  0.24321839  1
  O  O355  1  0.75532626  0.22865375  0.58185777  1
  O  O356  1  0.74892568  0.22154159  0.91312760  1
  O  O357  1  0.74287317  0.72397004  0.25360334  1
  O  O358  1  0.74764474  0.74146688  0.57855497  1
  O  O359  1  0.73700168  0.73776254  0.92831167  1
