# generated using pymatgen
data_Ba17Sr5La8Pr42Mn72O216
_symmetry_space_group_name_H-M   'P 1'
_cell_length_a   16.67681921
_cell_length_b   15.70747680
_cell_length_c   16.82381680
_cell_angle_alpha   89.99508136
_cell_angle_beta   89.97388773
_cell_angle_gamma   90.01766096
_symmetry_Int_Tables_number   1
_chemical_formula_structural   Ba17Sr5La8Pr42Mn72O216
_chemical_formula_sum   'Ba17 Sr5 La8 Pr42 Mn72 O216'
_cell_volume   4407.01076004
_cell_formula_units_Z   1
loop_
 _symmetry_equiv_pos_site_id
 _symmetry_equiv_pos_as_xyz
  1  'x, y, z'
loop_
 _atom_site_type_symbol
 _atom_site_label
 _atom_site_symmetry_multiplicity
 _atom_site_fract_x
 _atom_site_fract_y
 _atom_site_fract_z
 _atom_site_occupancy
  Ba  Ba0  1  0.33054493  0.12669690  0.66482547  1
  Ba  Ba1  1  0.50004332  0.87543954  0.50019935  1
  Ba  Ba2  1  0.66577310  0.12831052  0.66695229  1
  Ba  Ba3  1  0.66769553  0.37544188  0.33342410  1
  Ba  Ba4  1  0.50138344  0.62456455  0.50050487  1
  Ba  Ba5  1  0.33271912  0.87710364  0.33257685  1
  Ba  Ba6  1  0.16705145  0.62411392  0.16902069  1
  Ba  Ba7  1  0.66896504  0.62280607  0.33523933  1
  Ba  Ba8  1  0.33396564  0.12566769  0.99678971  1
  Ba  Ba9  1  -0.00198236  0.87361184  0.66581625  1
  Ba  Ba10  1  0.66579172  0.87370873  -0.00022465  1
  Ba  Ba11  1  0.83158974  0.87518430  0.83213960  1
  Ba  Ba12  1  0.83143236  0.12528443  0.83425604  1
  Ba  Ba13  1  0.00256087  0.62386019  1.00024282  1
  Ba  Ba14  1  0.49964093  0.87481772  0.16517298  1
  Ba  Ba15  1  0.00078378  0.62407782  0.66635457  1
  Ba  Ba16  1  -0.00196824  0.12562497  0.99932130  1
  Sr  Sr17  1  0.16666657  0.87564495  0.16710713  1
  Sr  Sr18  1  0.83597419  0.87548520  0.50151233  1
  Sr  Sr19  1  0.33288458  0.12405256  0.33042082  1
  Sr  Sr20  1  0.82816868  0.12665799  0.50436924  1
  Sr  Sr21  1  0.50224920  0.37546735  0.16455351  1
  La  La22  1  0.66220486  0.12455102  0.99767625  1
  La  La23  1  0.16858773  0.62682940  0.50016602  1
  La  La24  1  0.00484943  0.87522961  0.33657024  1
  La  La25  1  0.16819806  0.37462844  0.83385708  1
  La  La26  1  0.50345173  0.62583930  0.17029441  1
  La  La27  1  0.83935748  0.37554947  0.83280021  1
  La  La28  1  0.67144589  0.62512616  0.66269344  1
  La  La29  1  0.16539207  0.12240625  0.83669135  1
  Pr  Pr30  1  -0.00394897  0.87743078  0.00203396  1
  Pr  Pr31  1  -0.00746476  0.12322682  0.66522643  1
  Pr  Pr32  1  0.16179224  0.12126018  0.50162203  1
  Pr  Pr33  1  0.66935413  0.87351694  0.33937142  1
  Pr  Pr34  1  0.00244971  0.37446445  0.66854809  1
  Pr  Pr35  1  0.49950996  0.37106056  0.83229205  1
  Pr  Pr36  1  0.83276079  0.62268017  0.50026203  1
  Pr  Pr37  1  0.16842442  0.37368544  0.49988845  1
  Pr  Pr38  1  0.66903376  0.62404868  1.00238239  1
  Pr  Pr39  1  0.83360096  0.87294022  0.16422998  1
  Pr  Pr40  1  0.49654097  0.12405976  0.16697911  1
  Pr  Pr41  1  -0.00621449  0.12370102  0.32962483  1
  Pr  Pr42  1  0.66751988  0.88013407  0.66830562  1
  Pr  Pr43  1  0.16286763  0.12207359  0.17000470  1
  Pr  Pr44  1  0.49569476  0.12428586  0.50053991  1
  Pr  Pr45  1  -0.00096464  0.62676806  0.32697391  1
  Pr  Pr46  1  0.33445865  0.37799803  0.66713269  1
  Pr  Pr47  1  0.83236283  0.62687401  0.17072965  1
  Pr  Pr48  1  0.50183880  0.12525008  0.83437087  1
  Pr  Pr49  1  0.49954330  0.36985008  0.49442601  1
  Pr  Pr50  1  0.49582347  0.87818807  0.82700929  1
  Pr  Pr51  1  0.17019678  0.37257854  0.16391292  1
  Pr  Pr52  1  0.17119753  0.62782357  0.83967571  1
  Pr  Pr53  1  0.33246630  0.37815570  0.33460302  1
  Pr  Pr54  1  0.83566298  0.62801260  0.83538629  1
  Pr  Pr55  1  0.16631266  0.87562022  0.49740256  1
  Pr  Pr56  1  0.34060481  0.62780822  0.33047552  1
  Pr  Pr57  1  0.66872324  0.37258488  0.00666522  1
  Pr  Pr58  1  0.84116152  0.37442039  0.49881913  1
  Pr  Pr59  1  0.33431661  0.37528801  0.00390972  1
  Pr  Pr60  1  0.82429810  0.12469345  0.16871078  1
  Pr  Pr61  1  0.16282775  0.87586493  0.83549722  1
  Pr  Pr62  1  0.83418537  0.37778928  0.16512229  1
  Pr  Pr63  1  0.66452466  0.37654126  0.66613163  1
  Pr  Pr64  1  0.50470323  0.62187782  0.83290963  1
  Pr  Pr65  1  0.33877847  0.62666110  0.99915375  1
  Pr  Pr66  1  0.00480896  0.37276914  0.33330524  1
  Pr  Pr67  1  0.00068105  0.37256979  0.00352099  1
  Pr  Pr68  1  0.32942171  0.87579122  0.00679126  1
  Pr  Pr69  1  0.66106265  0.12543745  0.33527311  1
  Pr  Pr70  1  0.33559881  0.62542108  0.66324848  1
  Pr  Pr71  1  0.32640057  0.87358888  0.66471830  1
  Mn  Mn72  1  -0.00178328  0.00018404  0.16780935  1
  Mn  Mn73  1  -0.00157182  0.00137993  0.49864614  1
  Mn  Mn74  1  0.00011406  -0.00005785  0.83345073  1
  Mn  Mn75  1  -0.00048784  0.49828169  0.16725520  1
  Mn  Mn76  1  0.00255431  0.49917199  0.49715355  1
  Mn  Mn77  1  0.00309231  0.50018108  0.83354899  1
  Mn  Mn78  1  0.33170326  0.00122172  0.16576582  1
  Mn  Mn79  1  0.33111982  0.00222111  0.49889313  1
  Mn  Mn80  1  0.33296205  -0.00213036  0.83167751  1
  Mn  Mn81  1  0.33476778  0.49841540  0.16725443  1
  Mn  Mn82  1  0.33135703  0.49874601  0.50058754  1
  Mn  Mn83  1  0.33540560  0.49982148  0.83346788  1
  Mn  Mn84  1  0.66632433  0.00204487  0.16872303  1
  Mn  Mn85  1  0.66844129  0.00037739  0.50000926  1
  Mn  Mn86  1  0.66365858  0.00095214  0.83419938  1
  Mn  Mn87  1  0.66771253  0.49826399  0.16566262  1
  Mn  Mn88  1  0.66659084  0.49784226  0.50219058  1
  Mn  Mn89  1  0.66697128  0.49819261  0.83513018  1
  Mn  Mn90  1  -0.00185647  0.24979689  0.16810459  1
  Mn  Mn91  1  0.00121252  0.24939703  0.49985224  1
  Mn  Mn92  1  0.00198977  0.25231049  0.83347351  1
  Mn  Mn93  1  0.00034096  0.75153806  0.16718099  1
  Mn  Mn94  1  0.00047745  0.74903489  0.49698076  1
  Mn  Mn95  1  0.00175040  0.74859171  0.83445192  1
  Mn  Mn96  1  0.33316380  0.24928506  0.16735721  1
  Mn  Mn97  1  0.33023931  0.24998941  0.49709514  1
  Mn  Mn98  1  0.33318220  0.25162917  0.83147031  1
  Mn  Mn99  1  0.33261736  0.74920042  0.16498633  1
  Mn  Mn100  1  0.33274259  0.74912416  0.50026077  1
  Mn  Mn101  1  0.33527598  0.75048510  0.83308479  1
  Mn  Mn102  1  0.66642320  0.24985578  0.16712464  1
  Mn  Mn103  1  0.66592831  0.25192950  0.50019838  1
  Mn  Mn104  1  0.66583478  0.25444931  0.83608619  1
  Mn  Mn105  1  0.66779690  0.74979646  0.16824714  1
  Mn  Mn106  1  0.67030380  0.75026564  0.50214198  1
  Mn  Mn107  1  0.66263838  0.74659744  0.83234840  1
  Mn  Mn108  1  0.16739010  0.25101455  -0.00007874  1
  Mn  Mn109  1  0.16613805  0.24962523  0.33334489  1
  Mn  Mn110  1  0.16532807  0.25077272  0.66622483  1
  Mn  Mn111  1  0.16859011  0.74992938  0.00140119  1
  Mn  Mn112  1  0.16673863  0.74954896  0.33530938  1
  Mn  Mn113  1  0.16781587  0.74880747  0.66860819  1
  Mn  Mn114  1  0.49991241  0.25234814  -0.00069842  1
  Mn  Mn115  1  0.49765619  0.25032732  0.33119614  1
  Mn  Mn116  1  0.49844009  0.25185687  0.66399813  1
  Mn  Mn117  1  0.50014508  0.74648405  -0.00276686  1
  Mn  Mn118  1  0.50204486  0.75023848  0.33311185  1
  Mn  Mn119  1  0.49979118  0.75044461  0.66961225  1
  Mn  Mn120  1  0.83193980  0.25174477  0.00097935  1
  Mn  Mn121  1  0.83376136  0.24883240  0.33472581  1
  Mn  Mn122  1  0.83435153  0.25334988  0.66531520  1
  Mn  Mn123  1  0.83404672  0.74905009  0.00126283  1
  Mn  Mn124  1  0.83547958  0.75214790  0.33351792  1
  Mn  Mn125  1  0.83174605  0.74856719  0.66615493  1
  Mn  Mn126  1  0.16631652  -0.00052231  0.00133126  1
  Mn  Mn127  1  0.16577741  0.00226435  0.33443163  1
  Mn  Mn128  1  0.16443099  0.00043631  0.66775315  1
  Mn  Mn129  1  0.16955425  0.49956397  -0.00008873  1
  Mn  Mn130  1  0.16636300  0.49817183  0.33482262  1
  Mn  Mn131  1  0.16810328  0.50006643  0.66707677  1
  Mn  Mn132  1  0.49925868  -0.00066184  -0.00254760  1
  Mn  Mn133  1  0.50083450  0.00189674  0.33320421  1
  Mn  Mn134  1  0.49774015  0.00125208  0.66559347  1
  Mn  Mn135  1  0.50125620  0.49998546  -0.00045527  1
  Mn  Mn136  1  0.49927383  0.49801629  0.33174521  1
  Mn  Mn137  1  0.49955415  0.49844222  0.66765895  1
  Mn  Mn138  1  0.83213668  -0.00065126  0.00224227  1
  Mn  Mn139  1  0.83268266  0.00192956  0.33405582  1
  Mn  Mn140  1  0.83160626  0.00114915  0.66487740  1
  Mn  Mn141  1  0.83263351  0.50048983  -0.00130218  1
  Mn  Mn142  1  0.83736379  0.49724207  0.33368802  1
  Mn  Mn143  1  0.83446057  0.49698462  0.66705581  1
  O  O144  1  0.16498344  0.12842384  0.02321034  1
  O  O145  1  0.15911906  0.12849412  0.35809092  1
  O  O146  1  0.16147373  0.13040871  0.69463109  1
  O  O147  1  0.17263689  0.62321307  0.01255520  1
  O  O148  1  0.15702940  0.61972796  0.35713344  1
  O  O149  1  0.17614124  0.62545284  0.69573994  1
  O  O150  1  0.50244034  0.13075631  0.02066707  1
  O  O151  1  0.50434950  0.12716382  0.35581892  1
  O  O152  1  0.49534958  0.13057706  0.69019279  1
  O  O153  1  0.49209944  0.62094048  0.02523257  1
  O  O154  1  0.49331587  0.62241519  0.34057910  1
  O  O155  1  0.48878831  0.62232207  0.68936195  1
  O  O156  1  0.82709734  0.12684846  0.02248839  1
  O  O157  1  0.83737930  0.12643673  0.35677087  1
  O  O158  1  0.83645614  0.13134248  0.67579147  1
  O  O159  1  0.82785093  0.62269904  0.02591225  1
  O  O160  1  0.84305566  0.62228625  0.35706146  1
  O  O161  1  0.82385342  0.61849150  0.68975689  1
  O  O162  1  0.16827562  0.37322944  0.30645222  1
  O  O163  1  0.16807068  0.37368773  0.64134144  1
  O  O164  1  0.17135219  0.37562847  0.97933942  1
  O  O165  1  0.16184159  0.87883005  0.31895317  1
  O  O166  1  0.17260223  0.87073266  0.64161820  1
  O  O167  1  0.17536225  0.87303096  0.97980280  1
  O  O168  1  0.49169870  0.37355719  0.31417848  1
  O  O169  1  0.50081532  0.37538017  0.63962212  1
  O  O170  1  0.50431283  0.37796191  0.97496758  1
  O  O171  1  0.51054127  0.87762016  0.32364772  1
  O  O172  1  0.51443006  0.87397799  0.66050901  1
  O  O173  1  0.49744938  0.86830948  0.97364264  1
  O  O174  1  0.84283628  0.37197358  0.30791105  1
  O  O175  1  0.84864726  0.37587417  0.64407662  1
  O  O176  1  0.82647299  0.37898691  0.97654235  1
  O  O177  1  0.83258319  0.87969100  0.30711194  1
  O  O178  1  0.82704151  0.87270966  0.65417402  1
  O  O179  1  0.83811547  0.87257625  0.99105636  1
  O  O180  1  -0.00853934  0.37307731  0.19068375  1
  O  O181  1  -0.00040830  0.37339284  0.52580155  1
  O  O182  1  0.00037821  0.37745843  0.85733330  1
  O  O183  1  -0.00934672  0.87801330  0.19270596  1
  O  O184  1  0.00510126  0.87640312  0.51016618  1
  O  O185  1  0.00624775  0.87215675  0.85419861  1
  O  O186  1  0.32716345  0.37355436  0.19119782  1
  O  O187  1  0.32665585  0.37534545  0.52422669  1
  O  O188  1  0.33662759  0.37844566  0.86089716  1
  O  O189  1  0.33031399  0.87633491  0.17395176  1
  O  O190  1  0.32354664  0.87642092  0.51904313  1
  O  O191  1  0.33931536  0.87120295  0.86228438  1
  O  O192  1  0.66824884  0.37288348  0.17794589  1
  O  O193  1  0.65221470  0.37552878  0.51948762  1
  O  O194  1  0.65927711  0.37843118  0.86458934  1
  O  O195  1  0.67281375  0.87942301  0.19319988  1
  O  O196  1  0.66823001  0.87378574  0.52264311  1
  O  O197  1  0.65191345  0.87268826  0.84106431  1
  O  O198  1  0.00986640  0.12594977  0.15366268  1
  O  O199  1  0.00806140  0.12804607  0.47309500  1
  O  O200  1  0.01031030  0.13002882  0.81278429  1
  O  O201  1  -0.00373924  0.62387420  0.15536350  1
  O  O202  1  0.00197437  0.62150128  0.47066023  1
  O  O203  1  0.00517345  0.62225098  0.82405485  1
  O  O204  1  0.33647324  0.12704597  0.15274638  1
  O  O205  1  0.33157962  0.12882850  0.48176264  1
  O  O206  1  0.33163313  0.12580450  0.81967231  1
  O  O207  1  0.33845966  0.62116840  0.14430187  1
  O  O208  1  0.32583641  0.61940022  0.47633520  1
  O  O209  1  0.33135145  0.62375308  0.80466566  1
  O  O210  1  0.67344822  0.12837926  0.14226734  1
  O  O211  1  0.66918652  0.12803527  0.48012059  1
  O  O212  1  0.66104819  0.13046939  0.82448732  1
  O  O213  1  0.67432565  0.62041643  0.14777814  1
  O  O214  1  0.67766900  0.62129265  0.49354525  1
  O  O215  1  0.66896472  0.61812096  0.80604152  1
  O  O216  1  0.07774262  0.01901229  0.25593615  1
  O  O217  1  0.07743492  0.02396930  0.58672497  1
  O  O218  1  0.08691809  0.00918554  0.91545651  1
  O  O219  1  0.07931214  0.50837068  0.25779631  1
  O  O220  1  0.08776538  0.51362705  0.57379998  1
  O  O221  1  0.09462031  0.50943516  0.90897316  1
  O  O222  1  0.41980486  0.01642409  0.24554920  1
  O  O223  1  0.41573627  0.01227551  0.58017412  1
  O  O224  1  0.42508800  0.01344482  0.90204444  1
  O  O225  1  0.41592970  0.51690601  0.24799637  1
  O  O226  1  0.40912439  0.51138861  0.58784971  1
  O  O227  1  0.41909909  0.52219333  0.91360827  1
  O  O228  1  0.74446934  0.02717258  0.25737524  1
  O  O229  1  0.74631781  0.00709067  0.58385866  1
  O  O230  1  0.74321614  0.01123311  0.92396580  1
  O  O231  1  0.75898782  0.50939732  0.24450190  1
  O  O232  1  0.74943534  0.50403686  0.58944195  1
  O  O233  1  0.74907135  0.52465590  0.91715892  1
  O  O234  1  0.23803751  0.23081398  0.24387469  1
  O  O235  1  0.23736697  0.23524497  0.57221734  1
  O  O236  1  0.24570789  0.24078576  0.90773633  1
  O  O237  1  0.25459730  0.73148323  0.26190861  1
  O  O238  1  0.25570917  0.72875979  0.59102839  1
  O  O239  1  0.25949659  0.72801105  0.91903277  1
  O  O240  1  0.58156978  0.22706937  0.24527965  1
  O  O241  1  0.57543969  0.23483332  0.57632030  1
  O  O242  1  0.57856466  0.23317806  0.91331251  1
  O  O243  1  0.58426429  0.73618602  0.24691066  1
  O  O244  1  0.59103505  0.73596373  0.59928942  1
  O  O245  1  0.58777904  0.71875263  0.92142293  1
  O  O246  1  0.91134835  0.22594212  0.24615690  1
  O  O247  1  0.91801520  0.23307382  0.57920435  1
  O  O248  1  0.91266487  0.24874724  0.91587746  1
  O  O249  1  0.91486183  0.73003102  0.24786300  1
  O  O250  1  0.91535951  0.73257601  0.57224406  1
  O  O251  1  0.91443819  0.73484743  0.91688296  1
  O  O252  1  0.08230018  0.47488408  0.08471473  1
  O  O253  1  0.08512901  0.47064769  0.41635040  1
  O  O254  1  0.08496825  0.47754534  0.74517061  1
  O  O255  1  0.08018864  0.97919375  0.08422950  1
  O  O256  1  0.08798986  0.98433809  0.42249645  1
  O  O257  1  0.09066485  0.98444400  0.75625516  1
  O  O258  1  0.41492148  0.47784001  0.07745743  1
  O  O259  1  0.41020575  0.47799675  0.41726043  1
  O  O260  1  0.41780920  0.47442169  0.75143899  1
  O  O261  1  0.41313023  0.98604191  0.07160840  1
  O  O262  1  0.41994359  0.99860144  0.41662616  1
  O  O263  1  0.41066959  0.97562681  0.74427744  1
  O  O264  1  0.75104992  0.47816757  0.08161079  1
  O  O265  1  0.76299176  0.48336696  0.42396292  1
  O  O266  1  0.74881526  0.47025327  0.75338143  1
  O  O267  1  0.75825824  0.98736657  0.09801278  1
  O  O268  1  0.75335276  0.97978130  0.41609329  1
  O  O269  1  0.74131704  0.98876212  0.74874055  1
  O  O270  1  0.25121526  0.27207253  0.08168920  1
  O  O271  1  0.25199485  0.27448492  0.41030210  1
  O  O272  1  0.25271639  0.27448364  0.74539585  1
  O  O273  1  0.24894910  0.76410470  0.08390936  1
  O  O274  1  0.24017955  0.75994176  0.42828095  1
  O  O275  1  0.24838823  0.77475047  0.75654336  1
  O  O276  1  0.58892476  0.26525483  0.07656822  1
  O  O277  1  0.57808812  0.26189723  0.41680279  1
  O  O278  1  0.58395112  0.27540743  0.74875464  1
  O  O279  1  0.58203868  0.74899706  0.08362649  1
  O  O280  1  0.59204688  0.76046870  0.41718533  1
  O  O281  1  0.56598529  0.75208360  0.76627630  1
  O  O282  1  0.91714494  0.27299714  0.08008844  1
  O  O283  1  0.92355867  0.27129146  0.41293107  1
  O  O284  1  0.92270610  0.26942740  0.74672773  1
  O  O285  1  0.91816616  0.76916243  0.08607100  1
  O  O286  1  0.92308974  0.76734771  0.40746634  1
  O  O287  1  0.90876677  0.74943950  0.75179812  1
  O  O288  1  0.25047432  0.47708259  0.08648766  1
  O  O289  1  0.24575915  0.47612976  0.42084894  1
  O  O290  1  0.25399255  0.47468142  0.75290492  1
  O  O291  1  0.24720866  0.98840542  0.08251748  1
  O  O292  1  0.24523478  0.99105935  0.42020866  1
  O  O293  1  0.25067565  0.97559200  0.75031213  1
  O  O294  1  0.58840590  0.48753023  0.07585244  1
  O  O295  1  0.57655852  0.48652986  0.42042927  1
  O  O296  1  0.58131531  0.47719433  0.75602982  1
  O  O297  1  0.58515589  0.99720075  0.08408447  1
  O  O298  1  0.59543457  0.99148260  0.40750797  1
  O  O299  1  0.57543051  0.99326435  0.75511815  1
  O  O300  1  0.91585477  0.47586902  0.07903746  1
  O  O301  1  0.92396773  0.47340612  0.41204722  1
  O  O302  1  0.91952680  0.48093326  0.74795586  1
  O  O303  1  0.91833589  0.98141303  0.08425078  1
  O  O304  1  0.92577075  0.98730104  0.40555543  1
  O  O305  1  0.92102208  0.99953789  0.74636001  1
  O  O306  1  0.08409215  0.27467282  0.08772155  1
  O  O307  1  0.08860894  0.27463154  0.42147207  1
  O  O308  1  0.08668704  0.27770473  0.74993735  1
  O  O309  1  0.07910167  0.77136594  0.08094452  1
  O  O310  1  0.08385431  0.76780933  0.41588769  1
  O  O311  1  0.08792659  0.76290178  0.75193888  1
  O  O312  1  0.41702904  0.27193598  0.07800611  1
  O  O313  1  0.41339839  0.27107898  0.41534325  1
  O  O314  1  0.41555944  0.27663382  0.74662748  1
  O  O315  1  0.40833617  0.76080422  0.06680201  1
  O  O316  1  0.41131651  0.75310026  0.41258545  1
  O  O317  1  0.40890964  0.77499982  0.74475154  1
  O  O318  1  0.75692826  0.27081327  0.09114036  1
  O  O319  1  0.75855046  0.26874000  0.42407584  1
  O  O320  1  0.75184720  0.27711737  0.75581533  1
  O  O321  1  0.75457094  0.76130946  0.08848733  1
  O  O322  1  0.75500997  0.76827362  0.41439204  1
  O  O323  1  0.73177835  0.76134217  0.74036689  1
  O  O324  1  0.24181014  0.02038122  0.24855613  1
  O  O325  1  0.23910294  0.01483136  0.57911857  1
  O  O326  1  0.24650308  0.00960487  0.91028968  1
  O  O327  1  0.25615824  0.51443449  0.26233187  1
  O  O328  1  0.25085607  0.52148623  0.58628101  1
  O  O329  1  0.25750239  0.52062975  0.91660503  1
  O  O330  1  0.58196828  0.02838474  0.24694432  1
  O  O331  1  0.57655223  0.01817170  0.57648838  1
  O  O332  1  0.58158564  0.02091057  0.91732973  1
  O  O333  1  0.58131530  0.51116289  0.24074874  1
  O  O334  1  0.58758101  0.51454958  0.59667971  1
  O  O335  1  0.58484597  0.52690206  0.91746454  1
  O  O336  1  0.90988321  0.02530835  0.24459925  1
  O  O337  1  0.91621038  0.01699396  0.57777539  1
  O  O338  1  0.91867863  0.00469542  0.91761351  1
  O  O339  1  0.91599596  0.52066710  0.24877357  1
  O  O340  1  0.91180935  0.51595772  0.57098238  1
  O  O341  1  0.90853540  0.51383885  0.91087308  1
  O  O342  1  0.07688846  0.23478469  0.25876376  1
  O  O343  1  0.07806653  0.22820493  0.58844979  1
  O  O344  1  0.08613016  0.24194929  0.91452018  1
  O  O345  1  0.07749729  0.73959857  0.25526734  1
  O  O346  1  0.09182214  0.73349940  0.57584430  1
  O  O347  1  0.09596521  0.73995713  0.91168617  1
  O  O348  1  0.41810278  0.23105239  0.24787541  1
  O  O349  1  0.41701244  0.23977476  0.57458424  1
  O  O350  1  0.42215136  0.24018687  0.90733162  1
  O  O351  1  0.41776635  0.73284423  0.24208060  1
  O  O352  1  0.41462736  0.74065079  0.58761688  1
  O  O353  1  0.42335052  0.72144418  0.90693858  1
  O  O354  1  0.74691877  0.22825841  0.25530184  1
  O  O355  1  0.74673708  0.25693492  0.58781216  1
  O  O356  1  0.74028293  0.24129918  0.93020112  1
  O  O357  1  0.75662277  0.73589148  0.24778796  1
  O  O358  1  0.75625410  0.72937640  0.58025076  1
  O  O359  1  0.75009738  0.72774511  0.91209997  1
