# generated using pymatgen
data_Ba17Sr5La8Pr42Mn72O216
_symmetry_space_group_name_H-M   'P 1'
_cell_length_a   16.68140944
_cell_length_b   15.70428309
_cell_length_c   16.82558301
_cell_angle_alpha   89.99898809
_cell_angle_beta   89.99574130
_cell_angle_gamma   89.98815565
_symmetry_Int_Tables_number   1
_chemical_formula_structural   Ba17Sr5La8Pr42Mn72O216
_chemical_formula_sum   'Ba17 Sr5 La8 Pr42 Mn72 O216'
_cell_volume   4407.79074371
_cell_formula_units_Z   1
loop_
 _symmetry_equiv_pos_site_id
 _symmetry_equiv_pos_as_xyz
  1  'x, y, z'
loop_
 _atom_site_type_symbol
 _atom_site_label
 _atom_site_symmetry_multiplicity
 _atom_site_fract_x
 _atom_site_fract_y
 _atom_site_fract_z
 _atom_site_occupancy
  Ba  Ba0  1  0.50169434  0.12733546  0.50361822  1
  Ba  Ba1  1  0.16664032  0.87216203  0.49735144  1
  Ba  Ba2  1  0.33472808  0.12544284  0.66508590  1
  Ba  Ba3  1  0.83293220  0.87550749  0.16493006  1
  Ba  Ba4  1  0.00119548  0.12656881  0.33045267  1
  Ba  Ba5  1  -0.00017412  0.62405962  0.99602996  1
  Ba  Ba6  1  0.66773169  0.87500828  0.33690155  1
  Ba  Ba7  1  0.50212183  0.62416339  0.50500802  1
  Ba  Ba8  1  0.33040409  0.37643289  0.33307790  1
  Ba  Ba9  1  0.66729366  0.12512129  0.34013829  1
  Ba  Ba10  1  0.16720510  0.12594257  0.49807413  1
  Ba  Ba11  1  0.16733529  0.87365456  0.82910300  1
  Ba  Ba12  1  0.16699466  0.12486227  0.83153504  1
  Ba  Ba13  1  0.66495382  0.37567318  0.00384211  1
  Ba  Ba14  1  0.66729165  0.87282099  0.67277009  1
  Ba  Ba15  1  0.33472198  0.12539445  0.33227013  1
  Ba  Ba16  1  0.66503168  0.87514508  0.00446207  1
  Sr  Sr17  1  0.16698185  0.37359101  0.49658527  1
  Sr  Sr18  1  0.67027449  0.62518203  0.66934971  1
  Sr  Sr19  1  0.83320908  0.37712485  0.82984101  1
  Sr  Sr20  1  0.16710439  0.62285574  0.16351934  1
  Sr  Sr21  1  0.32632197  0.37525285  0.00124124  1
  La  La22  1  0.33512769  0.62496841  0.33027448  1
  La  La23  1  0.33529667  0.62283919  0.99627435  1
  La  La24  1  0.66329338  0.37893800  0.67652054  1
  La  La25  1  0.50669044  0.62546215  0.83858164  1
  La  La26  1  0.16689900  0.62490320  0.83668102  1
  La  La27  1  0.83330463  0.12217312  0.50112333  1
  La  La28  1  0.49482597  0.37555224  0.50371065  1
  La  La29  1  0.82967665  0.12342068  0.16908817  1
  Pr  Pr30  1  0.00189970  0.37462012  -0.00252152  1
  Pr  Pr31  1  0.67374041  0.62571149  1.00277575  1
  Pr  Pr32  1  0.83292268  0.87354756  0.49455207  1
  Pr  Pr33  1  0.49446166  0.87942334  0.16559881  1
  Pr  Pr34  1  0.67033436  0.12827293  0.66357089  1
  Pr  Pr35  1  0.00163492  0.12397924  0.65673284  1
  Pr  Pr36  1  0.00141803  0.62532773  0.32433942  1
  Pr  Pr37  1  0.16884855  0.12674551  0.17125466  1
  Pr  Pr38  1  -0.00135645  0.12352038  0.99590860  1
  Pr  Pr39  1  0.67351149  0.12602136  1.00419384  1
  Pr  Pr40  1  0.83163766  0.12559708  0.83108084  1
  Pr  Pr41  1  0.00315417  0.87692116  0.66483327  1
  Pr  Pr42  1  0.32729236  0.87539856  0.00026782  1
  Pr  Pr43  1  0.49632001  0.87505630  0.50131222  1
  Pr  Pr44  1  -0.00126077  0.87361881  0.33392587  1
  Pr  Pr45  1  0.50758656  0.12544028  0.83564464  1
  Pr  Pr46  1  0.49231390  0.37523110  0.83610078  1
  Pr  Pr47  1  0.00150207  0.37252787  0.66613610  1
  Pr  Pr48  1  0.16642811  0.37464793  0.16443158  1
  Pr  Pr49  1  0.83714285  0.87255109  0.83095136  1
  Pr  Pr50  1  0.34059121  0.12741571  0.99441767  1
  Pr  Pr51  1  0.83295999  0.37680126  0.49669976  1
  Pr  Pr52  1  0.50815898  0.12701326  0.17529160  1
  Pr  Pr53  1  0.16677977  0.61937814  0.49722740  1
  Pr  Pr54  1  0.66940665  0.62675007  0.33611431  1
  Pr  Pr55  1  0.00341776  0.87508332  -0.00159466  1
  Pr  Pr56  1  0.83510850  0.36979478  0.16025702  1
  Pr  Pr57  1  0.66308491  0.37575143  0.33797052  1
  Pr  Pr58  1  0.82930495  0.62426718  0.83532448  1
  Pr  Pr59  1  0.33540001  0.87777758  0.66507943  1
  Pr  Pr60  1  0.33250046  0.87302521  0.33550812  1
  Pr  Pr61  1  0.16483233  0.37730248  0.82905347  1
  Pr  Pr62  1  0.32813203  0.37298544  0.66463293  1
  Pr  Pr63  1  0.49477641  0.87642855  0.83410778  1
  Pr  Pr64  1  0.50558562  0.62212955  0.17290028  1
  Pr  Pr65  1  0.00030838  0.62416635  0.66367275  1
  Pr  Pr66  1  0.83208298  0.62785031  0.50099018  1
  Pr  Pr67  1  0.48663951  0.37244013  0.16460970  1
  Pr  Pr68  1  0.00365776  0.37718933  0.33348588  1
  Pr  Pr69  1  0.33112786  0.62695001  0.66371889  1
  Pr  Pr70  1  0.16386110  0.87385255  0.16376903  1
  Pr  Pr71  1  0.83223072  0.62503495  0.16683343  1
  Mn  Mn72  1  0.00161143  -0.00009415  0.16281950  1
  Mn  Mn73  1  -0.00045714  -0.00211710  0.49780274  1
  Mn  Mn74  1  -0.00152633  0.00122624  0.82989162  1
  Mn  Mn75  1  -0.00142306  0.49905609  0.16454560  1
  Mn  Mn76  1  -0.00166624  0.50087219  0.49670505  1
  Mn  Mn77  1  -0.00167604  0.49855982  0.82905737  1
  Mn  Mn78  1  0.33197388  -0.00083897  0.16330458  1
  Mn  Mn79  1  0.33399905  -0.00143896  0.49987684  1
  Mn  Mn80  1  0.33554299  0.00163820  0.83396649  1
  Mn  Mn81  1  0.33194597  0.50220961  0.16362338  1
  Mn  Mn82  1  0.33230360  0.50138893  0.50015992  1
  Mn  Mn83  1  0.33421661  0.49933500  0.83134279  1
  Mn  Mn84  1  0.66485358  -0.00035638  0.16892597  1
  Mn  Mn85  1  0.66775079  -0.00103982  0.50663290  1
  Mn  Mn86  1  0.66774275  0.00117147  0.83683450  1
  Mn  Mn87  1  0.66710968  0.49899323  0.17213328  1
  Mn  Mn88  1  0.66866199  0.49953585  0.50587712  1
  Mn  Mn89  1  0.66588171  0.50036897  0.83786531  1
  Mn  Mn90  1  0.00088871  0.25145248  0.16243060  1
  Mn  Mn91  1  -0.00220792  0.25354274  0.49838223  1
  Mn  Mn92  1  -0.00154233  0.24978367  0.83043772  1
  Mn  Mn93  1  -0.00008385  0.74901660  0.16397934  1
  Mn  Mn94  1  -0.00023673  0.74610334  0.49675087  1
  Mn  Mn95  1  -0.00101079  0.74930812  0.82847847  1
  Mn  Mn96  1  0.33094071  0.24944382  0.16124432  1
  Mn  Mn97  1  0.33239587  0.25170748  0.50032656  1
  Mn  Mn98  1  0.33385483  0.25147072  0.83459853  1
  Mn  Mn99  1  0.33365091  0.74895998  0.16520636  1
  Mn  Mn100  1  0.33251367  0.74761588  0.49885287  1
  Mn  Mn101  1  0.33581346  0.74885806  0.83130957  1
  Mn  Mn102  1  0.66632057  0.25274229  0.17093298  1
  Mn  Mn103  1  0.66946351  0.25494089  0.50616360  1
  Mn  Mn104  1  0.66626749  0.25019219  0.83612563  1
  Mn  Mn105  1  0.66443348  0.74823172  0.16897073  1
  Mn  Mn106  1  0.66706437  0.74914793  0.50464486  1
  Mn  Mn107  1  0.66729694  0.75001345  0.83846017  1
  Mn  Mn108  1  0.16553617  0.24947744  -0.00031676  1
  Mn  Mn109  1  0.16685421  0.25089723  0.33145630  1
  Mn  Mn110  1  0.16532004  0.25249429  0.66498935  1
  Mn  Mn111  1  0.16729472  0.74915468  -0.00132080  1
  Mn  Mn112  1  0.16638871  0.74736628  0.32874566  1
  Mn  Mn113  1  0.16622441  0.74680001  0.66396406  1
  Mn  Mn114  1  0.49933905  0.24978900  0.00258878  1
  Mn  Mn115  1  0.50026078  0.25248348  0.33497263  1
  Mn  Mn116  1  0.50055716  0.25379070  0.67149541  1
  Mn  Mn117  1  0.49831664  0.74871400  0.00480201  1
  Mn  Mn118  1  0.50052269  0.74901373  0.33482644  1
  Mn  Mn119  1  0.49926481  0.74898702  0.67078866  1
  Mn  Mn120  1  0.83531788  0.25003656  -0.00268725  1
  Mn  Mn121  1  0.83320782  0.25302813  0.33094618  1
  Mn  Mn122  1  0.83424974  0.25294006  0.66555584  1
  Mn  Mn123  1  0.83473088  0.75000688  -0.00120773  1
  Mn  Mn124  1  0.83454321  0.74755096  0.33380530  1
  Mn  Mn125  1  0.83610256  0.74878907  0.66636890  1
  Mn  Mn126  1  0.16664260  0.00008568  0.00116152  1
  Mn  Mn127  1  0.16746800  -0.00165905  0.32885006  1
  Mn  Mn128  1  0.16703983  -0.00134725  0.66486872  1
  Mn  Mn129  1  0.16703214  0.49951400  -0.00257223  1
  Mn  Mn130  1  0.16539774  0.50178719  0.33185477  1
  Mn  Mn131  1  0.16553058  0.50083634  0.66550966  1
  Mn  Mn132  1  0.49925204  0.00184958  0.00211048  1
  Mn  Mn133  1  0.49983016  -0.00157409  0.33380763  1
  Mn  Mn134  1  0.50169508  -0.00129824  0.66971649  1
  Mn  Mn135  1  0.49870288  0.50021588  0.00453665  1
  Mn  Mn136  1  0.50119506  0.49937116  0.33637049  1
  Mn  Mn137  1  0.49847921  0.50066998  0.67196650  1
  Mn  Mn138  1  0.83491645  0.00240931  -0.00257156  1
  Mn  Mn139  1  0.83489743  0.00115064  0.33336157  1
  Mn  Mn140  1  0.83492800  -0.00120250  0.66738481  1
  Mn  Mn141  1  0.83419930  0.49768506  -0.00051555  1
  Mn  Mn142  1  0.83277410  0.49902329  0.33111475  1
  Mn  Mn143  1  0.83440050  0.50112894  0.66530541  1
  O  O144  1  0.15837383  0.12509700  0.02580914  1
  O  O145  1  0.16556573  0.12505447  0.33656868  1
  O  O146  1  0.15746762  0.12845229  0.67284192  1
  O  O147  1  0.17140555  0.62627932  0.01267961  1
  O  O148  1  0.15757208  0.62475734  0.35299848  1
  O  O149  1  0.16609334  0.62214863  0.69352718  1
  O  O150  1  0.48813090  0.12574574  0.02991191  1
  O  O151  1  0.49986596  0.12723958  0.34155544  1
  O  O152  1  0.50531129  0.12778778  0.68953948  1
  O  O153  1  0.48958100  0.62609235  0.03000546  1
  O  O154  1  0.49859349  0.62416076  0.34829449  1
  O  O155  1  0.48688346  0.62438912  0.69391884  1
  O  O156  1  0.84196833  0.12721571  0.02301889  1
  O  O157  1  0.83699808  0.12738951  0.35550303  1
  O  O158  1  0.83923192  0.12580219  0.68830455  1
  O  O159  1  0.83284176  0.62054551  0.02152303  1
  O  O160  1  0.83947167  0.61962674  0.35816553  1
  O  O161  1  0.84522911  0.62478711  0.69339151  1
  O  O162  1  0.16081150  0.37884361  0.30951802  1
  O  O163  1  0.16587611  0.38059749  0.64644030  1
  O  O164  1  0.16408587  0.37381990  0.97265365  1
  O  O165  1  0.16985118  0.86972273  0.30793770  1
  O  O166  1  0.16292429  0.86875159  0.65412187  1
  O  O167  1  0.16748251  0.87347985  0.98360861  1
  O  O168  1  0.50609477  0.37813781  0.31057052  1
  O  O169  1  0.51053330  0.37794797  0.65192726  1
  O  O170  1  0.50035873  0.37419770  0.97885547  1
  O  O171  1  0.49263868  0.87098601  0.30917012  1
  O  O172  1  0.49751459  0.87158480  0.64841375  1
  O  O173  1  0.49777860  0.87414261  0.97665532  1
  O  O174  1  0.82719374  0.37968864  0.30215842  1
  O  O175  1  0.83248154  0.37843964  0.64058036  1
  O  O176  1  0.83612169  0.37274656  0.97955498  1
  O  O177  1  0.83906353  0.87440862  0.32270925  1
  O  O178  1  0.83898305  0.87226531  0.63889953  1
  O  O179  1  0.83698205  0.87961568  0.97527461  1
  O  O180  1  -0.00567886  0.37662291  0.18992820  1
  O  O181  1  -0.00813862  0.37901290  0.52326599  1
  O  O182  1  0.00342121  0.37356323  0.85446482  1
  O  O183  1  0.00453815  0.87155950  0.18924627  1
  O  O184  1  -0.00752527  0.86759849  0.52215996  1
  O  O185  1  -0.00720380  0.87711518  0.85498659  1
  O  O186  1  0.33118205  0.37837690  0.17671133  1
  O  O187  1  0.33168611  0.38077813  0.51819510  1
  O  O188  1  0.33182856  0.37671626  0.85480107  1
  O  O189  1  0.33653825  0.87139130  0.19236487  1
  O  O190  1  0.33821500  0.86947036  0.51860947  1
  O  O191  1  0.34100097  0.87714785  0.85788930  1
  O  O192  1  0.68005978  0.37753554  0.19292722  1
  O  O193  1  0.68041431  0.37800042  0.53284298  1
  O  O194  1  0.66496965  0.37619891  0.84683658  1
  O  O195  1  0.66104312  0.87136520  0.17838388  1
  O  O196  1  0.67771520  0.87389143  0.51586062  1
  O  O197  1  0.67264115  0.87545909  0.84954556  1
  O  O198  1  0.00931788  0.12848907  0.13892834  1
  O  O199  1  -0.00688603  0.12937289  0.48919332  1
  O  O200  1  -0.00845593  0.12681567  0.80239634  1
  O  O201  1  -0.00901460  0.62305908  0.15124799  1
  O  O202  1  -0.00215476  0.62311007  0.46796201  1
  O  O203  1  -0.00098850  0.62189676  0.80776871  1
  O  O204  1  0.32222273  0.12283043  0.13751197  1
  O  O205  1  0.33488802  0.12222148  0.49316598  1
  O  O206  1  0.34271749  0.12567671  0.82189543  1
  O  O207  1  0.33945139  0.62679196  0.13852303  1
  O  O208  1  0.33191737  0.62511552  0.47741140  1
  O  O209  1  0.33599983  0.62079211  0.80616813  1
  O  O210  1  0.65842824  0.12834381  0.15039401  1
  O  O211  1  0.66994368  0.12848878  0.49655433  1
  O  O212  1  0.66494123  0.12551690  0.80877717  1
  O  O213  1  0.65819262  0.62171661  0.14667378  1
  O  O214  1  0.67139803  0.62167492  0.47934405  1
  O  O215  1  0.66806743  0.62461918  0.81936497  1
  O  O216  1  0.08966953  0.00967090  0.23867000  1
  O  O217  1  0.07549713  0.00690419  0.58410616  1
  O  O218  1  0.07498740  0.01402618  0.92146718  1
  O  O219  1  0.07948219  0.51484072  0.24922796  1
  O  O220  1  0.08315260  0.52435898  0.58159957  1
  O  O221  1  0.08939220  0.51160893  0.90579131  1
  O  O222  1  0.42107567  0.01415164  0.23317491  1
  O  O223  1  0.42221829  -0.00078024  0.58147465  1
  O  O224  1  0.42625850  0.02005167  0.91192846  1
  O  O225  1  0.42025078  0.51579545  0.24298563  1
  O  O226  1  0.41145465  0.50834539  0.59143482  1
  O  O227  1  0.41990195  0.51887434  0.90961547  1
  O  O228  1  0.75366639  0.01452866  0.24847832  1
  O  O229  1  0.75185333  0.02151194  0.59014992  1
  O  O230  1  0.75137965  0.02808883  0.91882733  1
  O  O231  1  0.75154661  0.53092900  0.25309871  1
  O  O232  1  0.75741097  0.52396218  0.57985835  1
  O  O233  1  0.75038359  0.52039062  0.92001146  1
  O  O234  1  0.24771557  0.23999015  0.24214352  1
  O  O235  1  0.25049704  0.24989651  0.58685197  1
  O  O236  1  0.25680859  0.23265918  0.92520791  1
  O  O237  1  0.25482844  0.72682673  0.24834675  1
  O  O238  1  0.24438056  0.72378699  0.57738810  1
  O  O239  1  0.25538938  0.73054710  0.91308310  1
  O  O240  1  0.58663208  0.24478968  0.25565533  1
  O  O241  1  0.59554177  0.24358131  0.60089480  1
  O  O242  1  0.58668013  0.22374474  0.92935118  1
  O  O243  1  0.58762007  0.72646457  0.25730254  1
  O  O244  1  0.58403383  0.73773034  0.59397104  1
  O  O245  1  0.58586363  0.72598778  0.93131944  1
  O  O246  1  0.91321160  0.23708936  0.23573415  1
  O  O247  1  0.91483885  0.23442060  0.58163971  1
  O  O248  1  0.91615464  0.22750644  0.91114502  1
  O  O249  1  0.91671063  0.73061908  0.24925875  1
  O  O250  1  0.91884977  0.72269707  0.58053175  1
  O  O251  1  0.90895359  0.73565734  0.90151686  1
  O  O252  1  0.08022222  0.47760953  0.08128143  1
  O  O253  1  0.07788811  0.48193706  0.41403453  1
  O  O254  1  0.08138546  0.47773479  0.74584364  1
  O  O255  1  0.08362515  0.97452346  0.08139927  1
  O  O256  1  0.07941012  0.98163863  0.40591887  1
  O  O257  1  0.07696912  0.98819446  0.74528376  1
  O  O258  1  0.41252265  0.48066933  0.07947316  1
  O  O259  1  0.41962798  0.48624834  0.42057324  1
  O  O260  1  0.41241956  0.47169078  0.74913419  1
  O  O261  1  0.40724119  0.97674929  0.07377614  1
  O  O262  1  0.41589163  0.97568767  0.41297488  1
  O  O263  1  0.41550293  0.97779405  0.74814660  1
  O  O264  1  0.75460301  0.48998840  0.09286473  1
  O  O265  1  0.75095383  0.47868807  0.41193989  1
  O  O266  1  0.74957892  0.48833705  0.74595277  1
  O  O267  1  0.74900844  1.00269064  0.08249923  1
  O  O268  1  0.75691924  0.99224996  0.42976083  1
  O  O269  1  0.76060358  0.98920752  0.75711119  1
  O  O270  1  0.24058303  0.26765181  0.08666878  1
  O  O271  1  0.24523619  0.25953922  0.41599095  1
  O  O272  1  0.24649314  0.27102407  0.75233047  1
  O  O273  1  0.25055497  0.77064303  0.08562100  1
  O  O274  1  0.25518025  0.75812971  0.40725579  1
  O  O275  1  0.25768685  0.75924418  0.73727113  1
  O  O276  1  0.57243432  0.26586506  0.09629932  1
  O  O277  1  0.58576447  0.27765612  0.42984371  1
  O  O278  1  0.57244981  0.26715596  0.76450733  1
  O  O279  1  0.56919747  0.76048978  0.09715131  1
  O  O280  1  0.57876062  0.76448106  0.42511675  1
  O  O281  1  0.57565663  0.76033761  0.76776137  1
  O  O282  1  0.92161313  0.27144381  0.07589183  1
  O  O283  1  0.91463177  0.27786966  0.41231412  1
  O  O284  1  0.91778000  0.27368152  0.74381440  1
  O  O285  1  0.92181990  0.76797961  0.07380812  1
  O  O286  1  0.91677121  0.76827874  0.41727991  1
  O  O287  1  0.92052303  0.77525330  0.74328473  1
  O  O288  1  0.24394715  0.48604900  0.08644789  1
  O  O289  1  0.24352369  0.49631513  0.42038984  1
  O  O290  1  0.24852550  0.47928396  0.75097438  1
  O  O291  1  0.24646728  0.97397516  0.08665264  1
  O  O292  1  0.25412562  0.98321429  0.40815945  1
  O  O293  1  0.25478681  0.98788503  0.74857245  1
  O  O294  1  0.57433334  0.48263912  0.10298528  1
  O  O295  1  0.58569381  0.47550239  0.42677582  1
  O  O296  1  0.57351840  0.48738357  0.76481980  1
  O  O297  1  0.57026824  0.98979958  0.09308952  1
  O  O298  1  0.57961748  0.98327924  0.43235328  1
  O  O299  1  0.57376233  0.98686975  0.76651875  1
  O  O300  1  0.91696885  0.47476066  0.08011834  1
  O  O301  1  0.91336098  0.47362707  0.41023277  1
  O  O302  1  0.92060736  0.47861198  0.74097700  1
  O  O303  1  0.92648204  0.98683745  0.06970725  1
  O  O304  1  0.91869706  0.97882201  0.41669404  1
  O  O305  1  0.91814613  0.97372613  0.74588502  1
  O  O306  1  0.08186406  0.27984485  0.08124899  1
  O  O307  1  0.07787442  0.27058287  0.41293840  1
  O  O308  1  0.08382747  0.27334883  0.75115997  1
  O  O309  1  0.08234905  0.76943630  0.08256054  1
  O  O310  1  0.07543541  0.76421917  0.40734470  1
  O  O311  1  0.07627605  0.75931922  0.73976486  1
  O  O312  1  0.40830805  0.26710979  0.07411231  1
  O  O313  1  0.42121537  0.26733863  0.41913226  1
  O  O314  1  0.41247033  0.27570531  0.74770306  1
  O  O315  1  0.41114339  0.77731387  0.07978652  1
  O  O316  1  0.41646285  0.76939764  0.41537095  1
  O  O317  1  0.41681387  0.77537162  0.75269870  1
  O  O318  1  0.75257062  0.25684806  0.08658485  1
  O  O319  1  0.74792781  0.27521391  0.41886965  1
  O  O320  1  0.74646262  0.26349838  0.74224104  1
  O  O321  1  0.74706172  0.74847710  0.08684203  1
  O  O322  1  0.75655298  0.75509613  0.42081386  1
  O  O323  1  0.76099280  0.75930710  0.75822323  1
  O  O324  1  0.24878867  0.01074223  0.24292299  1
  O  O325  1  0.25320302  -0.00102935  0.58426478  1
  O  O326  1  0.25921212  0.01498105  0.92739222  1
  O  O327  1  0.25440002  0.52235030  0.25090806  1
  O  O328  1  0.24933717  0.52420844  0.58544192  1
  O  O329  1  0.25450804  0.52109090  0.91329590  1
  O  O330  1  0.58137077  0.00964199  0.25187917  1
  O  O331  1  0.59197989  0.01306358  0.59800498  1
  O  O332  1  0.58711057  0.02711072  0.92908508  1
  O  O333  1  0.59295150  0.51818014  0.26283295  1
  O  O334  1  0.58821950  0.51168920  0.59895424  1
  O  O335  1  0.58509870  0.52412014  0.93064937  1
  O  O336  1  0.91651840  0.01600563  0.23901564  1
  O  O337  1  0.91421135  0.01795407  0.58310443  1
  O  O338  1  0.91262649  0.02429153  0.90776715  1
  O  O339  1  0.91356452  0.51972495  0.24928466  1
  O  O340  1  0.91707307  0.52418301  0.57860242  1
  O  O341  1  0.91232241  0.51261173  0.90624608  1
  O  O342  1  0.08742407  0.24266346  0.23937569  1
  O  O343  1  0.07396286  0.24474392  0.58884465  1
  O  O344  1  0.07716287  0.23389228  0.92253309  1
  O  O345  1  0.08220248  0.73096189  0.24616446  1
  O  O346  1  0.08250813  0.72218477  0.57754957  1
  O  O347  1  0.08432036  0.73621735  0.90697017  1
  O  O348  1  0.42095215  0.23986330  0.23330345  1
  O  O349  1  0.42210524  0.25520979  0.58625996  1
  O  O350  1  0.42713853  0.23367102  0.91103307  1
  O  O351  1  0.41865778  0.72742573  0.24649366  1
  O  O352  1  0.40753130  0.73714535  0.59163849  1
  O  O353  1  0.42162604  0.72761590  0.91700568  1
  O  O354  1  0.75408362  0.23257787  0.24691580  1
  O  O355  1  0.75696318  0.22930961  0.58183877  1
  O  O356  1  0.75218600  0.22594876  0.91640794  1
  O  O357  1  0.75099238  0.72481239  0.25208538  1
  O  O358  1  0.75580430  0.72857654  0.58520238  1
  O  O359  1  0.74991735  0.72827543  0.92035236  1
