# generated using pymatgen
data_Ba17Sr5La8Pr42Mn72O216
_symmetry_space_group_name_H-M   'P 1'
_cell_length_a   16.67250528
_cell_length_b   15.70380567
_cell_length_c   16.82349529
_cell_angle_alpha   89.99189656
_cell_angle_beta   90.02980907
_cell_angle_gamma   89.99766281
_symmetry_Int_Tables_number   1
_chemical_formula_structural   Ba17Sr5La8Pr42Mn72O216
_chemical_formula_sum   'Ba17 Sr5 La8 Pr42 Mn72 O216'
_cell_volume   4404.75689025
_cell_formula_units_Z   1
loop_
 _symmetry_equiv_pos_site_id
 _symmetry_equiv_pos_as_xyz
  1  'x, y, z'
loop_
 _atom_site_type_symbol
 _atom_site_label
 _atom_site_symmetry_multiplicity
 _atom_site_fract_x
 _atom_site_fract_y
 _atom_site_fract_z
 _atom_site_occupancy
  Ba  Ba0  1  -0.00026892  0.12424471  0.33167868  1
  Ba  Ba1  1  0.66789502  0.12562970  0.66548785  1
  Ba  Ba2  1  0.83457612  0.62684195  0.83600328  1
  Ba  Ba3  1  0.33146801  0.87603651  -0.00015227  1
  Ba  Ba4  1  0.16430600  0.87574494  0.83313300  1
  Ba  Ba5  1  -0.00281438  0.87496793  0.33266901  1
  Ba  Ba6  1  0.33559135  0.62442242  0.33174556  1
  Ba  Ba7  1  0.00008444  0.62219094  0.99770155  1
  Ba  Ba8  1  0.16713646  0.12644435  0.49967464  1
  Ba  Ba9  1  0.16780396  0.12625467  0.16768977  1
  Ba  Ba10  1  0.50151555  0.37466895  0.83243787  1
  Ba  Ba11  1  0.00012865  0.12777544  0.99947913  1
  Ba  Ba12  1  0.49835315  0.87468917  0.83527140  1
  Ba  Ba13  1  0.66897054  0.37565859  0.66829099  1
  Ba  Ba14  1  0.33246272  0.62423029  0.66331847  1
  Ba  Ba15  1  0.50061325  0.12440995  0.50055066  1
  Ba  Ba16  1  0.50192623  0.12522833  0.83548145  1
  Sr  Sr17  1  0.33453542  0.12371521  1.00096088  1
  Sr  Sr18  1  0.83394210  0.87475150  0.83541525  1
  Sr  Sr19  1  0.50402892  0.62668518  0.17011240  1
  Sr  Sr20  1  0.33022711  0.87427758  0.33043221  1
  Sr  Sr21  1  0.66543912  0.62510461  0.33107933  1
  La  La22  1  0.49256230  0.87570771  0.50040046  1
  La  La23  1  0.50031996  0.37548515  0.50106232  1
  La  La24  1  0.83037568  0.87663525  0.16512841  1
  La  La25  1  0.16607249  0.87292524  0.49892017  1
  La  La26  1  0.83632397  0.12371068  0.50232154  1
  La  La27  1  0.49835231  0.12186646  0.16982317  1
  La  La28  1  0.83291164  0.62718024  0.50239331  1
  La  La29  1  -0.00006317  0.62472484  0.32766115  1
  Pr  Pr30  1  0.15873397  0.87667562  0.16181672  1
  Pr  Pr31  1  0.17114024  0.37886656  0.49773192  1
  Pr  Pr32  1  0.33961113  0.12292706  0.66785630  1
  Pr  Pr33  1  0.16496980  0.37492470  0.83276313  1
  Pr  Pr34  1  0.83870129  0.37592105  0.83099281  1
  Pr  Pr35  1  0.33745149  0.36921607  0.00191821  1
  Pr  Pr36  1  0.83455001  0.37400516  0.16506840  1
  Pr  Pr37  1  0.33480864  0.37263012  0.33429890  1
  Pr  Pr38  1  0.00043098  0.62790958  0.66751905  1
  Pr  Pr39  1  0.66399739  0.87455097  0.00291744  1
  Pr  Pr40  1  0.00186890  0.12245075  0.66306697  1
  Pr  Pr41  1  0.83356527  0.12579718  0.83354366  1
  Pr  Pr42  1  0.50624790  0.62368472  0.83511552  1
  Pr  Pr43  1  0.66809080  0.37496579  0.00118220  1
  Pr  Pr44  1  0.33185490  0.36872274  0.67011469  1
  Pr  Pr45  1  0.33394300  0.12299972  0.32926079  1
  Pr  Pr46  1  0.66213545  0.87588672  0.67035600  1
  Pr  Pr47  1  0.83179336  0.62484535  0.16903370  1
  Pr  Pr48  1  0.00604254  0.37279820  0.33603647  1
  Pr  Pr49  1  -0.00381607  0.87165675  0.00346386  1
  Pr  Pr50  1  0.50261640  0.62574305  0.50050605  1
  Pr  Pr51  1  0.00265216  0.37724618  0.00063103  1
  Pr  Pr52  1  0.17341991  0.12582971  0.83942832  1
  Pr  Pr53  1  0.32746747  0.88057418  0.67342621  1
  Pr  Pr54  1  0.66588876  0.38105654  0.33839187  1
  Pr  Pr55  1  0.83316663  0.12568957  0.17063574  1
  Pr  Pr56  1  0.66443701  0.62624572  0.66767538  1
  Pr  Pr57  1  0.33755645  0.62552722  0.99535948  1
  Pr  Pr58  1  0.66597644  0.12595420  0.33270241  1
  Pr  Pr59  1  0.16894456  0.62821948  0.16798742  1
  Pr  Pr60  1  -0.00520679  0.87679958  0.66791733  1
  Pr  Pr61  1  0.66610585  0.62608680  0.99962748  1
  Pr  Pr62  1  0.66866201  0.12293510  0.99625568  1
  Pr  Pr63  1  0.66042827  0.87105043  0.33552238  1
  Pr  Pr64  1  0.16438670  0.62720853  0.50019351  1
  Pr  Pr65  1  0.16780658  0.37471553  0.16517848  1
  Pr  Pr66  1  0.17004441  0.62433315  0.83684702  1
  Pr  Pr67  1  0.00181422  0.37451608  0.66539098  1
  Pr  Pr68  1  0.49886376  0.38269882  0.16311611  1
  Pr  Pr69  1  0.82715234  0.87606006  0.49629702  1
  Pr  Pr70  1  0.83285291  0.37438685  0.49635301  1
  Pr  Pr71  1  0.49259497  0.86778968  0.16165533  1
  Mn  Mn72  1  -0.00218326  -0.00016867  0.16580902  1
  Mn  Mn73  1  -0.00042496  -0.00109256  0.50095356  1
  Mn  Mn74  1  -0.00139216  0.00068386  0.83248587  1
  Mn  Mn75  1  -0.00066881  0.49915491  0.16697326  1
  Mn  Mn76  1  -0.00106921  0.50043004  0.49806712  1
  Mn  Mn77  1  0.00229690  0.49830156  0.83155893  1
  Mn  Mn78  1  0.33270812  -0.00108325  0.16832089  1
  Mn  Mn79  1  0.33155732  -0.00144578  0.49999914  1
  Mn  Mn80  1  0.33304589  0.00065881  0.83481212  1
  Mn  Mn81  1  0.33318637  0.49967297  0.16428510  1
  Mn  Mn82  1  0.33396451  0.50016660  0.49889865  1
  Mn  Mn83  1  0.33323931  0.49976905  0.83248803  1
  Mn  Mn84  1  0.66534100  0.00079308  0.16803786  1
  Mn  Mn85  1  0.66656584  -0.00244718  0.49951323  1
  Mn  Mn86  1  0.66910307  -0.00164578  0.83415418  1
  Mn  Mn87  1  0.66835661  0.49914162  0.16894866  1
  Mn  Mn88  1  0.66714908  0.50272350  0.50042847  1
  Mn  Mn89  1  0.66966211  0.50059429  0.83468040  1
  Mn  Mn90  1  -0.00122008  0.25290979  0.16697180  1
  Mn  Mn91  1  0.00014359  0.25169896  0.50103809  1
  Mn  Mn92  1  0.00095630  0.25040152  0.83042862  1
  Mn  Mn93  1  -0.00219470  0.74744298  0.16602720  1
  Mn  Mn94  1  -0.00178465  0.74864039  0.49924000  1
  Mn  Mn95  1  0.00020942  0.75182248  0.83329573  1
  Mn  Mn96  1  0.33579481  0.25105219  0.16865399  1
  Mn  Mn97  1  0.33349164  0.25078435  0.50116471  1
  Mn  Mn98  1  0.33323326  0.25128238  0.83592662  1
  Mn  Mn99  1  0.33191671  0.74832984  0.16566082  1
  Mn  Mn100  1  0.33247168  0.75013978  0.49921218  1
  Mn  Mn101  1  0.33298869  0.74834168  0.83041859  1
  Mn  Mn102  1  0.66580398  0.25085410  0.16792474  1
  Mn  Mn103  1  0.66820027  0.25277298  0.49828301  1
  Mn  Mn104  1  0.67015231  0.24907602  0.83536836  1
  Mn  Mn105  1  0.66753498  0.74980079  0.16911440  1
  Mn  Mn106  1  0.66563320  0.74871153  0.50095074  1
  Mn  Mn107  1  0.66802971  0.75167190  0.83374955  1
  Mn  Mn108  1  0.16846043  0.25095729  -0.00074359  1
  Mn  Mn109  1  0.16872949  0.25166383  0.33361740  1
  Mn  Mn110  1  0.16568309  0.25053454  0.66883678  1
  Mn  Mn111  1  0.16602072  0.74842120  0.00040683  1
  Mn  Mn112  1  0.16684186  0.75027318  0.33271370  1
  Mn  Mn113  1  0.16447690  0.74885622  0.66530718  1
  Mn  Mn114  1  0.50298967  0.25128782  0.00412408  1
  Mn  Mn115  1  0.50171671  0.25082520  0.33175537  1
  Mn  Mn116  1  0.50051012  0.25058892  0.66587185  1
  Mn  Mn117  1  0.50042298  0.74667480  0.00089055  1
  Mn  Mn118  1  0.49933219  0.75120738  0.33277592  1
  Mn  Mn119  1  0.49906668  0.74939029  0.66589186  1
  Mn  Mn120  1  0.83263680  0.25099414  -0.00040572  1
  Mn  Mn121  1  0.83080394  0.25245251  0.33225937  1
  Mn  Mn122  1  0.83653380  0.25145299  0.66598607  1
  Mn  Mn123  1  0.83117026  0.75145157  0.00194029  1
  Mn  Mn124  1  0.83063645  0.74838962  0.33369517  1
  Mn  Mn125  1  0.83339225  0.74982327  0.66620138  1
  Mn  Mn126  1  0.16476795  0.00129665  -0.00049489  1
  Mn  Mn127  1  0.16736911  -0.00272213  0.33310359  1
  Mn  Mn128  1  0.16517966  0.00219255  0.66699851  1
  Mn  Mn129  1  0.17050138  0.49779330  0.00025825  1
  Mn  Mn130  1  0.16731992  0.50038025  0.33218333  1
  Mn  Mn131  1  0.16470468  0.49916016  0.66548230  1
  Mn  Mn132  1  0.50120316  -0.00031515  0.00428373  1
  Mn  Mn133  1  0.49933006  -0.00155193  0.33324703  1
  Mn  Mn134  1  0.50022974  -0.00122824  0.66580042  1
  Mn  Mn135  1  0.50154110  0.50076641  -0.00000197  1
  Mn  Mn136  1  0.50081874  0.49974899  0.33165405  1
  Mn  Mn137  1  0.49947526  0.50124173  0.66644175  1
  Mn  Mn138  1  0.83287667  0.00039219  -0.00041119  1
  Mn  Mn139  1  0.82871379  -0.00057638  0.33302403  1
  Mn  Mn140  1  0.83433552  -0.00226213  0.66687313  1
  Mn  Mn141  1  0.83166354  0.49716123  0.00082043  1
  Mn  Mn142  1  0.83335311  0.50034849  0.33280481  1
  Mn  Mn143  1  0.83512039  0.50199458  0.66539259  1
  O  O144  1  0.17013501  0.12861165  0.01081204  1
  O  O145  1  0.17584961  0.12825717  0.34277727  1
  O  O146  1  0.15751653  0.13046196  0.69436574  1
  O  O147  1  0.17381615  0.61970152  0.02498390  1
  O  O148  1  0.16170710  0.62314323  0.35616186  1
  O  O149  1  0.15717465  0.62045525  0.69255024  1
  O  O150  1  0.51123264  0.12822807  0.02567451  1
  O  O151  1  0.49967786  0.12499271  0.34713581  1
  O  O152  1  0.49297675  0.12372970  0.67467994  1
  O  O153  1  0.50549825  0.62211980  0.02102202  1
  O  O154  1  0.50307189  0.62415804  0.35661318  1
  O  O155  1  0.50383023  0.62617144  0.68919458  1
  O  O156  1  0.82825489  0.12707722  0.02794990  1
  O  O157  1  0.82654790  0.12990088  0.35784946  1
  O  O158  1  0.84224200  0.12288623  0.68859242  1
  O  O159  1  0.82693937  0.62284022  0.02545516  1
  O  O160  1  0.83916567  0.62289072  0.35782811  1
  O  O161  1  0.83683036  0.62564605  0.68111562  1
  O  O162  1  0.16660019  0.37822081  0.31067188  1
  O  O163  1  0.16712167  0.37554838  0.64000250  1
  O  O164  1  0.16698234  0.37498943  0.97556942  1
  O  O165  1  0.16785000  0.87008312  0.30894145  1
  O  O166  1  0.17031229  0.87442000  0.64458464  1
  O  O167  1  0.15569517  0.87464701  0.99123643  1
  O  O168  1  0.50497650  0.37274625  0.30537777  1
  O  O169  1  0.49347903  0.37815292  0.64818114  1
  O  O170  1  0.49948423  0.37807916  0.98821202  1
  O  O171  1  0.50686108  0.87786849  0.30597953  1
  O  O172  1  0.50375607  0.87179892  0.64643869  1
  O  O173  1  0.50511510  0.87016800  0.99379312  1
  O  O174  1  0.82396913  0.37719644  0.30772478  1
  O  O175  1  0.84056837  0.37986742  0.63993772  1
  O  O176  1  0.82243743  0.37278385  0.97431017  1
  O  O177  1  0.82291653  0.87076488  0.31036362  1
  O  O178  1  0.83901614  0.87137372  0.63827299  1
  O  O179  1  0.82959840  0.87758871  0.98548705  1
  O  O180  1  -0.00276958  0.37877838  0.19167162  1
  O  O181  1  -0.00225632  0.37840070  0.52294323  1
  O  O182  1  0.00285845  0.37401287  0.85719563  1
  O  O183  1  0.00163161  0.87232652  0.17458016  1
  O  O184  1  -0.00112516  0.87380353  0.52326481  1
  O  O185  1  -0.00052216  0.87942132  0.85880433  1
  O  O186  1  0.33950660  0.37588966  0.19047286  1
  O  O187  1  0.32928978  0.37681054  0.52550117  1
  O  O188  1  0.32814821  0.37672572  0.85805219  1
  O  O189  1  0.34140983  0.87481910  0.17956497  1
  O  O190  1  0.33074024  0.87128695  0.52720278  1
  O  O191  1  0.33220624  0.87432603  0.83922154  1
  O  O192  1  0.67169850  0.37258400  0.19695113  1
  O  O193  1  0.67205729  0.38011356  0.51158221  1
  O  O194  1  0.67711352  0.37400337  0.85557866  1
  O  O195  1  0.67428692  0.87754131  0.19357344  1
  O  O196  1  0.67536199  0.86789882  0.52650592  1
  O  O197  1  0.67043463  0.87385973  0.85691733  1
  O  O198  1  -0.01108461  0.12664505  0.15712499  1
  O  O199  1  -0.00690183  0.12528415  0.48805652  1
  O  O200  1  -0.00837114  0.12792451  0.80565716  1
  O  O201  1  -0.00313948  0.62142261  0.15306589  1
  O  O202  1  -0.00001320  0.62105011  0.47013905  1
  O  O203  1  0.00608386  0.62081265  0.81187386  1
  O  O204  1  0.33852295  0.12783117  0.15271868  1
  O  O205  1  0.33377407  0.12740690  0.47304923  1
  O  O206  1  0.32548641  0.12824953  0.81366067  1
  O  O207  1  0.32298860  0.62017173  0.14070608  1
  O  O208  1  0.33308376  0.62469948  0.48683210  1
  O  O209  1  0.32570047  0.62215180  0.81909631  1
  O  O210  1  0.66404410  0.12731344  0.13875747  1
  O  O211  1  0.67323476  0.12892941  0.47699783  1
  O  O212  1  0.67394688  0.12264961  0.82357066  1
  O  O213  1  0.67285210  0.62334841  0.14255166  1
  O  O214  1  0.66202906  0.62562133  0.47831052  1
  O  O215  1  0.66426725  0.62829179  0.81343721  1
  O  O216  1  0.08458144  0.00293622  0.24433442  1
  O  O217  1  0.08275560  0.01194622  0.58516619  1
  O  O218  1  0.08710009  0.02128595  0.90483033  1
  O  O219  1  0.08136102  0.51822119  0.25413091  1
  O  O220  1  0.07656117  0.52321833  0.58348428  1
  O  O221  1  0.09335880  0.51141515  0.90936636  1
  O  O222  1  0.41865556  0.01882485  0.25102857  1
  O  O223  1  0.41475740  0.00601631  0.58395592  1
  O  O224  1  0.41847962  0.01136802  0.92214769  1
  O  O225  1  0.42117699  0.51077924  0.24276693  1
  O  O226  1  0.42625753  0.51325260  0.57217814  1
  O  O227  1  0.41976374  0.52269732  0.91288716  1
  O  O228  1  0.74756600  0.02747824  0.24699141  1
  O  O229  1  0.76243699  0.01228724  0.57334444  1
  O  O230  1  0.75495975  0.02061404  0.91668066  1
  O  O231  1  0.75311080  0.52154298  0.24925020  1
  O  O232  1  0.74783187  0.52354309  0.58511251  1
  O  O233  1  0.74184001  0.51620684  0.92929425  1
  O  O234  1  0.25948046  0.24402638  0.25806386  1
  O  O235  1  0.25346693  0.23405023  0.59659725  1
  O  O236  1  0.25145246  0.23618768  0.91756436  1
  O  O237  1  0.24672574  0.73326358  0.24691702  1
  O  O238  1  0.24086709  0.73422113  0.57662261  1
  O  O239  1  0.25289019  0.72958963  0.92264523  1
  O  O240  1  0.58395034  0.22569009  0.24911884  1
  O  O241  1  0.58339624  0.25013983  0.57599812  1
  O  O242  1  0.59301286  0.24144202  0.92948181  1
  O  O243  1  0.58979057  0.73887756  0.25394472  1
  O  O244  1  0.58685005  0.72729324  0.58588128  1
  O  O245  1  0.58329057  0.72870129  0.91876283  1
  O  O246  1  0.90451805  0.24155676  0.24343449  1
  O  O247  1  0.91663165  0.23259593  0.58292958  1
  O  O248  1  0.91097141  0.23913815  0.90603786  1
  O  O249  1  0.91675767  0.73024315  0.25229576  1
  O  O250  1  0.91992157  0.72721962  0.58464485  1
  O  O251  1  0.91881429  0.74660743  0.92324328  1
  O  O252  1  0.08644496  0.47605943  0.08261574  1
  O  O253  1  0.08562210  0.47692851  0.41957665  1
  O  O254  1  0.08353323  0.47302666  0.74699973  1
  O  O255  1  0.07677926  0.98517142  0.07876125  1
  O  O256  1  0.08272862  0.98505573  0.42058060  1
  O  O257  1  0.07254119  0.98617919  0.74025703  1
  O  O258  1  0.41345532  0.48152841  0.07887776  1
  O  O259  1  0.41811598  0.47540326  0.41091847  1
  O  O260  1  0.40868300  0.48424330  0.74368478  1
  O  O261  1  0.42238091  0.99099528  0.09113002  1
  O  O262  1  0.41564521  0.97946327  0.41520322  1
  O  O263  1  0.40975841  0.99126120  0.74328294  1
  O  O264  1  0.75194331  0.47496228  0.08843984  1
  O  O265  1  0.75400002  0.48383248  0.41772708  1
  O  O266  1  0.75868538  0.48614179  0.75884337  1
  O  O267  1  0.74447108  0.98166598  0.08211812  1
  O  O268  1  0.74196367  0.97768402  0.41068104  1
  O  O269  1  0.74868947  0.97880253  0.74175196  1
  O  O270  1  0.25271168  0.27402579  0.08671165  1
  O  O271  1  0.25054138  0.27598266  0.41974499  1
  O  O272  1  0.24438581  0.27308144  0.75406875  1
  O  O273  1  0.23815652  0.76317048  0.09163101  1
  O  O274  1  0.24616914  0.76561911  0.41935177  1
  O  O275  1  0.24761388  0.76038088  0.74462419  1
  O  O276  1  0.58505913  0.27953488  0.08964168  1
  O  O277  1  0.58695161  0.27151935  0.41052091  1
  O  O278  1  0.58678524  0.25638901  0.75264270  1
  O  O279  1  0.58517138  0.76704790  0.08767984  1
  O  O280  1  0.57915914  0.77322245  0.42376534  1
  O  O281  1  0.58616319  0.76306142  0.74533099  1
  O  O282  1  0.91712010  0.27710821  0.07677770  1
  O  O283  1  0.91550321  0.27535579  0.41234770  1
  O  O284  1  0.92225066  0.27700904  0.74581759  1
  O  O285  1  0.90953172  0.76711212  0.08776981  1
  O  O286  1  0.90572424  0.76423535  0.42510668  1
  O  O287  1  0.91684415  0.76750925  0.74724530  1
  O  O288  1  0.25185559  0.46913623  0.08135610  1
  O  O289  1  0.25229889  0.47775880  0.41162278  1
  O  O290  1  0.24671202  0.47740105  0.75118481  1
  O  O291  1  0.24329467  0.98522650  0.09369187  1
  O  O292  1  0.24592470  0.97824153  0.42403517  1
  O  O293  1  0.24812417  0.99336155  0.74792078  1
  O  O294  1  0.58772571  0.47936553  0.08473465  1
  O  O295  1  0.58141809  0.47989972  0.41856608  1
  O  O296  1  0.58512926  0.49707550  0.75074649  1
  O  O297  1  0.58194724  0.97557369  0.09286524  1
  O  O298  1  0.58080534  0.97642645  0.41645821  1
  O  O299  1  0.58511894  0.98538481  0.74778600  1
  O  O300  1  0.91553437  0.47433299  0.07980312  1
  O  O301  1  0.91900660  0.47411110  0.41164899  1
  O  O302  1  0.92247174  0.47952036  0.74523622  1
  O  O303  1  0.91332717  0.97969610  0.08235231  1
  O  O304  1  0.90507738  0.98650849  0.42663762  1
  O  O305  1  0.91451823  0.97747472  0.74992170  1
  O  O306  1  0.08430985  0.27368725  0.08072300  1
  O  O307  1  0.08560524  0.27301319  0.41938485  1
  O  O308  1  0.08336350  0.27678476  0.74908489  1
  O  O309  1  0.07769614  0.76214442  0.07931296  1
  O  O310  1  0.08476843  0.76229600  0.42037204  1
  O  O311  1  0.07462923  0.76508526  0.73787703  1
  O  O312  1  0.42031151  0.27132949  0.08860244  1
  O  O313  1  0.41983552  0.27603236  0.41378336  1
  O  O314  1  0.40701431  0.26146151  0.74618609  1
  O  O315  1  0.41514362  0.75379783  0.08113203  1
  O  O316  1  0.41543585  0.76963259  0.41628584  1
  O  O317  1  0.41229955  0.76444370  0.73912078  1
  O  O318  1  0.74978675  0.27315121  0.08763398  1
  O  O319  1  0.75014651  0.27547199  0.41353126  1
  O  O320  1  0.76314288  0.26181257  0.75752230  1
  O  O321  1  0.74723444  0.77184379  0.08512686  1
  O  O322  1  0.74376933  0.76806676  0.41471130  1
  O  O323  1  0.74727699  0.76750969  0.74240460  1
  O  O324  1  0.25989681  0.01065568  0.25833752  1
  O  O325  1  0.25585253  0.01777094  0.59232990  1
  O  O326  1  0.25031527  0.01536806  0.91678926  1
  O  O327  1  0.24157095  0.51232800  0.23915022  1
  O  O328  1  0.23711664  0.51447279  0.57527986  1
  O  O329  1  0.25426988  0.51990446  0.92021000  1
  O  O330  1  0.58692134  0.02251181  0.25351827  1
  O  O331  1  0.58763644  0.00071981  0.58295702  1
  O  O332  1  0.59234074  0.00877129  0.93103415  1
  O  O333  1  0.58695318  0.51185392  0.25132740  1
  O  O334  1  0.58417558  0.52217662  0.58358890  1
  O  O335  1  0.58470413  0.52006551  0.91700906  1
  O  O336  1  0.90688163  0.00869133  0.24491054  1
  O  O337  1  0.92265580  0.01584757  0.59017453  1
  O  O338  1  0.91385239  0.01819624  0.91203165  1
  O  O339  1  0.91228481  0.51902960  0.24944854  1
  O  O340  1  0.91499784  0.52328479  0.57592028  1
  O  O341  1  0.91541793  0.50006588  0.91517224  1
  O  O342  1  0.08327927  0.24992225  0.25231481  1
  O  O343  1  0.07865640  0.23845568  0.59254438  1
  O  O344  1  0.08812751  0.23714746  0.90601648  1
  O  O345  1  0.08438205  0.72898397  0.24719202  1
  O  O346  1  0.08198728  0.72535923  0.58077852  1
  O  O347  1  0.09257153  0.73068571  0.90980677  1
  O  O348  1  0.41790124  0.23050935  0.25254025  1
  O  O349  1  0.41160404  0.24079308  0.58459121  1
  O  O350  1  0.41564709  0.24148568  0.92494487  1
  O  O351  1  0.42171263  0.74013442  0.24317346  1
  O  O352  1  0.42719376  0.73635604  0.57316021  1
  O  O353  1  0.42032356  0.72586247  0.91294329  1
  O  O354  1  0.74593514  0.22424402  0.25030342  1
  O  O355  1  0.75805770  0.24015382  0.57571439  1
  O  O356  1  0.75149305  0.22572286  0.92090701  1
  O  O357  1  0.75525272  0.72786544  0.24568246  1
  O  O358  1  0.75138604  0.72671146  0.58016108  1
  O  O359  1  0.74392349  0.73629467  0.92651854  1
