# generated using pymatgen
data_Ba17Sr5La8Pr42Mn72O216
_symmetry_space_group_name_H-M   'P 1'
_cell_length_a   16.67617465
_cell_length_b   15.70093380
_cell_length_c   16.82201507
_cell_angle_alpha   90.00537997
_cell_angle_beta   89.97708346
_cell_angle_gamma   89.99506391
_symmetry_Int_Tables_number   1
_chemical_formula_structural   Ba17Sr5La8Pr42Mn72O216
_chemical_formula_sum   'Ba17 Sr5 La8 Pr42 Mn72 O216'
_cell_volume   4404.53328909
_cell_formula_units_Z   1
loop_
 _symmetry_equiv_pos_site_id
 _symmetry_equiv_pos_as_xyz
  1  'x, y, z'
loop_
 _atom_site_type_symbol
 _atom_site_label
 _atom_site_symmetry_multiplicity
 _atom_site_fract_x
 _atom_site_fract_y
 _atom_site_fract_z
 _atom_site_occupancy
  Ba  Ba0  1  0.66935131  0.87380437  0.00144455  1
  Ba  Ba1  1  0.66611746  0.12589721  0.66433676  1
  Ba  Ba2  1  0.66454637  0.12653633  0.33087539  1
  Ba  Ba3  1  0.66412912  0.37376506  0.33183277  1
  Ba  Ba4  1  0.00115477  0.87579286  0.33230586  1
  Ba  Ba5  1  0.33280217  0.62184674  0.99901471  1
  Ba  Ba6  1  0.50366544  0.87560303  0.16477926  1
  Ba  Ba7  1  0.83346310  0.62571325  0.50321327  1
  Ba  Ba8  1  0.16587497  0.87601531  0.83491736  1
  Ba  Ba9  1  -0.00182529  0.12710748  0.99919454  1
  Ba  Ba10  1  0.17023361  0.62426001  0.50083739  1
  Ba  Ba11  1  0.66594215  0.62419304  0.66413781  1
  Ba  Ba12  1  0.16579513  0.62573243  0.83342350  1
  Ba  Ba13  1  0.50137330  0.87475192  0.83212188  1
  Ba  Ba14  1  0.16762075  0.87605234  0.16756851  1
  Ba  Ba15  1  0.33293215  0.37412219  0.00057534  1
  Ba  Ba16  1  0.49986587  0.62344003  0.83110779  1
  Sr  Sr17  1  0.33300565  0.62543198  0.33275979  1
  Sr  Sr18  1  0.16726821  0.12545320  0.50108445  1
  Sr  Sr19  1  0.49728088  0.12385853  0.16630663  1
  Sr  Sr20  1  0.49545861  0.37529788  0.83191284  1
  Sr  Sr21  1  0.66943125  0.87737273  0.33019524  1
  La  La22  1  0.17116191  0.87548131  0.49464056  1
  La  La23  1  0.83194607  0.37161663  0.83197826  1
  La  La24  1  0.16661801  0.12695741  0.83635196  1
  La  La25  1  0.82800691  0.37373617  0.49926780  1
  La  La26  1  0.00070342  0.62755625  0.99991088  1
  La  La27  1  0.83267545  0.87662560  0.49856307  1
  La  La28  1  -0.00094739  0.37597540  0.00165029  1
  La  La29  1  0.50069024  0.62272363  0.50229660  1
  Pr  Pr30  1  0.33980860  0.62695860  0.66652975  1
  Pr  Pr31  1  0.00300113  0.12447883  0.66609413  1
  Pr  Pr32  1  0.49898953  0.37320518  0.49883250  1
  Pr  Pr33  1  0.00302819  0.87261912  0.66600998  1
  Pr  Pr34  1  0.16398162  0.37643291  0.83415664  1
  Pr  Pr35  1  0.83802454  0.87921401  0.83403595  1
  Pr  Pr36  1  0.83397173  0.12347534  0.49925036  1
  Pr  Pr37  1  0.66292029  0.62438009  0.33307492  1
  Pr  Pr38  1  0.33073471  0.37464637  0.33695020  1
  Pr  Pr39  1  0.66159626  0.62561969  0.99534580  1
  Pr  Pr40  1  0.50264333  0.37180531  0.16172465  1
  Pr  Pr41  1  0.16857957  0.12922215  0.17049750  1
  Pr  Pr42  1  0.00554150  0.62779231  0.66390514  1
  Pr  Pr43  1  0.49657342  0.12592782  0.83652149  1
  Pr  Pr44  1  0.16244022  0.37685686  0.16634678  1
  Pr  Pr45  1  0.16275251  0.37463619  0.49920526  1
  Pr  Pr46  1  0.49610344  0.62548354  0.16548501  1
  Pr  Pr47  1  -0.00070656  0.37949717  0.66783193  1
  Pr  Pr48  1  -0.00011646  0.12387283  0.32746169  1
  Pr  Pr49  1  0.00129425  0.62677432  0.33108107  1
  Pr  Pr50  1  0.83147947  0.12355614  0.16916997  1
  Pr  Pr51  1  0.33859775  0.87517770  0.33655901  1
  Pr  Pr52  1  0.33217788  0.12202625  0.33033428  1
  Pr  Pr53  1  0.33814537  0.86706007  0.00184349  1
  Pr  Pr54  1  0.67710351  0.87376439  0.67063420  1
  Pr  Pr55  1  0.83171462  0.62439294  0.83678124  1
  Pr  Pr56  1  0.49975958  0.12764615  0.49827300  1
  Pr  Pr57  1  -0.00346253  0.37449659  0.33911530  1
  Pr  Pr58  1  0.82710319  0.12642044  0.83846856  1
  Pr  Pr59  1  0.32841391  0.37442648  0.67353132  1
  Pr  Pr60  1  0.17251604  0.62328925  0.17191264  1
  Pr  Pr61  1  0.33336727  0.87355402  0.66819243  1
  Pr  Pr62  1  0.82855868  0.37323676  0.16619810  1
  Pr  Pr63  1  0.66421921  0.37717676  0.66661483  1
  Pr  Pr64  1  0.50826217  0.87628573  0.49371351  1
  Pr  Pr65  1  0.33298974  0.11904708  0.99978484  1
  Pr  Pr66  1  0.00506622  0.87528006  0.00665681  1
  Pr  Pr67  1  0.66313816  0.37742920  0.00125566  1
  Pr  Pr68  1  0.66028580  0.12512676  0.99747487  1
  Pr  Pr69  1  0.33541730  0.12263725  0.66630401  1
  Pr  Pr70  1  0.83618887  0.87818317  0.16424500  1
  Pr  Pr71  1  0.83149159  0.62627701  0.17307751  1
  Mn  Mn72  1  0.00032271  0.00267703  0.16543291  1
  Mn  Mn73  1  0.00179674  0.00285483  0.50025139  1
  Mn  Mn74  1  -0.00052353  0.00080793  0.83208354  1
  Mn  Mn75  1  -0.00211450  0.49886719  0.16792596  1
  Mn  Mn76  1  -0.00011756  0.49860794  0.50125757  1
  Mn  Mn77  1  -0.00254517  0.50028812  0.83479921  1
  Mn  Mn78  1  0.33284886  0.00019032  0.16554697  1
  Mn  Mn79  1  0.33504884  0.00255753  0.50059188  1
  Mn  Mn80  1  0.33261600  0.00057187  0.83163392  1
  Mn  Mn81  1  0.33412248  0.49864896  0.17098882  1
  Mn  Mn82  1  0.33380974  0.49721904  0.50199169  1
  Mn  Mn83  1  0.33142246  0.49796782  0.83286939  1
  Mn  Mn84  1  0.66804899  0.00129096  0.16536206  1
  Mn  Mn85  1  0.66650228  0.00106569  0.49934499  1
  Mn  Mn86  1  0.66654521  0.00061862  0.83117987  1
  Mn  Mn87  1  0.66712223  0.50114072  0.16491524  1
  Mn  Mn88  1  0.66588865  0.49767866  0.49895835  1
  Mn  Mn89  1  0.66726042  0.49760630  0.83361791  1
  Mn  Mn90  1  -0.00148145  0.25204283  0.16862771  1
  Mn  Mn91  1  -0.00003152  0.24804365  0.50066894  1
  Mn  Mn92  1  -0.00077199  0.25114889  0.83148547  1
  Mn  Mn93  1  -0.00040352  0.74784067  0.16530883  1
  Mn  Mn94  1  0.00135177  0.75120055  0.50021024  1
  Mn  Mn95  1  -0.00228600  0.75083541  0.83446955  1
  Mn  Mn96  1  0.33299012  0.25054882  0.16918832  1
  Mn  Mn97  1  0.33210561  0.24974611  0.50203574  1
  Mn  Mn98  1  0.33128668  0.24895418  0.83346852  1
  Mn  Mn99  1  0.33368709  0.74883914  0.16918094  1
  Mn  Mn100  1  0.33637197  0.75021672  0.50041644  1
  Mn  Mn101  1  0.33294831  0.75143224  0.83325461  1
  Mn  Mn102  1  0.66649301  0.25045078  0.16321286  1
  Mn  Mn103  1  0.66618051  0.24863005  0.49967042  1
  Mn  Mn104  1  0.66420453  0.25125487  0.83210197  1
  Mn  Mn105  1  0.66943582  0.74686079  0.16685046  1
  Mn  Mn106  1  0.66677740  0.75292206  0.49854235  1
  Mn  Mn107  1  0.66947263  0.75059667  0.83317161  1
  Mn  Mn108  1  0.16644478  0.25021911  0.00224722  1
  Mn  Mn109  1  0.16580560  0.24996039  0.33570175  1
  Mn  Mn110  1  0.16603131  0.24942948  0.66692153  1
  Mn  Mn111  1  0.16680816  0.75017860  0.00201130  1
  Mn  Mn112  1  0.16844276  0.74975462  0.33413110  1
  Mn  Mn113  1  0.16808016  0.75092797  0.66532300  1
  Mn  Mn114  1  0.49887618  0.24911635  -0.00080926  1
  Mn  Mn115  1  0.49570697  0.25047634  0.33065326  1
  Mn  Mn116  1  0.49735993  0.24950301  0.66619339  1
  Mn  Mn117  1  0.50107258  0.74878831  -0.00008356  1
  Mn  Mn118  1  0.50143576  0.74923836  0.33326370  1
  Mn  Mn119  1  0.50046678  0.75292602  0.66123396  1
  Mn  Mn120  1  0.83071652  0.25227240  -0.00012137  1
  Mn  Mn121  1  0.83458248  0.25062401  0.33391834  1
  Mn  Mn122  1  0.83662432  0.24894414  0.66563303  1
  Mn  Mn123  1  0.83554736  0.74758819  0.00235364  1
  Mn  Mn124  1  0.83255266  0.75003355  0.33449765  1
  Mn  Mn125  1  0.83666660  0.75100689  0.66910543  1
  Mn  Mn126  1  0.16703301  0.00178844  0.00061598  1
  Mn  Mn127  1  0.16824490  0.00166687  0.33482530  1
  Mn  Mn128  1  0.16669431  0.00189260  0.66466481  1
  Mn  Mn129  1  0.16407505  0.49799864  0.00220610  1
  Mn  Mn130  1  0.16562566  0.49847792  0.33415343  1
  Mn  Mn131  1  0.16769092  0.49866072  0.66648630  1
  Mn  Mn132  1  0.49933568  0.00200227  -0.00009765  1
  Mn  Mn133  1  0.50004987  -0.00038858  0.33198457  1
  Mn  Mn134  1  0.49982729  0.00014237  0.66340479  1
  Mn  Mn135  1  0.50024438  0.49748396  -0.00073898  1
  Mn  Mn136  1  0.49734764  0.49988386  0.33291173  1
  Mn  Mn137  1  0.49790391  0.49650276  0.66454673  1
  Mn  Mn138  1  0.83270459  0.00195099  -0.00028241  1
  Mn  Mn139  1  0.83326428  -0.00065071  0.33377503  1
  Mn  Mn140  1  0.83779855  0.00255055  0.66678069  1
  Mn  Mn141  1  0.83356892  0.49993222  0.00202286  1
  Mn  Mn142  1  0.83381051  0.50076236  0.33441111  1
  Mn  Mn143  1  0.83524172  0.49778867  0.66792295  1
  O  O144  1  0.17345467  0.12808436  0.02548878  1
  O  O145  1  0.16649683  0.12769314  0.35382517  1
  O  O146  1  0.16234467  0.12724864  0.69296981  1
  O  O147  1  0.16019771  0.61942936  0.02473205  1
  O  O148  1  0.16139997  0.62255744  0.34512362  1
  O  O149  1  0.15981194  0.62185236  0.67680695  1
  O  O150  1  0.49693036  0.12728381  0.01567185  1
  O  O151  1  0.48995750  0.12548474  0.35520243  1
  O  O152  1  0.49629827  0.12582797  0.69240148  1
  O  O153  1  0.50683401  0.62010999  0.01726745  1
  O  O154  1  0.50630205  0.62605391  0.35941956  1
  O  O155  1  0.49625254  0.62352244  0.67309655  1
  O  O156  1  0.82767754  0.13053067  0.02504239  1
  O  O157  1  0.84153264  0.12680409  0.35439945  1
  O  O158  1  0.84242708  0.12609388  0.69592356  1
  O  O159  1  0.84019669  0.61985843  0.03031373  1
  O  O160  1  0.83743126  0.62520721  0.34731059  1
  O  O161  1  0.84002804  0.62490247  0.69162568  1
  O  O162  1  0.16419134  0.37268766  0.30935075  1
  O  O163  1  0.17152587  0.37157094  0.64170700  1
  O  O164  1  0.15855448  0.37323503  0.97992099  1
  O  O165  1  0.17509695  0.87657474  0.32418389  1
  O  O166  1  0.16680096  0.87998156  0.64096046  1
  O  O167  1  0.15746499  0.87847934  0.99190902  1
  O  O168  1  0.48977928  0.37432996  0.30464541  1
  O  O169  1  0.48673057  0.37128636  0.64299037  1
  O  O170  1  0.50780042  0.37207938  0.98420413  1
  O  O171  1  0.49359853  0.87418731  0.31985542  1
  O  O172  1  0.48682082  0.87852956  0.63756341  1
  O  O173  1  0.49202649  0.87857933  0.99212738  1
  O  O174  1  0.84177034  0.37546616  0.31101555  1
  O  O175  1  0.84512755  0.37020111  0.64145340  1
  O  O176  1  0.83494930  0.37687301  0.97427329  1
  O  O177  1  0.83125658  0.87282061  0.30886118  1
  O  O178  1  0.83747907  0.87930821  0.64380589  1
  O  O179  1  0.83876899  0.87396508  0.97813822  1
  O  O180  1  0.00177475  0.37577765  0.19659020  1
  O  O181  1  0.00055162  0.37110282  0.52477500  1
  O  O182  1  -0.00071970  0.37445150  0.85799137  1
  O  O183  1  -0.00591689  0.87573394  0.17471660  1
  O  O184  1  -0.00183389  0.88223479  0.52313839  1
  O  O185  1  -0.00829900  0.87379185  0.86220996  1
  O  O186  1  0.33959129  0.37430951  0.19288077  1
  O  O187  1  0.33290781  0.37094442  0.53000910  1
  O  O188  1  0.32994461  0.37144999  0.84198107  1
  O  O189  1  0.33507084  0.87364688  0.19017835  1
  O  O190  1  0.33126328  0.88018010  0.52485819  1
  O  O191  1  0.33309736  0.88112987  0.85544195  1
  O  O192  1  0.66235448  0.37677216  0.17768490  1
  O  O193  1  0.66765721  0.37031899  0.51872543  1
  O  O194  1  0.67240362  0.37309590  0.85740012  1
  O  O195  1  0.67426859  0.87058873  0.18061297  1
  O  O196  1  0.66266392  0.87933379  0.52461743  1
  O  O197  1  0.67569292  0.87659749  0.84402018  1
  O  O198  1  -0.00481466  0.12925299  0.15499519  1
  O  O199  1  -0.00282691  0.12699890  0.47062414  1
  O  O200  1  -0.00159956  0.12892266  0.80930791  1
  O  O201  1  -0.00917967  0.62001882  0.14235288  1
  O  O202  1  0.00133281  0.61976471  0.47742875  1
  O  O203  1  -0.00891611  0.62560676  0.80684100  1
  O  O204  1  0.32480315  0.12799794  0.14452235  1
  O  O205  1  0.33759392  0.12736428  0.47200485  1
  O  O206  1  0.33194320  0.12520379  0.80984193  1
  O  O207  1  0.32700390  0.62212555  0.15674546  1
  O  O208  1  0.34082363  0.62106568  0.48122702  1
  O  O209  1  0.33121675  0.62184719  0.81283792  1
  O  O210  1  0.67868906  0.13040352  0.14294433  1
  O  O211  1  0.66780331  0.12494274  0.48813044  1
  O  O212  1  0.66785456  0.12636551  0.81903209  1
  O  O213  1  0.67909717  0.62056876  0.13891078  1
  O  O214  1  0.66019483  0.62562167  0.48040773  1
  O  O215  1  0.67537522  0.62403699  0.82028354  1
  O  O216  1  0.08203118  0.02122103  0.25140320  1
  O  O217  1  0.08113915  0.02311155  0.58526014  1
  O  O218  1  0.08524046  0.01739776  0.91159222  1
  O  O219  1  0.08268817  0.52201898  0.24417067  1
  O  O220  1  0.08499847  0.50462051  0.58348590  1
  O  O221  1  0.07488102  0.51279310  0.92239204  1
  O  O222  1  0.40858423  0.01545152  0.25664418  1
  O  O223  1  0.41475488  0.02885636  0.58274672  1
  O  O224  1  0.41419159  0.02356628  0.91503723  1
  O  O225  1  0.42019748  0.52317256  0.25027922  1
  O  O226  1  0.42138418  0.51621573  0.57629856  1
  O  O227  1  0.41895381  0.50246684  0.91330778  1
  O  O228  1  0.75527271  0.01537394  0.24662062  1
  O  O229  1  0.75848223  0.01309114  0.58100772  1
  O  O230  1  0.74632940  0.02281984  0.92319989  1
  O  O231  1  0.75208381  0.51673979  0.24611692  1
  O  O232  1  0.75394872  0.49905388  0.58478136  1
  O  O233  1  0.75511420  0.52015466  0.91993567  1
  O  O234  1  0.25006399  0.23042473  0.25673733  1
  O  O235  1  0.25473765  0.22829659  0.59079427  1
  O  O236  1  0.25317219  0.22845324  0.91907919  1
  O  O237  1  0.24719818  0.73265264  0.24835237  1
  O  O238  1  0.25733269  0.73922291  0.58725950  1
  O  O239  1  0.24838207  0.74694083  0.92041674  1
  O  O240  1  0.57702916  0.24122440  0.23997312  1
  O  O241  1  0.57619436  0.24113932  0.57958296  1
  O  O242  1  0.57831769  0.22860735  0.91361082  1
  O  O243  1  0.58358505  0.72276779  0.24621273  1
  O  O244  1  0.57375959  0.74136290  0.56942215  1
  O  O245  1  0.58782431  0.73783397  0.91629150  1
  O  O246  1  0.92019777  0.23185282  0.25493294  1
  O  O247  1  0.91954543  0.22205814  0.58300159  1
  O  O248  1  0.90692651  0.23707381  0.90956547  1
  O  O249  1  0.91480713  0.73080328  0.24598839  1
  O  O250  1  0.92410004  0.73730116  0.59394719  1
  O  O251  1  0.91189079  0.72506882  0.91399897  1
  O  O252  1  0.07816070  0.47587409  0.08530011  1
  O  O253  1  0.07969615  0.47542615  0.41422019  1
  O  O254  1  0.08079305  0.47834772  0.74897604  1
  O  O255  1  0.08198527  0.99411003  0.08184677  1
  O  O256  1  0.09087726  0.98682498  0.42441773  1
  O  O257  1  0.07932334  0.98608363  0.74202194  1
  O  O258  1  0.42276343  0.48774447  0.09127012  1
  O  O259  1  0.41022265  0.47269120  0.41692076  1
  O  O260  1  0.40722096  0.48762398  0.73913676  1
  O  O261  1  0.41324526  0.99307722  0.07957954  1
  O  O262  1  0.41924952  0.97950874  0.42168272  1
  O  O263  1  0.41384878  0.98751614  0.74355627  1
  O  O264  1  0.75030333  0.47500718  0.08149463  1
  O  O265  1  0.75017549  0.48774321  0.41616286  1
  O  O266  1  0.74984360  0.47431541  0.74784092  1
  O  O267  1  0.76133386  0.98681974  0.09028015  1
  O  O268  1  0.75271400  0.98436710  0.41996501  1
  O  O269  1  0.75871137  0.98369433  0.75178300  1
  O  O270  1  0.24230627  0.26921418  0.09788212  1
  O  O271  1  0.24625455  0.27402898  0.42104806  1
  O  O272  1  0.24182962  0.26755969  0.75578095  1
  O  O273  1  0.25553060  0.76343922  0.08152585  1
  O  O274  1  0.25783010  0.76933101  0.41795008  1
  O  O275  1  0.25313080  0.76399412  0.74377793  1
  O  O276  1  0.58935215  0.26394690  0.07501780  1
  O  O277  1  0.57252501  0.26173486  0.41827962  1
  O  O278  1  0.58298353  0.27264851  0.74512958  1
  O  O279  1  0.58993266  0.74815025  0.08234889  1
  O  O280  1  0.58797670  0.76946024  0.41042319  1
  O  O281  1  0.58882073  0.76873140  0.73270375  1
  O  O282  1  0.91280819  0.27386456  0.08605431  1
  O  O283  1  0.91672612  0.27194463  0.41988663  1
  O  O284  1  0.91916384  0.27361424  0.74761620  1
  O  O285  1  0.92287102  0.76873885  0.07636321  1
  O  O286  1  0.91591002  0.76469174  0.42083363  1
  O  O287  1  0.91729721  0.77725096  0.75272942  1
  O  O288  1  0.24147341  0.48439470  0.09478805  1
  O  O289  1  0.24686508  0.47402365  0.42514025  1
  O  O290  1  0.24321727  0.47709472  0.75232755  1
  O  O291  1  0.25826314  0.98478244  0.07321456  1
  O  O292  1  0.25943803  0.98397406  0.41312068  1
  O  O293  1  0.25439576  0.98742890  0.74193013  1
  O  O294  1  0.58377265  0.48210432  0.08434099  1
  O  O295  1  0.57364280  0.48263438  0.41959269  1
  O  O296  1  0.58115271  0.47732380  0.74549846  1
  O  O297  1  0.59034154  1.00169337  0.07634547  1
  O  O298  1  0.58244713  0.98525101  0.41369786  1
  O  O299  1  0.58916306  0.98214846  0.73537135  1
  O  O300  1  0.91442816  0.47167079  0.08745163  1
  O  O301  1  0.91636302  0.47650528  0.42211406  1
  O  O302  1  0.91284459  0.47581281  0.75543760  1
  O  O303  1  0.91850474  0.98375759  0.07849605  1
  O  O304  1  0.91284496  0.98725093  0.42261710  1
  O  O305  1  0.92104684  0.97636499  0.74644092  1
  O  O306  1  0.07861904  0.27198645  0.08676577  1
  O  O307  1  0.08115362  0.27341852  0.41647085  1
  O  O308  1  0.08133121  0.27527583  0.74587606  1
  O  O309  1  0.08118012  0.75631616  0.08285719  1
  O  O310  1  0.08939328  0.76492290  0.42055830  1
  O  O311  1  0.07706896  0.76381205  0.74502622  1
  O  O312  1  0.42334149  0.26395555  0.09016775  1
  O  O313  1  0.41148962  0.27494391  0.41803593  1
  O  O314  1  0.40912532  0.26148771  0.74430382  1
  O  O315  1  0.41686768  0.75487553  0.08541876  1
  O  O316  1  0.42019507  0.77123192  0.42083518  1
  O  O317  1  0.41318310  0.76242255  0.74072602  1
  O  O318  1  0.75022119  0.27808688  0.08000826  1
  O  O319  1  0.75527329  0.26161482  0.41765211  1
  O  O320  1  0.75244426  0.27103988  0.74705138  1
  O  O321  1  0.76568236  0.76137246  0.09715487  1
  O  O322  1  0.75195633  0.77032908  0.42216340  1
  O  O323  1  0.75831551  0.76981056  0.75468135  1
  O  O324  1  0.24635294  0.02322407  0.24642967  1
  O  O325  1  0.25108615  0.02215813  0.58236985  1
  O  O326  1  0.24820863  0.02365833  0.91489729  1
  O  O327  1  0.25028318  0.50886942  0.25508461  1
  O  O328  1  0.26240869  0.51299030  0.59500229  1
  O  O329  1  0.24457709  0.50174888  0.91566612  1
  O  O330  1  0.58079431  0.01198307  0.24484064  1
  O  O331  1  0.57280014  0.01565688  0.57217332  1
  O  O332  1  0.57755281  0.02066565  0.91145927  1
  O  O333  1  0.58609792  0.52527878  0.24645477  1
  O  O334  1  0.58162909  0.50024904  0.58192809  1
  O  O335  1  0.59180127  0.50971235  0.92324817  1
  O  O336  1  0.91609008  0.01881415  0.24875398  1
  O  O337  1  0.91925652  0.02736475  0.58405833  1
  O  O338  1  0.90445309  0.01818466  0.90708704  1
  O  O339  1  0.92102985  0.52050558  0.25421887  1
  O  O340  1  0.92708361  0.51459035  0.59494179  1
  O  O341  1  0.91480554  0.52206915  0.92014442  1
  O  O342  1  0.08553097  0.22979014  0.25117769  1
  O  O343  1  0.08289550  0.23138264  0.58398062  1
  O  O344  1  0.08715500  0.23689072  0.90745333  1
  O  O345  1  0.07878973  0.72798775  0.24802566  1
  O  O346  1  0.08189627  0.74148482  0.58613170  1
  O  O347  1  0.07400992  0.73701848  0.92257989  1
  O  O348  1  0.40949542  0.22765783  0.25462693  1
  O  O349  1  0.41738068  0.22361964  0.58064222  1
  O  O350  1  0.41487552  0.22932484  0.91486010  1
  O  O351  1  0.41846238  0.72937558  0.25107189  1
  O  O352  1  0.41582993  0.73010515  0.58228836  1
  O  O353  1  0.41499081  0.74513230  0.91791988  1
  O  O354  1  0.75917081  0.24066628  0.24052665  1
  O  O355  1  0.76034521  0.23731113  0.57958590  1
  O  O356  1  0.74622913  0.23163096  0.91905521  1
  O  O357  1  0.74468814  0.72455243  0.25609462  1
  O  O358  1  0.74886780  0.74941397  0.58789794  1
  O  O359  1  0.75268341  0.72544729  0.92706255  1
