# generated using pymatgen
data_Ba17Sr5La8Pr42Mn72O216
_symmetry_space_group_name_H-M   'P 1'
_cell_length_a   16.67430275
_cell_length_b   15.70753295
_cell_length_c   16.82487125
_cell_angle_alpha   89.99094051
_cell_angle_beta   90.05956569
_cell_angle_gamma   89.99513713
_symmetry_Int_Tables_number   1
_chemical_formula_structural   Ba17Sr5La8Pr42Mn72O216
_chemical_formula_sum   'Ba17 Sr5 La8 Pr42 Mn72 O216'
_cell_volume   4406.63591754
_cell_formula_units_Z   1
loop_
 _symmetry_equiv_pos_site_id
 _symmetry_equiv_pos_as_xyz
  1  'x, y, z'
loop_
 _atom_site_type_symbol
 _atom_site_label
 _atom_site_symmetry_multiplicity
 _atom_site_fract_x
 _atom_site_fract_y
 _atom_site_fract_z
 _atom_site_occupancy
  Ba  Ba0  1  0.50098473  0.62640847  0.83185511  1
  Ba  Ba1  1  0.33447713  0.87533785  0.33137456  1
  Ba  Ba2  1  0.83337020  0.37551819  0.16578193  1
  Ba  Ba3  1  0.00436554  0.87690518  0.00057504  1
  Ba  Ba4  1  0.66651136  0.37396341  0.66777152  1
  Ba  Ba5  1  0.00171870  0.37177587  0.66754445  1
  Ba  Ba6  1  0.16532134  0.62478863  0.83485709  1
  Ba  Ba7  1  -0.00096262  0.12416626  0.33441813  1
  Ba  Ba8  1  0.16535924  0.62553024  0.50229910  1
  Ba  Ba9  1  -0.00118377  0.37313747  0.33263709  1
  Ba  Ba10  1  0.49878264  0.87619400  0.16557463  1
  Ba  Ba11  1  0.83231238  0.62637506  0.16838905  1
  Ba  Ba12  1  -0.00062560  0.62509804  0.33401677  1
  Ba  Ba13  1  0.49879216  0.37634348  0.83279962  1
  Ba  Ba14  1  0.49935416  0.12531176  0.16576833  1
  Ba  Ba15  1  0.66491352  0.62507039  0.33434188  1
  Ba  Ba16  1  0.66713563  0.37469615  0.00066223  1
  Sr  Sr17  1  0.16647254  0.87645876  0.16674073  1
  Sr  Sr18  1  0.33384218  0.37745114  0.00167060  1
  Sr  Sr19  1  0.16688226  0.12544837  0.50167916  1
  Sr  Sr20  1  0.16451804  0.37392628  0.16728488  1
  Sr  Sr21  1  0.49976537  0.37583723  0.15977366  1
  La  La22  1  0.49759157  0.62874986  0.50083169  1
  La  La23  1  0.50052174  0.62215891  0.16506095  1
  La  La24  1  0.66415433  0.37471240  0.33172308  1
  La  La25  1  0.33155168  0.37218726  0.32935981  1
  La  La26  1  0.66642041  0.12420959  0.33109649  1
  La  La27  1  -0.00184129  0.62394302  1.00313088  1
  La  La28  1  -0.00446475  0.62580448  0.66248608  1
  La  La29  1  0.33106270  0.62294670  1.00085268  1
  Pr  Pr30  1  0.00547521  0.87380552  0.33071242  1
  Pr  Pr31  1  0.32961111  0.37679431  0.66936298  1
  Pr  Pr32  1  0.67198383  0.87357562  0.67183693  1
  Pr  Pr33  1  0.65817735  0.62080445  0.66227979  1
  Pr  Pr34  1  0.17214755  0.87602748  0.83502255  1
  Pr  Pr35  1  0.82986153  0.62087924  0.50149560  1
  Pr  Pr36  1  0.83832327  0.87647719  0.49657632  1
  Pr  Pr37  1  -0.00372069  0.12198047  0.66128032  1
  Pr  Pr38  1  0.49926756  0.12214167  0.49901139  1
  Pr  Pr39  1  0.67111140  0.87340488  0.00270641  1
  Pr  Pr40  1  0.33178280  0.87042739  0.00713199  1
  Pr  Pr41  1  0.66242802  0.12846895  0.66489131  1
  Pr  Pr42  1  0.49549895  0.37650862  0.49719072  1
  Pr  Pr43  1  0.82932415  0.37394910  0.49390612  1
  Pr  Pr44  1  0.50234783  0.87402418  0.49270048  1
  Pr  Pr45  1  0.33490926  0.12625643  0.99826993  1
  Pr  Pr46  1  0.00318061  0.37548111  0.00705538  1
  Pr  Pr47  1  0.33152399  0.62404455  0.32816700  1
  Pr  Pr48  1  0.33060242  0.12386861  0.32733384  1
  Pr  Pr49  1  -0.00242820  0.12458279  1.00382670  1
  Pr  Pr50  1  0.83234701  0.12419870  0.16921669  1
  Pr  Pr51  1  0.84360584  0.87631710  0.82901629  1
  Pr  Pr52  1  0.83518317  0.37584858  0.83054354  1
  Pr  Pr53  1  0.17021608  0.37566031  0.83509557  1
  Pr  Pr54  1  0.66715365  0.87528648  0.33493648  1
  Pr  Pr55  1  0.66363284  0.62164964  1.00153703  1
  Pr  Pr56  1  0.16429208  0.62734387  0.17029048  1
  Pr  Pr57  1  0.50639785  0.12860292  0.83698667  1
  Pr  Pr58  1  0.83083618  0.62479740  0.83515670  1
  Pr  Pr59  1  0.83438606  0.12802894  0.50188901  1
  Pr  Pr60  1  0.66314472  0.12774696  1.00162915  1
  Pr  Pr61  1  0.33471616  0.12816908  0.66334357  1
  Pr  Pr62  1  0.01414040  0.87680191  0.67001998  1
  Pr  Pr63  1  0.16691804  0.12510164  0.16774787  1
  Pr  Pr64  1  0.16275666  0.37283557  0.49424976  1
  Pr  Pr65  1  0.33421974  0.62139088  0.66464404  1
  Pr  Pr66  1  0.16575257  0.12704990  0.83636844  1
  Pr  Pr67  1  0.33434064  0.87288647  0.66602342  1
  Pr  Pr68  1  0.16907140  0.87773324  0.49421146  1
  Pr  Pr69  1  0.83299421  0.12660329  0.83418623  1
  Pr  Pr70  1  0.50043175  0.87632241  0.83293548  1
  Pr  Pr71  1  0.83655940  0.87333888  0.16717374  1
  Mn  Mn72  1  -0.00019913  0.00086556  0.16671560  1
  Mn  Mn73  1  -0.00024268  -0.00051685  0.50120161  1
  Mn  Mn74  1  0.00259627  0.00175975  0.83157490  1
  Mn  Mn75  1  0.00182149  0.49888619  0.16687478  1
  Mn  Mn76  1  -0.00212931  0.50002261  0.50195016  1
  Mn  Mn77  1  -0.00028333  0.49903581  0.83471531  1
  Mn  Mn78  1  0.33111784  0.00032258  0.16397915  1
  Mn  Mn79  1  0.33446678  0.00286196  0.50081541  1
  Mn  Mn80  1  0.33462941  0.00051116  0.83183494  1
  Mn  Mn81  1  0.33132618  0.49919829  0.16546245  1
  Mn  Mn82  1  0.33361083  0.49797524  0.49861674  1
  Mn  Mn83  1  0.33189646  0.50034056  0.83378807  1
  Mn  Mn84  1  0.66796031  -0.00150834  0.16635177  1
  Mn  Mn85  1  0.66706989  0.00030116  0.50301834  1
  Mn  Mn86  1  0.66951072  -0.00157531  0.83374547  1
  Mn  Mn87  1  0.66495092  0.49995514  0.16670579  1
  Mn  Mn88  1  0.66502239  0.49890702  0.50013577  1
  Mn  Mn89  1  0.66813264  0.50200802  0.83220250  1
  Mn  Mn90  1  -0.00022731  0.24822253  0.16597547  1
  Mn  Mn91  1  0.00007102  0.24780450  0.50208123  1
  Mn  Mn92  1  0.00085369  0.24755910  0.83650965  1
  Mn  Mn93  1  0.00177965  0.75228230  0.16687080  1
  Mn  Mn94  1  -0.00324959  0.75301052  0.50174898  1
  Mn  Mn95  1  0.00099438  0.75124014  0.83079596  1
  Mn  Mn96  1  0.33170213  0.25056897  0.16383082  1
  Mn  Mn97  1  0.33434458  0.24947013  0.49932874  1
  Mn  Mn98  1  0.33233390  0.24900158  0.83068951  1
  Mn  Mn99  1  0.33121230  0.74833137  0.16595985  1
  Mn  Mn100  1  0.33325646  0.74952829  0.50084089  1
  Mn  Mn101  1  0.33446771  0.75246315  0.83510003  1
  Mn  Mn102  1  0.66625321  0.24815937  0.16677130  1
  Mn  Mn103  1  0.66405170  0.24820238  0.49891665  1
  Mn  Mn104  1  0.66868441  0.24873644  0.83235619  1
  Mn  Mn105  1  0.66582130  0.75235763  0.16706789  1
  Mn  Mn106  1  0.66786663  0.75181259  0.50394215  1
  Mn  Mn107  1  0.67020427  0.75280860  0.83425412  1
  Mn  Mn108  1  0.16767930  0.24791902  0.00120382  1
  Mn  Mn109  1  0.16730677  0.24843200  0.33370298  1
  Mn  Mn110  1  0.16762708  0.24852988  0.66797387  1
  Mn  Mn111  1  0.16623738  0.74919332  0.00182282  1
  Mn  Mn112  1  0.16731359  0.75080628  0.33448537  1
  Mn  Mn113  1  0.16903875  0.75077417  0.66795024  1
  Mn  Mn114  1  0.49867277  0.25015435  -0.00012588  1
  Mn  Mn115  1  0.49844219  0.25145466  0.33341152  1
  Mn  Mn116  1  0.49822460  0.24784726  0.66548172  1
  Mn  Mn117  1  0.50047588  0.75109393  -0.00168959  1
  Mn  Mn118  1  0.49985597  0.74850122  0.33290862  1
  Mn  Mn119  1  0.49984343  0.75398694  0.66539745  1
  Mn  Mn120  1  0.83480890  0.24666365  -0.00098431  1
  Mn  Mn121  1  0.83001845  0.24773320  0.33431483  1
  Mn  Mn122  1  0.83378828  0.24862812  0.66748888  1
  Mn  Mn123  1  0.83363885  0.75177580  -0.00233556  1
  Mn  Mn124  1  0.83266164  0.75373693  0.33483503  1
  Mn  Mn125  1  0.83283876  0.75245031  0.66538598  1
  Mn  Mn126  1  0.16915739  0.00350279  0.00021894  1
  Mn  Mn127  1  0.16690567  0.00140986  0.33377680  1
  Mn  Mn128  1  0.17079354  0.00121994  0.66733991  1
  Mn  Mn129  1  0.16617802  0.49864562  0.00292209  1
  Mn  Mn130  1  0.16773232  0.49833145  0.33388369  1
  Mn  Mn131  1  0.16608165  0.49875747  0.66707790  1
  Mn  Mn132  1  0.49942211  0.00063212  -0.00404620  1
  Mn  Mn133  1  0.50076814  0.00005965  0.33456683  1
  Mn  Mn134  1  0.49992599  -0.00157406  0.66656594  1
  Mn  Mn135  1  0.49919042  0.50097052  0.00014214  1
  Mn  Mn136  1  0.49753928  0.49780363  0.33098234  1
  Mn  Mn137  1  0.49821068  0.50013442  0.66343200  1
  Mn  Mn138  1  0.83275962  -0.00018414  -0.00031810  1
  Mn  Mn139  1  0.83233674  -0.00144687  0.33403383  1
  Mn  Mn140  1  0.83278999  -0.00072719  0.66496438  1
  Mn  Mn141  1  0.83426880  0.50246520  -0.00259039  1
  Mn  Mn142  1  0.83163100  0.49959009  0.33427955  1
  Mn  Mn143  1  0.83350685  0.50038268  0.66833139  1
  O  O144  1  0.18514352  0.12580992  0.02250057  1
  O  O145  1  0.17770161  0.12477933  0.35211272  1
  O  O146  1  0.17620609  0.12238749  0.69380466  1
  O  O147  1  0.17372069  0.62318594  0.02287889  1
  O  O148  1  0.17685410  0.62377194  0.34526054  1
  O  O149  1  0.17000665  0.62438862  0.67845403  1
  O  O150  1  0.50905243  0.12253120  0.00663597  1
  O  O151  1  0.50173690  0.12660229  0.35600655  1
  O  O152  1  0.50091561  0.11764638  0.69400153  1
  O  O153  1  0.51114724  0.62853631  0.01600245  1
  O  O154  1  0.49382984  0.62120241  0.35775762  1
  O  O155  1  0.50272945  0.62764132  0.67498418  1
  O  O156  1  0.84121229  0.12011074  0.02550803  1
  O  O157  1  0.82749690  0.12055895  0.35816411  1
  O  O158  1  0.84089582  0.11989907  0.69063270  1
  O  O159  1  0.84492585  0.62962345  0.01010445  1
  O  O160  1  0.83426470  0.63175630  0.35599801  1
  O  O161  1  0.84221988  0.63009301  0.69080815  1
  O  O162  1  0.17042736  0.37269461  0.31882545  1
  O  O163  1  0.17251784  0.37366409  0.63883722  1
  O  O164  1  0.15292738  0.36959908  0.97798151  1
  O  O165  1  0.15986014  0.87765551  0.31892416  1
  O  O166  1  0.16821234  0.87860336  0.63851099  1
  O  O167  1  0.17093311  0.87933699  0.97824918  1
  O  O168  1  0.49672690  0.37465387  0.30983054  1
  O  O169  1  0.49081856  0.37594366  0.64271483  1
  O  O170  1  0.49355084  0.37535288  0.99229463  1
  O  O171  1  0.50464732  0.87477245  0.32439196  1
  O  O172  1  0.49404292  0.87818295  0.63598020  1
  O  O173  1  0.48830080  0.87705916  0.97764495  1
  O  O174  1  0.82251042  0.36995701  0.32953042  1
  O  O175  1  0.83129513  0.37399197  0.64163618  1
  O  O176  1  0.83930396  0.37297031  0.97402226  1
  O  O177  1  0.81966881  0.87805211  0.31321924  1
  O  O178  1  0.81951739  0.87800231  0.63799532  1
  O  O179  1  0.82299506  0.87719299  0.97140055  1
  O  O180  1  0.00549652  0.37151423  0.17074822  1
  O  O181  1  0.00147096  0.37073659  0.51020122  1
  O  O182  1  -0.00355783  0.36787063  0.86284076  1
  O  O183  1  0.00526017  0.87885269  0.18382907  1
  O  O184  1  -0.00226304  0.87799014  0.52721903  1
  O  O185  1  0.00164152  0.87787134  0.84471485  1
  O  O186  1  0.34072116  0.37552001  0.18428114  1
  O  O187  1  0.34239430  0.37267799  0.52726880  1
  O  O188  1  0.32963041  0.37108510  0.84948709  1
  O  O189  1  0.33413771  0.87460147  0.17273483  1
  O  O190  1  0.33655601  0.88030646  0.52251756  1
  O  O191  1  0.33975148  0.87895419  0.86230921  1
  O  O192  1  0.66415326  0.37044999  0.18463218  1
  O  O193  1  0.67490952  0.37157960  0.51196296  1
  O  O194  1  0.67969832  0.37102675  0.84298087  1
  O  O195  1  0.67199507  0.87733455  0.18945793  1
  O  O196  1  0.66737811  0.87816123  0.53035903  1
  O  O197  1  0.67776272  0.87718480  0.85897165  1
  O  O198  1  -0.01445487  0.12360016  0.14936415  1
  O  O199  1  -0.00625728  0.12195791  0.49072424  1
  O  O200  1  0.00123873  0.12263581  0.80415029  1
  O  O201  1  0.00425539  0.62520335  0.15013851  1
  O  O202  1  -0.00986848  0.62996538  0.49171027  1
  O  O203  1  -0.00586119  0.63027364  0.80602399  1
  O  O204  1  0.32024912  0.12526569  0.14523444  1
  O  O205  1  0.33858952  0.12752941  0.47115128  1
  O  O206  1  0.32409691  0.12241181  0.80427646  1
  O  O207  1  0.31820098  0.62362023  0.14748922  1
  O  O208  1  0.33669550  0.61882072  0.47281357  1
  O  O209  1  0.33101536  0.63046461  0.80843019  1
  O  O210  1  0.67151735  0.11996105  0.14597274  1
  O  O211  1  0.65958713  0.12313416  0.47458147  1
  O  O212  1  0.66440102  0.11965324  0.80820887  1
  O  O213  1  0.66018998  0.63118460  0.14700629  1
  O  O214  1  0.66372218  0.62714318  0.49127859  1
  O  O215  1  0.67408590  0.63354164  0.80538647  1
  O  O216  1  0.08596317  0.01677206  0.24754681  1
  O  O217  1  0.07958284  0.01642339  0.59408044  1
  O  O218  1  0.08625793  0.02625743  0.92008301  1
  O  O219  1  0.09182498  0.51336647  0.24501233  1
  O  O220  1  0.07690143  0.51289619  0.59114169  1
  O  O221  1  0.07319273  0.51538019  0.92723279  1
  O  O222  1  0.40939231  0.01609044  0.25268173  1
  O  O223  1  0.41602214  0.02646827  0.58612362  1
  O  O224  1  0.41727192  0.02797535  0.90864701  1
  O  O225  1  0.41402100  0.52380846  0.24972083  1
  O  O226  1  0.41964861  0.52255234  0.57568932  1
  O  O227  1  0.41222046  0.51658256  0.92054210  1
  O  O228  1  0.75048701  0.02152553  0.25198011  1
  O  O229  1  0.74595385  0.02881504  0.58687090  1
  O  O230  1  0.74767782  0.02889865  0.92159579  1
  O  O231  1  0.74422104  0.50328432  0.25433559  1
  O  O232  1  0.74883678  0.52342974  0.59004788  1
  O  O233  1  0.74993996  0.52420619  0.91678095  1
  O  O234  1  0.25131121  0.23339882  0.25180310  1
  O  O235  1  0.25712834  0.23060611  0.58431415  1
  O  O236  1  0.24806051  0.23109354  0.91258007  1
  O  O237  1  0.24995775  0.73329721  0.24938802  1
  O  O238  1  0.25514379  0.73893307  0.59182929  1
  O  O239  1  0.25247104  0.74177964  0.92078557  1
  O  O240  1  0.58971124  0.23691100  0.26160447  1
  O  O241  1  0.58368404  0.22743102  0.58339821  1
  O  O242  1  0.58719214  0.23276850  0.91519121  1
  O  O243  1  0.57496643  0.73628150  0.24417507  1
  O  O244  1  0.58030410  0.73711016  0.58081622  1
  O  O245  1  0.58648690  0.74685370  0.91532284  1
  O  O246  1  0.91018664  0.23652999  0.24686034  1
  O  O247  1  0.91554158  0.22844627  0.58815321  1
  O  O248  1  0.91653090  0.21941124  0.91530069  1
  O  O249  1  0.91663342  0.75599305  0.24973258  1
  O  O250  1  0.90025522  0.73816992  0.57174518  1
  O  O251  1  0.90833007  0.74164796  0.90199010  1
  O  O252  1  0.08388778  0.48827828  0.08276539  1
  O  O253  1  0.08712998  0.48775998  0.42177386  1
  O  O254  1  0.08794606  0.48018168  0.76209749  1
  O  O255  1  0.08583321  1.00636956  0.08419442  1
  O  O256  1  0.08349729  0.98098652  0.42065384  1
  O  O257  1  0.09378819  0.98012868  0.75392118  1
  O  O258  1  0.41499480  0.50464925  0.08399457  1
  O  O259  1  0.41377863  0.47415936  0.41345741  1
  O  O260  1  0.40886579  0.49124479  0.73751521  1
  O  O261  1  0.40996278  0.99553896  0.07198279  1
  O  O262  1  0.42502526  0.98873730  0.42712000  1
  O  O263  1  0.41844691  0.97438468  0.74934578  1
  O  O264  1  0.74986664  0.50055190  0.07772627  1
  O  O265  1  0.75007108  0.48908060  0.42416494  1
  O  O266  1  0.75910317  0.49022481  0.75635187  1
  O  O267  1  0.75292996  0.97743752  0.08472204  1
  O  O268  1  0.75018428  0.97919610  0.42194163  1
  O  O269  1  0.75561904  0.97982020  0.75290068  1
  O  O270  1  0.24642205  0.27025387  0.08169779  1
  O  O271  1  0.25301657  0.27288137  0.42072795  1
  O  O272  1  0.24833873  0.27350418  0.74941106  1
  O  O273  1  0.25118951  0.76628499  0.08133166  1
  O  O274  1  0.24741788  0.76747133  0.42341914  1
  O  O275  1  0.25477839  0.77858133  0.75394829  1
  O  O276  1  0.58419913  0.25502940  0.08635426  1
  O  O277  1  0.57662771  0.27218011  0.42217225  1
  O  O278  1  0.58165260  0.25306569  0.75065522  1
  O  O279  1  0.58922860  0.76886420  0.07526396  1
  O  O280  1  0.59150739  0.77140268  0.41842315  1
  O  O281  1  0.58849346  0.77714969  0.74940513  1
  O  O282  1  0.92342596  0.26243909  0.07248385  1
  O  O283  1  0.90310982  0.25759470  0.42597140  1
  O  O284  1  0.91379481  0.26369920  0.76015374  1
  O  O285  1  0.91427191  0.76695085  0.08179132  1
  O  O286  1  0.92066856  0.78015276  0.41288978  1
  O  O287  1  0.92267122  0.77728748  0.73407595  1
  O  O288  1  0.24884913  0.48187014  0.08536392  1
  O  O289  1  0.25029836  0.47322816  0.42173380  1
  O  O290  1  0.24810089  0.47841892  0.75050524  1
  O  O291  1  0.25126792  0.98019862  0.07903902  1
  O  O292  1  0.24817264  0.98564357  0.42203838  1
  O  O293  1  0.25487987  0.97065252  0.74928857  1
  O  O294  1  0.58042423  0.49508518  0.08423315  1
  O  O295  1  0.57947435  0.47666456  0.41378629  1
  O  O296  1  0.58530832  0.49620510  0.74507683  1
  O  O297  1  0.59101888  0.98516913  0.07244231  1
  O  O298  1  0.58787993  0.97828850  0.42194177  1
  O  O299  1  0.58550548  0.97238831  0.74661660  1
  O  O300  1  0.92424389  0.48965153  0.07150048  1
  O  O301  1  0.90894629  0.48810075  0.42639461  1
  O  O302  1  0.91546055  0.48156523  0.75156460  1
  O  O303  1  0.91196649  0.98117829  0.08524602  1
  O  O304  1  0.91721135  0.97537044  0.41169085  1
  O  O305  1  0.92046232  0.97699862  0.73850796  1
  O  O306  1  0.08205460  0.24746969  0.07918480  1
  O  O307  1  0.08913204  0.25809924  0.42276032  1
  O  O308  1  0.09055305  0.26376533  0.76501457  1
  O  O309  1  0.08892587  0.75453756  0.08904556  1
  O  O310  1  0.08304996  0.77216560  0.42235885  1
  O  O311  1  0.09197653  0.77377942  0.75438683  1
  O  O312  1  0.41027954  0.25101530  0.07654446  1
  O  O313  1  0.41580368  0.27348216  0.41633315  1
  O  O314  1  0.40706652  0.25951645  0.73952084  1
  O  O315  1  0.41284087  0.75160126  0.08028353  1
  O  O316  1  0.42560942  0.76147830  0.42506692  1
  O  O317  1  0.41974412  0.77543160  0.75094090  1
  O  O318  1  0.75321151  0.24968324  0.08138251  1
  O  O319  1  0.74059559  0.25959646  0.41322695  1
  O  O320  1  0.75473718  0.25412968  0.75247758  1
  O  O321  1  0.75147030  0.77154224  0.08481118  1
  O  O322  1  0.75540610  0.77093200  0.42844083  1
  O  O323  1  0.75966779  0.77555541  0.75616894  1
  O  O324  1  0.24793969  0.01838642  0.24807204  1
  O  O325  1  0.25372332  0.02044478  0.58638695  1
  O  O326  1  0.25053694  0.02028837  0.91188454  1
  O  O327  1  0.25593592  0.51128142  0.25618345  1
  O  O328  1  0.26059026  0.51212623  0.58905707  1
  O  O329  1  0.24768729  0.50652370  0.92107759  1
  O  O330  1  0.58938363  0.01082420  0.25671203  1
  O  O331  1  0.58237225  0.02391141  0.58427833  1
  O  O332  1  0.58054821  0.01228525  0.90806172  1
  O  O333  1  0.57488239  0.51269444  0.24646894  1
  O  O334  1  0.58003686  0.51268862  0.57893239  1
  O  O335  1  0.58877560  0.51366100  0.91870160  1
  O  O336  1  0.91003353  0.00536592  0.24650112  1
  O  O337  1  0.90824022  0.01733895  0.57786417  1
  O  O338  1  0.91269393  0.01783030  0.91113772  1
  O  O339  1  0.91825841  0.50421047  0.24919911  1
  O  O340  1  0.91160888  0.51989222  0.58473079  1
  O  O341  1  0.91189632  0.51989320  0.90897493  1
  O  O342  1  0.08743529  0.23235988  0.24363431  1
  O  O343  1  0.08292587  0.22745660  0.59329968  1
  O  O344  1  0.08114628  0.21945033  0.92111836  1
  O  O345  1  0.08661662  0.73956725  0.25224169  1
  O  O346  1  0.06862562  0.74132142  0.59392586  1
  O  O347  1  0.07800387  0.73401293  0.92591318  1
  O  O348  1  0.41062356  0.23347278  0.25662723  1
  O  O349  1  0.42068338  0.22350864  0.57693992  1
  O  O350  1  0.41579617  0.22615177  0.90843893  1
  O  O351  1  0.41125397  0.72602006  0.24882852  1
  O  O352  1  0.41168989  0.72887673  0.58470131  1
  O  O353  1  0.41226435  0.73366202  0.92061868  1
  O  O354  1  0.74971323  0.22613655  0.24978197  1
  O  O355  1  0.74900004  0.22449849  0.57969660  1
  O  O356  1  0.75178169  0.22324947  0.91665653  1
  O  O357  1  0.74542571  0.74515400  0.25519799  1
  O  O358  1  0.74160534  0.72830364  0.59587157  1
  O  O359  1  0.74580081  0.72524367  0.92155603  1
