# generated using pymatgen
data_Ba17Sr5La8Pr42Mn72O216
_symmetry_space_group_name_H-M   'P 1'
_cell_length_a   16.67708244
_cell_length_b   15.70621905
_cell_length_c   16.82140992
_cell_angle_alpha   90.00278623
_cell_angle_beta   89.95190531
_cell_angle_gamma   89.99474750
_symmetry_Int_Tables_number   1
_chemical_formula_structural   Ba17Sr5La8Pr42Mn72O216
_chemical_formula_sum   'Ba17 Sr5 La8 Pr42 Mn72 O216'
_cell_volume   4406.09609209
_cell_formula_units_Z   1
loop_
 _symmetry_equiv_pos_site_id
 _symmetry_equiv_pos_as_xyz
  1  'x, y, z'
loop_
 _atom_site_type_symbol
 _atom_site_label
 _atom_site_symmetry_multiplicity
 _atom_site_fract_x
 _atom_site_fract_y
 _atom_site_fract_z
 _atom_site_occupancy
  Ba  Ba0  1  0.17020690  0.87429950  0.50050273  1
  Ba  Ba1  1  0.66748915  0.62532538  0.66599040  1
  Ba  Ba2  1  0.33485564  0.62331053  0.99987839  1
  Ba  Ba3  1  0.49971863  0.62359778  0.16500802  1
  Ba  Ba4  1  -0.00528351  0.12576192  0.33338019  1
  Ba  Ba5  1  0.83118167  0.12635065  0.83516575  1
  Ba  Ba6  1  0.49858987  0.37340249  0.49911113  1
  Ba  Ba7  1  0.33382158  0.37452736  -0.00169252  1
  Ba  Ba8  1  0.16801855  0.62311838  0.16845609  1
  Ba  Ba9  1  0.16976481  0.87317485  0.83090159  1
  Ba  Ba10  1  0.83379061  0.62568120  0.50236246  1
  Ba  Ba11  1  0.16134004  0.12703792  0.16631268  1
  Ba  Ba12  1  -0.00238896  0.12689919  0.66711889  1
  Ba  Ba13  1  0.83077735  0.12522348  0.50246800  1
  Ba  Ba14  1  0.00191395  0.37651674  0.67040163  1
  Ba  Ba15  1  0.66668996  0.87417604  0.33273510  1
  Ba  Ba16  1  0.33566233  0.87530557  -0.00153169  1
  Sr  Sr17  1  0.33565678  0.62424732  0.32647413  1
  Sr  Sr18  1  0.83688635  0.37480274  0.83381465  1
  Sr  Sr19  1  -0.00072646  0.37630654  -0.00011230  1
  Sr  Sr20  1  0.16379842  0.37411252  0.16359889  1
  Sr  Sr21  1  0.33798365  0.37487806  0.66785413  1
  La  La22  1  0.49471916  0.12546349  0.83365627  1
  La  La23  1  0.50211033  0.87308389  0.49722058  1
  La  La24  1  0.50453254  0.87270944  0.83204607  1
  La  La25  1  -0.00007274  0.87689482  0.66864990  1
  La  La26  1  -0.00515253  0.12906377  0.99938382  1
  La  La27  1  0.66461130  0.62348024  0.33240820  1
  La  La28  1  0.66161109  0.12494285  0.99814211  1
  La  La29  1  0.15925370  0.12607086  0.50155041  1
  Pr  Pr30  1  0.49956128  0.37722607  0.16501386  1
  Pr  Pr31  1  0.83671425  0.37582144  0.16464731  1
  Pr  Pr32  1  0.00366825  0.87611679  0.00367750  1
  Pr  Pr33  1  0.32480232  0.12606785  0.66357125  1
  Pr  Pr34  1  0.84033375  0.87332100  0.49888916  1
  Pr  Pr35  1  0.15670888  0.12662477  0.83585521  1
  Pr  Pr36  1  0.32569197  0.37732460  0.33170163  1
  Pr  Pr37  1  0.83808279  0.87421836  0.16848184  1
  Pr  Pr38  1  0.66718344  0.37540374  0.33577342  1
  Pr  Pr39  1  0.00447040  0.62573370  0.66616667  1
  Pr  Pr40  1  0.50517307  0.37748519  0.82686640  1
  Pr  Pr41  1  0.16692388  0.37295886  0.50022758  1
  Pr  Pr42  1  0.16842618  0.62245494  0.49818614  1
  Pr  Pr43  1  0.67000375  0.37296423  0.00030348  1
  Pr  Pr44  1  0.33523983  0.87163999  0.33170136  1
  Pr  Pr45  1  0.66798051  0.62618715  0.99467694  1
  Pr  Pr46  1  0.83569437  0.87515718  0.83399831  1
  Pr  Pr47  1  0.33484190  0.62482943  0.66419397  1
  Pr  Pr48  1  0.00387322  0.62238448  1.00059727  1
  Pr  Pr49  1  0.50244799  0.87033010  0.16361401  1
  Pr  Pr50  1  0.17186207  0.87554838  0.16388223  1
  Pr  Pr51  1  0.49378698  0.12269063  0.50198331  1
  Pr  Pr52  1  0.83540479  0.37689541  0.50234219  1
  Pr  Pr53  1  0.32720512  0.12737394  0.33332703  1
  Pr  Pr54  1  0.67206638  0.87769174  0.00504916  1
  Pr  Pr55  1  0.49959989  0.62500678  0.49865221  1
  Pr  Pr56  1  0.16493222  0.62134066  0.83832754  1
  Pr  Pr57  1  0.00459803  0.37631669  0.33614297  1
  Pr  Pr58  1  0.67293672  0.37608086  0.66913933  1
  Pr  Pr59  1  0.50171141  0.62175422  0.83785165  1
  Pr  Pr60  1  0.66235434  0.12605252  0.66327175  1
  Pr  Pr61  1  0.83322008  0.62341798  0.17196829  1
  Pr  Pr62  1  0.33859577  0.87611009  0.67128655  1
  Pr  Pr63  1  0.48910856  0.12392576  0.16497805  1
  Pr  Pr64  1  0.00509805  0.87562020  0.33689504  1
  Pr  Pr65  1  0.67546032  0.87360319  0.66559859  1
  Pr  Pr66  1  0.17405788  0.37652830  0.82904826  1
  Pr  Pr67  1  0.00230166  0.62738750  0.33087028  1
  Pr  Pr68  1  0.65736291  0.12515748  0.33216545  1
  Pr  Pr69  1  0.32029335  0.12662360  0.99443662  1
  Pr  Pr70  1  0.83690835  0.62106135  0.83642113  1
  Pr  Pr71  1  0.82600427  0.12583939  0.17420548  1
  Mn  Mn72  1  -0.00376554  -0.00185991  0.16805780  1
  Mn  Mn73  1  0.00045653  -0.00157166  0.50134906  1
  Mn  Mn74  1  -0.00109778  -0.00124786  0.83652121  1
  Mn  Mn75  1  -0.00193730  0.50087855  0.16797518  1
  Mn  Mn76  1  0.00113974  0.50051483  0.50069933  1
  Mn  Mn77  1  0.00127319  0.49960661  0.83508546  1
  Mn  Mn78  1  0.33309889  0.00171440  0.16684620  1
  Mn  Mn79  1  0.33354834  -0.00027204  0.49962959  1
  Mn  Mn80  1  0.33490131  0.00135303  0.83139646  1
  Mn  Mn81  1  0.33315182  0.49757590  0.16701750  1
  Mn  Mn82  1  0.33322360  0.50060007  0.49826910  1
  Mn  Mn83  1  0.33674390  0.49931171  0.82918213  1
  Mn  Mn84  1  0.66507404  0.00115159  0.16600601  1
  Mn  Mn85  1  0.66482153  -0.00028451  0.50013104  1
  Mn  Mn86  1  0.66571079  -0.00138539  0.83278930  1
  Mn  Mn87  1  0.66664800  0.49838836  0.16597950  1
  Mn  Mn88  1  0.66606479  0.49870804  0.49987785  1
  Mn  Mn89  1  0.66977804  0.50005635  0.83404685  1
  Mn  Mn90  1  -0.00435442  0.25246125  0.16636197  1
  Mn  Mn91  1  -0.00169700  0.25339355  0.50065956  1
  Mn  Mn92  1  -0.00043388  0.25211681  0.83568454  1
  Mn  Mn93  1  -0.00131150  0.75077319  0.16818846  1
  Mn  Mn94  1  0.00339145  0.74765348  0.50084129  1
  Mn  Mn95  1  -0.00040570  0.74908750  0.83451727  1
  Mn  Mn96  1  0.33257069  0.24913562  0.16523705  1
  Mn  Mn97  1  0.33178201  0.25130924  0.49881853  1
  Mn  Mn98  1  0.33489233  0.24935312  0.83081926  1
  Mn  Mn99  1  0.33396670  0.75016006  0.16713768  1
  Mn  Mn100  1  0.33466436  0.74771260  0.49847189  1
  Mn  Mn101  1  0.33716756  0.74899682  0.82941843  1
  Mn  Mn102  1  0.66398171  0.24976508  0.16718280  1
  Mn  Mn103  1  0.66533836  0.25046709  0.49991301  1
  Mn  Mn104  1  0.66611406  0.24937185  0.83272988  1
  Mn  Mn105  1  0.66798707  0.74952965  0.16471745  1
  Mn  Mn106  1  0.66642231  0.75045180  0.49971018  1
  Mn  Mn107  1  0.66903999  0.75118356  0.83370586  1
  Mn  Mn108  1  0.16296538  0.25187928  -0.00105791  1
  Mn  Mn109  1  0.16445787  0.25164798  0.33329904  1
  Mn  Mn110  1  0.16959314  0.25168514  0.66668454  1
  Mn  Mn111  1  0.16697103  0.74960839  -0.00001853  1
  Mn  Mn112  1  0.16809610  0.75077537  0.33277098  1
  Mn  Mn113  1  0.16961890  0.74797029  0.66579856  1
  Mn  Mn114  1  0.50078277  0.24965039  -0.00107142  1
  Mn  Mn115  1  0.49784011  0.24892547  0.33055609  1
  Mn  Mn116  1  0.50156717  0.24955822  0.66664682  1
  Mn  Mn117  1  0.50317621  0.74988069  -0.00238363  1
  Mn  Mn118  1  0.49968639  0.74986135  0.33240163  1
  Mn  Mn119  1  0.50089608  0.74989293  0.66509620  1
  Mn  Mn120  1  0.83223237  0.25200533  0.00397427  1
  Mn  Mn121  1  0.82909202  0.25253924  0.33378127  1
  Mn  Mn122  1  0.83120599  0.25120678  0.66884605  1
  Mn  Mn123  1  0.83441288  0.74886910  0.00173397  1
  Mn  Mn124  1  0.83336127  0.74950113  0.33442218  1
  Mn  Mn125  1  0.83578550  0.75074450  0.66927701  1
  Mn  Mn126  1  0.16468064  -0.00085208  0.00024365  1
  Mn  Mn127  1  0.16672013  0.00010265  0.33271508  1
  Mn  Mn128  1  0.16765441  -0.00044480  0.66638780  1
  Mn  Mn129  1  0.16564469  0.49869269  0.00032029  1
  Mn  Mn130  1  0.16652619  0.49920228  0.33404751  1
  Mn  Mn131  1  0.17119018  0.50228114  0.66673998  1
  Mn  Mn132  1  0.50091409  0.00142341  -0.00058707  1
  Mn  Mn133  1  0.49730977  0.00241768  0.33258271  1
  Mn  Mn134  1  0.50102500  -0.00056796  0.66576447  1
  Mn  Mn135  1  0.50312252  0.49712809  -0.00168514  1
  Mn  Mn136  1  0.49927081  0.49696342  0.33220384  1
  Mn  Mn137  1  0.50104922  0.50069335  0.66565918  1
  Mn  Mn138  1  0.83308314  -0.00055391  0.00407085  1
  Mn  Mn139  1  0.83018577  -0.00096815  0.33482268  1
  Mn  Mn140  1  0.83168889  -0.00082690  0.66789400  1
  Mn  Mn141  1  0.83300289  0.50049640  0.00268059  1
  Mn  Mn142  1  0.83236812  0.49963666  0.33329959  1
  Mn  Mn143  1  0.83507478  0.50075731  0.66947286  1
  O  O144  1  0.16623982  0.12543624  0.00782893  1
  O  O145  1  0.17187876  0.12695791  0.35569918  1
  O  O146  1  0.17213620  0.12469189  0.68856462  1
  O  O147  1  0.16105788  0.62611168  0.01056695  1
  O  O148  1  0.16171367  0.62444096  0.35304603  1
  O  O149  1  0.16678961  0.62598308  0.69385051  1
  O  O150  1  0.50826762  0.12610524  0.02232754  1
  O  O151  1  0.49833533  0.12617042  0.35826819  1
  O  O152  1  0.50915510  0.12262990  0.69095997  1
  O  O153  1  0.50848899  0.62361025  0.00710138  1
  O  O154  1  0.49792101  0.62013200  0.35288461  1
  O  O155  1  0.49482636  0.62619690  0.69305697  1
  O  O156  1  0.83511750  0.12497895  0.02865682  1
  O  O157  1  0.82313456  0.12632997  0.34532040  1
  O  O158  1  0.82373761  0.12324723  0.67723334  1
  O  O159  1  0.82666398  0.62683243  0.02918034  1
  O  O160  1  0.82625871  0.62456427  0.34713137  1
  O  O161  1  0.83873798  0.62881562  0.69136312  1
  O  O162  1  0.16580070  0.37499180  0.31583075  1
  O  O163  1  0.17393133  0.37906113  0.64457432  1
  O  O164  1  0.16273506  0.37438241  0.97398102  1
  O  O165  1  0.16503053  0.87538128  0.31184644  1
  O  O166  1  0.17163298  0.87216294  0.65634873  1
  O  O167  1  0.16008277  0.87344853  0.98789888  1
  O  O168  1  0.50858475  0.36918378  0.30864080  1
  O  O169  1  0.50678492  0.37469284  0.65486921  1
  O  O170  1  0.50949323  0.37098602  0.97237644  1
  O  O171  1  0.49356840  0.88324189  0.30783501  1
  O  O172  1  0.49107237  0.87686725  0.63881060  1
  O  O173  1  0.50902379  0.87702029  0.97813287  1
  O  O174  1  0.82528743  0.37750946  0.30678400  1
  O  O175  1  0.82768715  0.37532155  0.64996397  1
  O  O176  1  0.82683463  0.37855869  0.98206814  1
  O  O177  1  0.84007391  0.87209877  0.31274357  1
  O  O178  1  0.83481489  0.87383204  0.64675778  1
  O  O179  1  0.83176877  0.87105310  0.97580328  1
  O  O180  1  -0.01128770  0.37996435  0.19156198  1
  O  O181  1  -0.00108429  0.37826636  0.51264870  1
  O  O182  1  0.00565848  0.37712757  0.85005810  1
  O  O183  1  -0.01172068  0.87192057  0.19430726  1
  O  O184  1  -0.00221474  0.86922974  0.52254621  1
  O  O185  1  -0.00772655  0.87096192  0.86025859  1
  O  O186  1  0.33720911  0.36912249  0.18539435  1
  O  O187  1  0.32328034  0.37550582  0.52025058  1
  O  O188  1  0.32998097  0.37231995  0.84169348  1
  O  O189  1  0.33201935  0.87997855  0.18606220  1
  O  O190  1  0.33834850  0.87447847  0.52802654  1
  O  O191  1  0.33905667  0.87712453  0.84092731  1
  O  O192  1  0.65670309  0.37088542  0.19265225  1
  O  O193  1  0.66592149  0.37383443  0.52299000  1
  O  O194  1  0.65979069  0.37462244  0.85588166  1
  O  O195  1  0.65518341  0.87676007  0.17731836  1
  O  O196  1  0.65441133  0.87721992  0.52083905  1
  O  O197  1  0.66605700  0.87368095  0.86119360  1
  O  O198  1  -0.01148146  0.12225431  0.14464939  1
  O  O199  1  0.00488524  0.12970205  0.49167393  1
  O  O200  1  0.00537838  0.12496449  0.82564059  1
  O  O201  1  -0.00742991  0.62793584  0.14407169  1
  O  O202  1  0.00685285  0.62329493  0.47445468  1
  O  O203  1  0.00175444  0.62619189  0.81062345  1
  O  O204  1  0.33927342  0.12467065  0.13885298  1
  O  O205  1  0.34033765  0.12595992  0.47563855  1
  O  O206  1  0.34130639  0.12529011  0.80842411  1
  O  O207  1  0.33422968  0.62501965  0.16092713  1
  O  O208  1  0.34085746  0.62398922  0.47462860  1
  O  O209  1  0.34749625  0.62458788  0.80963908  1
  O  O210  1  0.67672176  0.12611886  0.14058612  1
  O  O211  1  0.66572405  0.12537798  0.47770440  1
  O  O212  1  0.66320342  0.12334100  0.80756252  1
  O  O213  1  0.67560119  0.62622434  0.13906990  1
  O  O214  1  0.66346383  0.62281626  0.47809381  1
  O  O215  1  0.67045293  0.62701279  0.82070833  1
  O  O216  1  0.07462774  0.00331318  0.25197786  1
  O  O217  1  0.08465388  0.00888779  0.58488642  1
  O  O218  1  0.07666191  0.01384152  0.92302742  1
  O  O219  1  0.07532644  0.51281594  0.25865495  1
  O  O220  1  0.08873062  0.52318257  0.58499487  1
  O  O221  1  0.08147235  0.52162159  0.91760144  1
  O  O222  1  0.40866113  0.02592676  0.25794108  1
  O  O223  1  0.41087874  0.02426752  0.59112864  1
  O  O224  1  0.41094950  0.02293277  0.92571345  1
  O  O225  1  0.42108427  0.49744717  0.24817868  1
  O  O226  1  0.41604533  0.52071212  0.58129230  1
  O  O227  1  0.42707544  0.50756385  0.90753702  1
  O  O228  1  0.73826986  0.01777584  0.25503746  1
  O  O229  1  0.73408702  0.00699990  0.59619887  1
  O  O230  1  0.74114132  0.01276430  0.93314039  1
  O  O231  1  0.75165163  0.51804889  0.24620613  1
  O  O232  1  0.75159392  0.50351312  0.58255412  1
  O  O233  1  0.75362793  0.52216050  0.91799806  1
  O  O234  1  0.25244786  0.23785153  0.25703963  1
  O  O235  1  0.24812834  0.22602144  0.57833431  1
  O  O236  1  0.24443985  0.23124686  0.90560547  1
  O  O237  1  0.25017494  0.74821784  0.25147316  1
  O  O238  1  0.25143813  0.72256406  0.57629816  1
  O  O239  1  0.25041798  0.73254736  0.90367485  1
  O  O240  1  0.57570044  0.22139200  0.23942422  1
  O  O241  1  0.57685342  0.22547876  0.57670901  1
  O  O242  1  0.57638275  0.22798412  0.90832287  1
  O  O243  1  0.58869821  0.73400403  0.25074152  1
  O  O244  1  0.57501800  0.73493143  0.57751974  1
  O  O245  1  0.58603361  0.73098484  0.91250144  1
  O  O246  1  0.89951127  0.23908090  0.24075467  1
  O  O247  1  0.90832662  0.25080547  0.57839301  1
  O  O248  1  0.91594921  0.23866493  0.92494855  1
  O  O249  1  0.91491405  0.72644111  0.25008492  1
  O  O250  1  0.92724132  0.73583681  0.59356300  1
  O  O251  1  0.91640030  0.72144301  0.92009587  1
  O  O252  1  0.07500083  0.48844414  0.08365593  1
  O  O253  1  0.08460699  0.47904392  0.41869273  1
  O  O254  1  0.09552426  0.48840688  0.75714842  1
  O  O255  1  0.08149032  0.97748812  0.09023416  1
  O  O256  1  0.08451921  0.98794756  0.41601136  1
  O  O257  1  0.08260124  0.98799791  0.75197861  1
  O  O258  1  0.42325705  0.48371825  0.08214350  1
  O  O259  1  0.40902393  0.47911931  0.40939165  1
  O  O260  1  0.42238624  0.48123243  0.74973613  1
  O  O261  1  0.43129317  0.98483360  0.09716521  1
  O  O262  1  0.42202598  0.98023132  0.42542166  1
  O  O263  1  0.42847424  0.98286829  0.75632580  1
  O  O264  1  0.74553865  0.47527490  0.08338574  1
  O  O265  1  0.74880620  0.47808166  0.41436775  1
  O  O266  1  0.74893346  0.48302240  0.75195202  1
  O  O267  1  0.75787740  0.97711511  0.09345566  1
  O  O268  1  0.75725821  0.97900887  0.43005240  1
  O  O269  1  0.75404582  0.97502022  0.75797015  1
  O  O270  1  0.25063924  0.25680415  0.07845462  1
  O  O271  1  0.24628445  0.27047229  0.41816521  1
  O  O272  1  0.25851544  0.26257245  0.74127854  1
  O  O273  1  0.24814697  0.76491462  0.08764630  1
  O  O274  1  0.25727217  0.76412537  0.41131094  1
  O  O275  1  0.26434215  0.75800327  0.73746444  1
  O  O276  1  0.59250319  0.26775680  0.07417557  1
  O  O277  1  0.59224322  0.26061981  0.40345568  1
  O  O278  1  0.59110998  0.26800486  0.74162563  1
  O  O279  1  0.58811550  0.76711160  0.07813131  1
  O  O280  1  0.57850368  0.75817381  0.41709639  1
  O  O281  1  0.58637893  0.77381988  0.74538904  1
  O  O282  1  0.91494877  0.27246572  0.08342522  1
  O  O283  1  0.91636858  0.27374389  0.40851974  1
  O  O284  1  0.91718111  0.25921064  0.75316351  1
  O  O285  1  0.91715456  0.77280192  0.08293176  1
  O  O286  1  0.92016757  0.76716199  0.41840320  1
  O  O287  1  0.91364621  0.77118428  0.75686997  1
  O  O288  1  0.24554904  0.48740707  0.08375673  1
  O  O289  1  0.24383535  0.48247841  0.42243369  1
  O  O290  1  0.25589931  0.48837571  0.74479614  1
  O  O291  1  0.24960455  0.98903188  0.08200612  1
  O  O292  1  0.26225407  0.98563973  0.40790473  1
  O  O293  1  0.26414972  0.99073974  0.73508227  1
  O  O294  1  0.58422480  0.47602013  0.08327074  1
  O  O295  1  0.58671600  0.48607802  0.41098719  1
  O  O296  1  0.58521589  0.48454249  0.75251100  1
  O  O297  1  0.59403752  0.98786397  0.07146297  1
  O  O298  1  0.58391134  0.99215223  0.41317993  1
  O  O299  1  0.58916124  0.97373811  0.73754461  1
  O  O300  1  0.90763015  0.48792466  0.09070214  1
  O  O301  1  0.91392585  0.47952105  0.41466532  1
  O  O302  1  0.91453605  0.49390192  0.75911225  1
  O  O303  1  0.91950733  0.97248874  0.08031018  1
  O  O304  1  0.92124645  0.97821958  0.41471418  1
  O  O305  1  0.91805889  0.97879717  0.75261425  1
  O  O306  1  0.07877466  0.26260657  0.08271559  1
  O  O307  1  0.08411906  0.27083673  0.41806987  1
  O  O308  1  0.09755689  0.26244060  0.75943714  1
  O  O309  1  0.07950698  0.77294800  0.08976376  1
  O  O310  1  0.08158751  0.76415687  0.41225512  1
  O  O311  1  0.07436349  0.76290520  0.74398281  1
  O  O312  1  0.43122407  0.26452685  0.09069660  1
  O  O313  1  0.40854119  0.26630453  0.40959524  1
  O  O314  1  0.42972190  0.26287777  0.76012756  1
  O  O315  1  0.42366098  0.76541067  0.08646338  1
  O  O316  1  0.41788200  0.77377949  0.41912399  1
  O  O317  1  0.42256385  0.77330102  0.74745596  1
  O  O318  1  0.75363894  0.27308496  0.09386142  1
  O  O319  1  0.75450834  0.27647101  0.42362233  1
  O  O320  1  0.75064663  0.27049328  0.75539689  1
  O  O321  1  0.75237826  0.77553186  0.08381996  1
  O  O322  1  0.75553968  0.76674393  0.42132731  1
  O  O323  1  0.75196939  0.77437097  0.75464135  1
  O  O324  1  0.24877439  0.01455147  0.24933873  1
  O  O325  1  0.24705778  0.02490463  0.57383103  1
  O  O326  1  0.24666797  0.02135727  0.90694513  1
  O  O327  1  0.25366476  0.50345358  0.25890517  1
  O  O328  1  0.25148371  0.52840440  0.58208821  1
  O  O329  1  0.24698265  0.51246125  0.90436704  1
  O  O330  1  0.57546707  0.02484089  0.24028103  1
  O  O331  1  0.57456491  0.02157133  0.57579928  1
  O  O332  1  0.57523715  0.01858161  0.90564232  1
  O  O333  1  0.59140178  0.51533912  0.25357499  1
  O  O334  1  0.57682908  0.51895713  0.57832772  1
  O  O335  1  0.59017603  0.51778379  0.91810432  1
  O  O336  1  0.90173838  0.01254658  0.23878051  1
  O  O337  1  0.91258482  0.00074720  0.58250753  1
  O  O338  1  0.91472768  0.01234731  0.92245841  1
  O  O339  1  0.91613653  0.52372841  0.25324299  1
  O  O340  1  0.92405280  0.51591813  0.58998843  1
  O  O341  1  0.91804857  0.52394292  0.92409496  1
  O  O342  1  0.07445696  0.24741686  0.25300752  1
  O  O343  1  0.09013453  0.24324010  0.58191279  1
  O  O344  1  0.07986703  0.23143512  0.91999421  1
  O  O345  1  0.07528332  0.73760784  0.25508390  1
  O  O346  1  0.08772410  0.72397403  0.58053823  1
  O  O347  1  0.08043227  0.72917270  0.91616614  1
  O  O348  1  0.41307861  0.22597495  0.25057288  1
  O  O349  1  0.41413010  0.22931464  0.58775638  1
  O  O350  1  0.40994180  0.22669019  0.92490204  1
  O  O351  1  0.41611556  0.74824192  0.25181800  1
  O  O352  1  0.41549855  0.72559345  0.58376039  1
  O  O353  1  0.42544659  0.73917558  0.90740962  1
  O  O354  1  0.73562712  0.23393086  0.25976096  1
  O  O355  1  0.73665365  0.24102860  0.59575983  1
  O  O356  1  0.73925377  0.23736280  0.93109686  1
  O  O357  1  0.75149952  0.73463450  0.24547555  1
  O  O358  1  0.75044134  0.74900032  0.58645214  1
  O  O359  1  0.75323539  0.72921402  0.91922243  1
