# generated using pymatgen
data_Ba17Sr5La8Pr42Mn72O216
_symmetry_space_group_name_H-M   'P 1'
_cell_length_a   16.66928350
_cell_length_b   15.70053580
_cell_length_c   16.81443452
_cell_angle_alpha   89.98945489
_cell_angle_beta   89.97476530
_cell_angle_gamma   90.01767694
_symmetry_Int_Tables_number   1
_chemical_formula_structural   Ba17Sr5La8Pr42Mn72O216
_chemical_formula_sum   'Ba17 Sr5 La8 Pr42 Mn72 O216'
_cell_volume   4400.61730533
_cell_formula_units_Z   1
loop_
 _symmetry_equiv_pos_site_id
 _symmetry_equiv_pos_as_xyz
  1  'x, y, z'
loop_
 _atom_site_type_symbol
 _atom_site_label
 _atom_site_symmetry_multiplicity
 _atom_site_fract_x
 _atom_site_fract_y
 _atom_site_fract_z
 _atom_site_occupancy
  Ba  Ba0  1  0.50242017  0.37615739  0.83388760  1
  Ba  Ba1  1  0.33291635  0.62592239  0.99936092  1
  Ba  Ba2  1  0.83625949  0.87397746  0.16720433  1
  Ba  Ba3  1  0.83221087  0.12468517  0.50190393  1
  Ba  Ba4  1  0.83283166  0.62495571  0.83238320  1
  Ba  Ba5  1  -0.00014867  0.62273453  0.33449456  1
  Ba  Ba6  1  0.00244193  0.37457498  0.00062386  1
  Ba  Ba7  1  0.33026236  0.12510292  0.66739580  1
  Ba  Ba8  1  0.33328190  0.87572625  0.33652970  1
  Ba  Ba9  1  0.50016002  0.62424643  0.16556944  1
  Ba  Ba10  1  0.00118868  0.87554155  0.00291925  1
  Ba  Ba11  1  0.83014318  0.12335534  0.83303204  1
  Ba  Ba12  1  0.49680816  0.62498665  0.83460038  1
  Ba  Ba13  1  0.66850878  0.37344195  0.00103864  1
  Ba  Ba14  1  0.50064332  0.87610456  0.49611133  1
  Ba  Ba15  1  0.33839348  0.37503479  0.33271309  1
  Ba  Ba16  1  0.33136008  0.87689780  0.66528296  1
  Sr  Sr17  1  -0.00517439  0.12575728  0.33488567  1
  Sr  Sr18  1  0.00281816  0.37318948  0.67070251  1
  Sr  Sr19  1  0.16766375  0.87651609  0.49828449  1
  Sr  Sr20  1  0.66412599  0.12374083  0.99884200  1
  Sr  Sr21  1  0.50784626  0.37609720  0.16150904  1
  La  La22  1  0.49334910  0.12495121  0.49857782  1
  La  La23  1  -0.00710065  0.12398145  1.00047940  1
  La  La24  1  0.67053600  0.87429504  0.33430377  1
  La  La25  1  0.33656999  0.37420289  0.66833617  1
  La  La26  1  0.66899073  0.87429332  -0.00146450  1
  La  La27  1  0.83409806  0.87461835  0.83554225  1
  La  La28  1  0.16931566  0.37567902  0.83244338  1
  La  La29  1  0.66511592  0.62649389  0.33162686  1
  Pr  Pr30  1  -0.00299683  0.12667731  0.66117114  1
  Pr  Pr31  1  0.33159864  0.62437841  0.66844930  1
  Pr  Pr32  1  0.83680742  0.87442217  0.49584414  1
  Pr  Pr33  1  0.32815402  0.12948163  0.99581965  1
  Pr  Pr34  1  0.15830877  0.12585219  0.17068569  1
  Pr  Pr35  1  0.16924991  0.37181563  0.49902088  1
  Pr  Pr36  1  -0.00272272  0.62294185  0.65988337  1
  Pr  Pr37  1  0.66964033  0.87577451  0.66733685  1
  Pr  Pr38  1  0.32662659  0.12169735  0.33311717  1
  Pr  Pr39  1  0.16902630  0.87429872  0.16590617  1
  Pr  Pr40  1  0.65621274  0.62306407  0.66337697  1
  Pr  Pr41  1  0.49284305  0.13065216  0.16559677  1
  Pr  Pr42  1  0.34382721  0.37699066  0.00496529  1
  Pr  Pr43  1  0.84134779  0.37567935  0.16350387  1
  Pr  Pr44  1  0.50456741  0.87561963  0.16506781  1
  Pr  Pr45  1  0.50889988  0.37159752  0.49665779  1
  Pr  Pr46  1  0.50279775  0.87205119  0.82801119  1
  Pr  Pr47  1  0.83150257  0.62412744  0.16560116  1
  Pr  Pr48  1  -0.00127241  0.87632688  0.66986756  1
  Pr  Pr49  1  0.49304906  0.12455603  0.83534397  1
  Pr  Pr50  1  0.67294936  0.37625010  0.33116567  1
  Pr  Pr51  1  0.66280883  0.12302604  0.32817729  1
  Pr  Pr52  1  0.83068212  0.12513800  0.16795810  1
  Pr  Pr53  1  -0.00117136  0.62541620  1.00084236  1
  Pr  Pr54  1  0.15871240  0.12431266  0.83299327  1
  Pr  Pr55  1  0.67428078  0.37359379  0.67317984  1
  Pr  Pr56  1  0.16341387  0.62593216  0.83615636  1
  Pr  Pr57  1  0.83670297  0.37273386  0.83229987  1
  Pr  Pr58  1  0.16656563  0.87370605  0.82887667  1
  Pr  Pr59  1  0.66479081  0.62415539  0.99765440  1
  Pr  Pr60  1  0.17107807  0.62383658  0.50072082  1
  Pr  Pr61  1  0.65689216  0.12618693  0.66263162  1
  Pr  Pr62  1  0.48997461  0.62505758  0.49951575  1
  Pr  Pr63  1  0.16524403  0.62456345  0.16952662  1
  Pr  Pr64  1  0.84435539  0.37419592  0.49960944  1
  Pr  Pr65  1  0.16558296  0.12381021  0.50207089  1
  Pr  Pr66  1  0.00636397  0.37196798  0.33385034  1
  Pr  Pr67  1  0.82990486  0.62416142  0.50777732  1
  Pr  Pr68  1  0.33759747  0.87582939  0.00166334  1
  Pr  Pr69  1  0.00191607  0.87688081  0.33707113  1
  Pr  Pr70  1  0.17484594  0.37663704  0.16243861  1
  Pr  Pr71  1  0.33068036  0.62974932  0.32721820  1
  Mn  Mn72  1  0.00075957  0.00165452  0.16944416  1
  Mn  Mn73  1  0.00109238  -0.00054831  0.50105493  1
  Mn  Mn74  1  -0.00107721  -0.00076111  0.83363577  1
  Mn  Mn75  1  0.00236600  0.50047492  0.16713127  1
  Mn  Mn76  1  0.00126485  0.49831821  0.49976771  1
  Mn  Mn77  1  0.00061872  0.50005223  0.83245852  1
  Mn  Mn78  1  0.33309853  0.00081493  0.16491795  1
  Mn  Mn79  1  0.33138380  0.00076893  0.49887559  1
  Mn  Mn80  1  0.33031812  0.00111080  0.83707061  1
  Mn  Mn81  1  0.33478074  0.50075087  0.16763846  1
  Mn  Mn82  1  0.33349425  0.49883957  0.50038285  1
  Mn  Mn83  1  0.33099497  0.49816196  0.83326695  1
  Mn  Mn84  1  0.66616786  0.00090765  0.16488918  1
  Mn  Mn85  1  0.66708706  0.00113847  0.49874137  1
  Mn  Mn86  1  0.66371866  -0.00022916  0.83234957  1
  Mn  Mn87  1  0.66924862  0.50047911  0.16739049  1
  Mn  Mn88  1  0.66751418  0.49799797  0.49981488  1
  Mn  Mn89  1  0.66822798  0.50005363  0.83272183  1
  Mn  Mn90  1  0.00046476  0.24965236  0.16833609  1
  Mn  Mn91  1  0.00139803  0.25135449  0.50037903  1
  Mn  Mn92  1  -0.00016844  0.24965488  0.83328429  1
  Mn  Mn93  1  0.00222945  0.74869712  0.16835221  1
  Mn  Mn94  1  0.00112853  0.74908192  0.50061194  1
  Mn  Mn95  1  -0.00026131  0.74937439  0.83275796  1
  Mn  Mn96  1  0.33329386  0.24818756  0.16548179  1
  Mn  Mn97  1  0.33315392  0.25155922  0.50013503  1
  Mn  Mn98  1  0.33145961  0.25039732  0.83415277  1
  Mn  Mn99  1  0.33345543  0.75267435  0.16688187  1
  Mn  Mn100  1  0.33106335  0.74810932  0.49886244  1
  Mn  Mn101  1  0.33019563  0.75237357  0.83358341  1
  Mn  Mn102  1  0.66806974  0.24851214  0.16702151  1
  Mn  Mn103  1  0.66800349  0.25144431  0.49913647  1
  Mn  Mn104  1  0.66632552  0.24817779  0.83286685  1
  Mn  Mn105  1  0.66722138  0.75088669  0.16614212  1
  Mn  Mn106  1  0.66761408  0.74832918  0.49950160  1
  Mn  Mn107  1  0.66657522  0.75031264  0.83229141  1
  Mn  Mn108  1  0.16736373  0.24875406  0.00015437  1
  Mn  Mn109  1  0.16606899  0.25007240  0.33322376  1
  Mn  Mn110  1  0.16504705  0.25120022  0.66664627  1
  Mn  Mn111  1  0.16697967  0.75135103  -0.00015032  1
  Mn  Mn112  1  0.16520866  0.75044117  0.33447388  1
  Mn  Mn113  1  0.16467244  0.74834190  0.66612471  1
  Mn  Mn114  1  0.50078113  0.24753141  0.00164124  1
  Mn  Mn115  1  0.50266219  0.25085461  0.33197580  1
  Mn  Mn116  1  0.49981049  0.25053509  0.66449551  1
  Mn  Mn117  1  0.50082530  0.75334064  -0.00172880  1
  Mn  Mn118  1  0.50177948  0.74912104  0.33265055  1
  Mn  Mn119  1  0.49868247  0.75024377  0.66463980  1
  Mn  Mn120  1  0.83267472  0.24932485  0.00048569  1
  Mn  Mn121  1  0.83232837  0.25083417  0.33314327  1
  Mn  Mn122  1  0.83319434  0.24964425  0.66687648  1
  Mn  Mn123  1  0.83290867  0.74880791  0.00031640  1
  Mn  Mn124  1  0.83518528  0.74799027  0.33533340  1
  Mn  Mn125  1  0.83235617  0.75027159  0.66631970  1
  Mn  Mn126  1  0.16785224  0.00188137  0.00064439  1
  Mn  Mn127  1  0.16362228  0.00214934  0.33368141  1
  Mn  Mn128  1  0.16366025  -0.00013535  0.66627054  1
  Mn  Mn129  1  0.16704288  0.49997273  -0.00042212  1
  Mn  Mn130  1  0.16780967  0.49751416  0.33379310  1
  Mn  Mn131  1  0.16649343  0.50018257  0.66736584  1
  Mn  Mn132  1  0.49919450  -0.00022736  -0.00086037  1
  Mn  Mn133  1  0.50105336  0.00368381  0.32979074  1
  Mn  Mn134  1  0.49978103  -0.00092097  0.66632302  1
  Mn  Mn135  1  0.50194608  0.50077595  0.00056622  1
  Mn  Mn136  1  0.50326568  0.49764280  0.33437411  1
  Mn  Mn137  1  0.49929955  0.50067713  0.66249696  1
  Mn  Mn138  1  0.83115399  0.00020254  0.00134528  1
  Mn  Mn139  1  0.83302619  0.00077106  0.33442917  1
  Mn  Mn140  1  0.83179992  -0.00154830  0.66705600  1
  Mn  Mn141  1  0.83410200  0.50069115  0.00035371  1
  Mn  Mn142  1  0.83415878  0.49909969  0.33402702  1
  Mn  Mn143  1  0.83341554  0.49905727  0.66700195  1
  O  O144  1  0.17227481  0.12502058  0.02875961  1
  O  O145  1  0.16761193  0.12865938  0.35647182  1
  O  O146  1  0.15737225  0.12546810  0.68835055  1
  O  O147  1  0.16150457  0.62420907  0.02528218  1
  O  O148  1  0.17221610  0.61992253  0.35490822  1
  O  O149  1  0.16801658  0.62275270  0.69335518  1
  O  O150  1  0.49146279  0.12154896  0.02111906  1
  O  O151  1  0.51139385  0.12880030  0.35559611  1
  O  O152  1  0.50628501  0.12293548  0.69005824  1
  O  O153  1  0.50523918  0.62953240  0.00812574  1
  O  O154  1  0.50992232  0.61901289  0.35639393  1
  O  O155  1  0.50092438  0.62544045  0.67805934  1
  O  O156  1  0.83280142  0.12620456  0.02036756  1
  O  O157  1  0.82587631  0.12599737  0.34636622  1
  O  O158  1  0.84115498  0.12341627  0.67735174  1
  O  O159  1  0.82454099  0.62531778  0.01985537  1
  O  O160  1  0.82927496  0.62162466  0.36383765  1
  O  O161  1  0.84220509  0.62449283  0.67699705  1
  O  O162  1  0.16269944  0.37247675  0.30784949  1
  O  O163  1  0.16734436  0.37759641  0.64152951  1
  O  O164  1  0.17039786  0.37219172  0.97618492  1
  O  O165  1  0.15980698  0.87898024  0.31091956  1
  O  O166  1  0.15659354  0.87382108  0.64756855  1
  O  O167  1  0.17161811  0.88028802  0.97263124  1
  O  O168  1  0.50655740  0.37280162  0.31106232  1
  O  O169  1  0.49668911  0.37890122  0.64044981  1
  O  O170  1  0.49721137  0.37225728  0.99428276  1
  O  O171  1  0.50421398  0.88091709  0.31020735  1
  O  O172  1  0.50600447  0.87356594  0.65288505  1
  O  O173  1  0.50350024  0.87875818  0.97353642  1
  O  O174  1  0.82944637  0.37612571  0.30539715  1
  O  O175  1  0.82397701  0.37609247  0.64274850  1
  O  O176  1  0.83562466  0.37507831  0.97999937  1
  O  O177  1  0.83547380  0.87448580  0.32285770  1
  O  O178  1  0.82945029  0.87347274  0.63944778  1
  O  O179  1  0.83209599  0.87311792  0.98304653  1
  O  O180  1  -0.00776134  0.37492633  0.18861291  1
  O  O181  1  0.00258931  0.37582987  0.52066449  1
  O  O182  1  -0.00037951  0.37515911  0.84558952  1
  O  O183  1  0.00588591  0.87625391  0.19107589  1
  O  O184  1  -0.00058060  0.87187863  0.52529680  1
  O  O185  1  0.00357491  0.87389229  0.84719626  1
  O  O186  1  0.32602825  0.37334288  0.17723996  1
  O  O187  1  0.32882839  0.37676633  0.52420450  1
  O  O188  1  0.32281703  0.37143048  0.85773891  1
  O  O189  1  0.32863993  0.87844102  0.18231502  1
  O  O190  1  0.32992172  0.87184207  0.50776666  1
  O  O191  1  0.31878024  0.88101115  0.85666435  1
  O  O192  1  0.66934009  0.37453815  0.18652821  1
  O  O193  1  0.65800820  0.37610980  0.53004654  1
  O  O194  1  0.67104784  0.37424099  0.84118910  1
  O  O195  1  0.65780728  0.87755753  0.18950009  1
  O  O196  1  0.67162423  0.87030306  0.52391096  1
  O  O197  1  0.65466418  0.87581522  0.85272801  1
  O  O198  1  0.00958046  0.12707485  0.14597552  1
  O  O199  1  0.00630528  0.12773505  0.48426833  1
  O  O200  1  0.00537804  0.12362914  0.80628676  1
  O  O201  1  0.01297549  0.62288880  0.14648357  1
  O  O202  1  -0.00511052  0.62276590  0.48874965  1
  O  O203  1  0.00613261  0.62553575  0.80464896  1
  O  O204  1  0.33692407  0.12252437  0.13893095  1
  O  O205  1  0.33135723  0.12972047  0.48012120  1
  O  O206  1  0.34235530  0.12617109  0.82291468  1
  O  O207  1  0.32575971  0.62761337  0.15649751  1
  O  O208  1  0.33027677  0.61979311  0.47363536  1
  O  O209  1  0.32518228  0.62215852  0.81266730  1
  O  O210  1  0.68102041  0.12383502  0.15094411  1
  O  O211  1  0.66660928  0.13110493  0.47219209  1
  O  O212  1  0.66217887  0.12248872  0.80661573  1
  O  O213  1  0.67749385  0.62613456  0.14500232  1
  O  O214  1  0.67668818  0.62128128  0.47383616  1
  O  O215  1  0.66795262  0.62677181  0.80884886  1
  O  O216  1  0.08047643  0.02157453  0.25362301  1
  O  O217  1  0.08146785  0.02241204  0.58421977  1
  O  O218  1  0.08277396  0.02466176  0.92090031  1
  O  O219  1  0.08647042  0.50936430  0.24880493  1
  O  O220  1  0.08449858  0.52255090  0.58708290  1
  O  O221  1  0.08042229  0.52261777  0.92072421  1
  O  O222  1  0.41340253  0.02700498  0.25118634  1
  O  O223  1  0.41763656  0.01375180  0.58245609  1
  O  O224  1  0.40590885  0.01433035  0.92893095  1
  O  O225  1  0.41210625  0.51740482  0.26273999  1
  O  O226  1  0.41029893  0.52377575  0.58607145  1
  O  O227  1  0.40972094  0.50130877  0.91860052  1
  O  O228  1  0.74253794  0.01217628  0.25648049  1
  O  O229  1  0.74034181  0.01394175  0.59586482  1
  O  O230  1  0.74006179  0.00333783  0.91889284  1
  O  O231  1  0.74796520  0.52108397  0.25777723  1
  O  O232  1  0.74265387  0.52159010  0.58908948  1
  O  O233  1  0.74588451  0.51508032  0.92565271  1
  O  O234  1  0.24520294  0.22746204  0.24257300  1
  O  O235  1  0.23794301  0.23713205  0.57652402  1
  O  O236  1  0.24107057  0.22589584  0.90920433  1
  O  O237  1  0.24741242  0.73443545  0.25037660  1
  O  O238  1  0.24843236  0.72426567  0.58494733  1
  O  O239  1  0.24074193  0.73508377  0.91078154  1
  O  O240  1  0.57938165  0.22732484  0.24408627  1
  O  O241  1  0.57707717  0.22947071  0.57184532  1
  O  O242  1  0.57477002  0.22974658  0.90864563  1
  O  O243  1  0.58766983  0.73723286  0.25039299  1
  O  O244  1  0.58231290  0.72509543  0.57487440  1
  O  O245  1  0.58936101  0.73802026  0.92001532  1
  O  O246  1  0.90748272  0.23291305  0.24292973  1
  O  O247  1  0.91615595  0.24314862  0.58269230  1
  O  O248  1  0.91751661  0.23495814  0.91766151  1
  O  O249  1  0.91345679  0.73189480  0.24806171  1
  O  O250  1  0.91619665  0.73301521  0.58193678  1
  O  O251  1  0.92013959  0.73388609  0.91977720  1
  O  O252  1  0.09414314  0.48210316  0.09095217  1
  O  O253  1  0.08643575  0.47687669  0.41656326  1
  O  O254  1  0.09079868  0.48276528  0.75489577  1
  O  O255  1  0.09523836  0.98588834  0.09258940  1
  O  O256  1  0.08048515  0.98161739  0.41673700  1
  O  O257  1  0.08086857  0.97934429  0.74932951  1
  O  O258  1  0.41827693  0.48681726  0.08699486  1
  O  O259  1  0.43008006  0.48431262  0.42924567  1
  O  O260  1  0.41206375  0.48729621  0.74426568  1
  O  O261  1  0.42430334  0.97527373  0.08734812  1
  O  O262  1  0.41927660  1.00349856  0.41376707  1
  O  O263  1  0.42345257  0.98507645  0.76546625  1
  O  O264  1  0.76280214  0.48593455  0.09624447  1
  O  O265  1  0.75573425  0.47210505  0.42524516  1
  O  O266  1  0.75634485  0.47974381  0.75324479  1
  O  O267  1  0.74712100  0.98438776  0.08396723  1
  O  O268  1  0.75451180  0.97844758  0.42361661  1
  O  O269  1  0.75230579  0.97417099  0.75448415  1
  O  O270  1  0.25848313  0.26703194  0.07190245  1
  O  O271  1  0.24926624  0.26490799  0.41624846  1
  O  O272  1  0.25137673  0.27006393  0.74469358  1
  O  O273  1  0.25285556  0.77307016  0.08031594  1
  O  O274  1  0.24407665  0.75488978  0.42088700  1
  O  O275  1  0.24291576  0.76452637  0.75170514  1
  O  O276  1  0.58646269  0.24928859  0.08335690  1
  O  O277  1  0.59444608  0.27463921  0.41024132  1
  O  O278  1  0.59221439  0.26318672  0.73519491  1
  O  O279  1  0.58171920  0.77227876  0.08234261  1
  O  O280  1  0.59431044  0.76312965  0.40979925  1
  O  O281  1  0.58698298  0.76620169  0.74566737  1
  O  O282  1  0.92095674  0.25748083  0.08476740  1
  O  O283  1  0.92178427  0.27165603  0.41110451  1
  O  O284  1  0.91567244  0.26767499  0.74824484  1
  O  O285  1  0.91850737  0.74577085  0.08441936  1
  O  O286  1  0.91931054  0.77122131  0.41791827  1
  O  O287  1  0.91580129  0.77273924  0.74859706  1
  O  O288  1  0.25316545  0.48009203  0.07663641  1
  O  O289  1  0.24571064  0.48136840  0.42372604  1
  O  O290  1  0.25247848  0.47639009  0.74497818  1
  O  O291  1  0.25525350  0.97943467  0.07732622  1
  O  O292  1  0.24643599  0.99754644  0.41511772  1
  O  O293  1  0.24104033  0.99126596  0.75658760  1
  O  O294  1  0.59120283  0.49713830  0.08290899  1
  O  O295  1  0.59205002  0.47473672  0.41305866  1
  O  O296  1  0.59192647  0.48965718  0.73348420  1
  O  O297  1  0.58565893  0.98101338  0.07693096  1
  O  O298  1  0.59434888  0.98704653  0.40134675  1
  O  O299  1  0.59014674  0.98046685  0.74174304  1
  O  O300  1  0.92049989  0.49678715  0.08284360  1
  O  O301  1  0.91962184  0.47266082  0.40924529  1
  O  O302  1  0.91732883  0.48119299  0.74743952  1
  O  O303  1  0.92065758  1.00081226  0.08665163  1
  O  O304  1  0.91961913  0.98030632  0.41852389  1
  O  O305  1  0.91391832  0.97594527  0.74897934  1
  O  O306  1  0.09766542  0.26526932  0.09609807  1
  O  O307  1  0.08700462  0.27243870  0.42134972  1
  O  O308  1  0.09119251  0.26578779  0.75679858  1
  O  O309  1  0.09292279  0.76723016  0.08897522  1
  O  O310  1  0.07987547  0.76839858  0.41436669  1
  O  O311  1  0.08138485  0.76846173  0.74831107  1
  O  O312  1  0.42053593  0.26289108  0.09044931  1
  O  O313  1  0.42977318  0.26306973  0.42350055  1
  O  O314  1  0.41554729  0.26494945  0.75045762  1
  O  O315  1  0.41945926  0.77426163  0.08438172  1
  O  O316  1  0.41862960  0.74807619  0.41762134  1
  O  O317  1  0.41630884  0.76517454  0.75514579  1
  O  O318  1  0.76197504  0.26358774  0.09816877  1
  O  O319  1  0.75646363  0.27886396  0.42594712  1
  O  O320  1  0.75608015  0.26839020  0.75388169  1
  O  O321  1  0.74430387  0.76489659  0.07930603  1
  O  O322  1  0.75544965  0.76871829  0.42282100  1
  O  O323  1  0.75004648  0.77515131  0.75128500  1
  O  O324  1  0.24504023  0.02339757  0.24683158  1
  O  O325  1  0.24155363  0.01430367  0.57959453  1
  O  O326  1  0.24493352  0.02918826  0.91583004  1
  O  O327  1  0.24736808  0.51733367  0.24899517  1
  O  O328  1  0.24817808  0.52463732  0.58536958  1
  O  O329  1  0.23801658  0.51475913  0.90703767  1
  O  O330  1  0.57625663  0.02514882  0.23858245  1
  O  O331  1  0.58155146  0.02340335  0.57417943  1
  O  O332  1  0.57019454  0.01944260  0.90594451  1
  O  O333  1  0.58951685  0.51256433  0.25376546  1
  O  O334  1  0.57707148  0.52356375  0.57124262  1
  O  O335  1  0.58676553  0.51318564  0.91619706  1
  O  O336  1  0.91234799  0.01937444  0.24932546  1
  O  O337  1  0.92247097  0.00871666  0.58878502  1
  O  O338  1  0.91798282  0.01232561  0.91797559  1
  O  O339  1  0.90893717  0.51646993  0.24156517  1
  O  O340  1  0.90927072  0.51242845  0.57776601  1
  O  O341  1  0.91932366  0.51716073  0.91947315  1
  O  O342  1  0.07607700  0.23539719  0.25718567  1
  O  O343  1  0.07995789  0.23122400  0.58774305  1
  O  O344  1  0.08076187  0.22520923  0.92412155  1
  O  O345  1  0.08894656  0.73507003  0.24728234  1
  O  O346  1  0.08363754  0.72289409  0.58337785  1
  O  O347  1  0.08151587  0.72812917  0.91817124  1
  O  O348  1  0.41090763  0.22460601  0.25546767  1
  O  O349  1  0.41647861  0.23875422  0.58372611  1
  O  O350  1  0.40952724  0.23651373  0.92484530  1
  O  O351  1  0.41312586  0.73745855  0.25356727  1
  O  O352  1  0.41088612  0.72779983  0.58349534  1
  O  O353  1  0.41360897  0.75364931  0.91814366  1
  O  O354  1  0.73963164  0.23641620  0.26162464  1
  O  O355  1  0.73810881  0.23559278  0.59416614  1
  O  O356  1  0.74437042  0.23814154  0.92070542  1
  O  O357  1  0.75110991  0.73158565  0.25401785  1
  O  O358  1  0.74553149  0.72559931  0.58659955  1
  O  O359  1  0.74737501  0.74355744  0.91743714  1
