# generated using pymatgen
data_Ba17Sr5La8Pr42Mn72O216
_symmetry_space_group_name_H-M   'P 1'
_cell_length_a   16.67636362
_cell_length_b   15.70392877
_cell_length_c   16.82040886
_cell_angle_alpha   89.98700238
_cell_angle_beta   90.01319588
_cell_angle_gamma   90.01785570
_symmetry_Int_Tables_number   1
_chemical_formula_structural   Ba17Sr5La8Pr42Mn72O216
_chemical_formula_sum   'Ba17 Sr5 La8 Pr42 Mn72 O216'
_cell_volume   4405.00268160
_cell_formula_units_Z   1
loop_
 _symmetry_equiv_pos_site_id
 _symmetry_equiv_pos_as_xyz
  1  'x, y, z'
loop_
 _atom_site_type_symbol
 _atom_site_label
 _atom_site_symmetry_multiplicity
 _atom_site_fract_x
 _atom_site_fract_y
 _atom_site_fract_z
 _atom_site_occupancy
  Ba  Ba0  1  0.00104616  0.12498246  0.33266313  1
  Ba  Ba1  1  0.33589148  0.37564401  0.33414753  1
  Ba  Ba2  1  0.16210424  0.62543998  0.83750107  1
  Ba  Ba3  1  0.50338654  0.12442216  0.16692536  1
  Ba  Ba4  1  0.32836315  0.87615542  0.00170230  1
  Ba  Ba5  1  -0.00072183  0.87605245  0.33413247  1
  Ba  Ba6  1  0.50028515  0.37347083  0.16627999  1
  Ba  Ba7  1  0.16823238  0.62568243  0.50299732  1
  Ba  Ba8  1  0.66559328  0.87415868  0.33878935  1
  Ba  Ba9  1  0.83267422  0.37555176  0.49758274  1
  Ba  Ba10  1  0.83466076  0.62603398  0.16194475  1
  Ba  Ba11  1  0.50014450  0.62534448  0.16808420  1
  Ba  Ba12  1  0.33420759  0.12367862  0.66357848  1
  Ba  Ba13  1  0.33260464  0.62701020  0.99989815  1
  Ba  Ba14  1  0.83631645  0.37348931  0.82807665  1
  Ba  Ba15  1  0.50046943  0.62485313  0.83488599  1
  Ba  Ba16  1  0.49897451  0.37426359  0.83223700  1
  Sr  Sr17  1  0.16625131  0.12480274  0.50261564  1
  Sr  Sr18  1  0.33649682  0.62402455  0.33226396  1
  Sr  Sr19  1  -0.00346678  0.62596814  0.99810806  1
  Sr  Sr20  1  0.49803628  0.37385346  0.49847665  1
  Sr  Sr21  1  0.83190716  0.87484605  0.49445704  1
  La  La22  1  0.83702319  0.37338747  0.16066773  1
  La  La23  1  -0.00208070  0.62479563  0.32951570  1
  La  La24  1  0.83388525  0.11978383  0.49754788  1
  La  La25  1  0.16852673  0.62723312  0.17226825  1
  La  La26  1  0.33806821  0.62461488  0.66508355  1
  La  La27  1  0.00358851  0.37656444  0.33352554  1
  La  La28  1  0.50305577  0.12717209  0.49912025  1
  La  La29  1  0.66416311  0.87357586  0.00651412  1
  Pr  Pr30  1  0.83367274  0.12306068  0.16732484  1
  Pr  Pr31  1  -0.00023304  0.87182310  0.00234608  1
  Pr  Pr32  1  0.17045428  0.12264147  0.17330701  1
  Pr  Pr33  1  0.01043850  0.37585546  0.66859794  1
  Pr  Pr34  1  0.32895019  0.37484852  0.66588090  1
  Pr  Pr35  1  0.00372968  0.87447028  0.66546509  1
  Pr  Pr36  1  0.48693818  0.87378673  0.83049632  1
  Pr  Pr37  1  0.66714802  0.37735271  0.00165228  1
  Pr  Pr38  1  0.66789290  0.12850272  0.99842751  1
  Pr  Pr39  1  0.00443901  0.37933864  0.00049538  1
  Pr  Pr40  1  -0.00341377  0.12731243  0.65848585  1
  Pr  Pr41  1  0.16100811  0.87502722  0.16800412  1
  Pr  Pr42  1  0.83009702  0.62398540  0.83811539  1
  Pr  Pr43  1  0.66297493  0.87523287  0.66941246  1
  Pr  Pr44  1  0.83398698  0.87343702  0.82745085  1
  Pr  Pr45  1  0.33151345  0.38055302  0.00488397  1
  Pr  Pr46  1  -0.00155563  0.12539135  0.99684361  1
  Pr  Pr47  1  0.32205136  0.87532174  0.66981543  1
  Pr  Pr48  1  0.66750769  0.62321991  0.33197342  1
  Pr  Pr49  1  0.66800760  0.61985912  0.66776643  1
  Pr  Pr50  1  0.17021727  0.37370629  0.16802985  1
  Pr  Pr51  1  0.50641147  0.12162524  0.83672210  1
  Pr  Pr52  1  0.49278506  0.87635721  0.49855207  1
  Pr  Pr53  1  0.17039939  0.37139994  0.49820756  1
  Pr  Pr54  1  -0.00856763  0.62382068  0.66456123  1
  Pr  Pr55  1  0.16935408  0.37678163  0.83560800  1
  Pr  Pr56  1  0.83209090  0.62981927  0.49615060  1
  Pr  Pr57  1  0.49180740  0.87434387  0.16635753  1
  Pr  Pr58  1  0.16717351  0.12391383  0.83691330  1
  Pr  Pr59  1  0.83050353  0.12551041  0.83130067  1
  Pr  Pr60  1  0.83521857  0.87697335  0.16418889  1
  Pr  Pr61  1  0.67080525  0.12646729  0.33303993  1
  Pr  Pr62  1  0.34156129  0.12682182  0.99422780  1
  Pr  Pr63  1  0.66636523  0.37537403  0.67075155  1
  Pr  Pr64  1  0.33195411  0.87319970  0.33244841  1
  Pr  Pr65  1  0.33673843  0.12744199  0.33381225  1
  Pr  Pr66  1  0.16511395  0.87917591  0.49862958  1
  Pr  Pr67  1  0.50245224  0.62302267  0.50019816  1
  Pr  Pr68  1  0.66144338  0.37632493  0.33399821  1
  Pr  Pr69  1  0.66559508  0.62121025  0.99738276  1
  Pr  Pr70  1  0.16404296  0.87227476  0.83609630  1
  Pr  Pr71  1  0.66804416  0.13028069  0.66545842  1
  Mn  Mn72  1  -0.00026234  0.00031175  0.16311016  1
  Mn  Mn73  1  -0.00055842  0.00046400  0.50086580  1
  Mn  Mn74  1  -0.00099621  0.00092142  0.83142732  1
  Mn  Mn75  1  0.00171586  0.49952403  0.16652747  1
  Mn  Mn76  1  -0.00023340  0.49992901  0.49965284  1
  Mn  Mn77  1  -0.00078524  0.49939738  0.83277262  1
  Mn  Mn78  1  0.33186764  0.00203692  0.16754224  1
  Mn  Mn79  1  0.33392489  -0.00106912  0.49973434  1
  Mn  Mn80  1  0.33089575  0.00141369  0.83232653  1
  Mn  Mn81  1  0.33218773  0.49995121  0.16839532  1
  Mn  Mn82  1  0.33524790  0.50153824  0.50084444  1
  Mn  Mn83  1  0.33194628  0.49744049  0.83386195  1
  Mn  Mn84  1  0.66865228  -0.00154811  0.16820795  1
  Mn  Mn85  1  0.66593953  0.00069800  0.50327425  1
  Mn  Mn86  1  0.66732355  -0.00245207  0.83520449  1
  Mn  Mn87  1  0.66917801  0.50043504  0.16677969  1
  Mn  Mn88  1  0.66600376  0.49961289  0.49998913  1
  Mn  Mn89  1  0.66725746  0.49933341  0.83244438  1
  Mn  Mn90  1  0.00178832  0.25008411  0.16311147  1
  Mn  Mn91  1  -0.00031931  0.25146255  0.49948834  1
  Mn  Mn92  1  0.00220156  0.24711617  0.83048648  1
  Mn  Mn93  1  0.00028790  0.74954625  0.16599545  1
  Mn  Mn94  1  -0.00089592  0.74899553  0.50013896  1
  Mn  Mn95  1  -0.00352561  0.75267902  0.83292556  1
  Mn  Mn96  1  0.33246168  0.24806523  0.16421547  1
  Mn  Mn97  1  0.33381741  0.24860266  0.50039946  1
  Mn  Mn98  1  0.33263280  0.24831902  0.83269832  1
  Mn  Mn99  1  0.33136126  0.75030222  0.17016937  1
  Mn  Mn100  1  0.33558539  0.75117019  0.50121157  1
  Mn  Mn101  1  0.33031620  0.75089459  0.83242882  1
  Mn  Mn102  1  0.67093711  0.24952118  0.16597569  1
  Mn  Mn103  1  0.66604294  0.25098534  0.49955457  1
  Mn  Mn104  1  0.66770151  0.24823084  0.83199696  1
  Mn  Mn105  1  0.66771614  0.75192187  0.16869292  1
  Mn  Mn106  1  0.66590757  0.74892950  0.50386598  1
  Mn  Mn107  1  0.66636699  0.75381486  0.83585909  1
  Mn  Mn108  1  0.16518165  0.24712068  0.00226060  1
  Mn  Mn109  1  0.16781757  0.24860923  0.33443667  1
  Mn  Mn110  1  0.16636884  0.24943600  0.66857584  1
  Mn  Mn111  1  0.16239078  0.75085970  0.00255089  1
  Mn  Mn112  1  0.16793193  0.75079022  0.33670354  1
  Mn  Mn113  1  0.16486205  0.74867792  0.66846813  1
  Mn  Mn114  1  0.50117644  0.24958207  -0.00207416  1
  Mn  Mn115  1  0.50147131  0.24927263  0.33466908  1
  Mn  Mn116  1  0.50016436  0.25039139  0.66550142  1
  Mn  Mn117  1  0.50113982  0.75236321  0.00038259  1
  Mn  Mn118  1  0.49982061  0.75114842  0.33550756  1
  Mn  Mn119  1  0.50163053  0.75159465  0.66511518  1
  Mn  Mn120  1  0.83583896  0.24888733  -0.00286242  1
  Mn  Mn121  1  0.83311057  0.25136361  0.32944809  1
  Mn  Mn122  1  0.83435965  0.24939203  0.66311153  1
  Mn  Mn123  1  0.83202142  0.75199547  -0.00405878  1
  Mn  Mn124  1  0.83271482  0.74928028  0.33294255  1
  Mn  Mn125  1  0.83119709  0.75154942  0.66485472  1
  Mn  Mn126  1  0.16331878  0.00340522  0.00333984  1
  Mn  Mn127  1  0.16952538  0.00096582  0.33521498  1
  Mn  Mn128  1  0.16311384  -0.00042137  0.66847472  1
  Mn  Mn129  1  0.16425701  0.49966543  0.00237862  1
  Mn  Mn130  1  0.16642409  0.49994927  0.33575382  1
  Mn  Mn131  1  0.16739643  0.50148189  0.66883803  1
  Mn  Mn132  1  0.50190156  -0.00104939  0.00032417  1
  Mn  Mn133  1  0.50042835  -0.00005692  0.33427902  1
  Mn  Mn134  1  0.50197808  -0.00078444  0.66622067  1
  Mn  Mn135  1  0.50062144  0.49911984  -0.00008302  1
  Mn  Mn136  1  0.50015541  0.49986186  0.33578754  1
  Mn  Mn137  1  0.50008544  0.49921772  0.66453704  1
  Mn  Mn138  1  0.83340933  0.00087994  -0.00364962  1
  Mn  Mn139  1  0.83259571  0.00066809  0.33293706  1
  Mn  Mn140  1  0.83211378  -0.00272616  0.66483450  1
  Mn  Mn141  1  0.83486364  0.49876304  -0.00335748  1
  Mn  Mn142  1  0.83304236  0.49850745  0.32979134  1
  Mn  Mn143  1  0.83354961  0.50095688  0.66382390  1
  O  O144  1  0.15370181  0.12629749  0.03183047  1
  O  O145  1  0.17344737  0.12390096  0.35261332  1
  O  O146  1  0.15914539  0.12333107  0.69222627  1
  O  O147  1  0.16037076  0.62360111  0.02450906  1
  O  O148  1  0.16110305  0.62416395  0.34503799  1
  O  O149  1  0.17276175  0.62478898  0.68118499  1
  O  O150  1  0.49987912  0.12326181  0.01019843  1
  O  O151  1  0.50288325  0.12270925  0.35440884  1
  O  O152  1  0.50670920  0.12165331  0.69389005  1
  O  O153  1  0.50888196  0.62707456  0.00922227  1
  O  O154  1  0.50532068  0.62647360  0.35554207  1
  O  O155  1  0.49835403  0.62751916  0.67994857  1
  O  O156  1  0.83455174  0.12399463  0.02439022  1
  O  O157  1  0.82898141  0.12756098  0.35258942  1
  O  O158  1  0.83902507  0.11960824  0.68905383  1
  O  O159  1  0.83036579  0.62408852  0.00648925  1
  O  O160  1  0.83656985  0.62199245  0.35172935  1
  O  O161  1  0.83729085  0.62912884  0.69387962  1
  O  O162  1  0.16145390  0.37344768  0.31337400  1
  O  O163  1  0.16383228  0.37804423  0.64354513  1
  O  O164  1  0.16573602  0.36807681  0.97742572  1
  O  O165  1  0.17396182  0.87849759  0.31186222  1
  O  O166  1  0.16256816  0.87340698  0.64346410  1
  O  O167  1  0.15745952  0.88196672  0.97907901  1
  O  O168  1  0.50696302  0.37317779  0.32365739  1
  O  O169  1  0.50779919  0.37590821  0.64759028  1
  O  O170  1  0.50494572  0.37119495  0.99032170  1
  O  O171  1  0.49722110  0.87817989  0.31099722  1
  O  O172  1  0.51178812  0.87578589  0.64024974  1
  O  O173  1  0.50731271  0.87860535  0.97634303  1
  O  O174  1  0.82757198  0.37421035  0.30564139  1
  O  O175  1  0.82284774  0.37609416  0.65314665  1
  O  O176  1  0.83568452  0.37315263  0.98386830  1
  O  O177  1  0.83179459  0.87572289  0.31172062  1
  O  O178  1  0.82273482  0.87458391  0.64173125  1
  O  O179  1  0.83549547  0.87978506  0.96993960  1
  O  O180  1  -0.00329538  0.37340237  0.18786275  1
  O  O181  1  0.00346068  0.37699648  0.52503460  1
  O  O182  1  0.00371663  0.36748682  0.85705168  1
  O  O183  1  -0.00315142  0.87567598  0.17727041  1
  O  O184  1  0.00240425  0.87534757  0.52107221  1
  O  O185  1  -0.00691764  0.87985194  0.85996206  1
  O  O186  1  0.32700840  0.37113655  0.17525759  1
  O  O187  1  0.33266354  0.37623449  0.52094958  1
  O  O188  1  0.32561116  0.36638303  0.86044713  1
  O  O189  1  0.33286528  0.87842628  0.18722824  1
  O  O190  1  0.34284004  0.87546023  0.52734681  1
  O  O191  1  0.33189497  0.87841627  0.84347586  1
  O  O192  1  0.67715687  0.37171583  0.18832321  1
  O  O193  1  0.66611991  0.37541316  0.52830203  1
  O  O194  1  0.67003640  0.36916376  0.85391067  1
  O  O195  1  0.68103384  0.87634366  0.18234309  1
  O  O196  1  0.66817634  0.87483789  0.52564821  1
  O  O197  1  0.67960779  0.87764532  0.86248909  1
  O  O198  1  0.00196555  0.12517329  0.14081478  1
  O  O199  1  -0.00096483  0.12547476  0.49133061  1
  O  O200  1  0.00766400  0.12272884  0.80166698  1
  O  O201  1  0.01053466  0.62448943  0.14951235  1
  O  O202  1  -0.00285141  0.62235208  0.47545706  1
  O  O203  1  -0.00810855  0.63032393  0.80826334  1
  O  O204  1  0.32350109  0.12466517  0.13867178  1
  O  O205  1  0.33141630  0.12000364  0.47938520  1
  O  O206  1  0.32484060  0.12391054  0.81852711  1
  O  O207  1  0.32367816  0.62566039  0.15933671  1
  O  O208  1  0.33820856  0.62937081  0.48394156  1
  O  O209  1  0.33105075  0.62869737  0.81075244  1
  O  O210  1  0.67542601  0.12269674  0.14077050  1
  O  O211  1  0.66093968  0.12762962  0.47773433  1
  O  O212  1  0.66330462  0.12049234  0.80905731  1
  O  O213  1  0.66666304  0.62977201  0.14115272  1
  O  O214  1  0.65983782  0.62289910  0.47701660  1
  O  O215  1  0.67082113  0.63101414  0.81254017  1
  O  O216  1  0.09201379  0.01116131  0.24193732  1
  O  O217  1  0.07751117  0.01316281  0.59222237  1
  O  O218  1  0.08438999  0.02488803  0.91612257  1
  O  O219  1  0.07829669  0.51367768  0.25638846  1
  O  O220  1  0.07481858  0.51530712  0.59681127  1
  O  O221  1  0.07439852  0.50645546  0.92774182  1
  O  O222  1  0.41334070  0.01649321  0.25246093  1
  O  O223  1  0.42861406  0.01537568  0.57157138  1
  O  O224  1  0.42144414  0.01625314  0.90805870  1
  O  O225  1  0.41565403  0.50922310  0.25458485  1
  O  O226  1  0.41983284  0.52029859  0.58139976  1
  O  O227  1  0.41318448  0.50202226  0.91631063  1
  O  O228  1  0.75194925  0.02302477  0.24758848  1
  O  O229  1  0.75081654  0.02648153  0.58409022  1
  O  O230  1  0.75270509  0.02790245  0.91416026  1
  O  O231  1  0.74672407  0.51829532  0.25181989  1
  O  O232  1  0.74963199  0.52612925  0.58231114  1
  O  O233  1  0.74820348  0.51682161  0.91691612  1
  O  O234  1  0.25256071  0.22835575  0.25024465  1
  O  O235  1  0.24737566  0.24427237  0.58500375  1
  O  O236  1  0.24744817  0.22238338  0.92385870  1
  O  O237  1  0.25230666  0.73942608  0.25830893  1
  O  O238  1  0.26352120  0.74160563  0.59229786  1
  O  O239  1  0.24057773  0.74699159  0.91985857  1
  O  O240  1  0.59350516  0.23748862  0.25755320  1
  O  O241  1  0.58550406  0.22758879  0.58544647  1
  O  O242  1  0.58569987  0.22719805  0.91290539  1
  O  O243  1  0.58771860  0.73629207  0.26136510  1
  O  O244  1  0.59378184  0.73103620  0.59612765  1
  O  O245  1  0.59477821  0.74047580  0.92834134  1
  O  O246  1  0.91173404  0.23556747  0.23486428  1
  O  O247  1  0.91179123  0.23090882  0.57763815  1
  O  O248  1  0.91653450  0.22153515  0.90730663  1
  O  O249  1  0.92242705  0.73583642  0.25061021  1
  O  O250  1  0.91403846  0.72789335  0.58163368  1
  O  O251  1  0.90632331  0.73740397  0.90474180  1
  O  O252  1  0.08780268  0.47324039  0.09034233  1
  O  O253  1  0.08596377  0.47676535  0.42131500  1
  O  O254  1  0.08721044  0.47854118  0.75712008  1
  O  O255  1  0.07700376  0.97872194  0.07819476  1
  O  O256  1  0.08945663  0.98762155  0.42483487  1
  O  O257  1  0.08079392  0.97152242  0.75322291  1
  O  O258  1  0.41311302  0.48859218  0.07928343  1
  O  O259  1  0.42156150  0.49509162  0.42249341  1
  O  O260  1  0.40942823  0.48486198  0.73909993  1
  O  O261  1  0.41729788  0.98680393  0.08561968  1
  O  O262  1  0.41172371  0.97956316  0.41154216  1
  O  O263  1  0.41507162  0.97709090  0.73933816  1
  O  O264  1  0.75382538  0.47952223  0.08053703  1
  O  O265  1  0.74522749  0.48847696  0.41154580  1
  O  O266  1  0.74758662  0.49204553  0.74503134  1
  O  O267  1  0.75354473  0.98018360  0.07991891  1
  O  O268  1  0.74631130  0.99646726  0.42120934  1
  O  O269  1  0.74761510  0.98041765  0.74931779  1
  O  O270  1  0.24372182  0.26903816  0.08428600  1
  O  O271  1  0.24643298  0.26368014  0.42221475  1
  O  O272  1  0.24758888  0.27202688  0.75259267  1
  O  O273  1  0.23983729  0.76367233  0.09652096  1
  O  O274  1  0.24989181  0.77581526  0.42481972  1
  O  O275  1  0.24397565  0.77353932  0.75215590  1
  O  O276  1  0.59551474  0.26001892  0.07679873  1
  O  O277  1  0.58364241  0.26650173  0.42098522  1
  O  O278  1  0.59048862  0.26287310  0.74362157  1
  O  O279  1  0.58028464  0.77690765  0.09170561  1
  O  O280  1  0.57201803  0.76369603  0.43321827  1
  O  O281  1  0.57967496  0.77732846  0.75946557  1
  O  O282  1  0.92479397  0.26649734  0.07362688  1
  O  O283  1  0.92001757  0.26696213  0.40448246  1
  O  O284  1  0.92825980  0.26167073  0.73722925  1
  O  O285  1  0.91507782  0.76942271  0.07748056  1
  O  O286  1  0.91301721  0.75694613  0.41842647  1
  O  O287  1  0.91680002  0.77740371  0.74297135  1
  O  O288  1  0.24750373  0.47972209  0.08230166  1
  O  O289  1  0.24622784  0.48494129  0.42453556  1
  O  O290  1  0.24929413  0.47413838  0.75131008  1
  O  O291  1  0.23595351  0.98582926  0.09628509  1
  O  O292  1  0.25173214  0.97457104  0.41909235  1
  O  O293  1  0.24115185  0.98028835  0.75418265  1
  O  O294  1  0.59315924  0.48638179  0.08000555  1
  O  O295  1  0.58606770  0.48170121  0.41845438  1
  O  O296  1  0.58908934  0.48864810  0.74322596  1
  O  O297  1  0.58375843  0.97776399  0.09043691  1
  O  O298  1  0.57326384  0.98693937  0.43239480  1
  O  O299  1  0.58011651  0.97369557  0.76085913  1
  O  O300  1  0.92234764  0.48221865  0.07693228  1
  O  O301  1  0.92290993  0.48392869  0.40524304  1
  O  O302  1  0.92662283  0.48564805  0.73421322  1
  O  O303  1  0.91510581  0.98036046  0.07593476  1
  O  O304  1  0.91272290  0.99335267  0.41985877  1
  O  O305  1  0.91388827  0.97512979  0.74653231  1
  O  O306  1  0.08300439  0.27690670  0.08144656  1
  O  O307  1  0.08432004  0.27017300  0.42001442  1
  O  O308  1  0.08885887  0.27354318  0.75557445  1
  O  O309  1  0.08182465  0.77275633  0.08445825  1
  O  O310  1  0.08843533  0.76667237  0.42334740  1
  O  O311  1  0.08032298  0.77490573  0.75629750  1
  O  O312  1  0.40624663  0.25859137  0.07118106  1
  O  O313  1  0.41656485  0.25045699  0.41605948  1
  O  O314  1  0.41166306  0.26605890  0.74026324  1
  O  O315  1  0.41804414  0.76551629  0.08609421  1
  O  O316  1  0.41176910  0.77383294  0.41275984  1
  O  O317  1  0.41260249  0.77260505  0.73619257  1
  O  O318  1  0.75465254  0.26872998  0.08374289  1
  O  O319  1  0.74126159  0.26432865  0.40862934  1
  O  O320  1  0.74999354  0.25302628  0.74638053  1
  O  O321  1  0.75261716  0.77256262  0.07830104  1
  O  O322  1  0.74845309  0.75282273  0.42233306  1
  O  O323  1  0.74698261  0.77272826  0.74925423  1
  O  O324  1  0.25584149  0.02291680  0.25542260  1
  O  O325  1  0.24701458  0.00356801  0.58344778  1
  O  O326  1  0.24769317  0.02446820  0.92742966  1
  O  O327  1  0.24152658  0.50945946  0.24698933  1
  O  O328  1  0.25905209  0.51048633  0.59279511  1
  O  O329  1  0.24444788  0.50347846  0.91856509  1
  O  O330  1  0.59074341  0.01563261  0.25941331  1
  O  O331  1  0.59256579  0.02010368  0.59512630  1
  O  O332  1  0.59100173  0.02115191  0.92132577  1
  O  O333  1  0.58949687  0.51120085  0.25824832  1
  O  O334  1  0.58499343  0.52230258  0.58400197  1
  O  O335  1  0.59050441  0.50801882  0.92136510  1
  O  O336  1  0.91242804  0.01370073  0.23789571  1
  O  O337  1  0.91574982  0.01630216  0.58417982  1
  O  O338  1  0.91661835  0.02859051  0.91144379  1
  O  O339  1  0.91879054  0.51082766  0.24691300  1
  O  O340  1  0.91101400  0.52463667  0.57622977  1
  O  O341  1  0.91105105  0.51575402  0.90682215  1
  O  O342  1  0.08925191  0.23749915  0.24286785  1
  O  O343  1  0.07855897  0.23742191  0.59377377  1
  O  O344  1  0.08292593  0.22354309  0.91805729  1
  O  O345  1  0.08803603  0.73829988  0.24805951  1
  O  O346  1  0.07424443  0.73582172  0.59456144  1
  O  O347  1  0.07134130  0.74439887  0.92236432  1
  O  O348  1  0.41439080  0.23290487  0.25069206  1
  O  O349  1  0.42346284  0.23547519  0.57737451  1
  O  O350  1  0.41936306  0.22628102  0.90803597  1
  O  O351  1  0.41673465  0.74661172  0.25096227  1
  O  O352  1  0.42860471  0.73419533  0.57207141  1
  O  O353  1  0.42051804  0.74923587  0.90956044  1
  O  O354  1  0.75261806  0.22418585  0.24597002  1
  O  O355  1  0.74962958  0.22617946  0.58037568  1
  O  O356  1  0.74948132  0.22499584  0.91615849  1
  O  O357  1  0.74874908  0.73141818  0.25428802  1
  O  O358  1  0.75065216  0.72144750  0.58482238  1
  O  O359  1  0.74949373  0.72994393  0.91435727  1
