# generated using pymatgen
data_Ba17Sr5La8Pr42Mn72O216
_symmetry_space_group_name_H-M   'P 1'
_cell_length_a   16.67065973
_cell_length_b   15.70204258
_cell_length_c   16.81296673
_cell_angle_alpha   90.00172697
_cell_angle_beta   90.01282845
_cell_angle_gamma   89.99751126
_symmetry_Int_Tables_number   1
_chemical_formula_structural   Ba17Sr5La8Pr42Mn72O216
_chemical_formula_sum   'Ba17 Sr5 La8 Pr42 Mn72 O216'
_cell_volume   4401.01936923
_cell_formula_units_Z   1
loop_
 _symmetry_equiv_pos_site_id
 _symmetry_equiv_pos_as_xyz
  1  'x, y, z'
loop_
 _atom_site_type_symbol
 _atom_site_label
 _atom_site_symmetry_multiplicity
 _atom_site_fract_x
 _atom_site_fract_y
 _atom_site_fract_z
 _atom_site_occupancy
  Ba  Ba0  1  0.33497670  0.62727098  0.99561378  1
  Ba  Ba1  1  0.83337885  0.12644530  0.16908530  1
  Ba  Ba2  1  0.50314768  0.12335363  0.83675372  1
  Ba  Ba3  1  0.66609581  0.62513918  0.33536110  1
  Ba  Ba4  1  0.83552863  0.12394393  0.50338870  1
  Ba  Ba5  1  0.16823463  0.12480179  0.16339291  1
  Ba  Ba6  1  0.33543950  0.12328539  0.99681648  1
  Ba  Ba7  1  0.16719417  0.37388265  0.16419279  1
  Ba  Ba8  1  0.16513244  0.37658799  0.82944991  1
  Ba  Ba9  1  0.33500230  0.12388882  0.66545165  1
  Ba  Ba10  1  0.66286883  0.87350218  0.33800434  1
  Ba  Ba11  1  0.00034607  0.12410389  0.33123549  1
  Ba  Ba12  1  0.83339122  0.62409174  0.17075226  1
  Ba  Ba13  1  0.16845403  0.62487062  0.82928906  1
  Ba  Ba14  1  0.00139335  0.62620311  0.33198450  1
  Ba  Ba15  1  0.33264095  0.37554389  0.33205627  1
  Ba  Ba16  1  0.50328763  0.62595714  0.83620108  1
  Sr  Sr17  1  0.32768404  0.87508991  0.66569442  1
  Sr  Sr18  1  0.83909958  0.12594951  0.83637849  1
  Sr  Sr19  1  0.16804055  0.37678799  0.49395973  1
  Sr  Sr20  1  0.17134348  0.62366664  0.49792957  1
  Sr  Sr21  1  0.82783525  0.87650523  0.49927583  1
  La  La22  1  -0.00045700  0.37562116  -0.00009815  1
  La  La23  1  0.49941622  0.62611396  0.16893869  1
  La  La24  1  -0.00476854  0.37626675  0.66792152  1
  La  La25  1  0.32780718  0.87577048  0.33412511  1
  La  La26  1  0.82620515  0.87596372  0.83269890  1
  La  La27  1  -0.00714589  0.87740081  0.33325385  1
  La  La28  1  0.33235128  0.37754258  0.00066817  1
  La  La29  1  0.49506286  0.87269871  0.16878776  1
  Pr  Pr30  1  0.00557774  0.62336989  0.99882327  1
  Pr  Pr31  1  0.00354966  0.37238312  0.33173554  1
  Pr  Pr32  1  0.16899240  0.62426796  0.16805375  1
  Pr  Pr33  1  0.67131609  0.12493623  0.66814860  1
  Pr  Pr34  1  0.49342580  0.37408413  0.83403882  1
  Pr  Pr35  1  0.83606724  0.63015101  0.50251649  1
  Pr  Pr36  1  0.49863030  0.37748637  0.16578183  1
  Pr  Pr37  1  0.67745872  0.12431364  0.99812437  1
  Pr  Pr38  1  0.00706436  0.12670521  0.66129918  1
  Pr  Pr39  1  0.67360734  0.62509731  1.00017985  1
  Pr  Pr40  1  0.66276729  0.87600205  0.00676209  1
  Pr  Pr41  1  0.50346755  0.12270821  0.16901274  1
  Pr  Pr42  1  0.66072410  0.87759988  0.66912941  1
  Pr  Pr43  1  0.50393613  0.12444117  0.50591171  1
  Pr  Pr44  1  0.00886372  0.62421227  0.65888863  1
  Pr  Pr45  1  0.82766942  0.87263418  0.17200830  1
  Pr  Pr46  1  0.66449078  0.37256482  0.00444992  1
  Pr  Pr47  1  0.49917704  0.37155988  0.49777612  1
  Pr  Pr48  1  0.83437320  0.37481642  0.49922863  1
  Pr  Pr49  1  0.33140239  0.62324670  0.32932299  1
  Pr  Pr50  1  0.32828576  0.37571446  0.66567750  1
  Pr  Pr51  1  0.16248241  0.87502229  0.49516340  1
  Pr  Pr52  1  0.50190687  0.62455312  0.50449235  1
  Pr  Pr53  1  -0.00870843  0.87351866  0.66789082  1
  Pr  Pr54  1  0.00820865  0.12554931  0.99571875  1
  Pr  Pr55  1  0.83823528  0.62489407  0.83886047  1
  Pr  Pr56  1  0.67066775  0.62402384  0.66530173  1
  Pr  Pr57  1  0.33510548  0.12758916  0.32851493  1
  Pr  Pr58  1  0.17480093  0.12320641  0.83413361  1
  Pr  Pr59  1  0.66985683  0.37485665  0.33726928  1
  Pr  Pr60  1  0.67158222  0.12255986  0.33573316  1
  Pr  Pr61  1  0.66305988  0.37210315  0.67231784  1
  Pr  Pr62  1  0.17097745  0.12778278  0.49760770  1
  Pr  Pr63  1  0.49102806  0.87514251  0.49921018  1
  Pr  Pr64  1  0.15781033  0.87546811  0.16213420  1
  Pr  Pr65  1  0.33450566  0.62415461  0.66313101  1
  Pr  Pr66  1  0.83612411  0.37738441  0.16998614  1
  Pr  Pr67  1  0.16255448  0.87451950  0.82668477  1
  Pr  Pr68  1  0.49061143  0.87477928  0.83212757  1
  Pr  Pr69  1  0.32961066  0.87377436  -0.00446452  1
  Pr  Pr70  1  -0.00681223  0.87431625  -0.00048446  1
  Pr  Pr71  1  0.82900485  0.37435547  0.83228999  1
  Mn  Mn72  1  -0.00239650  -0.00207364  0.16430341  1
  Mn  Mn73  1  0.00086779  -0.00050173  0.50103675  1
  Mn  Mn74  1  -0.00067537  -0.00054403  0.83085520  1
  Mn  Mn75  1  0.00084229  0.50005265  0.16560695  1
  Mn  Mn76  1  -0.00006235  0.49983666  0.49929354  1
  Mn  Mn77  1  -0.00201142  0.50096102  0.83174501  1
  Mn  Mn78  1  0.33419435  -0.00152143  0.16604823  1
  Mn  Mn79  1  0.33238614  -0.00087143  0.49774026  1
  Mn  Mn80  1  0.33281491  -0.00271208  0.83061750  1
  Mn  Mn81  1  0.33402528  0.50161916  0.16443374  1
  Mn  Mn82  1  0.33549057  0.50154115  0.49855464  1
  Mn  Mn83  1  0.33466220  0.49938433  0.83137447  1
  Mn  Mn84  1  0.66556859  0.00076424  0.16866828  1
  Mn  Mn85  1  0.66490024  -0.00012441  0.50383823  1
  Mn  Mn86  1  0.66863457  -0.00135735  0.83736597  1
  Mn  Mn87  1  0.66453686  0.49750711  0.16868925  1
  Mn  Mn88  1  0.66720758  0.49927647  0.50358476  1
  Mn  Mn89  1  0.66810232  0.49913322  0.83493809  1
  Mn  Mn90  1  -0.00071176  0.25094742  0.16457780  1
  Mn  Mn91  1  0.00217819  0.25130212  0.50045543  1
  Mn  Mn92  1  -0.00067691  0.24921962  0.83080347  1
  Mn  Mn93  1  -0.00093333  0.75177401  0.16509148  1
  Mn  Mn94  1  -0.00011679  0.75121331  0.49968694  1
  Mn  Mn95  1  -0.00166656  0.74971738  0.83268367  1
  Mn  Mn96  1  0.33644260  0.24929563  0.16399353  1
  Mn  Mn97  1  0.33454319  0.24952640  0.49823460  1
  Mn  Mn98  1  0.33389799  0.25110007  0.83183772  1
  Mn  Mn99  1  0.33175868  0.75215167  0.16558867  1
  Mn  Mn100  1  0.33307715  0.75008424  0.49863497  1
  Mn  Mn101  1  0.33189009  0.75178066  0.82878762  1
  Mn  Mn102  1  0.66450375  0.25009879  0.17033066  1
  Mn  Mn103  1  0.66721564  0.25172987  0.50348659  1
  Mn  Mn104  1  0.66847059  0.24990669  0.83697745  1
  Mn  Mn105  1  0.66487311  0.75043058  0.16793562  1
  Mn  Mn106  1  0.66517193  0.74877543  0.50481547  1
  Mn  Mn107  1  0.66777161  0.75091726  0.83526150  1
  Mn  Mn108  1  0.16725041  0.24985126  -0.00516443  1
  Mn  Mn109  1  0.16724727  0.25050218  0.33265637  1
  Mn  Mn110  1  0.16669108  0.25093004  0.66299767  1
  Mn  Mn111  1  0.16320317  0.75268304  -0.00289589  1
  Mn  Mn112  1  0.16652528  0.75096936  0.33044216  1
  Mn  Mn113  1  0.16584641  0.75126911  0.66139960  1
  Mn  Mn114  1  0.50320952  0.25001180  0.00164289  1
  Mn  Mn115  1  0.50227060  0.24866602  0.33422793  1
  Mn  Mn116  1  0.50065906  0.25119029  0.66702989  1
  Mn  Mn117  1  0.50315926  0.75203974  0.00081233  1
  Mn  Mn118  1  0.49604828  0.74950713  0.33581472  1
  Mn  Mn119  1  0.50004106  0.75039923  0.66770890  1
  Mn  Mn120  1  0.83613372  0.25106518  0.00057260  1
  Mn  Mn121  1  0.83271445  0.25185631  0.33518107  1
  Mn  Mn122  1  0.83322067  0.24993687  0.66941846  1
  Mn  Mn123  1  0.83300172  0.74977953  0.00022624  1
  Mn  Mn124  1  0.83222227  0.75059402  0.33698175  1
  Mn  Mn125  1  0.83167296  0.75000724  0.66980616  1
  Mn  Mn126  1  0.16408324  -0.00349814  -0.00540956  1
  Mn  Mn127  1  0.16732100  -0.00169302  0.33078869  1
  Mn  Mn128  1  0.16442252  -0.00113461  0.66310597  1
  Mn  Mn129  1  0.16671900  0.50062408  -0.00229069  1
  Mn  Mn130  1  0.16644789  0.50148223  0.33292162  1
  Mn  Mn131  1  0.16743970  0.50065073  0.66039178  1
  Mn  Mn132  1  0.50212419  -0.00223358  0.00233596  1
  Mn  Mn133  1  0.49869143  0.00172166  0.33638118  1
  Mn  Mn134  1  0.50082470  -0.00039334  0.66740876  1
  Mn  Mn135  1  0.50438080  0.49960926  0.00051719  1
  Mn  Mn136  1  0.50016455  0.49939767  0.33489485  1
  Mn  Mn137  1  0.50029287  0.49908104  0.66762076  1
  Mn  Mn138  1  0.83518374  -0.00066203  -0.00019097  1
  Mn  Mn139  1  0.83154543  -0.00021068  0.33559876  1
  Mn  Mn140  1  0.83284598  -0.00118638  0.66962103  1
  Mn  Mn141  1  0.83377107  0.49892460  0.00039373  1
  Mn  Mn142  1  0.83355940  0.49788982  0.33618011  1
  Mn  Mn143  1  0.83188133  0.50120359  0.66846858  1
  O  O144  1  0.16285949  0.12166248  0.00465751  1
  O  O145  1  0.17158757  0.12115712  0.35310286  1
  O  O146  1  0.15722561  0.12369924  0.69019493  1
  O  O147  1  0.16126682  0.63077350  0.02255074  1
  O  O148  1  0.17160069  0.62834181  0.34798213  1
  O  O149  1  0.16428783  0.62697293  0.67424425  1
  O  O150  1  0.50427227  0.12379973  0.02374113  1
  O  O151  1  0.49658632  0.12564846  0.36282422  1
  O  O152  1  0.50545884  0.12689824  0.68042764  1
  O  O153  1  0.50721809  0.62660921  0.02275020  1
  O  O154  1  0.49089318  0.62702465  0.35917216  1
  O  O155  1  0.49525067  0.62442141  0.68148933  1
  O  O156  1  0.83507770  0.12509547  0.01396066  1
  O  O157  1  0.82768862  0.12828775  0.34522256  1
  O  O158  1  0.82866195  0.12221858  0.68715277  1
  O  O159  1  0.83002816  0.62307966  0.01555336  1
  O  O160  1  0.83546029  0.62220918  0.35596817  1
  O  O161  1  0.82436820  0.62477932  0.69715719  1
  O  O162  1  0.16101998  0.37830381  0.32316882  1
  O  O163  1  0.17067092  0.37661190  0.64571650  1
  O  O164  1  0.16123901  0.37261881  0.98800481  1
  O  O165  1  0.17413049  0.87327963  0.30586117  1
  O  O166  1  0.16165974  0.87425994  0.63828604  1
  O  O167  1  0.15056183  0.87456727  0.97153705  1
  O  O168  1  0.50871219  0.37028280  0.30915590  1
  O  O169  1  0.50737972  0.37575875  0.64096942  1
  O  O170  1  0.51234096  0.37445880  0.97884365  1
  O  O171  1  0.49486805  0.87613266  0.31334408  1
  O  O172  1  0.50975622  0.87401713  0.64223355  1
  O  O173  1  0.51633070  0.87476297  0.97820435  1
  O  O174  1  0.82449194  0.37435690  0.31637166  1
  O  O175  1  0.83393171  0.37942443  0.64257027  1
  O  O176  1  0.83386523  0.37657362  0.97437568  1
  O  O177  1  0.83211212  0.87516155  0.31991250  1
  O  O178  1  0.83606323  0.87261624  0.64782676  1
  O  O179  1  0.83284269  0.87397678  0.97468914  1
  O  O180  1  0.00009903  0.37695727  0.18294770  1
  O  O181  1  -0.00311982  0.37629437  0.52526848  1
  O  O182  1  -0.00603428  0.37759246  0.85491830  1
  O  O183  1  0.00885235  0.87393195  0.18434326  1
  O  O184  1  0.00870234  0.87617321  0.52499456  1
  O  O185  1  0.00574468  0.87362704  0.85604521  1
  O  O186  1  0.34163230  0.37608071  0.17469255  1
  O  O187  1  0.33800329  0.37803769  0.52154662  1
  O  O188  1  0.33802552  0.37439172  0.85129129  1
  O  O189  1  0.33670441  0.87451061  0.19103908  1
  O  O190  1  0.33476496  0.87446585  0.51798026  1
  O  O191  1  0.33445090  0.87454868  0.84697370  1
  O  O192  1  0.65712738  0.37191715  0.19408627  1
  O  O193  1  0.66839693  0.37619622  0.52951933  1
  O  O194  1  0.67287158  0.37336113  0.86071727  1
  O  O195  1  0.67114646  0.87699618  0.17750243  1
  O  O196  1  0.66177504  0.87112753  0.52488498  1
  O  O197  1  0.67499114  0.87327812  0.86336006  1
  O  O198  1  -0.00421323  0.12221192  0.14310042  1
  O  O199  1  0.00413388  0.12457010  0.48805077  1
  O  O200  1  -0.00428602  0.12122477  0.80446239  1
  O  O201  1  0.00115575  0.62769442  0.14391932  1
  O  O202  1  -0.01198163  0.62433118  0.48824026  1
  O  O203  1  -0.01120912  0.62641467  0.80515382  1
  O  O204  1  0.34282980  0.12157312  0.15249872  1
  O  O205  1  0.33472743  0.12094966  0.47484978  1
  O  O206  1  0.32745946  0.12202361  0.82357452  1
  O  O207  1  0.33181360  0.62883262  0.15104942  1
  O  O208  1  0.34317316  0.62796961  0.47418087  1
  O  O209  1  0.33650150  0.62792639  0.81030979  1
  O  O210  1  0.66095037  0.12644332  0.14181414  1
  O  O211  1  0.65705924  0.13025389  0.47984761  1
  O  O212  1  0.66934122  0.12612258  0.81169259  1
  O  O213  1  0.65974484  0.62340708  0.14435467  1
  O  O214  1  0.65953021  0.62221305  0.49053135  1
  O  O215  1  0.67245115  0.62631299  0.80848983  1
  O  O216  1  0.08879847  0.00375551  0.24378182  1
  O  O217  1  0.08895190  0.02269090  0.57717042  1
  O  O218  1  0.08836716  0.02170939  0.90256261  1
  O  O219  1  0.08900351  0.51721857  0.24039265  1
  O  O220  1  0.08273071  0.51632987  0.57853767  1
  O  O221  1  0.07885293  0.51600720  0.91551336  1
  O  O222  1  0.42669714  0.02000211  0.24863177  1
  O  O223  1  0.42567560  0.01055086  0.56892455  1
  O  O224  1  0.42442019  -0.00343320  0.91633143  1
  O  O225  1  0.41278373  0.52005828  0.25039658  1
  O  O226  1  0.41675422  0.52087525  0.58407825  1
  O  O227  1  0.42454911  0.50144566  0.91612205  1
  O  O228  1  0.74624718  0.01220365  0.25029261  1
  O  O229  1  0.74763705  0.01186908  0.59030235  1
  O  O230  1  0.75830805  0.01756500  0.91198811  1
  O  O231  1  0.74542929  0.50247456  0.25123261  1
  O  O232  1  0.75379500  0.52452560  0.58329892  1
  O  O233  1  0.75662375  0.51966167  0.91198480  1
  O  O234  1  0.25716228  0.23624122  0.25237581  1
  O  O235  1  0.24871037  0.23435219  0.57816305  1
  O  O236  1  0.24810364  0.24019158  0.90956913  1
  O  O237  1  0.25271290  0.73051325  0.25127858  1
  O  O238  1  0.25867546  0.73122980  0.58493438  1
  O  O239  1  0.24951556  0.75147527  0.91702023  1
  O  O240  1  0.58340659  0.21938097  0.25420573  1
  O  O241  1  0.58615092  0.23203868  0.58694835  1
  O  O242  1  0.59620604  0.23378067  0.93026462  1
  O  O243  1  0.57435363  0.73732490  0.25001152  1
  O  O244  1  0.58961748  0.72882321  0.59538848  1
  O  O245  1  0.59869233  0.73353805  0.92942798  1
  O  O246  1  0.91394418  0.25323303  0.25130902  1
  O  O247  1  0.92563423  0.23922680  0.59301144  1
  O  O248  1  0.92876612  0.23426474  0.92310914  1
  O  O249  1  0.91991388  0.75219738  0.25089257  1
  O  O250  1  0.91759776  0.73003871  0.59500308  1
  O  O251  1  0.91992351  0.73057643  0.92318466  1
  O  O252  1  0.07445843  0.49201731  0.07495770  1
  O  O253  1  0.07771655  0.48568507  0.41135988  1
  O  O254  1  0.07206078  0.49036299  0.74009926  1
  O  O255  1  0.07380112  0.98336425  0.07139789  1
  O  O256  1  0.08290158  0.97680158  0.41179548  1
  O  O257  1  0.07452793  0.97537866  0.74113681  1
  O  O258  1  0.42241019  0.48477261  0.08369466  1
  O  O259  1  0.42717224  0.48243993  0.42497839  1
  O  O260  1  0.41685663  0.47441448  0.74524822  1
  O  O261  1  0.41357095  0.97281028  0.07835987  1
  O  O262  1  0.40725549  0.97967314  0.40831937  1
  O  O263  1  0.41628981  0.98125552  0.74589984  1
  O  O264  1  0.74679185  0.47686928  0.08262144  1
  O  O265  1  0.75119873  0.47887850  0.42349737  1
  O  O266  1  0.74486530  0.47530814  0.74602865  1
  O  O267  1  0.74405303  0.98581598  0.07559838  1
  O  O268  1  0.74235047  0.99484804  0.41975520  1
  O  O269  1  0.74393665  0.97819096  0.74823348  1
  O  O270  1  0.25465449  0.26097732  0.07408255  1
  O  O271  1  0.24947043  0.25525641  0.41808263  1
  O  O272  1  0.25133671  0.26296815  0.74164215  1
  O  O273  1  0.24356664  0.77666580  0.08235644  1
  O  O274  1  0.24545858  0.76997504  0.41846170  1
  O  O275  1  0.24133157  0.76979978  0.74788401  1
  O  O276  1  0.58005718  0.27161273  0.09096669  1
  O  O277  1  0.58616753  0.27366144  0.41864225  1
  O  O278  1  0.58129254  0.27285896  0.75568967  1
  O  O279  1  0.57771246  0.77043880  0.08953485  1
  O  O280  1  0.57017638  0.76058611  0.43088657  1
  O  O281  1  0.58056776  0.77416786  0.75934389  1
  O  O282  1  0.91213843  0.27578476  0.08522310  1
  O  O283  1  0.91635763  0.27327838  0.41948817  1
  O  O284  1  0.90969067  0.27221179  0.75690860  1
  O  O285  1  0.91085932  0.77451829  0.08678718  1
  O  O286  1  0.91609282  0.76924479  0.42292373  1
  O  O287  1  0.90922659  0.77221755  0.75765958  1
  O  O288  1  0.25478553  0.48968671  0.07925112  1
  O  O289  1  0.25308237  0.49638940  0.41576707  1
  O  O290  1  0.25615890  0.49051250  0.73912140  1
  O  O291  1  0.24218248  0.97365180  0.08052828  1
  O  O292  1  0.24423985  0.97779074  0.42000673  1
  O  O293  1  0.23842936  0.98364636  0.75110125  1
  O  O294  1  0.58374704  0.47612177  0.08615303  1
  O  O295  1  0.58798828  0.47684955  0.42032396  1
  O  O296  1  0.58166158  0.47670594  0.75637565  1
  O  O297  1  0.57322845  0.98200100  0.09655186  1
  O  O298  1  0.56818867  0.98688266  0.43095600  1
  O  O299  1  0.58234415  0.97581079  0.76153649  1
  O  O300  1  0.91275844  0.47853921  0.08427836  1
  O  O301  1  0.91523374  0.47420128  0.42129763  1
  O  O302  1  0.90762069  0.47840864  0.75588039  1
  O  O303  1  0.90886356  0.97113914  0.08667277  1
  O  O304  1  0.91770228  0.98264149  0.42124916  1
  O  O305  1  0.91033834  0.97487239  0.75842919  1
  O  O306  1  0.07375012  0.25645135  0.06879910  1
  O  O307  1  0.07973112  0.26654416  0.41520430  1
  O  O308  1  0.07101774  0.26538555  0.73662057  1
  O  O309  1  0.07631194  0.77126355  0.07641797  1
  O  O310  1  0.08218791  0.77367578  0.40786876  1
  O  O311  1  0.07662817  0.76842237  0.74321151  1
  O  O312  1  0.42067050  0.27178141  0.08036456  1
  O  O313  1  0.42312250  0.26608838  0.41853729  1
  O  O314  1  0.41562714  0.27362507  0.74493069  1
  O  O315  1  0.41403447  0.77321529  0.08068456  1
  O  O316  1  0.41008991  0.77422888  0.41262677  1
  O  O317  1  0.41511742  0.76976524  0.74350349  1
  O  O318  1  0.74640535  0.27221735  0.08759766  1
  O  O319  1  0.75055481  0.27176755  0.42334945  1
  O  O320  1  0.74606312  0.27212182  0.75069641  1
  O  O321  1  0.74520739  0.76582234  0.07472348  1
  O  O322  1  0.74974390  0.75460226  0.42631361  1
  O  O323  1  0.74306557  0.77443103  0.74608116  1
  O  O324  1  0.26088612  0.01403667  0.25934689  1
  O  O325  1  0.24765498  0.01589575  0.57743657  1
  O  O326  1  0.24916031  -0.00048378  0.91453213  1
  O  O327  1  0.25022858  0.51975674  0.24744134  1
  O  O328  1  0.25707365  0.51971992  0.58179255  1
  O  O329  1  0.25295424  0.50482246  0.91595306  1
  O  O330  1  0.58611570  0.02326374  0.26033098  1
  O  O331  1  0.59078528  0.02008808  0.59413289  1
  O  O332  1  0.59908039  0.01498851  0.93336219  1
  O  O333  1  0.57315831  0.51640192  0.24497288  1
  O  O334  1  0.58586957  0.51881564  0.58962429  1
  O  O335  1  0.59722773  0.51538968  0.92785578  1
  O  O336  1  0.91773690  -0.00272677  0.24994382  1
  O  O337  1  0.92657945  0.01013550  0.59774632  1
  O  O338  1  0.92915518  0.01222504  0.92641812  1
  O  O339  1  0.91820922  0.49926561  0.25178668  1
  O  O340  1  0.91700314  0.52160892  0.59118983  1
  O  O341  1  0.92070556  0.52177257  0.91949413  1
  O  O342  1  0.08240769  0.24409158  0.24854470  1
  O  O343  1  0.08888282  0.22978390  0.57781228  1
  O  O344  1  0.08699741  0.22692056  0.90392933  1
  O  O345  1  0.09370895  0.73762366  0.23571926  1
  O  O346  1  0.08503028  0.73170335  0.57741743  1
  O  O347  1  0.07868217  0.72933392  0.91636089  1
  O  O348  1  0.42290110  0.22934163  0.24997592  1
  O  O349  1  0.42374805  0.23892242  0.57631422  1
  O  O350  1  0.42472188  0.24835309  0.91487795  1
  O  O351  1  0.41591889  0.73073279  0.25020247  1
  O  O352  1  0.42351213  0.73352696  0.57565407  1
  O  O353  1  0.42397252  0.75256886  0.91596158  1
  O  O354  1  0.73979385  0.23928502  0.26023755  1
  O  O355  1  0.74565048  0.23597604  0.59071688  1
  O  O356  1  0.75558907  0.23379006  0.91777762  1
  O  O357  1  0.75048203  0.74486215  0.24672193  1
  O  O358  1  0.75305152  0.72661060  0.58630128  1
  O  O359  1  0.75727007  0.72821290  0.90993649  1
