# generated using pymatgen
data_Ba17Sr5La8Pr42Mn72O216
_symmetry_space_group_name_H-M   'P 1'
_cell_length_a   16.67279374
_cell_length_b   15.70748635
_cell_length_c   16.82019330
_cell_angle_alpha   89.98338774
_cell_angle_beta   89.97746052
_cell_angle_gamma   89.99759844
_symmetry_Int_Tables_number   1
_chemical_formula_structural   Ba17Sr5La8Pr42Mn72O216
_chemical_formula_sum   'Ba17 Sr5 La8 Pr42 Mn72 O216'
_cell_volume   4405.00087135
_cell_formula_units_Z   1
loop_
 _symmetry_equiv_pos_site_id
 _symmetry_equiv_pos_as_xyz
  1  'x, y, z'
loop_
 _atom_site_type_symbol
 _atom_site_label
 _atom_site_symmetry_multiplicity
 _atom_site_fract_x
 _atom_site_fract_y
 _atom_site_fract_z
 _atom_site_occupancy
  Ba  Ba0  1  0.66597752  0.62291919  0.66334908  1
  Ba  Ba1  1  0.50073265  0.62348413  0.83106590  1
  Ba  Ba2  1  0.16674142  0.12674179  0.83327609  1
  Ba  Ba3  1  0.83397438  0.62555416  0.50295371  1
  Ba  Ba4  1  0.32920191  0.12487564  0.66872490  1
  Ba  Ba5  1  0.49926227  0.87597846  0.49774196  1
  Ba  Ba6  1  -0.00050738  0.62437277  0.33467777  1
  Ba  Ba7  1  0.33481747  0.37659914  0.33645766  1
  Ba  Ba8  1  0.66665997  0.12641416  0.99823403  1
  Ba  Ba9  1  0.66909691  0.87483029  -0.00011346  1
  Ba  Ba10  1  0.33338676  0.87369663  -0.00039172  1
  Ba  Ba11  1  0.50086259  0.87299702  0.83200484  1
  Ba  Ba12  1  0.16583844  0.12570281  0.16720469  1
  Ba  Ba13  1  0.83307693  0.12722911  0.83452314  1
  Ba  Ba14  1  0.16605615  0.87570417  0.16353815  1
  Ba  Ba15  1  0.00142207  0.87363034  -0.00123879  1
  Ba  Ba16  1  -0.00157794  0.12520333  0.33250361  1
  Sr  Sr17  1  -0.00153658  0.37664685  0.66731170  1
  Sr  Sr18  1  0.83676277  0.37777693  0.49940615  1
  Sr  Sr19  1  0.16457250  0.87581154  0.83243272  1
  Sr  Sr20  1  0.83401222  0.87343662  0.50256168  1
  Sr  Sr21  1  0.66237803  0.12422949  0.32998317  1
  La  La22  1  0.33239498  0.62627382  0.99872312  1
  La  La23  1  0.50355450  0.37408893  0.82865188  1
  La  La24  1  0.66057607  0.12400185  0.66322942  1
  La  La25  1  0.49581194  0.12323529  0.83531866  1
  La  La26  1  0.67154782  0.87756146  0.33405121  1
  La  La27  1  0.67174968  0.37515002  -0.00043955  1
  La  La28  1  0.83015699  0.62964229  0.17294209  1
  La  La29  1  0.00078298  0.12187123  0.99949928  1
  Pr  Pr30  1  0.16705668  0.87615179  0.49925776  1
  Pr  Pr31  1  0.00483186  0.62639880  1.00103034  1
  Pr  Pr32  1  0.50249685  0.87653853  0.15806715  1
  Pr  Pr33  1  0.00539536  0.62537391  0.65987121  1
  Pr  Pr34  1  0.33708687  0.62855077  0.66621548  1
  Pr  Pr35  1  0.16663697  0.62451414  0.83486931  1
  Pr  Pr36  1  0.33348166  0.37499056  0.66955631  1
  Pr  Pr37  1  0.00191724  0.87589001  0.33439724  1
  Pr  Pr38  1  -0.00127526  0.12547900  0.66176398  1
  Pr  Pr39  1  -0.00499299  0.87320758  0.67336646  1
  Pr  Pr40  1  0.83201465  0.87890227  0.83221935  1
  Pr  Pr41  1  0.83359959  0.37206186  0.83004217  1
  Pr  Pr42  1  0.33694545  0.62604032  0.33364699  1
  Pr  Pr43  1  0.33210013  0.87549509  0.33254453  1
  Pr  Pr44  1  0.83605973  0.62364578  0.83487646  1
  Pr  Pr45  1  0.84009359  0.87571782  0.16551308  1
  Pr  Pr46  1  0.66456424  0.62645829  0.33402028  1
  Pr  Pr47  1  0.67559774  0.37627324  0.66463777  1
  Pr  Pr48  1  0.67269006  0.37176011  0.33629769  1
  Pr  Pr49  1  0.00360451  0.37417201  0.33920921  1
  Pr  Pr50  1  0.49114078  0.12646873  0.49886102  1
  Pr  Pr51  1  0.33302554  0.87525056  0.67639280  1
  Pr  Pr52  1  0.16543400  0.37508497  0.82991318  1
  Pr  Pr53  1  0.50375288  0.37217247  0.16446280  1
  Pr  Pr54  1  0.83854469  0.37593323  0.16924578  1
  Pr  Pr55  1  0.32964053  0.12182867  0.99492424  1
  Pr  Pr56  1  0.67450475  0.87122744  0.66989162  1
  Pr  Pr57  1  0.16075854  0.37748981  0.16746654  1
  Pr  Pr58  1  0.16557303  0.37337304  0.49845155  1
  Pr  Pr59  1  0.49483224  0.12346469  0.16442238  1
  Pr  Pr60  1  0.17153483  0.62171998  0.50327333  1
  Pr  Pr61  1  0.49887583  0.62189935  0.50414286  1
  Pr  Pr62  1  0.66716817  0.62377861  0.99370132  1
  Pr  Pr63  1  0.33339732  0.37480020  0.00561238  1
  Pr  Pr64  1  0.82893761  0.12178323  0.17028827  1
  Pr  Pr65  1  0.00012034  0.37203017  -0.00084197  1
  Pr  Pr66  1  0.33252084  0.12370741  0.33246922  1
  Pr  Pr67  1  0.82895630  0.12541085  0.50507632  1
  Pr  Pr68  1  0.50501958  0.37310137  0.49445379  1
  Pr  Pr69  1  0.16307567  0.12835472  0.50443612  1
  Pr  Pr70  1  0.50080567  0.62480032  0.16489000  1
  Pr  Pr71  1  0.17187260  0.63021133  0.17007720  1
  Mn  Mn72  1  -0.00167225  0.00163977  0.16719073  1
  Mn  Mn73  1  -0.00100263  -0.00167608  0.50033888  1
  Mn  Mn74  1  0.00058500  0.00041293  0.83245892  1
  Mn  Mn75  1  -0.00107324  0.50028661  0.16636871  1
  Mn  Mn76  1  0.00177179  0.49941221  0.50102570  1
  Mn  Mn77  1  0.00008640  0.50155988  0.83357845  1
  Mn  Mn78  1  0.33402308  0.00223577  0.16653128  1
  Mn  Mn79  1  0.33063797  -0.00168838  0.49999118  1
  Mn  Mn80  1  0.33201551  -0.00060494  0.83326234  1
  Mn  Mn81  1  0.33488603  0.49862575  0.16797707  1
  Mn  Mn82  1  0.33374710  0.49977734  0.50300647  1
  Mn  Mn83  1  0.33249641  0.49879383  0.83524642  1
  Mn  Mn84  1  0.66605171  0.00118103  0.16855147  1
  Mn  Mn85  1  0.66658108  0.00134842  0.49831905  1
  Mn  Mn86  1  0.66619712  0.00003540  0.83003110  1
  Mn  Mn87  1  0.66692675  0.49879350  0.16624730  1
  Mn  Mn88  1  0.66664741  0.49718898  0.49776351  1
  Mn  Mn89  1  0.66886537  0.49914679  0.83310910  1
  Mn  Mn90  1  -0.00236945  0.25289539  0.16792316  1
  Mn  Mn91  1  -0.00196581  0.25106138  0.49953273  1
  Mn  Mn92  1  0.00043997  0.25176905  0.83327324  1
  Mn  Mn93  1  -0.00061326  0.74739427  0.16740807  1
  Mn  Mn94  1  0.00258852  0.75203154  0.50170770  1
  Mn  Mn95  1  -0.00059355  0.74736250  0.83208454  1
  Mn  Mn96  1  0.33323777  0.25279017  0.16718965  1
  Mn  Mn97  1  0.33214769  0.25076687  0.50091610  1
  Mn  Mn98  1  0.33411113  0.25363284  0.83685802  1
  Mn  Mn99  1  0.33690590  0.74688579  0.16790010  1
  Mn  Mn100  1  0.33284520  0.75090823  0.50053182  1
  Mn  Mn101  1  0.33094113  0.74743172  0.83217373  1
  Mn  Mn102  1  0.66753664  0.25144989  0.16788248  1
  Mn  Mn103  1  0.66707971  0.24737524  0.49779937  1
  Mn  Mn104  1  0.66542036  0.25171877  0.83051484  1
  Mn  Mn105  1  0.66572922  0.74825893  0.16696374  1
  Mn  Mn106  1  0.66601010  0.75310740  0.49880506  1
  Mn  Mn107  1  0.66894964  0.74822057  0.83275000  1
  Mn  Mn108  1  0.16660947  0.25370898  0.00071342  1
  Mn  Mn109  1  0.16794932  0.25029487  0.33414734  1
  Mn  Mn110  1  0.16405195  0.25265323  0.66631453  1
  Mn  Mn111  1  0.16683387  0.74716912  0.00054003  1
  Mn  Mn112  1  0.16788408  0.74995238  0.33558577  1
  Mn  Mn113  1  0.16663588  0.74970223  0.66610762  1
  Mn  Mn114  1  0.49913187  0.25277044  -0.00233524  1
  Mn  Mn115  1  0.50088361  0.24912338  0.33054561  1
  Mn  Mn116  1  0.49953739  0.25160951  0.66340109  1
  Mn  Mn117  1  0.50159140  0.74786637  0.00059068  1
  Mn  Mn118  1  0.50043268  0.74962900  0.33054981  1
  Mn  Mn119  1  0.50004992  0.75033093  0.66280952  1
  Mn  Mn120  1  0.83542009  0.25377564  0.00190713  1
  Mn  Mn121  1  0.83193356  0.24982619  0.33537542  1
  Mn  Mn122  1  0.83367692  0.25067463  0.66635576  1
  Mn  Mn123  1  0.83486506  0.74634199  0.00213353  1
  Mn  Mn124  1  0.83223178  0.75121945  0.33567172  1
  Mn  Mn125  1  0.83514842  0.74953451  0.66865616  1
  Mn  Mn126  1  0.16660276  0.00040397  -0.00077099  1
  Mn  Mn127  1  0.16737034  -0.00221782  0.33558548  1
  Mn  Mn128  1  0.16326143  -0.00054223  0.66494727  1
  Mn  Mn129  1  0.16562443  0.49894923  0.00025867  1
  Mn  Mn130  1  0.16794262  0.50236447  0.33374341  1
  Mn  Mn131  1  0.16821130  0.49939339  0.66812007  1
  Mn  Mn132  1  0.50036289  0.00105725  -0.00004911  1
  Mn  Mn133  1  0.49923810  0.00007717  0.32975826  1
  Mn  Mn134  1  0.49960336  0.00092781  0.66355237  1
  Mn  Mn135  1  0.50035611  0.49764712  -0.00025300  1
  Mn  Mn136  1  0.50290331  0.50086100  0.33307325  1
  Mn  Mn137  1  0.49882058  0.49668481  0.66307037  1
  Mn  Mn138  1  0.83422219  -0.00036262  0.00103521  1
  Mn  Mn139  1  0.83205929  -0.00058564  0.33625971  1
  Mn  Mn140  1  0.83315803  0.00186577  0.66640997  1
  Mn  Mn141  1  0.83626666  0.50063176  0.00203913  1
  Mn  Mn142  1  0.83228462  0.50044075  0.33344179  1
  Mn  Mn143  1  0.83647669  0.49811226  0.66810236  1
  O  O144  1  0.16959506  0.13272486  0.01005036  1
  O  O145  1  0.17366719  0.12006696  0.35910671  1
  O  O146  1  0.15647287  0.12733156  0.67711482  1
  O  O147  1  0.16432150  0.61879384  0.02584758  1
  O  O148  1  0.17331805  0.62636428  0.35925905  1
  O  O149  1  0.16351604  0.62244871  0.69220589  1
  O  O150  1  0.49458277  0.13054444  0.01964762  1
  O  O151  1  0.49679472  0.12547520  0.35590771  1
  O  O152  1  0.50642465  0.13057882  0.69048759  1
  O  O153  1  0.50715230  0.61907901  0.02078273  1
  O  O154  1  0.50435209  0.62455422  0.36159398  1
  O  O155  1  0.49644317  0.62128815  0.67458099  1
  O  O156  1  0.83949253  0.13280206  0.02583598  1
  O  O157  1  0.83157454  0.12268348  0.36040171  1
  O  O158  1  0.83776637  0.12680783  0.67831782  1
  O  O159  1  0.82925500  0.62122176  0.03078811  1
  O  O160  1  0.82505688  0.62531179  0.34669149  1
  O  O161  1  0.84110971  0.62279335  0.68813051  1
  O  O162  1  0.16292536  0.38085429  0.31217005  1
  O  O163  1  0.17318770  0.37797276  0.64160573  1
  O  O164  1  0.16427345  0.37899369  0.97271759  1
  O  O165  1  0.17011395  0.87202484  0.31931015  1
  O  O166  1  0.16704504  0.87278183  0.64238563  1
  O  O167  1  0.16718771  0.86780793  0.98644266  1
  O  O168  1  0.50495886  0.37579213  0.30791152  1
  O  O169  1  0.48918553  0.37362238  0.63710331  1
  O  O170  1  0.49244166  0.37571836  0.97311932  1
  O  O171  1  0.49199279  0.87346052  0.30337627  1
  O  O172  1  0.48768542  0.87389157  0.65472923  1
  O  O173  1  0.50084043  0.87413036  0.99469986  1
  O  O174  1  0.82961934  0.37716578  0.31219135  1
  O  O175  1  0.83075569  0.37306854  0.64954153  1
  O  O176  1  0.83977239  0.38003805  0.97327347  1
  O  O177  1  0.83197682  0.87483056  0.30988399  1
  O  O178  1  0.83562561  0.87782370  0.65301099  1
  O  O179  1  0.83630206  0.86633648  0.97649084  1
  O  O180  1  -0.00089792  0.37834951  0.19466575  1
  O  O181  1  0.00784040  0.37530033  0.51704660  1
  O  O182  1  0.00085834  0.38035394  0.85736019  1
  O  O183  1  -0.00703027  0.87131479  0.18734465  1
  O  O184  1  0.00831870  0.87515473  0.52877563  1
  O  O185  1  -0.00476520  0.87172543  0.84279695  1
  O  O186  1  0.33771758  0.37646184  0.18289062  1
  O  O187  1  0.33367371  0.37768453  0.52534088  1
  O  O188  1  0.33363082  0.37747987  0.86082265  1
  O  O189  1  0.34463356  0.87004650  0.18879632  1
  O  O190  1  0.32673219  0.87389349  0.52974901  1
  O  O191  1  0.33128829  0.87331023  0.83839808  1
  O  O192  1  0.66014394  0.37658344  0.19428928  1
  O  O193  1  0.65653584  0.36917966  0.52135784  1
  O  O194  1  0.66779794  0.37676949  0.85315059  1
  O  O195  1  0.65535478  0.87405334  0.18959544  1
  O  O196  1  0.66509544  0.88156021  0.52562463  1
  O  O197  1  0.67310814  0.87253679  0.84094491  1
  O  O198  1  -0.00881472  0.13261779  0.14602609  1
  O  O199  1  -0.00066534  0.12460095  0.48729687  1
  O  O200  1  0.00076998  0.12640721  0.80758542  1
  O  O201  1  -0.00747093  0.62037205  0.14497830  1
  O  O202  1  0.00593398  0.62596751  0.49137265  1
  O  O203  1  0.00023772  0.62295964  0.80409448  1
  O  O204  1  0.33900938  0.13392534  0.14001506  1
  O  O205  1  0.33089568  0.12275455  0.47681323  1
  O  O206  1  0.33720554  0.12891256  0.82638410  1
  O  O207  1  0.33429232  0.61935041  0.14381915  1
  O  O208  1  0.33238211  0.62433431  0.47649199  1
  O  O209  1  0.32376476  0.62019082  0.80937418  1
  O  O210  1  0.67682813  0.12920030  0.15422026  1
  O  O211  1  0.67802000  0.12527419  0.47786153  1
  O  O212  1  0.66027105  0.12812308  0.80950760  1
  O  O213  1  0.66999266  0.61951158  0.13732640  1
  O  O214  1  0.65892788  0.62239669  0.47846638  1
  O  O215  1  0.67478190  0.62186675  0.82071380  1
  O  O216  1  0.07898366  0.00286625  0.25547921  1
  O  O217  1  0.07856617  0.02087637  0.58344558  1
  O  O218  1  0.08177110  0.01226491  0.91623586  1
  O  O219  1  0.09038834  0.51731271  0.23865455  1
  O  O220  1  0.09079062  0.51908193  0.58298622  1
  O  O221  1  0.08339377  0.52507822  0.91610976  1
  O  O222  1  0.41446865  0.02684321  0.24998126  1
  O  O223  1  0.41689780  0.01788071  0.57692980  1
  O  O224  1  0.41511645  0.01785931  0.92073095  1
  O  O225  1  0.42005367  0.52376303  0.25551335  1
  O  O226  1  0.41113285  0.52159785  0.58700629  1
  O  O227  1  0.40986042  0.51696246  0.92364825  1
  O  O228  1  0.74434143  0.01177464  0.25678284  1
  O  O229  1  0.74743762  0.02114941  0.58728262  1
  O  O230  1  0.75306331  0.00569518  0.91655939  1
  O  O231  1  0.74505743  0.51954454  0.25033573  1
  O  O232  1  0.74604410  0.50147894  0.58206435  1
  O  O233  1  0.75546618  0.51882147  0.92136530  1
  O  O234  1  0.25424618  0.23504494  0.25642169  1
  O  O235  1  0.24092996  0.23817047  0.57878927  1
  O  O236  1  0.25732028  0.24418157  0.92639096  1
  O  O237  1  0.25669903  0.72904185  0.25489633  1
  O  O238  1  0.25241576  0.72431535  0.58691920  1
  O  O239  1  0.24768841  0.72461968  0.91728806  1
  O  O240  1  0.57433658  0.23336199  0.23795417  1
  O  O241  1  0.57846141  0.22642424  0.57182529  1
  O  O242  1  0.57329068  0.24075727  0.90374689  1
  O  O243  1  0.58105308  0.72153026  0.24604588  1
  O  O244  1  0.57719727  0.73670833  0.57279312  1
  O  O245  1  0.58881343  0.73417460  0.92036948  1
  O  O246  1  0.90449457  0.23871975  0.24188592  1
  O  O247  1  0.91269079  0.23220494  0.57937829  1
  O  O248  1  0.92212950  0.23912826  0.92347236  1
  O  O249  1  0.91017639  0.73792327  0.24763706  1
  O  O250  1  0.92847932  0.74011317  0.59595482  1
  O  O251  1  0.91911381  0.71939094  0.92039297  1
  O  O252  1  0.08085238  0.47563301  0.07907286  1
  O  O253  1  0.08331122  0.48130367  0.41494490  1
  O  O254  1  0.08735424  0.48084056  0.75206751  1
  O  O255  1  0.07965231  1.00030902  0.08117477  1
  O  O256  1  0.08588266  0.97790737  0.42065224  1
  O  O257  1  0.07870898  0.98085134  0.74356326  1
  O  O258  1  0.42055206  0.47979584  0.08557722  1
  O  O259  1  0.42595178  0.48696885  0.42671397  1
  O  O260  1  0.41711656  0.47740534  0.74910821  1
  O  O261  1  0.42484949  0.99034587  0.09115164  1
  O  O262  1  0.40985655  0.98587914  0.40797944  1
  O  O263  1  0.41469447  0.99293013  0.74884773  1
  O  O264  1  0.75141392  0.47225622  0.08559935  1
  O  O265  1  0.74757649  0.48056117  0.41400183  1
  O  O266  1  0.75263955  0.47825097  0.75108049  1
  O  O267  1  0.75634336  0.98534414  0.09578796  1
  O  O268  1  0.75347621  0.97825066  0.42093892  1
  O  O269  1  0.75221018  0.98294608  0.74857568  1
  O  O270  1  0.24754146  0.27759707  0.08712739  1
  O  O271  1  0.24691474  0.26614571  0.42303571  1
  O  O272  1  0.25225750  0.27335143  0.75232119  1
  O  O273  1  0.25235099  0.74940980  0.08710976  1
  O  O274  1  0.24829869  0.77058159  0.42362777  1
  O  O275  1  0.24496546  0.76503557  0.74759702  1
  O  O276  1  0.58537004  0.27434205  0.07491219  1
  O  O277  1  0.58837304  0.26790557  0.40886674  1
  O  O278  1  0.58603925  0.27674919  0.73713327  1
  O  O279  1  0.58200964  0.75802570  0.08849510  1
  O  O280  1  0.58867058  0.76823777  0.40203579  1
  O  O281  1  0.58773894  0.76257240  0.73862504  1
  O  O282  1  0.91871082  0.27953397  0.08319847  1
  O  O283  1  0.92169869  0.27057957  0.41124576  1
  O  O284  1  0.91637502  0.27000610  0.75280569  1
  O  O285  1  0.91357559  0.76097313  0.08794962  1
  O  O286  1  0.92092764  0.76954169  0.41840683  1
  O  O287  1  0.91059394  0.76683123  0.75797345  1
  O  O288  1  0.24648329  0.47733325  0.08231233  1
  O  O289  1  0.24475808  0.48540532  0.42917792  1
  O  O290  1  0.24979079  0.47415784  0.75136338  1
  O  O291  1  0.25471223  0.99712639  0.08302552  1
  O  O292  1  0.25124038  0.97359085  0.41751615  1
  O  O293  1  0.24864724  0.98458497  0.74330579  1
  O  O294  1  0.58398383  0.47399887  0.08434963  1
  O  O295  1  0.58821587  0.47543695  0.40959237  1
  O  O296  1  0.58333295  0.47581277  0.74115188  1
  O  O297  1  0.58335295  0.99398747  0.08496544  1
  O  O298  1  0.58795168  0.98516481  0.40406995  1
  O  O299  1  0.59218339  0.98641972  0.73424168  1
  O  O300  1  0.91832842  0.47465749  0.08190136  1
  O  O301  1  0.91899935  0.48300525  0.41297708  1
  O  O302  1  0.91236193  0.48192648  0.76040527  1
  O  O303  1  0.91275184  0.98728757  0.08665551  1
  O  O304  1  0.92271873  0.97642050  0.41289809  1
  O  O305  1  0.91591142  0.98244313  0.74978664  1
  O  O306  1  0.08312120  0.27536144  0.08476504  1
  O  O307  1  0.08618395  0.26807960  0.41937666  1
  O  O308  1  0.08657436  0.27397424  0.75233736  1
  O  O309  1  0.08124310  0.74804242  0.08139516  1
  O  O310  1  0.08168262  0.77309018  0.41628652  1
  O  O311  1  0.07576273  0.76362677  0.73906940  1
  O  O312  1  0.42001220  0.27458222  0.08409237  1
  O  O313  1  0.42452303  0.26239948  0.42252230  1
  O  O314  1  0.41816544  0.27336385  0.75422614  1
  O  O315  1  0.42382981  0.75477970  0.09125348  1
  O  O316  1  0.40855740  0.76374956  0.40713651  1
  O  O317  1  0.40853442  0.75459710  0.74034552  1
  O  O318  1  0.75443903  0.27658428  0.08898611  1
  O  O319  1  0.75364360  0.27080719  0.42208034  1
  O  O320  1  0.75072788  0.27063708  0.75017900  1
  O  O321  1  0.75562372  0.76548234  0.09432186  1
  O  O322  1  0.74894309  0.76916278  0.41659345  1
  O  O323  1  0.75453812  0.76722874  0.75243278  1
  O  O324  1  0.25678254  0.01169919  0.25838296  1
  O  O325  1  0.23821756  0.01510325  0.57355865  1
  O  O326  1  0.25322740  0.01059261  0.91874117  1
  O  O327  1  0.25262041  0.52390899  0.25304884  1
  O  O328  1  0.25263923  0.52397093  0.58980540  1
  O  O329  1  0.24580848  0.52170597  0.91802040  1
  O  O330  1  0.57439638  0.01899585  0.24130991  1
  O  O331  1  0.57914513  0.02724073  0.57386979  1
  O  O332  1  0.57637249  0.01490552  0.90714242  1
  O  O333  1  0.58351420  0.52607175  0.24646960  1
  O  O334  1  0.57263076  0.50710902  0.57045046  1
  O  O335  1  0.58924213  0.50869522  0.92170584  1
  O  O336  1  0.90608376  0.01349490  0.24473897  1
  O  O337  1  0.91372036  0.01854302  0.58136474  1
  O  O338  1  0.92206175  0.01639891  0.92012311  1
  O  O339  1  0.90788491  0.51216203  0.24332344  1
  O  O340  1  0.92522907  0.51130780  0.59238715  1
  O  O341  1  0.91905227  0.52759242  0.92128985  1
  O  O342  1  0.08123955  0.24766823  0.25121097  1
  O  O343  1  0.07700544  0.23396535  0.58381357  1
  O  O344  1  0.07995524  0.24153247  0.92195132  1
  O  O345  1  0.08799065  0.73290651  0.24510392  1
  O  O346  1  0.09227731  0.72815541  0.57872375  1
  O  O347  1  0.08417573  0.72551335  0.91139145  1
  O  O348  1  0.41554394  0.22829825  0.25065513  1
  O  O349  1  0.41593844  0.23233260  0.58163271  1
  O  O350  1  0.41527384  0.23197498  0.92012191  1
  O  O351  1  0.41890432  0.71945953  0.25029276  1
  O  O352  1  0.41623483  0.72811472  0.57785725  1
  O  O353  1  0.41329054  0.73177130  0.92262956  1
  O  O354  1  0.74626949  0.23783981  0.25811518  1
  O  O355  1  0.74336280  0.23290295  0.58709714  1
  O  O356  1  0.75070273  0.24966612  0.92199062  1
  O  O357  1  0.74146701  0.73261146  0.25368870  1
  O  O358  1  0.75167654  0.74641390  0.58832591  1
  O  O359  1  0.75483836  0.72490429  0.92017714  1
