# generated using pymatgen
data_Ba17Sr5La8Pr42Mn72O216
_symmetry_space_group_name_H-M   'P 1'
_cell_length_a   16.68169514
_cell_length_b   15.70358619
_cell_length_c   16.82758996
_cell_angle_alpha   89.99247207
_cell_angle_beta   89.99552703
_cell_angle_gamma   89.94349344
_symmetry_Int_Tables_number   1
_chemical_formula_structural   Ba17Sr5La8Pr42Mn72O216
_chemical_formula_sum   'Ba17 Sr5 La8 Pr42 Mn72 O216'
_cell_volume   4408.19428739
_cell_formula_units_Z   1
loop_
 _symmetry_equiv_pos_site_id
 _symmetry_equiv_pos_as_xyz
  1  'x, y, z'
loop_
 _atom_site_type_symbol
 _atom_site_label
 _atom_site_symmetry_multiplicity
 _atom_site_fract_x
 _atom_site_fract_y
 _atom_site_fract_z
 _atom_site_occupancy
  Ba  Ba0  1  0.50307068  0.37253484  0.82974072  1
  Ba  Ba1  1  0.83380785  0.12449461  0.50365649  1
  Ba  Ba2  1  0.66879790  0.37429169  -0.00051720  1
  Ba  Ba3  1  0.50044793  0.12792656  0.16807367  1
  Ba  Ba4  1  0.50234230  0.37482934  0.16430236  1
  Ba  Ba5  1  0.33485647  0.12469132  0.33163944  1
  Ba  Ba6  1  0.83551028  0.37450359  0.49991229  1
  Ba  Ba7  1  0.49967528  0.62282910  0.16537632  1
  Ba  Ba8  1  -0.00266529  0.87706643  0.00266678  1
  Ba  Ba9  1  0.33216859  0.87488479  0.33246128  1
  Ba  Ba10  1  0.16547250  0.37372264  0.83021515  1
  Ba  Ba11  1  0.33277256  0.87566922  -0.00094633  1
  Ba  Ba12  1  0.83239132  0.62689196  0.83637450  1
  Ba  Ba13  1  0.33204270  0.62601705  0.66624869  1
  Ba  Ba14  1  0.66716901  0.87175915  0.33438343  1
  Ba  Ba15  1  0.49875490  0.87786484  0.83200432  1
  Ba  Ba16  1  0.16389757  0.62329660  0.16572487  1
  Sr  Sr17  1  0.66590686  0.62367850  0.33328713  1
  Sr  Sr18  1  0.33036304  0.87499862  0.67127625  1
  Sr  Sr19  1  0.16701899  0.37337462  0.16105835  1
  Sr  Sr20  1  0.50110646  0.37783715  0.49798281  1
  Sr  Sr21  1  0.49911762  0.12401662  0.83418487  1
  La  La22  1  0.00149486  0.87341776  0.33384033  1
  La  La23  1  0.66793945  0.12956822  0.33340371  1
  La  La24  1  0.00107023  0.62460757  0.99751399  1
  La  La25  1  0.17148554  0.37499542  0.49750007  1
  La  La26  1  0.16802602  0.87374054  0.50104433  1
  La  La27  1  0.83457388  0.37755887  0.83151438  1
  La  La28  1  0.66042955  0.62354624  0.99836985  1
  La  La29  1  -0.00104508  0.37287285  0.66730651  1
  Pr  Pr30  1  0.16825588  0.87653470  0.16241727  1
  Pr  Pr31  1  0.49859673  0.87991952  0.16375865  1
  Pr  Pr32  1  0.33771907  0.12764416  0.99904726  1
  Pr  Pr33  1  -0.00351344  0.62028773  0.33153383  1
  Pr  Pr34  1  0.00030929  0.13013733  0.33255368  1
  Pr  Pr35  1  0.33993215  0.37595888  0.33013523  1
  Pr  Pr36  1  0.00677436  0.12605614  0.66261918  1
  Pr  Pr37  1  0.49610614  0.87173112  0.49788444  1
  Pr  Pr38  1  0.66568759  0.87272749  0.00586953  1
  Pr  Pr39  1  0.66910423  0.87688671  0.66937061  1
  Pr  Pr40  1  0.16748368  0.12127827  0.16897155  1
  Pr  Pr41  1  0.83226024  0.62645113  0.16808125  1
  Pr  Pr42  1  0.83515770  0.37438645  0.16694462  1
  Pr  Pr43  1  0.83292686  0.12556258  0.83641301  1
  Pr  Pr44  1  0.83452294  0.12233057  0.17248316  1
  Pr  Pr45  1  0.82663930  0.62705124  0.50696410  1
  Pr  Pr46  1  0.17114053  0.12386872  0.83411475  1
  Pr  Pr47  1  0.16807287  0.62729883  0.83790327  1
  Pr  Pr48  1  -0.00404285  0.87847668  0.67143945  1
  Pr  Pr49  1  0.83513326  0.87439315  0.49825058  1
  Pr  Pr50  1  0.33886797  0.37397903  0.67016237  1
  Pr  Pr51  1  0.49641502  0.62838793  0.49802391  1
  Pr  Pr52  1  0.33346785  0.62250951  0.32978384  1
  Pr  Pr53  1  0.17359980  0.12263143  0.50046593  1
  Pr  Pr54  1  0.00047672  0.62291215  0.66506933  1
  Pr  Pr55  1  0.00183776  0.12668948  0.99826572  1
  Pr  Pr56  1  0.33636623  0.37296562  0.00092739  1
  Pr  Pr57  1  0.66342548  0.37916368  0.33485792  1
  Pr  Pr58  1  0.34135768  0.12628376  0.66400248  1
  Pr  Pr59  1  0.65959150  0.12571174  0.66432229  1
  Pr  Pr60  1  0.65903088  0.62399684  0.66711490  1
  Pr  Pr61  1  0.33201370  0.61946624  0.99443216  1
  Pr  Pr62  1  0.16334190  0.87483791  0.83056613  1
  Pr  Pr63  1  0.16584016  0.62825825  0.50045019  1
  Pr  Pr64  1  0.67599723  0.37347301  0.67158324  1
  Pr  Pr65  1  0.66247713  0.12651882  0.99965606  1
  Pr  Pr66  1  0.50090333  0.12117228  0.49822963  1
  Pr  Pr67  1  0.49323557  0.62669461  0.83720385  1
  Pr  Pr68  1  0.00591265  0.37647911  0.33410087  1
  Pr  Pr69  1  0.83083718  0.87352534  0.83581830  1
  Pr  Pr70  1  0.82956728  0.87575774  0.16762074  1
  Pr  Pr71  1  -0.00044168  0.37641459  0.00107466  1
  Mn  Mn72  1  -0.00094938  0.00187972  0.16928164  1
  Mn  Mn73  1  0.00268053  -0.00115176  0.50107902  1
  Mn  Mn74  1  -0.00166759  0.00200299  0.83290511  1
  Mn  Mn75  1  -0.00203822  0.49847161  0.16596405  1
  Mn  Mn76  1  0.00213713  0.50092706  0.49864161  1
  Mn  Mn77  1  0.00068465  0.50028737  0.83217316  1
  Mn  Mn78  1  0.33256034  -0.00068167  0.16547340  1
  Mn  Mn79  1  0.33413931  -0.00038153  0.50255384  1
  Mn  Mn80  1  0.33114650  0.00158959  0.83192570  1
  Mn  Mn81  1  0.33075737  0.49974267  0.16432985  1
  Mn  Mn82  1  0.33309677  0.49878046  0.49839288  1
  Mn  Mn83  1  0.33232414  0.49810824  0.83016440  1
  Mn  Mn84  1  0.66735400  0.00020383  0.16768321  1
  Mn  Mn85  1  0.66617963  -0.00127441  0.50165951  1
  Mn  Mn86  1  0.66828730  0.00064124  0.83461217  1
  Mn  Mn87  1  0.67057535  0.50132335  0.16813317  1
  Mn  Mn88  1  0.66562516  0.50129957  0.50071080  1
  Mn  Mn89  1  0.66655386  0.50130953  0.83146052  1
  Mn  Mn90  1  -0.00012629  0.24980684  0.16505444  1
  Mn  Mn91  1  0.00423813  0.24971612  0.49873967  1
  Mn  Mn92  1  -0.00102176  0.24770571  0.83261434  1
  Mn  Mn93  1  -0.00180186  0.74928374  0.16906983  1
  Mn  Mn94  1  0.00041798  0.75005554  0.50068117  1
  Mn  Mn95  1  -0.00011544  0.75230614  0.83276076  1
  Mn  Mn96  1  0.33044377  0.25136054  0.16516650  1
  Mn  Mn97  1  0.33538582  0.25117236  0.49933990  1
  Mn  Mn98  1  0.33308604  0.24861193  0.83115282  1
  Mn  Mn99  1  0.33235505  0.74864937  0.16605838  1
  Mn  Mn100  1  0.33199331  0.75031496  0.49987330  1
  Mn  Mn101  1  0.33078631  0.75131199  0.83283251  1
  Mn  Mn102  1  0.67114417  0.24960376  0.16728931  1
  Mn  Mn103  1  0.66539525  0.25193999  0.50029726  1
  Mn  Mn104  1  0.66914176  0.24702359  0.83242218  1
  Mn  Mn105  1  0.66649808  0.74838082  0.16781015  1
  Mn  Mn106  1  0.66588887  0.74842713  0.50258417  1
  Mn  Mn107  1  0.66490606  0.75119549  0.83428590  1
  Mn  Mn108  1  0.16555926  0.24933913  -0.00044071  1
  Mn  Mn109  1  0.16737313  0.25188432  0.33114234  1
  Mn  Mn110  1  0.16780791  0.24925750  0.66374629  1
  Mn  Mn111  1  0.16560447  0.75062337  0.00058609  1
  Mn  Mn112  1  0.16498691  0.74905050  0.33371817  1
  Mn  Mn113  1  0.16355957  0.74999760  0.66722214  1
  Mn  Mn114  1  0.50039466  0.24878555  -0.00231911  1
  Mn  Mn115  1  0.50167854  0.25272319  0.33538967  1
  Mn  Mn116  1  0.50200531  0.25018612  0.66234433  1
  Mn  Mn117  1  0.49896201  0.75026581  0.00014223  1
  Mn  Mn118  1  0.49941685  0.74878760  0.33175499  1
  Mn  Mn119  1  0.50045269  0.74997282  0.66640512  1
  Mn  Mn120  1  0.83502551  0.24776249  0.00206180  1
  Mn  Mn121  1  0.83438043  0.25067332  0.33298269  1
  Mn  Mn122  1  0.83492753  0.24810456  0.67015471  1
  Mn  Mn123  1  0.83228557  0.75111416  0.00354944  1
  Mn  Mn124  1  0.83539059  0.74822373  0.33623470  1
  Mn  Mn125  1  0.83318697  0.75056127  0.66794810  1
  Mn  Mn126  1  0.16576436  0.00290081  -0.00002780  1
  Mn  Mn127  1  0.16426299  -0.00044647  0.33378746  1
  Mn  Mn128  1  0.16687716  0.00112232  0.66686890  1
  Mn  Mn129  1  0.16541269  0.49782501  -0.00186119  1
  Mn  Mn130  1  0.16759504  0.49790048  0.33278318  1
  Mn  Mn131  1  0.16517267  0.50050944  0.66353415  1
  Mn  Mn132  1  0.50063490  0.00129850  -0.00095633  1
  Mn  Mn133  1  0.50232578  -0.00197187  0.33402196  1
  Mn  Mn134  1  0.50040344  0.00001243  0.66538194  1
  Mn  Mn135  1  0.49884874  0.49941965  -0.00227658  1
  Mn  Mn136  1  0.50059432  0.50014688  0.33413602  1
  Mn  Mn137  1  0.50097858  0.50029176  0.66293167  1
  Mn  Mn138  1  0.83183887  0.00256469  0.00313675  1
  Mn  Mn139  1  0.83548828  -0.00095313  0.33600113  1
  Mn  Mn140  1  0.83341853  -0.00036433  0.66996968  1
  Mn  Mn141  1  0.83423554  0.49980252  0.00206226  1
  Mn  Mn142  1  0.83332754  0.50068157  0.33420948  1
  Mn  Mn143  1  0.83406703  0.50251572  0.66749431  1
  O  O144  1  0.15910070  0.12668890  0.02554724  1
  O  O145  1  0.15945083  0.12837553  0.35767738  1
  O  O146  1  0.16249329  0.12540626  0.68995533  1
  O  O147  1  0.16414925  0.62263719  0.00857327  1
  O  O148  1  0.16421607  0.62284103  0.35806703  1
  O  O149  1  0.15827833  0.62777800  0.69274218  1
  O  O150  1  0.49956932  0.12489041  0.00918033  1
  O  O151  1  0.50759367  0.12860553  0.35415053  1
  O  O152  1  0.50251024  0.12476886  0.68434506  1
  O  O153  1  0.49438937  0.62487738  0.00645241  1
  O  O154  1  0.49266779  0.62370712  0.35396066  1
  O  O155  1  0.50707077  0.62515877  0.69247074  1
  O  O156  1  0.83792727  0.12511983  0.03021955  1
  O  O157  1  0.83280143  0.12539137  0.34760842  1
  O  O158  1  0.83769443  0.12107835  0.69170205  1
  O  O159  1  0.83950775  0.62402834  0.02352081  1
  O  O160  1  0.84214944  0.62594325  0.36382340  1
  O  O161  1  0.84176309  0.62694309  0.68068238  1
  O  O162  1  0.16191240  0.37480844  0.30996996  1
  O  O163  1  0.16150191  0.37203578  0.64115520  1
  O  O164  1  0.15846279  0.37245231  0.98415588  1
  O  O165  1  0.15820344  0.87228997  0.30673950  1
  O  O166  1  0.16168932  0.87612114  0.64484627  1
  O  O167  1  0.16495243  0.88021994  0.97524476  1
  O  O168  1  0.50218539  0.37678982  0.32229262  1
  O  O169  1  0.49378051  0.37415691  0.64634187  1
  O  O170  1  0.49323970  0.37333540  0.98802326  1
  O  O171  1  0.50192714  0.87033416  0.31016992  1
  O  O172  1  0.50773320  0.87582559  0.64156249  1
  O  O173  1  0.51074571  0.87598825  0.99056138  1
  O  O174  1  0.83481894  0.37476796  0.31070264  1
  O  O175  1  0.82980017  0.37669077  0.65718937  1
  O  O176  1  0.83921979  0.37088275  0.97406891  1
  O  O177  1  0.84247035  0.87205734  0.31137458  1
  O  O178  1  0.83340945  0.87486621  0.64131411  1
  O  O179  1  0.82653809  0.88010609  0.97826919  1
  O  O180  1  -0.00478352  0.37344820  0.19161449  1
  O  O181  1  0.00803675  0.37445054  0.52430856  1
  O  O182  1  -0.00446782  0.36913484  0.85715459  1
  O  O183  1  -0.00014408  0.87893742  0.19106184  1
  O  O184  1  0.00190860  0.87204564  0.52899946  1
  O  O185  1  0.00548365  0.87785597  0.84731255  1
  O  O186  1  0.32692565  0.37545238  0.18421868  1
  O  O187  1  0.32924408  0.37483206  0.52804136  1
  O  O188  1  0.33310432  0.37220945  0.85377501  1
  O  O189  1  0.32816890  0.87373703  0.17550418  1
  O  O190  1  0.33511785  0.87753693  0.52054560  1
  O  O191  1  0.32308824  0.87762638  0.84229712  1
  O  O192  1  0.67823503  0.37567949  0.18911044  1
  O  O193  1  0.66273998  0.37965020  0.52810569  1
  O  O194  1  0.67526979  0.37448005  0.84116041  1
  O  O195  1  0.65850235  0.87370378  0.17641735  1
  O  O196  1  0.66557935  0.87231031  0.52616139  1
  O  O197  1  0.67208528  0.87729608  0.86078411  1
  O  O198  1  -0.00381655  0.12647331  0.14100904  1
  O  O199  1  0.00663953  0.12453650  0.47639962  1
  O  O200  1  -0.00857407  0.12463444  0.80521419  1
  O  O201  1  -0.00859616  0.62015492  0.14079111  1
  O  O202  1  0.00508935  0.62813805  0.47336041  1
  O  O203  1  0.00475600  0.63066099  0.80933553  1
  O  O204  1  0.32425817  0.12600467  0.14620459  1
  O  O205  1  0.33082095  0.12561698  0.48692986  1
  O  O206  1  0.32439776  0.12550373  0.80779506  1
  O  O207  1  0.33144926  0.62464713  0.14063680  1
  O  O208  1  0.33031014  0.62230051  0.47502440  1
  O  O209  1  0.33074651  0.62433832  0.82309011  1
  O  O210  1  0.67982146  0.12286354  0.14613189  1
  O  O211  1  0.66165055  0.12328299  0.47680416  1
  O  O212  1  0.67611226  0.12163518  0.80707980  1
  O  O213  1  0.67962393  0.62648100  0.14399710  1
  O  O214  1  0.67610581  0.62569748  0.48190009  1
  O  O215  1  0.66098114  0.62720259  0.81175171  1
  O  O216  1  0.08109032  0.02566056  0.24927501  1
  O  O217  1  0.09232726  0.02135501  0.57693490  1
  O  O218  1  0.08515103  0.02556052  0.91161839  1
  O  O219  1  0.07290104  0.51217183  0.25771264  1
  O  O220  1  0.08130356  0.52576919  0.58225890  1
  O  O221  1  0.08404947  0.51964083  0.91116871  1
  O  O222  1  0.42158784  0.00208783  0.24498619  1
  O  O223  1  0.42083885  0.02097990  0.58046670  1
  O  O224  1  0.41293632  0.01681459  0.91396852  1
  O  O225  1  0.41078251  0.50972757  0.25498570  1
  O  O226  1  0.41974114  0.51808207  0.57665399  1
  O  O227  1  0.41337234  0.51638881  0.91378393  1
  O  O228  1  0.75792448  0.00934433  0.24395852  1
  O  O229  1  0.74337611  0.01339086  0.59379821  1
  O  O230  1  0.75339963  0.02673909  0.91860041  1
  O  O231  1  0.75345164  0.52155881  0.25252425  1
  O  O232  1  0.74766080  0.52104062  0.58796224  1
  O  O233  1  0.74682775  0.51587108  0.92656394  1
  O  O234  1  0.24116632  0.23424440  0.24216046  1
  O  O235  1  0.25032571  0.22952295  0.58170967  1
  O  O236  1  0.24750644  0.22660631  0.91652860  1
  O  O237  1  0.24944392  0.73175341  0.25720400  1
  O  O238  1  0.24115297  0.73760093  0.58009502  1
  O  O239  1  0.24841491  0.73113262  0.91800764  1
  O  O240  1  0.59315572  0.24096912  0.25620985  1
  O  O241  1  0.57905772  0.22651932  0.57654210  1
  O  O242  1  0.58745350  0.23142374  0.91166140  1
  O  O243  1  0.58532844  0.73457472  0.24941030  1
  O  O244  1  0.58201153  0.72448485  0.58239898  1
  O  O245  1  0.57667760  0.73041636  0.90979949  1
  O  O246  1  0.91574918  0.22946012  0.24509173  1
  O  O247  1  0.92385281  0.23765485  0.59343643  1
  O  O248  1  0.91643957  0.22342203  0.91889814  1
  O  O249  1  0.91698936  0.72536283  0.25402968  1
  O  O250  1  0.91512795  0.73005365  0.57776402  1
  O  O251  1  0.91924557  0.74002915  0.92094238  1
  O  O252  1  0.07713238  0.48494151  0.07790193  1
  O  O253  1  0.08938320  0.47882631  0.42010482  1
  O  O254  1  0.07651045  0.48526633  0.74005980  1
  O  O255  1  0.08415565  0.98770475  0.08877340  1
  O  O256  1  0.08024284  0.97594974  0.41465641  1
  O  O257  1  0.07575769  0.98620605  0.73991091  1
  O  O258  1  0.40959832  0.48726382  0.07465229  1
  O  O259  1  0.41249130  0.48234363  0.41487840  1
  O  O260  1  0.41570731  0.48617633  0.74488314  1
  O  O261  1  0.41752779  0.99094944  0.08343870  1
  O  O262  1  0.42036647  0.98789194  0.42229068  1
  O  O263  1  0.40932426  0.99355769  0.74124551  1
  O  O264  1  0.76133271  0.48532232  0.09289872  1
  O  O265  1  0.74812179  0.48407349  0.41455702  1
  O  O266  1  0.75322180  0.48758496  0.75218107  1
  O  O267  1  0.74527176  0.97826102  0.08054938  1
  O  O268  1  0.75364010  0.98199873  0.42543909  1
  O  O269  1  0.75230762  0.97395305  0.75524741  1
  O  O270  1  0.25162459  0.26666292  0.07505106  1
  O  O271  1  0.25338260  0.27223003  0.41426595  1
  O  O272  1  0.25361010  0.26474989  0.74150500  1
  O  O273  1  0.24363335  0.76493202  0.08658437  1
  O  O274  1  0.24241417  0.76328296  0.42166298  1
  O  O275  1  0.23994526  0.76445014  0.75504960  1
  O  O276  1  0.59177403  0.25145246  0.08172726  1
  O  O277  1  0.58820067  0.27105035  0.41499328  1
  O  O278  1  0.59429199  0.26121977  0.73383339  1
  O  O279  1  0.59102636  0.75612971  0.07374782  1
  O  O280  1  0.57838769  0.75969216  0.42473399  1
  O  O281  1  0.59206085  0.76725610  0.74113016  1
  O  O282  1  0.91994843  0.27349960  0.08048899  1
  O  O283  1  0.92539159  0.26295312  0.40708953  1
  O  O284  1  0.91583493  0.27088568  0.75454248  1
  O  O285  1  0.90904931  0.76650536  0.09467650  1
  O  O286  1  0.92126339  0.77419336  0.41792915  1
  O  O287  1  0.91627790  0.77446091  0.74982097  1
  O  O288  1  0.25050518  0.48221585  0.07486710  1
  O  O289  1  0.25375105  0.47506795  0.41307376  1
  O  O290  1  0.25359926  0.48264008  0.74009213  1
  O  O291  1  0.24224539  0.98953408  0.08790608  1
  O  O292  1  0.24125631  0.98822160  0.42924699  1
  O  O293  1  0.23502184  0.98663752  0.76029091  1
  O  O294  1  0.58974539  0.49842343  0.07864333  1
  O  O295  1  0.58567714  0.48811153  0.41621540  1
  O  O296  1  0.59248999  0.48484827  0.73414785  1
  O  O297  1  0.58302575  0.98788189  0.08690754  1
  O  O298  1  0.57818493  0.98173917  0.42649384  1
  O  O299  1  0.59052191  0.98686808  0.74254843  1
  O  O300  1  0.91722245  0.47294642  0.08333563  1
  O  O301  1  0.92800432  0.48383107  0.40722178  1
  O  O302  1  0.91808839  0.48185075  0.75071887  1
  O  O303  1  0.90559686  0.98527860  0.09687560  1
  O  O304  1  0.91731600  0.97760687  0.42385094  1
  O  O305  1  0.91049928  0.97554566  0.75715295  1
  O  O306  1  0.07808930  0.26597497  0.07923001  1
  O  O307  1  0.08709117  0.27304674  0.41352753  1
  O  O308  1  0.07635990  0.26101937  0.73940908  1
  O  O309  1  0.08366380  0.76453031  0.08777963  1
  O  O310  1  0.08478197  0.77241516  0.42201071  1
  O  O311  1  0.08030360  0.77440015  0.74696090  1
  O  O312  1  0.40877996  0.25925020  0.07794785  1
  O  O313  1  0.41615547  0.26860068  0.41796073  1
  O  O314  1  0.41437562  0.25991292  0.74139347  1
  O  O315  1  0.42687158  0.76705707  0.08969319  1
  O  O316  1  0.41985857  0.76257106  0.42057277  1
  O  O317  1  0.41739829  0.75880469  0.74913910  1
  O  O318  1  0.76131727  0.26557340  0.09142681  1
  O  O319  1  0.74578249  0.26528405  0.41295914  1
  O  O320  1  0.75884351  0.26290712  0.75800758  1
  O  O321  1  0.75155378  0.77296344  0.08798998  1
  O  O322  1  0.76030666  0.76402249  0.42879252  1
  O  O323  1  0.75182645  0.77317857  0.75622037  1
  O  O324  1  0.24323427  0.01137013  0.24714446  1
  O  O325  1  0.25540056  0.02025398  0.59319230  1
  O  O326  1  0.25039918  0.02792980  0.92148776  1
  O  O327  1  0.25191456  0.51549685  0.25503919  1
  O  O328  1  0.24024871  0.51574669  0.57187547  1
  O  O329  1  0.24843864  0.51596257  0.91382762  1
  O  O330  1  0.59431862  0.01777171  0.25699814  1
  O  O331  1  0.58321020  0.02272965  0.58220529  1
  O  O332  1  0.58959077  0.01925876  0.91869646  1
  O  O333  1  0.59003299  0.50738912  0.25345344  1
  O  O334  1  0.58036997  0.52816768  0.57796887  1
  O  O335  1  0.57870798  0.51831169  0.90922939  1
  O  O336  1  0.92342406  0.02255424  0.25648624  1
  O  O337  1  0.92798791  0.01247970  0.59464112  1
  O  O338  1  0.91740232  0.02290847  0.92292495  1
  O  O339  1  0.91162579  0.52136154  0.24667013  1
  O  O340  1  0.91717756  0.51919842  0.58021661  1
  O  O341  1  0.92304129  0.51327191  0.92444117  1
  O  O342  1  0.07880159  0.22806413  0.24891104  1
  O  O343  1  0.08988294  0.22553566  0.57913896  1
  O  O344  1  0.08239326  0.22392091  0.91257107  1
  O  O345  1  0.07477506  0.73241859  0.26014609  1
  O  O346  1  0.07959924  0.72582531  0.58486836  1
  O  O347  1  0.08518577  0.73280882  0.91236667  1
  O  O348  1  0.41332196  0.24865902  0.25257606  1
  O  O349  1  0.41737534  0.22851324  0.58203385  1
  O  O350  1  0.41070799  0.23183013  0.91539989  1
  O  O351  1  0.40992941  0.73251676  0.25505324  1
  O  O352  1  0.42258808  0.73636534  0.57799473  1
  O  O353  1  0.41237660  0.73436223  0.91868240  1
  O  O354  1  0.75297597  0.22959898  0.25054161  1
  O  O355  1  0.74197903  0.23618765  0.59362509  1
  O  O356  1  0.75185646  0.22334513  0.92414698  1
  O  O357  1  0.75556406  0.73473830  0.25077646  1
  O  O358  1  0.74570738  0.73085246  0.59158040  1
  O  O359  1  0.73982312  0.73690355  0.92709347  1
