# generated using pymatgen
data_Ba17Sr5La8Pr42Mn72O216
_symmetry_space_group_name_H-M   'P 1'
_cell_length_a   16.67754943
_cell_length_b   15.70449485
_cell_length_c   16.81527463
_cell_angle_alpha   90.00419418
_cell_angle_beta   90.02090531
_cell_angle_gamma   90.00239126
_symmetry_Int_Tables_number   1
_chemical_formula_structural   Ba17Sr5La8Pr42Mn72O216
_chemical_formula_sum   'Ba17 Sr5 La8 Pr42 Mn72 O216'
_cell_volume   4404.13012594
_cell_formula_units_Z   1
loop_
 _symmetry_equiv_pos_site_id
 _symmetry_equiv_pos_as_xyz
  1  'x, y, z'
loop_
 _atom_site_type_symbol
 _atom_site_label
 _atom_site_symmetry_multiplicity
 _atom_site_fract_x
 _atom_site_fract_y
 _atom_site_fract_z
 _atom_site_occupancy
  Ba  Ba0  1  0.00172132  0.12622526  0.99880765  1
  Ba  Ba1  1  0.16306766  0.87282036  0.49847358  1
  Ba  Ba2  1  0.49881380  0.87159531  0.83307906  1
  Ba  Ba3  1  0.33116934  0.87452337  0.00016822  1
  Ba  Ba4  1  0.82878293  0.37656590  0.16491276  1
  Ba  Ba5  1  0.33251688  0.37738203  0.00430147  1
  Ba  Ba6  1  0.66587405  0.37430728  0.66857306  1
  Ba  Ba7  1  0.49744241  0.87442046  0.50115132  1
  Ba  Ba8  1  0.66932136  0.12403792  0.66836849  1
  Ba  Ba9  1  0.33801529  0.12536627  1.00253845  1
  Ba  Ba10  1  0.49704132  0.37530216  0.50351817  1
  Ba  Ba11  1  0.50485636  0.12473203  0.16589404  1
  Ba  Ba12  1  0.83323411  0.37682113  0.83163296  1
  Ba  Ba13  1  0.16470441  0.87457370  0.83214799  1
  Ba  Ba14  1  0.33142662  0.37580177  0.33903758  1
  Ba  Ba15  1  0.33016936  0.37668317  0.66918762  1
  Ba  Ba16  1  0.16539398  0.87339998  0.16582071  1
  Sr  Sr17  1  0.83377311  0.87421828  0.83328122  1
  Sr  Sr18  1  0.32872816  0.87641047  0.33622818  1
  Sr  Sr19  1  0.00261676  0.62322347  0.99714981  1
  Sr  Sr20  1  0.50327556  0.62305619  0.83557739  1
  Sr  Sr21  1  0.16981666  0.62503885  0.50170427  1
  La  La22  1  0.16175625  0.37257061  0.83300523  1
  La  La23  1  0.32683942  0.87300986  0.67303094  1
  La  La24  1  0.82540796  0.37527046  0.49674908  1
  La  La25  1  0.66208028  0.87296804  -0.00046463  1
  La  La26  1  0.66470108  0.62662194  0.33183074  1
  La  La27  1  0.17486035  0.12495275  0.83580147  1
  La  La28  1  0.83920614  0.12578916  0.83222173  1
  La  La29  1  0.33460699  0.62839592  1.00013634  1
  Pr  Pr30  1  0.67272857  0.12454305  0.33115771  1
  Pr  Pr31  1  0.15814705  0.37666983  0.49432011  1
  Pr  Pr32  1  0.00476627  0.12417995  0.66395982  1
  Pr  Pr33  1  0.83782969  0.62452295  0.83369473  1
  Pr  Pr34  1  0.17687816  0.12443783  0.50011593  1
  Pr  Pr35  1  -0.00711434  0.37507811  0.00007175  1
  Pr  Pr36  1  -0.01141045  0.37574574  0.33424953  1
  Pr  Pr37  1  0.33765504  0.62999601  0.33805667  1
  Pr  Pr38  1  0.83887467  0.62511234  0.16878914  1
  Pr  Pr39  1  0.82948631  0.87408678  0.16093735  1
  Pr  Pr40  1  -0.00346268  0.87392482  0.00116811  1
  Pr  Pr41  1  0.50181940  0.12691989  0.50052103  1
  Pr  Pr42  1  0.66036329  0.37727662  0.00099722  1
  Pr  Pr43  1  0.49556109  0.37504716  0.82881053  1
  Pr  Pr44  1  -0.00264091  0.37652664  0.66479974  1
  Pr  Pr45  1  0.49601982  0.37583031  0.16837387  1
  Pr  Pr46  1  0.49323151  0.87445560  0.16274215  1
  Pr  Pr47  1  0.17300838  0.62324900  0.83457891  1
  Pr  Pr48  1  0.33789782  0.62850992  0.66825858  1
  Pr  Pr49  1  0.00120749  0.62613092  0.66227036  1
  Pr  Pr50  1  0.83472953  0.62638486  0.50173747  1
  Pr  Pr51  1  0.49878756  0.62546960  0.16781101  1
  Pr  Pr52  1  0.67180422  0.62486536  0.99680141  1
  Pr  Pr53  1  0.67298484  0.12481589  0.99474045  1
  Pr  Pr54  1  0.83939277  0.12497334  0.50215534  1
  Pr  Pr55  1  0.84055494  0.12381298  0.16679179  1
  Pr  Pr56  1  0.66702142  0.62647822  0.66594657  1
  Pr  Pr57  1  0.34485786  0.12121346  0.33135513  1
  Pr  Pr58  1  -0.00663844  0.87309673  0.66767543  1
  Pr  Pr59  1  0.66189699  0.87606144  0.33338076  1
  Pr  Pr60  1  -0.00710246  0.87487143  0.33447117  1
  Pr  Pr61  1  0.66410894  0.87595440  0.67268483  1
  Pr  Pr62  1  0.50617936  0.12856602  0.84016731  1
  Pr  Pr63  1  0.34107101  0.12239690  0.67025620  1
  Pr  Pr64  1  0.17552725  0.62448341  0.16920736  1
  Pr  Pr65  1  0.82778742  0.87666524  0.49835858  1
  Pr  Pr66  1  0.49565183  0.62158564  0.50488577  1
  Pr  Pr67  1  0.65998733  0.37450358  0.33833138  1
  Pr  Pr68  1  0.00553689  0.62581316  0.32827790  1
  Pr  Pr69  1  0.15689686  0.37453936  0.16383109  1
  Pr  Pr70  1  0.18049543  0.12465470  0.16903412  1
  Pr  Pr71  1  0.01032913  0.12489940  0.32508047  1
  Mn  Mn72  1  0.00044045  -0.00075586  0.16664802  1
  Mn  Mn73  1  -0.00086172  0.00108853  0.49670827  1
  Mn  Mn74  1  -0.00002150  -0.00127260  0.83098137  1
  Mn  Mn75  1  -0.00032201  0.50145884  0.16441367  1
  Mn  Mn76  1  -0.00238865  0.50136260  0.49748226  1
  Mn  Mn77  1  0.00168344  0.50124924  0.83080003  1
  Mn  Mn78  1  0.33461800  -0.00078268  0.16940552  1
  Mn  Mn79  1  0.33299969  0.00088052  0.50057953  1
  Mn  Mn80  1  0.33474384  0.00026524  0.83288124  1
  Mn  Mn81  1  0.33299662  0.50077657  0.17113988  1
  Mn  Mn82  1  0.32929527  0.50118582  0.50349268  1
  Mn  Mn83  1  0.33358616  0.50103603  0.83689082  1
  Mn  Mn84  1  0.66964704  -0.00133072  0.16565480  1
  Mn  Mn85  1  0.66710720  -0.00086570  0.49936431  1
  Mn  Mn86  1  0.66898440  -0.00189364  0.83374835  1
  Mn  Mn87  1  0.66451763  0.50229677  0.16659343  1
  Mn  Mn88  1  0.66697172  0.50320795  0.49863748  1
  Mn  Mn89  1  0.66773252  0.50273628  0.83373442  1
  Mn  Mn90  1  0.00028065  0.25009277  0.16624615  1
  Mn  Mn91  1  -0.00101285  0.24834240  0.49634057  1
  Mn  Mn92  1  0.00072072  0.25040268  0.82920069  1
  Mn  Mn93  1  -0.00069407  0.74830244  0.16500475  1
  Mn  Mn94  1  -0.00282472  0.74983860  0.49735718  1
  Mn  Mn95  1  0.00020175  0.74854233  0.83196780  1
  Mn  Mn96  1  0.33448419  0.25219949  0.17203421  1
  Mn  Mn97  1  0.33109108  0.24810740  0.50198455  1
  Mn  Mn98  1  0.33438193  0.25126839  0.83500197  1
  Mn  Mn99  1  0.33364618  0.74796452  0.16887043  1
  Mn  Mn100  1  0.33173058  0.75002397  0.50111003  1
  Mn  Mn101  1  0.33315549  0.74737392  0.83348594  1
  Mn  Mn102  1  0.66817291  0.25035472  0.16647055  1
  Mn  Mn103  1  0.66704244  0.24836850  0.49845897  1
  Mn  Mn104  1  0.66863129  0.25045873  0.83603132  1
  Mn  Mn105  1  0.66688720  0.74886538  0.16623240  1
  Mn  Mn106  1  0.66711387  0.75035759  0.49901938  1
  Mn  Mn107  1  0.66978101  0.74905923  0.83251420  1
  Mn  Mn108  1  0.16610417  0.25160499  0.00013748  1
  Mn  Mn109  1  0.16526512  0.25038346  0.33334420  1
  Mn  Mn110  1  0.16577206  0.24933362  0.66478612  1
  Mn  Mn111  1  0.16324158  0.74729048  -0.00003709  1
  Mn  Mn112  1  0.16487622  0.74846622  0.33383475  1
  Mn  Mn113  1  0.16403340  0.74770961  0.66575385  1
  Mn  Mn114  1  0.50376031  0.25308510  0.00185010  1
  Mn  Mn115  1  0.50229704  0.24920232  0.33480038  1
  Mn  Mn116  1  0.49954896  0.24778184  0.66954663  1
  Mn  Mn117  1  0.50256236  0.74807821  0.00186452  1
  Mn  Mn118  1  0.50009327  0.75078427  0.33417486  1
  Mn  Mn119  1  0.50131730  0.74874333  0.66646738  1
  Mn  Mn120  1  0.83206361  0.25029610  -0.00043454  1
  Mn  Mn121  1  0.83234170  0.24888449  0.33333344  1
  Mn  Mn122  1  0.83623634  0.24880307  0.66484968  1
  Mn  Mn123  1  0.83460529  0.74884644  -0.00110951  1
  Mn  Mn124  1  0.83234257  0.75001905  0.33270102  1
  Mn  Mn125  1  0.83325913  0.75014967  0.66632515  1
  Mn  Mn126  1  0.16528753  0.00023601  0.00005898  1
  Mn  Mn127  1  0.16593048  -0.00074125  0.33391539  1
  Mn  Mn128  1  0.16570750  0.00202737  0.66538556  1
  Mn  Mn129  1  0.16470797  0.50048554  0.00104162  1
  Mn  Mn130  1  0.16451870  0.50129497  0.33348846  1
  Mn  Mn131  1  0.16440698  0.50009864  0.66661014  1
  Mn  Mn132  1  0.50320958  -0.00136327  0.00096640  1
  Mn  Mn133  1  0.50250902  -0.00230584  0.33353032  1
  Mn  Mn134  1  0.50047670  0.00006764  0.66703147  1
  Mn  Mn135  1  0.50185698  0.50202275  0.00169872  1
  Mn  Mn136  1  0.49995446  0.50393613  0.33517481  1
  Mn  Mn137  1  0.50034460  0.50160129  0.67105026  1
  Mn  Mn138  1  0.83334572  -0.00183927  -0.00183598  1
  Mn  Mn139  1  0.83354830  -0.00110331  0.33240474  1
  Mn  Mn140  1  0.83557682  -0.00104990  0.66578507  1
  Mn  Mn141  1  0.83315741  0.50200461  -0.00062380  1
  Mn  Mn142  1  0.83142545  0.50247676  0.33323209  1
  Mn  Mn143  1  0.83412747  0.50281700  0.66487523  1
  O  O144  1  0.16540095  0.12965783  0.02231031  1
  O  O145  1  0.15598536  0.12684762  0.35612338  1
  O  O146  1  0.15376877  0.12759911  0.69049211  1
  O  O147  1  0.16288663  0.62170815  0.02461130  1
  O  O148  1  0.15378184  0.62382651  0.35259059  1
  O  O149  1  0.15114673  0.62160810  0.69084504  1
  O  O150  1  0.51429994  0.12560858  0.00695665  1
  O  O151  1  0.50313514  0.12117562  0.35288406  1
  O  O152  1  0.49593774  0.12288947  0.69339481  1
  O  O153  1  0.51108645  0.62483842  0.02486507  1
  O  O154  1  0.50310054  0.62907989  0.35970198  1
  O  O155  1  0.50457426  0.62568682  0.68434903  1
  O  O156  1  0.82651481  0.12395531  0.02353576  1
  O  O157  1  0.82666166  0.12417291  0.35939250  1
  O  O158  1  0.84206188  0.12044840  0.68747666  1
  O  O159  1  0.82995822  0.62737463  0.02583460  1
  O  O160  1  0.83342501  0.62834511  0.35881817  1
  O  O161  1  0.83603688  0.62817405  0.68912114  1
  O  O162  1  0.16235845  0.37640504  0.30819234  1
  O  O163  1  0.16151609  0.37376532  0.63722721  1
  O  O164  1  0.16290755  0.37731783  0.97803201  1
  O  O165  1  0.16265341  0.87248882  0.32216136  1
  O  O166  1  0.17525156  0.87666019  0.65519334  1
  O  O167  1  0.15842813  0.87193488  0.98969893  1
  O  O168  1  0.50889621  0.37925859  0.31351342  1
  O  O169  1  0.49986043  0.37537962  0.66282703  1
  O  O170  1  0.50692782  0.38007820  0.97548940  1
  O  O171  1  0.50718539  0.87261536  0.30827330  1
  O  O172  1  0.50501821  0.87314705  0.65633928  1
  O  O173  1  0.50261846  0.87128063  0.99194603  1
  O  O174  1  0.83208082  0.37548406  0.32035710  1
  O  O175  1  0.84080701  0.37850592  0.64106557  1
  O  O176  1  0.83325640  0.37566379  0.98810637  1
  O  O177  1  0.83577810  0.87212143  0.30410874  1
  O  O178  1  0.83755890  0.87375657  0.64031464  1
  O  O179  1  0.83759830  0.87167658  0.98234940  1
  O  O180  1  0.00524104  0.37707545  0.19116050  1
  O  O181  1  0.00422400  0.37299632  0.52143905  1
  O  O182  1  0.00637104  0.37753761  0.85617266  1
  O  O183  1  -0.00647224  0.87390559  0.19095189  1
  O  O184  1  -0.00655868  0.87577747  0.52340998  1
  O  O185  1  -0.00133344  0.87159575  0.85693352  1
  O  O186  1  0.34106521  0.37902588  0.18300992  1
  O  O187  1  0.32426022  0.37306341  0.51251944  1
  O  O188  1  0.33970445  0.37773974  0.84623292  1
  O  O189  1  0.34122267  0.87105774  0.18373312  1
  O  O190  1  0.33144003  0.87608832  0.52612842  1
  O  O191  1  0.33205182  0.87228778  0.83788896  1
  O  O192  1  0.66372125  0.38229626  0.19596749  1
  O  O193  1  0.67302276  0.37618380  0.50990250  1
  O  O194  1  0.66566769  0.37799484  0.85538160  1
  O  O195  1  0.67853171  0.87197433  0.19280927  1
  O  O196  1  0.67378649  0.87362938  0.52788565  1
  O  O197  1  0.67390882  0.87179171  0.85364522  1
  O  O198  1  -0.00772892  0.12376582  0.15694925  1
  O  O199  1  -0.01067053  0.12588214  0.46769727  1
  O  O200  1  -0.00615779  0.12522695  0.80791807  1
  O  O201  1  -0.00862354  0.62437685  0.14676351  1
  O  O202  1  -0.01064321  0.62584023  0.47098691  1
  O  O203  1  -0.00382330  0.62480116  0.80571640  1
  O  O204  1  0.33034266  0.12664421  0.16364870  1
  O  O205  1  0.32722805  0.12523024  0.47625730  1
  O  O206  1  0.33455212  0.12632717  0.81700606  1
  O  O207  1  0.33198950  0.62244399  0.14709904  1
  O  O208  1  0.33683010  0.62623018  0.48289252  1
  O  O209  1  0.32677573  0.62299578  0.81421148  1
  O  O210  1  0.67283301  0.11906544  0.14020281  1
  O  O211  1  0.66780607  0.12125336  0.47604036  1
  O  O212  1  0.65578732  0.12323395  0.82855021  1
  O  O213  1  0.65720315  0.62675757  0.13926558  1
  O  O214  1  0.67308529  0.62902570  0.47454426  1
  O  O215  1  0.67008183  0.62760891  0.81094102  1
  O  O216  1  0.09092270  0.02061940  0.24190676  1
  O  O217  1  0.08735137  0.02399056  0.57120502  1
  O  O218  1  0.08862882  0.01721481  0.90346414  1
  O  O219  1  0.08802046  0.52131553  0.24099731  1
  O  O220  1  0.07914880  0.51794256  0.57852570  1
  O  O221  1  0.08962108  0.51816787  0.90588417  1
  O  O222  1  0.42009280  0.00957330  0.25258695  1
  O  O223  1  0.41913875  0.02548019  0.57861912  1
  O  O224  1  0.42658508  0.01372281  0.90705922  1
  O  O225  1  0.41914857  0.52490679  0.25265246  1
  O  O226  1  0.41760167  0.51990138  0.58711753  1
  O  O227  1  0.41856728  0.52118733  0.92260145  1
  O  O228  1  0.76051475  0.02070155  0.24167443  1
  O  O229  1  0.76209754  0.01350444  0.57128839  1
  O  O230  1  0.75536061  0.02039042  0.91081548  1
  O  O231  1  0.75030463  0.52809609  0.24416359  1
  O  O232  1  0.75300023  0.52368529  0.57977340  1
  O  O233  1  0.75449402  0.52486185  0.91243844  1
  O  O234  1  0.25568020  0.22823215  0.26592396  1
  O  O235  1  0.25365613  0.22269985  0.59237614  1
  O  O236  1  0.25177826  0.23994784  0.91875722  1
  O  O237  1  0.25262191  0.72732631  0.25416337  1
  O  O238  1  0.25398693  0.73012420  0.59114688  1
  O  O239  1  0.25043739  0.72817150  0.92027775  1
  O  O240  1  0.59840459  0.23579204  0.25928510  1
  O  O241  1  0.58107355  0.23313975  0.58234552  1
  O  O242  1  0.59797677  0.24195832  0.93105592  1
  O  O243  1  0.58507059  0.72973118  0.24902116  1
  O  O244  1  0.58506969  0.72655868  0.57942872  1
  O  O245  1  0.59177714  0.73582056  0.92347615  1
  O  O246  1  0.92369568  0.23472521  0.26136204  1
  O  O247  1  0.92515512  0.22710440  0.58323361  1
  O  O248  1  0.91748508  0.23984434  0.91269412  1
  O  O249  1  0.92014735  0.72778295  0.25334842  1
  O  O250  1  0.91723024  0.72810570  0.58330812  1
  O  O251  1  0.91860350  0.72916411  0.91596339  1
  O  O252  1  0.07690956  0.47643166  0.07720727  1
  O  O253  1  0.07321682  0.47854359  0.40751485  1
  O  O254  1  0.08030695  0.47364472  0.74443539  1
  O  O255  1  0.06990730  0.98357391  0.07539932  1
  O  O256  1  0.06732800  0.98652488  0.40190607  1
  O  O257  1  0.07152514  0.98511774  0.73361391  1
  O  O258  1  0.42242971  0.49240153  0.09008454  1
  O  O259  1  0.41644718  0.49888266  0.41717627  1
  O  O260  1  0.41718805  0.49404670  0.75663920  1
  O  O261  1  0.42023926  0.98877019  0.08663954  1
  O  O262  1  0.41014994  0.99207630  0.41396355  1
  O  O263  1  0.40643709  0.98718565  0.73844271  1
  O  O264  1  0.73769628  0.49051295  0.07618487  1
  O  O265  1  0.74670289  0.48540563  0.41307470  1
  O  O266  1  0.74921072  0.49785453  0.74570464  1
  O  O267  1  0.74522722  0.97501242  0.07773546  1
  O  O268  1  0.74545699  0.97586677  0.40779622  1
  O  O269  1  0.74821415  0.98240570  0.74357138  1
  O  O270  1  0.23988052  0.26379706  0.10210271  1
  O  O271  1  0.23008022  0.26218592  0.43027632  1
  O  O272  1  0.23881787  0.26132345  0.75764383  1
  O  O273  1  0.24839264  0.75015722  0.08649269  1
  O  O274  1  0.24819742  0.75321881  0.41651115  1
  O  O275  1  0.24707124  0.75093053  0.74913734  1
  O  O276  1  0.57807208  0.27773563  0.09120693  1
  O  O277  1  0.58239085  0.26100270  0.41732667  1
  O  O278  1  0.57542556  0.26056899  0.76660581  1
  O  O279  1  0.58424178  0.77425085  0.08988669  1
  O  O280  1  0.58932833  0.76606069  0.41001022  1
  O  O281  1  0.59076185  0.76066812  0.74308697  1
  O  O282  1  0.91335585  0.26087628  0.08325389  1
  O  O283  1  0.90677222  0.27155949  0.42460243  1
  O  O284  1  0.92112294  0.26632550  0.74470306  1
  O  O285  1  0.91118481  0.77005896  0.08828669  1
  O  O286  1  0.91027818  0.77510440  0.42007736  1
  O  O287  1  0.91479583  0.76771678  0.74834239  1
  O  O288  1  0.23879915  0.48750354  0.09929765  1
  O  O289  1  0.23496226  0.48930312  0.42678647  1
  O  O290  1  0.23910949  0.48846646  0.76340812  1
  O  O291  1  0.24669573  0.99716744  0.09191604  1
  O  O292  1  0.24293638  0.99412913  0.42216796  1
  O  O293  1  0.24855639  0.99937255  0.75045296  1
  O  O294  1  0.57969135  0.47464496  0.08925127  1
  O  O295  1  0.58690901  0.49088170  0.41233932  1
  O  O296  1  0.57922253  0.48830571  0.76045296  1
  O  O297  1  0.58362587  0.97449970  0.09291916  1
  O  O298  1  0.58555200  0.98301363  0.41529711  1
  O  O299  1  0.58740868  0.98516819  0.75100416  1
  O  O300  1  0.91811987  0.48651769  0.08084395  1
  O  O301  1  0.91226724  0.47824801  0.42146560  1
  O  O302  1  0.92244330  0.48787721  0.74061165  1
  O  O303  1  0.90874482  0.98250438  0.09148409  1
  O  O304  1  0.90715991  0.97708904  0.42234221  1
  O  O305  1  0.91525751  0.97778330  0.74906501  1
  O  O306  1  0.07664502  0.27537145  0.07509824  1
  O  O307  1  0.06954731  0.27092075  0.40309917  1
  O  O308  1  0.07734035  0.27267330  0.73845295  1
  O  O309  1  0.07028688  0.76231336  0.07328512  1
  O  O310  1  0.06815850  0.76255957  0.40432525  1
  O  O311  1  0.07245041  0.76533193  0.73748225  1
  O  O312  1  0.42040970  0.26394258  0.08422059  1
  O  O313  1  0.41372581  0.25002558  0.41695704  1
  O  O314  1  0.41442486  0.25765728  0.75007413  1
  O  O315  1  0.42260456  0.75471125  0.09099157  1
  O  O316  1  0.41149824  0.76077836  0.41299882  1
  O  O317  1  0.40987830  0.75588192  0.74184129  1
  O  O318  1  0.73679144  0.26509659  0.07297773  1
  O  O319  1  0.74215329  0.26479005  0.40528284  1
  O  O320  1  0.74972189  0.25253146  0.75123354  1
  O  O321  1  0.74670693  0.76814877  0.08063049  1
  O  O322  1  0.74822659  0.77452969  0.41438955  1
  O  O323  1  0.74842346  0.76828090  0.74246393  1
  O  O324  1  0.25421156  0.01753319  0.25991003  1
  O  O325  1  0.25423081  0.02422213  0.58980668  1
  O  O326  1  0.25209317  0.01282309  0.91565310  1
  O  O327  1  0.25363038  0.52582023  0.26086930  1
  O  O328  1  0.25174431  0.52349471  0.59549860  1
  O  O329  1  0.25376537  0.52256424  0.92547349  1
  O  O330  1  0.59925153  0.01178480  0.25747510  1
  O  O331  1  0.58256835  0.01479055  0.58019275  1
  O  O332  1  0.59461949  0.00542240  0.92649888  1
  O  O333  1  0.58273331  0.52630880  0.25004676  1
  O  O334  1  0.58632612  0.52231989  0.58313361  1
  O  O335  1  0.59328679  0.51838520  0.92619170  1
  O  O336  1  0.92404103  0.01805084  0.25982288  1
  O  O337  1  0.92453284  0.02177796  0.58503359  1
  O  O338  1  0.91728151  0.01233590  0.91452427  1
  O  O339  1  0.91997423  0.51900895  0.25374578  1
  O  O340  1  0.91638261  0.52379210  0.58082163  1
  O  O341  1  0.91891686  0.51789361  0.91102188  1
  O  O342  1  0.09462479  0.23130101  0.23983415  1
  O  O343  1  0.08854433  0.22723432  0.57020916  1
  O  O344  1  0.09021424  0.23624769  0.90018376  1
  O  O345  1  0.08597200  0.72739066  0.24176705  1
  O  O346  1  0.08054468  0.73235142  0.57849695  1
  O  O347  1  0.08744410  0.72743741  0.90684809  1
  O  O348  1  0.42242466  0.24086018  0.25254036  1
  O  O349  1  0.41818076  0.22556352  0.58240345  1
  O  O350  1  0.43299235  0.24120881  0.90950219  1
  O  O351  1  0.41887920  0.72609836  0.25115151  1
  O  O352  1  0.41938893  0.72847145  0.58236337  1
  O  O353  1  0.41718932  0.72979996  0.92078187  1
  O  O354  1  0.75970239  0.22485596  0.24281018  1
  O  O355  1  0.76105078  0.23633266  0.57089568  1
  O  O356  1  0.75649549  0.22700619  0.91265816  1
  O  O357  1  0.75195995  0.72415129  0.24469779  1
  O  O358  1  0.75226840  0.72716707  0.58202915  1
  O  O359  1  0.75542087  0.72648835  0.91406677  1
