# generated using pymatgen
data_Ba17Sr5La8Pr42Mn72O216
_symmetry_space_group_name_H-M   'P 1'
_cell_length_a   16.67583150
_cell_length_b   15.70411920
_cell_length_c   16.82138144
_cell_angle_alpha   89.99698579
_cell_angle_beta   89.99730475
_cell_angle_gamma   89.97648647
_symmetry_Int_Tables_number   1
_chemical_formula_structural   Ba17Sr5La8Pr42Mn72O216
_chemical_formula_sum   'Ba17 Sr5 La8 Pr42 Mn72 O216'
_cell_volume   4405.17029860
_cell_formula_units_Z   1
loop_
 _symmetry_equiv_pos_site_id
 _symmetry_equiv_pos_as_xyz
  1  'x, y, z'
loop_
 _atom_site_type_symbol
 _atom_site_label
 _atom_site_symmetry_multiplicity
 _atom_site_fract_x
 _atom_site_fract_y
 _atom_site_fract_z
 _atom_site_occupancy
  Ba  Ba0  1  0.66858796  0.37450045  0.00137759  1
  Ba  Ba1  1  0.33367239  0.37468153  0.00459498  1
  Ba  Ba2  1  0.66504221  0.87730615  0.66903564  1
  Ba  Ba3  1  0.83176883  0.37530619  0.16774182  1
  Ba  Ba4  1  0.49610446  0.87492110  0.50028891  1
  Ba  Ba5  1  0.00195991  0.87833186  -0.00169433  1
  Ba  Ba6  1  0.66511795  0.12380420  0.33285245  1
  Ba  Ba7  1  0.66548606  0.62498519  0.33272379  1
  Ba  Ba8  1  0.32896300  0.37399220  0.33595849  1
  Ba  Ba9  1  0.83537567  0.62491232  0.16820808  1
  Ba  Ba10  1  0.33028435  0.37424891  0.66911503  1
  Ba  Ba11  1  0.66735504  0.12470329  0.66630163  1
  Ba  Ba12  1  0.00162198  0.62581311  0.33171198  1
  Ba  Ba13  1  0.66489112  0.37433175  0.33113904  1
  Ba  Ba14  1  0.83654370  0.62519399  0.83448954  1
  Ba  Ba15  1  0.16711252  0.87701542  0.16573139  1
  Ba  Ba16  1  0.33764442  0.62542597  1.00100097  1
  Sr  Sr17  1  0.00514780  0.12548305  0.99830473  1
  Sr  Sr18  1  0.16358110  0.87489904  0.82946942  1
  Sr  Sr19  1  0.32662683  0.87523247  0.66777308  1
  Sr  Sr20  1  0.16422554  0.37418306  0.16483920  1
  Sr  Sr21  1  0.16054445  0.87639191  0.49747154  1
  La  La22  1  0.83321845  0.87269223  0.16849267  1
  La  La23  1  0.83595755  0.87500938  0.83108287  1
  La  La24  1  0.17021205  0.62509526  0.16641160  1
  La  La25  1  0.00436043  0.12536614  0.33006682  1
  La  La26  1  0.83636541  0.12592674  0.16622188  1
  La  La27  1  0.83573294  0.12693169  0.50407550  1
  La  La28  1  0.33366197  0.62871699  0.33064598  1
  La  La29  1  0.66531464  0.87273688  0.33745698  1
  Pr  Pr30  1  0.50042486  0.12973197  0.16748926  1
  Pr  Pr31  1  0.49409977  0.87321323  0.82325020  1
  Pr  Pr32  1  0.50154586  0.61950311  0.16796534  1
  Pr  Pr33  1  0.49883903  0.12822549  0.50293480  1
  Pr  Pr34  1  -0.00256672  0.37503642  0.00346672  1
  Pr  Pr35  1  0.67013589  0.87346737  -0.00166847  1
  Pr  Pr36  1  0.82698480  0.37369151  0.83536539  1
  Pr  Pr37  1  0.15828158  0.37429444  0.49240516  1
  Pr  Pr38  1  -0.00806501  0.37600709  0.33265323  1
  Pr  Pr39  1  0.00708847  0.12436860  0.66329440  1
  Pr  Pr40  1  0.33607669  0.12096031  0.66543551  1
  Pr  Pr41  1  0.49830226  0.37652752  0.83408016  1
  Pr  Pr42  1  0.00876632  0.62773579  0.66097443  1
  Pr  Pr43  1  0.50284878  0.87491963  0.16470164  1
  Pr  Pr44  1  0.67056907  0.13011533  0.99732196  1
  Pr  Pr45  1  0.82737666  0.87611179  0.50074787  1
  Pr  Pr46  1  0.17529422  0.12429971  0.50117279  1
  Pr  Pr47  1  0.49724604  0.12491045  0.83443943  1
  Pr  Pr48  1  0.49822691  0.37171874  0.49646529  1
  Pr  Pr49  1  0.67203721  0.62682736  0.66061247  1
  Pr  Pr50  1  0.50364921  0.37476573  0.16528021  1
  Pr  Pr51  1  0.83435450  0.12192441  0.83817006  1
  Pr  Pr52  1  0.50223961  0.62045821  0.50136012  1
  Pr  Pr53  1  0.17570790  0.62602712  0.50071890  1
  Pr  Pr54  1  0.82410274  0.37336520  0.49611394  1
  Pr  Pr55  1  0.67239479  0.62240760  1.00049729  1
  Pr  Pr56  1  0.32442538  0.87451004  0.33961278  1
  Pr  Pr57  1  0.66199538  0.37468936  0.66987854  1
  Pr  Pr58  1  0.33926559  0.62816491  0.66751300  1
  Pr  Pr59  1  -0.00657801  0.37612849  0.66777659  1
  Pr  Pr60  1  0.33460107  0.12248905  0.99933283  1
  Pr  Pr61  1  0.17466178  0.12410564  0.16459383  1
  Pr  Pr62  1  0.33204291  0.87485984  0.00074960  1
  Pr  Pr63  1  0.16125944  0.37481718  0.83154365  1
  Pr  Pr64  1  0.33547861  0.12073625  0.33360281  1
  Pr  Pr65  1  0.00882633  0.62513955  0.99901815  1
  Pr  Pr66  1  0.50566342  0.62460788  0.83590169  1
  Pr  Pr67  1  0.17499013  0.12469567  0.83362900  1
  Pr  Pr68  1  0.17434186  0.62495268  0.83404963  1
  Pr  Pr69  1  -0.00862417  0.87529414  0.33454032  1
  Pr  Pr70  1  0.83809020  0.62131165  0.50494905  1
  Pr  Pr71  1  -0.00253742  0.87497750  0.67071640  1
  Mn  Mn72  1  0.00082770  0.00283461  0.16682143  1
  Mn  Mn73  1  -0.00087109  0.00049905  0.49945399  1
  Mn  Mn74  1  0.00092107  0.00216341  0.83064309  1
  Mn  Mn75  1  0.00276551  0.49854626  0.16540621  1
  Mn  Mn76  1  0.00006059  0.49977827  0.50123169  1
  Mn  Mn77  1  0.00198905  0.49931939  0.83283710  1
  Mn  Mn78  1  0.33751936  -0.00098298  0.16646669  1
  Mn  Mn79  1  0.33090347  -0.00133013  0.50018261  1
  Mn  Mn80  1  0.33275863  -0.00036700  0.83249474  1
  Mn  Mn81  1  0.33263804  0.49981028  0.16969264  1
  Mn  Mn82  1  0.33173225  0.50037403  0.50220355  1
  Mn  Mn83  1  0.33378845  0.49843887  0.83369364  1
  Mn  Mn84  1  0.66638342  -0.00167703  0.16476332  1
  Mn  Mn85  1  0.66457308  0.00020912  0.49902164  1
  Mn  Mn86  1  0.66513259  0.00220502  0.83677361  1
  Mn  Mn87  1  0.66613808  0.50070655  0.16568575  1
  Mn  Mn88  1  0.66598878  0.50054402  0.50220995  1
  Mn  Mn89  1  0.66738125  0.49937073  0.83158107  1
  Mn  Mn90  1  0.00253763  0.24823759  0.16505412  1
  Mn  Mn91  1  -0.00000507  0.24906281  0.49996311  1
  Mn  Mn92  1  0.00022499  0.24961745  0.83223720  1
  Mn  Mn93  1  0.00213579  0.75145471  0.16566966  1
  Mn  Mn94  1  -0.00035430  0.75160955  0.50012569  1
  Mn  Mn95  1  0.00281686  0.74831713  0.83117540  1
  Mn  Mn96  1  0.33377794  0.24953212  0.16853373  1
  Mn  Mn97  1  0.33055543  0.25032401  0.50270744  1
  Mn  Mn98  1  0.33335393  0.25066637  0.83499784  1
  Mn  Mn99  1  0.33613630  0.75215068  0.16703214  1
  Mn  Mn100  1  0.33168176  0.75011064  0.50027936  1
  Mn  Mn101  1  0.33309072  0.75000289  0.83225234  1
  Mn  Mn102  1  0.66720702  0.24672348  0.16462310  1
  Mn  Mn103  1  0.66526931  0.24835662  0.50140656  1
  Mn  Mn104  1  0.66633137  0.24942460  0.83238779  1
  Mn  Mn105  1  0.66534374  0.75317357  0.16625396  1
  Mn  Mn106  1  0.66585603  0.75012675  0.49956012  1
  Mn  Mn107  1  0.66644638  0.74949489  0.83421829  1
  Mn  Mn108  1  0.16720037  0.24883836  -0.00152366  1
  Mn  Mn109  1  0.16420805  0.24855897  0.33187985  1
  Mn  Mn110  1  0.16483703  0.25036420  0.66534934  1
  Mn  Mn111  1  0.16900201  0.75076977  -0.00207343  1
  Mn  Mn112  1  0.16467026  0.75164620  0.33473011  1
  Mn  Mn113  1  0.16712125  0.75048894  0.66598724  1
  Mn  Mn114  1  0.50021125  0.24671795  0.00076055  1
  Mn  Mn115  1  0.49711219  0.24872895  0.33427154  1
  Mn  Mn116  1  0.49839429  0.25083424  0.66742791  1
  Mn  Mn117  1  0.50398752  0.75289358  -0.00273681  1
  Mn  Mn118  1  0.49669535  0.75077906  0.33080196  1
  Mn  Mn119  1  0.49872158  0.74883933  0.66717444  1
  Mn  Mn120  1  0.83729631  0.24755823  0.00006671  1
  Mn  Mn121  1  0.83398619  0.24820067  0.33624236  1
  Mn  Mn122  1  0.83593886  0.25157175  0.66880303  1
  Mn  Mn123  1  0.83572365  0.75077714  0.00020788  1
  Mn  Mn124  1  0.83289413  0.75151158  0.33515732  1
  Mn  Mn125  1  0.83461560  0.74933948  0.66713575  1
  Mn  Mn126  1  0.16860092  0.00168563  -0.00225841  1
  Mn  Mn127  1  0.16432361  0.00129768  0.33372832  1
  Mn  Mn128  1  0.16564443  -0.00043027  0.66541353  1
  Mn  Mn129  1  0.16774013  0.49877268  -0.00111712  1
  Mn  Mn130  1  0.16458529  0.49912709  0.33271439  1
  Mn  Mn131  1  0.16580808  0.49944028  0.66554255  1
  Mn  Mn132  1  0.50232577  -0.00210948  -0.00211406  1
  Mn  Mn133  1  0.49747871  -0.00075041  0.33078278  1
  Mn  Mn134  1  0.49746002  0.00022482  0.66671726  1
  Mn  Mn135  1  0.50256659  0.50122192  0.00062664  1
  Mn  Mn136  1  0.49683628  0.49941752  0.33522671  1
  Mn  Mn137  1  0.49979430  0.50032130  0.66799751  1
  Mn  Mn138  1  0.83354010  -0.00139873  0.00158479  1
  Mn  Mn139  1  0.83364890  0.00171423  0.33479043  1
  Mn  Mn140  1  0.83580537  0.00184197  0.66803112  1
  Mn  Mn141  1  0.83700552  0.50160950  -0.00045769  1
  Mn  Mn142  1  0.83283476  0.49981954  0.33614283  1
  Mn  Mn143  1  0.83443613  0.49814013  0.66857519  1
  O  O144  1  0.17367128  0.12512999  0.01910454  1
  O  O145  1  0.16196342  0.12465733  0.35851927  1
  O  O146  1  0.15975583  0.12646586  0.69024273  1
  O  O147  1  0.16158568  0.62262931  0.01904623  1
  O  O148  1  0.16924321  0.62700872  0.35630427  1
  O  O149  1  0.15816974  0.62215331  0.69069510  1
  O  O150  1  0.49361401  0.11851975  0.02620836  1
  O  O151  1  0.49285923  0.12360321  0.35862557  1
  O  O152  1  0.49085589  0.12622775  0.68847148  1
  O  O153  1  0.50787181  0.63276439  0.02486144  1
  O  O154  1  0.49401678  0.62670294  0.35672835  1
  O  O155  1  0.49721841  0.62319022  0.69204133  1
  O  O156  1  0.82967473  0.12047888  0.02021043  1
  O  O157  1  0.84214354  0.12371985  0.35924583  1
  O  O158  1  0.84091036  0.13134245  0.69459584  1
  O  O159  1  0.83231075  0.62899626  0.00975291  1
  O  O160  1  0.83507347  0.62661190  0.35861716  1
  O  O161  1  0.82753584  0.62338142  0.67928652  1
  O  O162  1  0.15984798  0.37002539  0.31601977  1
  O  O163  1  0.16256884  0.37497192  0.63608936  1
  O  O164  1  0.16153303  0.37304502  0.97482617  1
  O  O165  1  0.17215570  0.87898462  0.32238902  1
  O  O166  1  0.16264111  0.87636947  0.64723378  1
  O  O167  1  0.17618029  0.87876490  0.98082506  1
  O  O168  1  0.49499160  0.37227455  0.31206110  1
  O  O169  1  0.50461270  0.37789602  0.64025246  1
  O  O170  1  0.50163907  0.37029253  0.97826323  1
  O  O171  1  0.49255122  0.87546904  0.30919561  1
  O  O172  1  0.49662714  0.87373229  0.65899261  1
  O  O173  1  0.50584050  0.87720822  0.96559003  1
  O  O174  1  0.83715810  0.37314443  0.32812760  1
  O  O175  1  0.84118853  0.37511447  0.63909807  1
  O  O176  1  0.84307782  0.37348569  0.97939614  1
  O  O177  1  0.83431258  0.87954193  0.31462513  1
  O  O178  1  0.84210746  0.87225008  0.64485642  1
  O  O179  1  0.82944263  0.87583015  0.97544807  1
  O  O180  1  0.00813550  0.37127952  0.18666566  1
  O  O181  1  0.01066718  0.37407910  0.52596092  1
  O  O182  1  0.01134659  0.37372383  0.86003140  1
  O  O183  1  -0.00079973  0.88109551  0.18830148  1
  O  O184  1  -0.00112491  0.87774015  0.52743536  1
  O  O185  1  0.00099954  0.87648723  0.84117847  1
  O  O186  1  0.34008689  0.37388057  0.18040035  1
  O  O187  1  0.33230145  0.37510071  0.51421482  1
  O  O188  1  0.33535474  0.37277515  0.84742525  1
  O  O189  1  0.34356001  0.87813340  0.19550144  1
  O  O190  1  0.32846979  0.87481660  0.51761549  1
  O  O191  1  0.34009452  0.87717672  0.85577125  1
  O  O192  1  0.65837690  0.37113556  0.17319338  1
  O  O193  1  0.66600483  0.37584656  0.52445342  1
  O  O194  1  0.66207465  0.37304206  0.84621416  1
  O  O195  1  0.66361698  0.87777822  0.19273248  1
  O  O196  1  0.67148668  0.87515608  0.51179664  1
  O  O197  1  0.65840606  0.88011534  0.85523239  1
  O  O198  1  -0.01212362  0.12537958  0.15011823  1
  O  O199  1  -0.00998188  0.12486635  0.47374994  1
  O  O200  1  -0.00868067  0.12764591  0.80511138  1
  O  O201  1  0.00556540  0.62261015  0.14588963  1
  O  O202  1  -0.01045803  0.62443875  0.48734979  1
  O  O203  1  0.00559997  0.62072906  0.80421844  1
  O  O204  1  0.33574867  0.12230898  0.14271898  1
  O  O205  1  0.33072284  0.12553366  0.47874149  1
  O  O206  1  0.33414501  0.12657312  0.80906788  1
  O  O207  1  0.32861535  0.62625289  0.15753326  1
  O  O208  1  0.33027324  0.62472948  0.47724750  1
  O  O209  1  0.33231434  0.62289436  0.81223242  1
  O  O210  1  0.66241508  0.11847645  0.14189037  1
  O  O211  1  0.66258861  0.12317057  0.49070164  1
  O  O212  1  0.67553067  0.12781816  0.82067502  1
  O  O213  1  0.65644079  0.63123735  0.14493223  1
  O  O214  1  0.66361319  0.62517196  0.49018653  1
  O  O215  1  0.66299893  0.61922205  0.80407397  1
  O  O216  1  0.08799408  0.02444506  0.24514490  1
  O  O217  1  0.08773566  0.02458910  0.57332021  1
  O  O218  1  0.08794370  0.01996288  0.90401612  1
  O  O219  1  0.09371982  0.51481550  0.23831328  1
  O  O220  1  0.08986981  0.52363293  0.57549220  1
  O  O221  1  0.09025105  0.52192298  0.90672324  1
  O  O222  1  0.41806412  0.02680816  0.24700304  1
  O  O223  1  0.41494535  0.02239687  0.57948825  1
  O  O224  1  0.41857150  0.02198983  0.91528454  1
  O  O225  1  0.41459531  0.52154336  0.25348658  1
  O  O226  1  0.41977401  0.52387401  0.58486708  1
  O  O227  1  0.42939111  0.51228654  0.91171774  1
  O  O228  1  0.76072990  0.01572037  0.24225641  1
  O  O229  1  0.76262541  0.01296258  0.57958237  1
  O  O230  1  0.74762327  0.01911319  0.92142194  1
  O  O231  1  0.74629673  0.50718284  0.24807296  1
  O  O232  1  0.75239084  0.51635758  0.58290471  1
  O  O233  1  0.75350868  0.50718964  0.91269259  1
  O  O234  1  0.25254465  0.22470328  0.25545080  1
  O  O235  1  0.25257640  0.22474175  0.59093274  1
  O  O236  1  0.25436422  0.22733500  0.91977395  1
  O  O237  1  0.25439639  0.73878533  0.26027481  1
  O  O238  1  0.25406889  0.72536868  0.59018291  1
  O  O239  1  0.25190946  0.73653665  0.91427510  1
  O  O240  1  0.57625705  0.23632764  0.24302336  1
  O  O241  1  0.57508861  0.23786738  0.57955651  1
  O  O242  1  0.58027730  0.22516102  0.91593947  1
  O  O243  1  0.57538858  0.74004768  0.24102908  1
  O  O244  1  0.58374201  0.72914603  0.58805422  1
  O  O245  1  0.58880340  0.72423120  0.91922294  1
  O  O246  1  0.92376746  0.23701580  0.25903944  1
  O  O247  1  0.92577717  0.23153159  0.59181416  1
  O  O248  1  0.91814992  0.23095335  0.91472872  1
  O  O249  1  0.91883868  0.75003535  0.25550315  1
  O  O250  1  0.92104100  0.72965483  0.58864056  1
  O  O251  1  0.92711792  0.73663040  0.92019284  1
  O  O252  1  0.07716764  0.48362597  0.07087123  1
  O  O253  1  0.07513942  0.47863921  0.41006076  1
  O  O254  1  0.07691705  0.47458726  0.74228526  1
  O  O255  1  0.08530563  1.00097031  0.08177273  1
  O  O256  1  0.07012352  0.98519759  0.40760229  1
  O  O257  1  0.07400311  0.98832854  0.73595492  1
  O  O258  1  0.42185272  0.49167653  0.09301354  1
  O  O259  1  0.41831715  0.48721713  0.42432823  1
  O  O260  1  0.42021507  0.48504056  0.75172547  1
  O  O261  1  0.42145991  0.97227461  0.07890856  1
  O  O262  1  0.40434195  0.98657821  0.40726948  1
  O  O263  1  0.41205876  0.98574452  0.74927910  1
  O  O264  1  0.74669512  0.50064498  0.07923351  1
  O  O265  1  0.75126604  0.48852476  0.42491126  1
  O  O266  1  0.74719414  0.47430810  0.74520105  1
  O  O267  1  0.74795175  0.97459930  0.08200789  1
  O  O268  1  0.74829546  0.98234060  0.41245173  1
  O  O269  1  0.75436178  0.98715217  0.76102405  1
  O  O270  1  0.24752358  0.25629042  0.09135392  1
  O  O271  1  0.23700568  0.26035737  0.42902228  1
  O  O272  1  0.23737899  0.26272726  0.75923464  1
  O  O273  1  0.25768541  0.76606628  0.08218544  1
  O  O274  1  0.24219553  0.76341628  0.42359300  1
  O  O275  1  0.24375212  0.75911956  0.75209137  1
  O  O276  1  0.58227658  0.25335190  0.08175315  1
  O  O277  1  0.57561433  0.26324330  0.42003548  1
  O  O278  1  0.58227858  0.26887387  0.74642453  1
  O  O279  1  0.58529187  0.77978669  0.07852442  1
  O  O280  1  0.58130224  0.76422497  0.40981948  1
  O  O281  1  0.57324804  0.76031539  0.75878879  1
  O  O282  1  0.91980514  0.26267635  0.08067172  1
  O  O283  1  0.91370750  0.27306287  0.42904543  1
  O  O284  1  0.91331590  0.28017025  0.75557902  1
  O  O285  1  0.91180382  0.76657950  0.08786978  1
  O  O286  1  0.91160497  0.77492240  0.42377603  1
  O  O287  1  0.91526822  0.76777466  0.75144502  1
  O  O288  1  0.24346984  0.49163262  0.09124342  1
  O  O289  1  0.23574839  0.48803355  0.42852782  1
  O  O290  1  0.23772315  0.48597579  0.75593101  1
  O  O291  1  0.26170530  0.98745447  0.07931767  1
  O  O292  1  0.24430834  0.99013993  0.42101079  1
  O  O293  1  0.24494412  0.99063337  0.75343486  1
  O  O294  1  0.57901082  0.48881405  0.08640167  1
  O  O295  1  0.57536804  0.48561424  0.42705729  1
  O  O296  1  0.57984939  0.47656966  0.75157511  1
  O  O297  1  0.58445244  0.97360122  0.07720525  1
  O  O298  1  0.58147949  0.98360199  0.40624166  1
  O  O299  1  0.57508528  0.99388092  0.76044861  1
  O  O300  1  0.92080182  0.48633901  0.08314039  1
  O  O301  1  0.91275371  0.47903348  0.43066248  1
  O  O302  1  0.91232264  0.47339295  0.75905942  1
  O  O303  1  0.90830159  0.98650072  0.09390987  1
  O  O304  1  0.91001994  0.97602767  0.42533748  1
  O  O305  1  0.91431850  0.97969671  0.75127326  1
  O  O306  1  0.07996894  0.26254303  0.07267531  1
  O  O307  1  0.07279196  0.26691695  0.40802636  1
  O  O308  1  0.07522614  0.27099520  0.73845409  1
  O  O309  1  0.08356668  0.75564422  0.07621753  1
  O  O310  1  0.07423917  0.77097764  0.40956924  1
  O  O311  1  0.07555534  0.76426091  0.73780657  1
  O  O312  1  0.42519142  0.26110421  0.09250835  1
  O  O313  1  0.41748440  0.26100652  0.42536465  1
  O  O314  1  0.42384994  0.26517214  0.75875602  1
  O  O315  1  0.42123235  0.77642729  0.07712868  1
  O  O316  1  0.40428705  0.76413361  0.40494435  1
  O  O317  1  0.40909747  0.76271169  0.74391320  1
  O  O318  1  0.75146946  0.24893401  0.08103657  1
  O  O319  1  0.75128755  0.25877075  0.42187371  1
  O  O320  1  0.75094733  0.27620691  0.74526094  1
  O  O321  1  0.74796611  0.77143985  0.08461316  1
  O  O322  1  0.75051452  0.77068349  0.41587372  1
  O  O323  1  0.75165886  0.76613071  0.75387805  1
  O  O324  1  0.25281029  0.02139861  0.25274040  1
  O  O325  1  0.25194598  0.02270178  0.58805956  1
  O  O326  1  0.25544335  0.02247715  0.91668563  1
  O  O327  1  0.25258098  0.51780188  0.25727434  1
  O  O328  1  0.25423889  0.52627197  0.59088340  1
  O  O329  1  0.24948152  0.51267934  0.91588904  1
  O  O330  1  0.57573911  0.01321397  0.23947980  1
  O  O331  1  0.57638420  0.01370162  0.58026588  1
  O  O332  1  0.58419860  0.03047273  0.91977230  1
  O  O333  1  0.57520790  0.51066418  0.24506025  1
  O  O334  1  0.58629378  0.52229727  0.59060304  1
  O  O335  1  0.59038550  0.52373989  0.91701709  1
  O  O336  1  0.92435571  0.01568475  0.26114519  1
  O  O337  1  0.92540248  0.02353734  0.58742147  1
  O  O338  1  0.91427097  0.01596233  0.91357590  1
  O  O339  1  0.92380991  0.50103471  0.25627651  1
  O  O340  1  0.92444502  0.51703737  0.59447085  1
  O  O341  1  0.93140725  0.51315388  0.92436719  1
  O  O342  1  0.08985699  0.22315044  0.24073089  1
  O  O343  1  0.08882693  0.22468241  0.57243540  1
  O  O344  1  0.09089605  0.22909532  0.90188762  1
  O  O345  1  0.09268326  0.73724252  0.24355495  1
  O  O346  1  0.08926019  0.72863728  0.57566750  1
  O  O347  1  0.08880520  0.72813863  0.90761438  1
  O  O348  1  0.41380797  0.22469852  0.25390569  1
  O  O349  1  0.41392520  0.22940537  0.58616389  1
  O  O350  1  0.41738512  0.22537632  0.92086818  1
  O  O351  1  0.42003135  0.72692900  0.24472727  1
  O  O352  1  0.42030511  0.72518234  0.57867457  1
  O  O353  1  0.42863429  0.73644577  0.90650861  1
  O  O354  1  0.75431064  0.23215080  0.24421624  1
  O  O355  1  0.76001207  0.23841845  0.58092641  1
  O  O356  1  0.75645234  0.23469550  0.91427945  1
  O  O357  1  0.74927913  0.74789907  0.25125278  1
  O  O358  1  0.75550924  0.73233797  0.58169773  1
  O  O359  1  0.74598830  0.73957616  0.92249944  1
