# generated using pymatgen
data_Ba17Sr5La8Pr42Mn72O216
_symmetry_space_group_name_H-M   'P 1'
_cell_length_a   16.67844668
_cell_length_b   15.70402163
_cell_length_c   16.82438580
_cell_angle_alpha   90.01195973
_cell_angle_beta   90.01028029
_cell_angle_gamma   89.98119372
_symmetry_Int_Tables_number   1
_chemical_formula_structural   Ba17Sr5La8Pr42Mn72O216
_chemical_formula_sum   'Ba17 Sr5 La8 Pr42 Mn72 O216'
_cell_volume   4406.62064289
_cell_formula_units_Z   1
loop_
 _symmetry_equiv_pos_site_id
 _symmetry_equiv_pos_as_xyz
  1  'x, y, z'
loop_
 _atom_site_type_symbol
 _atom_site_label
 _atom_site_symmetry_multiplicity
 _atom_site_fract_x
 _atom_site_fract_y
 _atom_site_fract_z
 _atom_site_occupancy
  Ba  Ba0  1  0.83592715  0.62519448  0.50059686  1
  Ba  Ba1  1  0.16549688  0.87353851  0.16640489  1
  Ba  Ba2  1  0.49963707  0.62517087  0.83270709  1
  Ba  Ba3  1  0.50031115  0.12636034  0.16797572  1
  Ba  Ba4  1  0.66582451  0.12489969  0.99844951  1
  Ba  Ba5  1  0.17048090  0.62642791  0.49918850  1
  Ba  Ba6  1  0.16591850  0.12400961  0.83277277  1
  Ba  Ba7  1  0.33414333  0.37386012  0.66746347  1
  Ba  Ba8  1  0.49942876  0.87621241  0.16927499  1
  Ba  Ba9  1  0.16525487  0.37547796  0.16541844  1
  Ba  Ba10  1  0.83190590  0.37441340  0.49974912  1
  Ba  Ba11  1  0.00180097  0.87549347  0.33509060  1
  Ba  Ba12  1  0.16950696  0.87510732  0.49770955  1
  Ba  Ba13  1  -0.00200742  0.37492922  0.00206802  1
  Ba  Ba14  1  -0.00292759  0.37557510  0.66874935  1
  Ba  Ba15  1  0.83279916  0.12575485  0.49871534  1
  Ba  Ba16  1  0.50221591  0.62420581  0.50042201  1
  Sr  Sr17  1  0.49682167  0.37373250  0.16592734  1
  Sr  Sr18  1  0.66479224  0.87613659  0.33349443  1
  Sr  Sr19  1  0.33586011  0.62535891  0.33335281  1
  Sr  Sr20  1  0.33477749  0.87339416  0.66465043  1
  Sr  Sr21  1  0.66447380  0.87474606  0.66256497  1
  La  La22  1  0.65911497  0.37629456  0.00060817  1
  La  La23  1  0.33263227  0.62666570  1.00188983  1
  La  La24  1  0.82871142  0.87571011  0.49572813  1
  La  La25  1  0.82638014  0.37401501  0.83006961  1
  La  La26  1  0.84086755  0.62555125  0.17048868  1
  La  La27  1  0.82517722  0.87642015  0.83310599  1
  La  La28  1  0.65782723  0.87384258  0.00216106  1
  La  La29  1  0.50244865  0.87222110  0.49590086  1
  Pr  Pr30  1  0.49995086  0.37255861  0.83130381  1
  Pr  Pr31  1  0.00810872  0.62476738  0.66254418  1
  Pr  Pr32  1  -0.00480420  0.87795650  0.00809018  1
  Pr  Pr33  1  0.16970517  0.62118435  0.17258087  1
  Pr  Pr34  1  0.00457128  0.12571029  1.00062052  1
  Pr  Pr35  1  0.16364099  0.87599786  0.82796734  1
  Pr  Pr36  1  0.67080918  0.62762048  0.66057999  1
  Pr  Pr37  1  0.50364386  0.62416937  0.17307244  1
  Pr  Pr38  1  0.49611595  0.12586984  0.83796505  1
  Pr  Pr39  1  -0.00017085  0.12539006  0.66602486  1
  Pr  Pr40  1  0.33209927  0.37424925  0.00099136  1
  Pr  Pr41  1  0.49914599  0.12395890  0.50094876  1
  Pr  Pr42  1  0.16464651  0.12651508  0.16555398  1
  Pr  Pr43  1  0.33862478  0.87489658  0.33827320  1
  Pr  Pr44  1  0.66889699  0.62715960  0.99751903  1
  Pr  Pr45  1  -0.00415150  0.87296559  0.66793232  1
  Pr  Pr46  1  0.66523018  0.37828467  0.66550326  1
  Pr  Pr47  1  0.66564556  0.12342223  0.66383129  1
  Pr  Pr48  1  0.67290800  0.12500208  0.32565072  1
  Pr  Pr49  1  0.32813836  0.12425638  0.66295201  1
  Pr  Pr50  1  0.49872835  0.37858875  0.49936497  1
  Pr  Pr51  1  0.82758853  0.37524147  0.16418287  1
  Pr  Pr52  1  0.33038139  0.12380111  0.32909707  1
  Pr  Pr53  1  0.67200709  0.62515607  0.33137797  1
  Pr  Pr54  1  0.00039194  0.37610824  0.34042304  1
  Pr  Pr55  1  0.17215200  0.62257171  0.82989338  1
  Pr  Pr56  1  0.16149228  0.37351333  0.82916463  1
  Pr  Pr57  1  0.33251092  0.12220762  0.99932048  1
  Pr  Pr58  1  0.16124494  0.12281591  0.50312727  1
  Pr  Pr59  1  0.83782077  0.62572715  0.83473849  1
  Pr  Pr60  1  0.33876051  0.62700972  0.65814029  1
  Pr  Pr61  1  0.82612859  0.87442670  0.16479447  1
  Pr  Pr62  1  0.83874622  0.12473493  0.83700158  1
  Pr  Pr63  1  0.00964875  0.62570225  0.33578432  1
  Pr  Pr64  1  0.65879484  0.37435782  0.33366351  1
  Pr  Pr65  1  0.83758921  0.12502373  0.17030158  1
  Pr  Pr66  1  0.49953630  0.87722874  0.82998051  1
  Pr  Pr67  1  0.01057003  0.62523994  1.00107615  1
  Pr  Pr68  1  0.00469232  0.12338035  0.33522764  1
  Pr  Pr69  1  0.33252316  0.87520322  0.00110256  1
  Pr  Pr70  1  0.16764698  0.37410789  0.49422435  1
  Pr  Pr71  1  0.33863794  0.37455314  0.33642662  1
  Mn  Mn72  1  -0.00182882  0.00005863  0.16791187  1
  Mn  Mn73  1  -0.00112457  0.00022726  0.50248871  1
  Mn  Mn74  1  -0.00204882  -0.00335669  0.83672155  1
  Mn  Mn75  1  -0.00113014  0.50022870  0.16824570  1
  Mn  Mn76  1  0.00188291  0.50039006  0.50158522  1
  Mn  Mn77  1  -0.00140817  0.50327134  0.83457772  1
  Mn  Mn78  1  0.33142431  -0.00044581  0.16642697  1
  Mn  Mn79  1  0.33667847  0.00253225  0.49877714  1
  Mn  Mn80  1  0.33280518  -0.00175592  0.83155540  1
  Mn  Mn81  1  0.33573090  0.49865717  0.16621634  1
  Mn  Mn82  1  0.33409199  0.49887854  0.50046310  1
  Mn  Mn83  1  0.33295147  0.50062748  0.83393518  1
  Mn  Mn84  1  0.66771951  -0.00094960  0.16519721  1
  Mn  Mn85  1  0.66541867  0.00175796  0.49808031  1
  Mn  Mn86  1  0.66510766  -0.00058675  0.83026363  1
  Mn  Mn87  1  0.66740740  0.49956688  0.16419643  1
  Mn  Mn88  1  0.66732453  0.49875585  0.49885795  1
  Mn  Mn89  1  0.66633697  0.50210794  0.83362760  1
  Mn  Mn90  1  -0.00205932  0.24894316  0.16951892  1
  Mn  Mn91  1  0.00070786  0.24952316  0.50094551  1
  Mn  Mn92  1  -0.00189940  0.24950196  0.83572398  1
  Mn  Mn93  1  -0.00091805  0.74984115  0.16668771  1
  Mn  Mn94  1  0.00023517  0.75087334  0.50178801  1
  Mn  Mn95  1  -0.00072711  0.75004536  0.83622205  1
  Mn  Mn96  1  0.33253425  0.25061877  0.16626744  1
  Mn  Mn97  1  0.33419498  0.24920122  0.49850645  1
  Mn  Mn98  1  0.33256154  0.24932476  0.83410649  1
  Mn  Mn99  1  0.33440889  0.74972531  0.16656042  1
  Mn  Mn100  1  0.33617956  0.75069353  0.50015927  1
  Mn  Mn101  1  0.33221711  0.75024246  0.83209025  1
  Mn  Mn102  1  0.66798567  0.25168767  0.16519845  1
  Mn  Mn103  1  0.66400382  0.24919017  0.49866393  1
  Mn  Mn104  1  0.66560955  0.24929622  0.83094686  1
  Mn  Mn105  1  0.66746742  0.74921389  0.16422828  1
  Mn  Mn106  1  0.66770983  0.75122061  0.49853948  1
  Mn  Mn107  1  0.66632239  0.75019847  0.83168284  1
  Mn  Mn108  1  0.16741136  0.24984291  -0.00074059  1
  Mn  Mn109  1  0.16811230  0.24920955  0.33280900  1
  Mn  Mn110  1  0.16599093  0.24947035  0.66552500  1
  Mn  Mn111  1  0.16657541  0.74947547  -0.00306276  1
  Mn  Mn112  1  0.17066817  0.74931727  0.33172017  1
  Mn  Mn113  1  0.16711047  0.75326983  0.66798347  1
  Mn  Mn114  1  0.49758000  0.25046221  -0.00039195  1
  Mn  Mn115  1  0.50055180  0.25048376  0.33545145  1
  Mn  Mn116  1  0.50080963  0.24729124  0.66803045  1
  Mn  Mn117  1  0.49801050  0.74818167  0.00051770  1
  Mn  Mn118  1  0.50250755  0.74819370  0.33336225  1
  Mn  Mn119  1  0.50073339  0.75310238  0.66688908  1
  Mn  Mn120  1  0.83204140  0.25033576  0.00010589  1
  Mn  Mn121  1  0.83506609  0.25102602  0.33004327  1
  Mn  Mn122  1  0.83040729  0.24920266  0.66930624  1
  Mn  Mn123  1  0.83330115  0.74847801  0.00005744  1
  Mn  Mn124  1  0.83412186  0.75002351  0.33300416  1
  Mn  Mn125  1  0.83254659  0.75245785  0.66878320  1
  Mn  Mn126  1  0.16610835  -0.00206494  -0.00123582  1
  Mn  Mn127  1  0.17002483  0.00182560  0.33294821  1
  Mn  Mn128  1  0.16591501  -0.00122712  0.66649217  1
  Mn  Mn129  1  0.16807291  0.50216586  -0.00130017  1
  Mn  Mn130  1  0.16907606  0.49857107  0.33206606  1
  Mn  Mn131  1  0.16793793  0.49901229  0.66709414  1
  Mn  Mn132  1  0.49773829  0.00020824  -0.00216382  1
  Mn  Mn133  1  0.50208887  0.00144766  0.33617620  1
  Mn  Mn134  1  0.49955521  0.00096291  0.66731727  1
  Mn  Mn135  1  0.49789485  0.50030279  0.00246153  1
  Mn  Mn136  1  0.50149686  0.50004503  0.33217922  1
  Mn  Mn137  1  0.50113823  0.49899693  0.66830610  1
  Mn  Mn138  1  0.83241179  -0.00022919  0.00011368  1
  Mn  Mn139  1  0.83338096  -0.00101803  0.33251542  1
  Mn  Mn140  1  0.83155723  -0.00104057  0.66827497  1
  Mn  Mn141  1  0.83193674  0.50201664  0.00003431  1
  Mn  Mn142  1  0.83532149  0.50047855  0.33048293  1
  Mn  Mn143  1  0.83185608  0.50123725  0.66973874  1
  O  O144  1  0.16777010  0.12133954  0.02062025  1
  O  O145  1  0.17321409  0.12780189  0.35851550  1
  O  O146  1  0.17026888  0.12370204  0.67729391  1
  O  O147  1  0.16667299  0.62757236  0.02638469  1
  O  O148  1  0.16452990  0.62239752  0.34133236  1
  O  O149  1  0.16628015  0.62858319  0.68698417  1
  O  O150  1  0.49229542  0.12483161  0.01035035  1
  O  O151  1  0.50042852  0.12855104  0.35657656  1
  O  O152  1  0.50534827  0.12415815  0.69642429  1
  O  O153  1  0.49624732  0.62121159  0.02693496  1
  O  O154  1  0.50807142  0.62233684  0.34381110  1
  O  O155  1  0.49558328  0.62499237  0.67717218  1
  O  O156  1  0.83498494  0.12076000  0.02593211  1
  O  O157  1  0.82167584  0.12594705  0.34134757  1
  O  O158  1  0.82869607  0.12253788  0.69277536  1
  O  O159  1  0.82004037  0.62429396  0.02730648  1
  O  O160  1  0.82275687  0.62474832  0.34375829  1
  O  O161  1  0.82265830  0.62830845  0.69098773  1
  O  O162  1  0.16106375  0.37270816  0.32023217  1
  O  O163  1  0.16618701  0.37110126  0.64113657  1
  O  O164  1  0.17367622  0.37942806  0.97308349  1
  O  O165  1  0.17679715  0.87672105  0.32246931  1
  O  O166  1  0.15883771  0.87714272  0.65401912  1
  O  O167  1  0.16531198  0.87195323  0.97272367  1
  O  O168  1  0.50057487  0.37520039  0.31374965  1
  O  O169  1  0.50724192  0.37011968  0.64268819  1
  O  O170  1  0.49875324  0.37674273  0.97514074  1
  O  O171  1  0.49565855  0.87450989  0.32527539  1
  O  O172  1  0.49921446  0.88086155  0.64014144  1
  O  O173  1  0.49815788  0.87583238  0.97607319  1
  O  O174  1  0.84753330  0.37603939  0.30763046  1
  O  O175  1  0.82796787  0.37444315  0.65795030  1
  O  O176  1  0.83124492  0.38077424  0.97289432  1
  O  O177  1  0.83431613  0.87332038  0.30950186  1
  O  O178  1  0.83987743  0.87617183  0.64157964  1
  O  O179  1  0.84426420  0.87421355  0.97586520  1
  O  O180  1  -0.00628430  0.37200287  0.19381657  1
  O  O181  1  0.00820416  0.37318556  0.50903822  1
  O  O182  1  0.00254831  0.37998088  0.84587813  1
  O  O183  1  -0.00662613  0.87458833  0.17864365  1
  O  O184  1  -0.00442346  0.87679200  0.52242448  1
  O  O185  1  0.00437474  0.87157864  0.86579405  1
  O  O186  1  0.33402314  0.37385720  0.19210149  1
  O  O187  1  0.33087725  0.37232774  0.51187965  1
  O  O188  1  0.33383823  0.37366671  0.85697152  1
  O  O189  1  0.33198039  0.87401538  0.19292784  1
  O  O190  1  0.34136405  0.87886231  0.51299726  1
  O  O191  1  0.33192023  0.87375162  0.85792191  1
  O  O192  1  0.67212805  0.37694076  0.18926377  1
  O  O193  1  0.66018574  0.37267814  0.52143746  1
  O  O194  1  0.66948628  0.37552515  0.85760272  1
  O  O195  1  0.67150369  0.87257050  0.18157352  1
  O  O196  1  0.66709028  0.87774301  0.51391875  1
  O  O197  1  0.66720165  0.87244101  0.85868282  1
  O  O198  1  -0.00516692  0.12333068  0.14350726  1
  O  O199  1  0.00391947  0.12554252  0.48065375  1
  O  O200  1  -0.00933885  0.11913613  0.81020941  1
  O  O201  1  -0.00147072  0.62752403  0.14416244  1
  O  O202  1  0.00085098  0.62547889  0.48315621  1
  O  O203  1  -0.00737365  0.62893308  0.80545926  1
  O  O204  1  0.32859089  0.12636799  0.14383148  1
  O  O205  1  0.34212705  0.12853145  0.47202385  1
  O  O206  1  0.34041996  0.12317297  0.80677913  1
  O  O207  1  0.33654279  0.62404095  0.14489977  1
  O  O208  1  0.33600745  0.62248189  0.48821874  1
  O  O209  1  0.32617784  0.62762902  0.80187901  1
  O  O210  1  0.67643123  0.12630961  0.15773683  1
  O  O211  1  0.65921554  0.12742359  0.47046806  1
  O  O212  1  0.66009035  0.12580189  0.80785053  1
  O  O213  1  0.66508421  0.62305646  0.14107319  1
  O  O214  1  0.66843203  0.62301467  0.47722335  1
  O  O215  1  0.67009522  0.62838673  0.80465847  1
  O  O216  1  0.08526298  0.02376724  0.24903727  1
  O  O217  1  0.08143582  0.02115468  0.58504747  1
  O  O218  1  0.07875423  0.01498439  0.92085548  1
  O  O219  1  0.08483789  0.51834350  0.24912415  1
  O  O220  1  0.08502585  0.51445328  0.58688204  1
  O  O221  1  0.08674706  0.52462103  0.91377089  1
  O  O222  1  0.41128631  0.01414505  0.26127407  1
  O  O223  1  0.41501970  0.02891839  0.58823794  1
  O  O224  1  0.41499982  0.01829136  0.91381441  1
  O  O225  1  0.42516588  0.51644660  0.24477872  1
  O  O226  1  0.41934496  0.50562065  0.58456517  1
  O  O227  1  0.41084338  0.51567346  0.92260492  1
  O  O228  1  0.75894706  0.01129625  0.24166335  1
  O  O229  1  0.74399223  0.01563345  0.58406072  1
  O  O230  1  0.75757032  0.01318187  0.90855106  1
  O  O231  1  0.75897931  0.51524336  0.23675641  1
  O  O232  1  0.74903720  0.51202630  0.58705195  1
  O  O233  1  0.75452949  0.52506057  0.91059567  1
  O  O234  1  0.24648934  0.22739284  0.24631734  1
  O  O235  1  0.24903700  0.22780490  0.57561513  1
  O  O236  1  0.25565511  0.23300208  0.92009589  1
  O  O237  1  0.25066234  0.72824736  0.24364955  1
  O  O238  1  0.25722965  0.74009282  0.59072145  1
  O  O239  1  0.24962701  0.72587910  0.91485297  1
  O  O240  1  0.59428541  0.23868965  0.26058373  1
  O  O241  1  0.57907768  0.22283968  0.58428115  1
  O  O242  1  0.57698221  0.24025959  0.90731989  1
  O  O243  1  0.59014121  0.72860553  0.24989590  1
  O  O244  1  0.59059038  0.73835637  0.58886544  1
  O  O245  1  0.59121738  0.73431914  0.92273835  1
  O  O246  1  0.92170298  0.22255967  0.25446243  1
  O  O247  1  0.91935131  0.23352666  0.59333165  1
  O  O248  1  0.91893105  0.22672421  0.92482350  1
  O  O249  1  0.92376014  0.72656744  0.25766733  1
  O  O250  1  0.92460274  0.73525168  0.60028809  1
  O  O251  1  0.92151119  0.72382661  0.92473702  1
  O  O252  1  0.08066506  0.49527043  0.08060442  1
  O  O253  1  0.08522283  0.48363991  0.41407344  1
  O  O254  1  0.08527508  0.49222270  0.75205118  1
  O  O255  1  0.07462626  0.98872393  0.07861618  1
  O  O256  1  0.08815522  0.99889904  0.41625799  1
  O  O257  1  0.07592382  0.97873328  0.75378216  1
  O  O258  1  0.41341491  0.47694291  0.08044171  1
  O  O259  1  0.41579780  0.47979658  0.41355830  1
  O  O260  1  0.42029534  0.48327661  0.75572311  1
  O  O261  1  0.40962305  0.98585613  0.07597225  1
  O  O262  1  0.42466608  0.98593761  0.42495138  1
  O  O263  1  0.41920045  0.97943300  0.75276209  1
  O  O264  1  0.74217815  0.47716373  0.07436359  1
  O  O265  1  0.74295388  0.48276707  0.40088474  1
  O  O266  1  0.74270555  0.48109344  0.74730494  1
  O  O267  1  0.74824302  0.97419463  0.07508392  1
  O  O268  1  0.74960405  0.98467923  0.41181120  1
  O  O269  1  0.74801289  0.98109392  0.74817328  1
  O  O270  1  0.25313527  0.26525979  0.07787743  1
  O  O271  1  0.25470499  0.27007570  0.40938151  1
  O  O272  1  0.24692420  0.26401305  0.75370954  1
  O  O273  1  0.25274415  0.76471605  0.07467085  1
  O  O274  1  0.26016833  0.76087069  0.41080976  1
  O  O275  1  0.24252229  0.77070915  0.75684001  1
  O  O276  1  0.58262481  0.26665598  0.08179946  1
  O  O277  1  0.57895291  0.27478581  0.42059957  1
  O  O278  1  0.58573252  0.27469540  0.74742775  1
  O  O279  1  0.58446499  0.76008167  0.08225037  1
  O  O280  1  0.58357554  0.76442533  0.41828116  1
  O  O281  1  0.57925860  0.77149796  0.75525449  1
  O  O282  1  0.90659608  0.26393151  0.09609433  1
  O  O283  1  0.92329285  0.26036845  0.41108089  1
  O  O284  1  0.90546597  0.25935973  0.76326107  1
  O  O285  1  0.90745758  0.76529813  0.09221918  1
  O  O286  1  0.91047435  0.76589591  0.42697245  1
  O  O287  1  0.91156510  0.77436942  0.76064254  1
  O  O288  1  0.25440785  0.48804490  0.07608491  1
  O  O289  1  0.24972978  0.47838570  0.41607391  1
  O  O290  1  0.24137420  0.48159522  0.75926236  1
  O  O291  1  0.25011396  0.98271952  0.07708023  1
  O  O292  1  0.26480951  0.99135817  0.40513446  1
  O  O293  1  0.24885130  0.98197730  0.75130018  1
  O  O294  1  0.57962441  0.48167594  0.08832973  1
  O  O295  1  0.57956764  0.47731812  0.41873040  1
  O  O296  1  0.58069316  0.47674751  0.75576667  1
  O  O297  1  0.58385379  0.98779115  0.07722507  1
  O  O298  1  0.58012420  0.98474277  0.42189099  1
  O  O299  1  0.58104029  0.97781941  0.74824281  1
  O  O300  1  0.90434771  0.48790390  0.09395817  1
  O  O301  1  0.92145649  0.48870538  0.41310558  1
  O  O302  1  0.90282430  0.49187531  0.76468205  1
  O  O303  1  0.90846726  0.97995430  0.08864837  1
  O  O304  1  0.91139506  0.98761839  0.42334329  1
  O  O305  1  0.91261631  0.97431980  0.75976020  1
  O  O306  1  0.08133563  0.25195085  0.08647262  1
  O  O307  1  0.08995039  0.26322254  0.41923845  1
  O  O308  1  0.08292695  0.26048095  0.75311461  1
  O  O309  1  0.07137223  0.76357792  0.07000430  1
  O  O310  1  0.08236250  0.75368840  0.41175164  1
  O  O311  1  0.07712254  0.77142127  0.75105477  1
  O  O312  1  0.41250893  0.26866387  0.08164553  1
  O  O313  1  0.42038310  0.27344370  0.42123984  1
  O  O314  1  0.42490614  0.26356588  0.75890868  1
  O  O315  1  0.41048614  0.76669481  0.07961023  1
  O  O316  1  0.41859769  0.76530010  0.41703626  1
  O  O317  1  0.41634952  0.77077981  0.75229114  1
  O  O318  1  0.74594180  0.27485821  0.07500777  1
  O  O319  1  0.74338515  0.26711039  0.40164180  1
  O  O320  1  0.74331113  0.26928451  0.74676427  1
  O  O321  1  0.74562898  0.77249191  0.07477145  1
  O  O322  1  0.74851902  0.76723796  0.41316713  1
  O  O323  1  0.74845143  0.77285002  0.74906142  1
  O  O324  1  0.24614975  0.02553559  0.24594945  1
  O  O325  1  0.25170216  0.02200473  0.57494010  1
  O  O326  1  0.25584450  0.01266346  0.91990900  1
  O  O327  1  0.25219741  0.51551042  0.24762286  1
  O  O328  1  0.25624590  0.51506351  0.59258725  1
  O  O329  1  0.25036654  0.52623780  0.91625759  1
  O  O330  1  0.58930510  0.01414094  0.25940273  1
  O  O331  1  0.58005940  0.02515467  0.58378992  1
  O  O332  1  0.57674225  0.01070825  0.90827846  1
  O  O333  1  0.59504991  0.51773313  0.25446589  1
  O  O334  1  0.59106184  0.51238953  0.59503122  1
  O  O335  1  0.59155578  0.51575800  0.92668858  1
  O  O336  1  0.92152339  0.02301880  0.25572175  1
  O  O337  1  0.92224556  0.01692053  0.59758163  1
  O  O338  1  0.91934998  0.02217408  0.92323893  1
  O  O339  1  0.92301845  0.52522446  0.25619914  1
  O  O340  1  0.92161165  0.51659107  0.59669259  1
  O  O341  1  0.91998151  0.52858792  0.92640550  1
  O  O342  1  0.08285601  0.22375221  0.25356659  1
  O  O343  1  0.08267725  0.22694326  0.58384658  1
  O  O344  1  0.08066829  0.23648618  0.92073187  1
  O  O345  1  0.08651554  0.72991295  0.24234133  1
  O  O346  1  0.08163108  0.73859798  0.58958181  1
  O  O347  1  0.08742732  0.72135817  0.90977865  1
  O  O348  1  0.41012403  0.23706489  0.25939313  1
  O  O349  1  0.41466801  0.22586610  0.58836558  1
  O  O350  1  0.41295798  0.23040468  0.91755411  1
  O  O351  1  0.42238215  0.73092937  0.24711048  1
  O  O352  1  0.41560655  0.74040080  0.58614448  1
  O  O353  1  0.41035971  0.73495064  0.91951634  1
  O  O354  1  0.76174023  0.24122779  0.23786922  1
  O  O355  1  0.74185547  0.23436570  0.58666388  1
  O  O356  1  0.75615741  0.23322051  0.90432841  1
  O  O357  1  0.75514119  0.73243934  0.23927430  1
  O  O358  1  0.75004707  0.73953806  0.58373373  1
  O  O359  1  0.75436962  0.73020381  0.91132496  1
