# generated using pymatgen
data_Ba17Sr5La8Pr42Mn72O216
_symmetry_space_group_name_H-M   'P 1'
_cell_length_a   16.67197229
_cell_length_b   15.69949386
_cell_length_c   16.81964057
_cell_angle_alpha   89.99920759
_cell_angle_beta   89.99648928
_cell_angle_gamma   89.98223479
_symmetry_Int_Tables_number   1
_chemical_formula_structural   Ba17Sr5La8Pr42Mn72O216
_chemical_formula_sum   'Ba17 Sr5 La8 Pr42 Mn72 O216'
_cell_volume   4402.39817940
_cell_formula_units_Z   1
loop_
 _symmetry_equiv_pos_site_id
 _symmetry_equiv_pos_as_xyz
  1  'x, y, z'
loop_
 _atom_site_type_symbol
 _atom_site_label
 _atom_site_symmetry_multiplicity
 _atom_site_fract_x
 _atom_site_fract_y
 _atom_site_fract_z
 _atom_site_occupancy
  Ba  Ba0  1  0.50269745  0.62335412  0.49632531  1
  Ba  Ba1  1  0.33551701  0.62606167  1.00076883  1
  Ba  Ba2  1  0.66767897  0.87811038  0.33368090  1
  Ba  Ba3  1  0.33389920  0.87562938  0.66628411  1
  Ba  Ba4  1  0.16605893  0.87665352  0.16583473  1
  Ba  Ba5  1  0.17156570  0.62519304  0.16824521  1
  Ba  Ba6  1  0.66836010  0.62318354  0.66333040  1
  Ba  Ba7  1  0.66604564  0.87472431  0.66538853  1
  Ba  Ba8  1  0.16715561  0.12694503  0.50076178  1
  Ba  Ba9  1  -0.00384126  0.37542666  0.00263326  1
  Ba  Ba10  1  0.83538179  0.62430362  0.49923692  1
  Ba  Ba11  1  0.00192794  0.87445335  0.66775649  1
  Ba  Ba12  1  -0.00051415  0.12617293  0.66540124  1
  Ba  Ba13  1  0.16431628  0.37405539  0.16484531  1
  Ba  Ba14  1  0.83136037  0.12487979  0.83525327  1
  Ba  Ba15  1  0.16967129  0.62240663  0.50004486  1
  Ba  Ba16  1  0.66374090  0.12772101  0.66629337  1
  Sr  Sr17  1  0.33339298  0.87605490  0.00047211  1
  Sr  Sr18  1  0.66571132  0.37662871  0.66387798  1
  Sr  Sr19  1  0.49938250  0.12385540  0.49963788  1
  Sr  Sr20  1  0.49469886  0.12340475  0.16687984  1
  Sr  Sr21  1  0.00004737  0.37580376  0.67021044  1
  La  La22  1  0.49717441  0.87363932  0.83068133  1
  La  La23  1  0.82982210  0.12628792  0.16724569  1
  La  La24  1  0.33926514  0.62581961  0.32688935  1
  La  La25  1  -0.00230529  0.12413403  0.33431509  1
  La  La26  1  0.49862338  0.87739658  0.16455730  1
  La  La27  1  0.33663382  0.62484166  0.66451663  1
  La  La28  1  0.82860824  0.37721465  0.16382527  1
  La  La29  1  0.16207835  0.37098101  0.49887725  1
  Pr  Pr30  1  0.82894593  0.87255275  0.16683492  1
  Pr  Pr31  1  0.00301275  0.87037235  0.33998575  1
  Pr  Pr32  1  0.66314775  0.87855479  0.00201336  1
  Pr  Pr33  1  0.16913996  0.62812462  0.83675491  1
  Pr  Pr34  1  0.16293206  0.12277564  0.83026604  1
  Pr  Pr35  1  0.84234303  0.62687063  0.83266024  1
  Pr  Pr36  1  0.83007305  0.12199564  0.50913957  1
  Pr  Pr37  1  0.50462635  0.37200449  0.49941906  1
  Pr  Pr38  1  0.16971111  0.87384610  0.83158521  1
  Pr  Pr39  1  -0.00585366  0.87653660  0.00307555  1
  Pr  Pr40  1  0.50726088  0.62518872  0.17201937  1
  Pr  Pr41  1  0.00916400  0.62549093  1.00251296  1
  Pr  Pr42  1  0.65971369  0.12451868  0.33196876  1
  Pr  Pr43  1  0.84251755  0.62487308  0.17251883  1
  Pr  Pr44  1  0.16395851  0.12710154  0.16914232  1
  Pr  Pr45  1  0.16858208  0.88012776  0.49648751  1
  Pr  Pr46  1  0.49534318  0.37625176  0.82943989  1
  Pr  Pr47  1  0.49669871  0.12248988  0.83384030  1
  Pr  Pr48  1  0.16359883  0.37582479  0.83283080  1
  Pr  Pr49  1  0.66308424  0.37287630  -0.00135876  1
  Pr  Pr50  1  0.33616648  0.87698991  0.33728402  1
  Pr  Pr51  1  0.50619753  0.87491740  0.50060176  1
  Pr  Pr52  1  0.49714167  0.37088255  0.16221872  1
  Pr  Pr53  1  -0.00095156  0.37910807  0.33620052  1
  Pr  Pr54  1  0.66608658  0.37261323  0.33574935  1
  Pr  Pr55  1  0.32501207  0.12377238  0.99881449  1
  Pr  Pr56  1  0.50530161  0.62768637  0.83162951  1
  Pr  Pr57  1  0.01006759  0.62523111  0.33123347  1
  Pr  Pr58  1  0.33122556  0.12626957  0.32999364  1
  Pr  Pr59  1  0.83060714  0.87395756  0.82901717  1
  Pr  Pr60  1  0.33035243  0.37241181  0.33398567  1
  Pr  Pr61  1  0.83277101  0.37238539  0.50453657  1
  Pr  Pr62  1  0.83003377  0.37610048  0.82800590  1
  Pr  Pr63  1  0.83664740  0.87446216  0.50303092  1
  Pr  Pr64  1  0.66014717  0.12633805  0.99340194  1
  Pr  Pr65  1  0.00383812  0.12578980  0.99675013  1
  Pr  Pr66  1  0.33062966  0.37533403  0.66501100  1
  Pr  Pr67  1  0.33231499  0.12595829  0.66149819  1
  Pr  Pr68  1  0.00303749  0.62280849  0.66485237  1
  Pr  Pr69  1  0.32962268  0.37400618  0.00377511  1
  Pr  Pr70  1  0.67733736  0.62557468  0.33046351  1
  Pr  Pr71  1  0.67126377  0.62343338  0.99626616  1
  Mn  Mn72  1  -0.00494535  0.00050156  0.16690345  1
  Mn  Mn73  1  0.00022852  -0.00096657  0.49869763  1
  Mn  Mn74  1  -0.00021179  -0.00033358  0.83669793  1
  Mn  Mn75  1  -0.00045762  0.50020164  0.16838916  1
  Mn  Mn76  1  -0.00036104  0.49865216  0.50256869  1
  Mn  Mn77  1  0.00055565  0.50069494  0.83468315  1
  Mn  Mn78  1  0.33291814  0.00089009  0.16600379  1
  Mn  Mn79  1  0.33620218  0.00092292  0.49946017  1
  Mn  Mn80  1  0.33223715  0.00222569  0.83361045  1
  Mn  Mn81  1  0.33892072  0.49784583  0.16596835  1
  Mn  Mn82  1  0.33550230  0.49796094  0.49836499  1
  Mn  Mn83  1  0.33336084  0.49804104  0.83293322  1
  Mn  Mn84  1  0.66538832  0.00216722  0.16537532  1
  Mn  Mn85  1  0.66719150  0.00129211  0.49878850  1
  Mn  Mn86  1  0.66393865  -0.00047473  0.83514412  1
  Mn  Mn87  1  0.66654319  0.49890966  0.16477890  1
  Mn  Mn88  1  0.66735271  0.49713290  0.49759831  1
  Mn  Mn89  1  0.66631613  0.49997358  0.83340028  1
  Mn  Mn90  1  -0.00497722  0.24706302  0.16755225  1
  Mn  Mn91  1  -0.00266282  0.25259908  0.49963977  1
  Mn  Mn92  1  -0.00114694  0.25081365  0.83470840  1
  Mn  Mn93  1  -0.00108748  0.75338674  0.16850698  1
  Mn  Mn94  1  0.00257331  0.74817159  0.50207644  1
  Mn  Mn95  1  0.00154711  0.74991477  0.83634566  1
  Mn  Mn96  1  0.33301061  0.24858647  0.16503561  1
  Mn  Mn97  1  0.33691751  0.25102851  0.49940574  1
  Mn  Mn98  1  0.33151231  0.24987815  0.83336647  1
  Mn  Mn99  1  0.33760383  0.75290499  0.16606134  1
  Mn  Mn100  1  0.33470996  0.74997887  0.49891948  1
  Mn  Mn101  1  0.33421445  0.74953831  0.83306455  1
  Mn  Mn102  1  0.66480616  0.24852853  0.16597367  1
  Mn  Mn103  1  0.66735537  0.25057646  0.49826321  1
  Mn  Mn104  1  0.66309340  0.25232233  0.83256180  1
  Mn  Mn105  1  0.66711333  0.75047062  0.16365720  1
  Mn  Mn106  1  0.66798856  0.75123246  0.49782534  1
  Mn  Mn107  1  0.66726018  0.74814452  0.83548842  1
  Mn  Mn108  1  0.16519693  0.24808415  -0.00097760  1
  Mn  Mn109  1  0.16494099  0.24942128  0.33230426  1
  Mn  Mn110  1  0.16693667  0.25283931  0.66744469  1
  Mn  Mn111  1  0.16696653  0.75209206  -0.00028149  1
  Mn  Mn112  1  0.17061217  0.75157071  0.33489971  1
  Mn  Mn113  1  0.16874068  0.74860723  0.66738464  1
  Mn  Mn114  1  0.49707890  0.24922677  -0.00225533  1
  Mn  Mn115  1  0.50018398  0.24922473  0.33047148  1
  Mn  Mn116  1  0.49776853  0.25135855  0.66571338  1
  Mn  Mn117  1  0.50094728  0.75020848  0.00049155  1
  Mn  Mn118  1  0.50262917  0.75081964  0.33132151  1
  Mn  Mn119  1  0.49983725  0.74965471  0.66552741  1
  Mn  Mn120  1  0.82970486  0.25084808  0.00178092  1
  Mn  Mn121  1  0.83370406  0.24879993  0.33497691  1
  Mn  Mn122  1  0.83252123  0.25171830  0.66744924  1
  Mn  Mn123  1  0.83214206  0.74887135  0.00057749  1
  Mn  Mn124  1  0.83580035  0.75130592  0.33334679  1
  Mn  Mn125  1  0.83465790  0.74958475  0.66769390  1
  Mn  Mn126  1  0.16518193  -0.00079396  -0.00038428  1
  Mn  Mn127  1  0.16664643  0.00192807  0.33120740  1
  Mn  Mn128  1  0.16756117  -0.00112226  0.66613164  1
  Mn  Mn129  1  0.16764484  0.50085458  -0.00068768  1
  Mn  Mn130  1  0.16972132  0.49739915  0.33508112  1
  Mn  Mn131  1  0.16781993  0.49873496  0.66901472  1
  Mn  Mn132  1  0.49759023  0.00186388  -0.00042557  1
  Mn  Mn133  1  0.49894454  0.00314705  0.33274904  1
  Mn  Mn134  1  0.49897899  0.00171874  0.66640240  1
  Mn  Mn135  1  0.50079491  0.49936836  -0.00012511  1
  Mn  Mn136  1  0.50327772  0.49589742  0.32922670  1
  Mn  Mn137  1  0.49835849  0.49713925  0.66548691  1
  Mn  Mn138  1  0.83063365  -0.00153905  0.00270822  1
  Mn  Mn139  1  0.83530420  0.00230957  0.33541545  1
  Mn  Mn140  1  0.83247875  -0.00089806  0.66838898  1
  Mn  Mn141  1  0.83149024  0.50314677  -0.00053067  1
  Mn  Mn142  1  0.83442541  0.49765218  0.33173972  1
  Mn  Mn143  1  0.83431305  0.49875129  0.66757426  1
  O  O144  1  0.16587623  0.12267124  0.02403200  1
  O  O145  1  0.16821894  0.12631202  0.34492064  1
  O  O146  1  0.17488953  0.12935088  0.68670610  1
  O  O147  1  0.16259706  0.62830243  0.01072428  1
  O  O148  1  0.16916584  0.62410001  0.34273729  1
  O  O149  1  0.16793952  0.62189643  0.69352483  1
  O  O150  1  0.50599596  0.12689097  0.01952122  1
  O  O151  1  0.49248595  0.12754893  0.35083646  1
  O  O152  1  0.49350082  0.12882521  0.68990124  1
  O  O153  1  0.50711972  0.62106708  0.02695507  1
  O  O154  1  0.48952831  0.61925030  0.33829895  1
  O  O155  1  0.49432530  0.61970516  0.68732563  1
  O  O156  1  0.82378609  0.12059826  0.02326013  1
  O  O157  1  0.83944206  0.12772750  0.36518463  1
  O  O158  1  0.83296396  0.12552519  0.67276891  1
  O  O159  1  0.82350389  0.62732856  0.03041633  1
  O  O160  1  0.82599557  0.62340801  0.34175106  1
  O  O161  1  0.83901603  0.62427737  0.68715227  1
  O  O162  1  0.16678792  0.37184076  0.32076341  1
  O  O163  1  0.17069034  0.37666971  0.64334093  1
  O  O164  1  0.17225728  0.37191495  0.97911848  1
  O  O165  1  0.16605295  0.87818150  0.32224737  1
  O  O166  1  0.16846782  0.87024811  0.64171604  1
  O  O167  1  0.15927969  0.87695808  0.97595156  1
  O  O168  1  0.51424659  0.37160723  0.30407890  1
  O  O169  1  0.48941531  0.37364792  0.64337159  1
  O  O170  1  0.49735701  0.37353983  0.97345015  1
  O  O171  1  0.49693580  0.88082109  0.30970368  1
  O  O172  1  0.49778976  0.87778725  0.64757789  1
  O  O173  1  0.50362798  0.87855672  0.97434419  1
  O  O174  1  0.83511437  0.37299486  0.30439567  1
  O  O175  1  0.83864850  0.37594377  0.65129308  1
  O  O176  1  0.82758737  0.38224776  0.97331049  1
  O  O177  1  0.84149226  0.87707153  0.30837776  1
  O  O178  1  0.83600041  0.87325046  0.65169978  1
  O  O179  1  0.83611420  0.87153077  0.97201252  1
  O  O180  1  -0.00923562  0.36993120  0.19057025  1
  O  O181  1  -0.00269430  0.37696988  0.51931886  1
  O  O182  1  0.00003123  0.37674413  0.84801923  1
  O  O183  1  -0.00884126  0.87752193  0.19478371  1
  O  O184  1  0.00215104  0.87257804  0.50897752  1
  O  O185  1  0.00100701  0.87390423  0.86053919  1
  O  O186  1  0.33887246  0.37182012  0.18633024  1
  O  O187  1  0.34236818  0.37362185  0.52140813  1
  O  O188  1  0.33850591  0.37185336  0.86300549  1
  O  O189  1  0.33947750  0.88014132  0.18981961  1
  O  O190  1  0.33038064  0.87639656  0.51041881  1
  O  O191  1  0.33593584  0.87950789  0.85146068  1
  O  O192  1  0.66680768  0.37240591  0.19332192  1
  O  O193  1  0.66413743  0.37358835  0.51035696  1
  O  O194  1  0.66775703  0.37756930  0.85628747  1
  O  O195  1  0.66437487  0.87594225  0.17957317  1
  O  O196  1  0.65774569  0.87774177  0.50505658  1
  O  O197  1  0.66689191  0.87194289  0.85787605  1
  O  O198  1  -0.01020084  0.12175125  0.13950988  1
  O  O199  1  -0.00918008  0.12675107  0.47896872  1
  O  O200  1  0.00478516  0.12496488  0.82288428  1
  O  O201  1  -0.00743034  0.63059416  0.14749095  1
  O  O202  1  0.00092591  0.62250040  0.47479657  1
  O  O203  1  0.00017629  0.62487845  0.80891222  1
  O  O204  1  0.33142938  0.12523708  0.14351999  1
  O  O205  1  0.33824103  0.12744344  0.47343967  1
  O  O206  1  0.33168714  0.12871116  0.80480674  1
  O  O207  1  0.34702320  0.62243660  0.16184285  1
  O  O208  1  0.33475353  0.62248709  0.47098163  1
  O  O209  1  0.32626244  0.61981818  0.81030290  1
  O  O210  1  0.67367341  0.12544268  0.13762006  1
  O  O211  1  0.67885605  0.12773649  0.47755043  1
  O  O212  1  0.65886451  0.12808794  0.82478630  1
  O  O213  1  0.66268008  0.62608700  0.13911643  1
  O  O214  1  0.66853167  0.62095416  0.47536396  1
  O  O215  1  0.65541317  0.62265214  0.82046539  1
  O  O216  1  0.07926843  0.02315179  0.24540508  1
  O  O217  1  0.08401310  0.00609395  0.58020326  1
  O  O218  1  0.08452106  0.02212319  0.91754696  1
  O  O219  1  0.08242688  0.51028638  0.25601761  1
  O  O220  1  0.08394687  0.51414799  0.59033931  1
  O  O221  1  0.08475539  0.51982855  0.91317610  1
  O  O222  1  0.40769325  0.01895673  0.25800712  1
  O  O223  1  0.41321252  0.02051064  0.58688372  1
  O  O224  1  0.41127933  0.02601441  0.92088227  1
  O  O225  1  0.43650330  0.50316624  0.23332703  1
  O  O226  1  0.41420617  0.51508825  0.58323260  1
  O  O227  1  0.42843711  0.51676688  0.90413977  1
  O  O228  1  0.74909007  0.02440375  0.25790987  1
  O  O229  1  0.74943759  0.00785932  0.58173472  1
  O  O230  1  0.73783971  0.00935893  0.92980120  1
  O  O231  1  0.75856343  0.51718524  0.23594108  1
  O  O232  1  0.75567597  0.49905358  0.57599921  1
  O  O233  1  0.75763288  0.52573575  0.91055931  1
  O  O234  1  0.24881723  0.23059185  0.24574259  1
  O  O235  1  0.25581484  0.24094884  0.58947528  1
  O  O236  1  0.24713776  0.22479106  0.91262078  1
  O  O237  1  0.26411683  0.74278354  0.26068501  1
  O  O238  1  0.25671290  0.73014159  0.58830688  1
  O  O239  1  0.24650464  0.74121186  0.91100847  1
  O  O240  1  0.58242558  0.22513902  0.24646898  1
  O  O241  1  0.57767300  0.24400477  0.57286843  1
  O  O242  1  0.57500886  0.23490265  0.91279357  1
  O  O243  1  0.59261926  0.72662784  0.25235219  1
  O  O244  1  0.58332181  0.74439087  0.58244504  1
  O  O245  1  0.58955068  0.73064986  0.92522526  1
  O  O246  1  0.91513460  0.22368756  0.25371965  1
  O  O247  1  0.90924390  0.24119233  0.57301935  1
  O  O248  1  0.91778605  0.23459574  0.92749971  1
  O  O249  1  0.92215894  0.72862405  0.25602938  1
  O  O250  1  0.92356439  0.73438016  0.59022473  1
  O  O251  1  0.92090750  0.72467811  0.92635811  1
  O  O252  1  0.07631323  0.49627915  0.08290623  1
  O  O253  1  0.07983357  0.47971065  0.41866412  1
  O  O254  1  0.08592115  0.48258144  0.75243273  1
  O  O255  1  0.07114510  0.98639665  0.07751208  1
  O  O256  1  0.08466452  0.98427289  0.41566178  1
  O  O257  1  0.08914116  0.98681609  0.75881617  1
  O  O258  1  0.41358860  0.47443528  0.07523441  1
  O  O259  1  0.41619667  0.47367118  0.40247481  1
  O  O260  1  0.41017784  0.47664210  0.74620548  1
  O  O261  1  0.42181277  0.98485439  0.08803547  1
  O  O262  1  0.42253977  0.97765998  0.42070125  1
  O  O263  1  0.42175722  0.99092836  0.75978344  1
  O  O264  1  0.73737168  0.47978004  0.07215580  1
  O  O265  1  0.74553866  0.48063190  0.40290952  1
  O  O266  1  0.74863719  0.48271925  0.74946452  1
  O  O267  1  0.75224738  0.97497377  0.08737329  1
  O  O268  1  0.76455375  0.98443465  0.42565878  1
  O  O269  1  0.75178860  0.98484481  0.76160216  1
  O  O270  1  0.25515167  0.26049163  0.07453578  1
  O  O271  1  0.25513144  0.26897616  0.41733407  1
  O  O272  1  0.25066383  0.27741011  0.75351214  1
  O  O273  1  0.24951131  0.76162470  0.08188228  1
  O  O274  1  0.24865886  0.77208329  0.41987086  1
  O  O275  1  0.24625020  0.76399212  0.75463540  1
  O  O276  1  0.58190586  0.27192426  0.07659491  1
  O  O277  1  0.58998721  0.26234994  0.40833929  1
  O  O278  1  0.57880741  0.27207685  0.75025011  1
  O  O279  1  0.57886177  0.77192970  0.08735235  1
  O  O280  1  0.57731576  0.76216426  0.41747464  1
  O  O281  1  0.57697946  0.76164813  0.76131609  1
  O  O282  1  0.90512395  0.26278911  0.09431208  1
  O  O283  1  0.91786894  0.27688037  0.41231474  1
  O  O284  1  0.91409059  0.26628795  0.75580355  1
  O  O285  1  0.90773217  0.77242026  0.08860546  1
  O  O286  1  0.91791659  0.76882637  0.41792314  1
  O  O287  1  0.91192041  0.76280694  0.76450784  1
  O  O288  1  0.25434153  0.48646437  0.08249440  1
  O  O289  1  0.24870518  0.47381385  0.42292126  1
  O  O290  1  0.24820424  0.47167454  0.75391098  1
  O  O291  1  0.25329222  0.99030452  0.07712120  1
  O  O292  1  0.25651508  0.98597813  0.41247315  1
  O  O293  1  0.24663540  0.98640580  0.75638766  1
  O  O294  1  0.57640148  0.47482342  0.09296607  1
  O  O295  1  0.57953040  0.47652099  0.41564836  1
  O  O296  1  0.57327228  0.48353515  0.75934617  1
  O  O297  1  0.58435384  0.98308352  0.07565153  1
  O  O298  1  0.58601334  1.00015257  0.41252053  1
  O  O299  1  0.57904755  0.98813943  0.75529595  1
  O  O300  1  0.90165774  0.48967429  0.09422862  1
  O  O301  1  0.91158000  0.47667241  0.41896311  1
  O  O302  1  0.90934818  0.48825168  0.76219905  1
  O  O303  1  0.91005922  0.97384187  0.08844395  1
  O  O304  1  0.92420962  0.97922205  0.40847513  1
  O  O305  1  0.91413426  0.98456006  0.76033950  1
  O  O306  1  0.07978089  0.25111527  0.08364276  1
  O  O307  1  0.07897734  0.26890304  0.41550861  1
  O  O308  1  0.08940612  0.26566077  0.75486215  1
  O  O309  1  0.07153155  0.76579693  0.07705320  1
  O  O310  1  0.08608949  0.76649910  0.41831467  1
  O  O311  1  0.08920495  0.76430284  0.75884532  1
  O  O312  1  0.41689577  0.26925449  0.08157482  1
  O  O313  1  0.42261218  0.27620232  0.41469930  1
  O  O314  1  0.41366575  0.27266134  0.75293371  1
  O  O315  1  0.41830238  0.77155106  0.08015699  1
  O  O316  1  0.41373206  0.77000366  0.41084074  1
  O  O317  1  0.41802195  0.75608192  0.75264172  1
  O  O318  1  0.74730875  0.27484133  0.08574631  1
  O  O319  1  0.75432971  0.27546538  0.41609975  1
  O  O320  1  0.74969385  0.26888384  0.75537300  1
  O  O321  1  0.74385173  0.77452468  0.07533087  1
  O  O322  1  0.75377599  0.76396869  0.41389856  1
  O  O323  1  0.75291394  0.75973636  0.75628943  1
  O  O324  1  0.24727282  0.02247032  0.24506458  1
  O  O325  1  0.25442070  0.01546068  0.58399946  1
  O  O326  1  0.24771336  0.02317225  0.91318636  1
  O  O327  1  0.26950609  0.50652830  0.26033975  1
  O  O328  1  0.25620247  0.51215121  0.59619436  1
  O  O329  1  0.24889073  0.51051029  0.91132277  1
  O  O330  1  0.58102920  0.02126234  0.24676935  1
  O  O331  1  0.57711793  0.00979686  0.57685433  1
  O  O332  1  0.57611118  0.01952362  0.91430192  1
  O  O333  1  0.59668374  0.52367871  0.25705946  1
  O  O334  1  0.58226695  0.50043704  0.58531943  1
  O  O335  1  0.59310071  0.51290138  0.92949591  1
  O  O336  1  0.91287698  0.02691284  0.24949480  1
  O  O337  1  0.91050200  0.00593153  0.57160875  1
  O  O338  1  0.92191070  0.01324571  0.92996009  1
  O  O339  1  0.92418255  0.52029078  0.25896816  1
  O  O340  1  0.92477630  0.51533548  0.59303834  1
  O  O341  1  0.92031762  0.52813417  0.92564194  1
  O  O342  1  0.07796101  0.22639521  0.24657923  1
  O  O343  1  0.08351626  0.24707377  0.58131195  1
  O  O344  1  0.08513418  0.23066974  0.91698871  1
  O  O345  1  0.08272515  0.73981845  0.25658490  1
  O  O346  1  0.08239218  0.72902385  0.59109387  1
  O  O347  1  0.08336203  0.72849766  0.91582697  1
  O  O348  1  0.41030685  0.23657232  0.25419389  1
  O  O349  1  0.41392067  0.22968283  0.58533484  1
  O  O350  1  0.41138722  0.22365455  0.91833060  1
  O  O351  1  0.43055893  0.74068356  0.24150239  1
  O  O352  1  0.41557437  0.73670546  0.58085543  1
  O  O353  1  0.42687033  0.73450761  0.90971213  1
  O  O354  1  0.74927458  0.22592367  0.25659752  1
  O  O355  1  0.75117176  0.24448500  0.57844433  1
  O  O356  1  0.73734965  0.24026666  0.92647630  1
  O  O357  1  0.75663525  0.73452461  0.23874368  1
  O  O358  1  0.75462294  0.74938847  0.57717829  1
  O  O359  1  0.75541627  0.72579550  0.91387830  1
