# generated using pymatgen
data_Ba17Sr5La8Pr42Mn72O216
_symmetry_space_group_name_H-M   'P 1'
_cell_length_a   16.67505359
_cell_length_b   15.70694280
_cell_length_c   16.82087744
_cell_angle_alpha   89.99734599
_cell_angle_beta   89.98200835
_cell_angle_gamma   89.99055462
_symmetry_Int_Tables_number   1
_chemical_formula_structural   Ba17Sr5La8Pr42Mn72O216
_chemical_formula_sum   'Ba17 Sr5 La8 Pr42 Mn72 O216'
_cell_volume   4405.62491261
_cell_formula_units_Z   1
loop_
 _symmetry_equiv_pos_site_id
 _symmetry_equiv_pos_as_xyz
  1  'x, y, z'
loop_
 _atom_site_type_symbol
 _atom_site_label
 _atom_site_symmetry_multiplicity
 _atom_site_fract_x
 _atom_site_fract_y
 _atom_site_fract_z
 _atom_site_occupancy
  Ba  Ba0  1  0.50140501  0.37515377  0.82982294  1
  Ba  Ba1  1  0.16726478  0.62490966  0.50232742  1
  Ba  Ba2  1  0.16667309  0.12408762  0.83709086  1
  Ba  Ba3  1  0.50024593  0.12398455  0.16610403  1
  Ba  Ba4  1  -0.00348434  0.87421017  0.33231165  1
  Ba  Ba5  1  0.83415706  0.12461339  0.16515341  1
  Ba  Ba6  1  -0.00482108  0.87446718  0.66483716  1
  Ba  Ba7  1  0.50138270  0.37679548  0.49911920  1
  Ba  Ba8  1  0.83005617  0.87608570  0.16595997  1
  Ba  Ba9  1  0.16927474  0.12424892  0.50417167  1
  Ba  Ba10  1  0.83432933  0.37634740  0.49936209  1
  Ba  Ba11  1  0.00019960  0.62320063  0.99820647  1
  Ba  Ba12  1  0.33609607  0.62707035  0.66547537  1
  Ba  Ba13  1  0.00131089  0.12418888  0.66745106  1
  Ba  Ba14  1  0.33238646  0.37519240  0.00204261  1
  Ba  Ba15  1  0.49952442  0.37474067  0.16475647  1
  Ba  Ba16  1  0.33414286  0.37473047  0.33579174  1
  Sr  Sr17  1  0.66999809  0.37731582  0.66499493  1
  Sr  Sr18  1  0.83432571  0.62551281  0.50079262  1
  Sr  Sr19  1  -0.00018084  0.62547557  0.66221585  1
  Sr  Sr20  1  0.50153570  0.62271770  0.50107342  1
  Sr  Sr21  1  0.16857760  0.37519738  0.50206396  1
  La  La22  1  0.15664186  0.87324933  0.83396900  1
  La  La23  1  0.65966346  0.87463436  0.00344854  1
  La  La24  1  0.34024739  0.62194942  0.33820994  1
  La  La25  1  0.32571658  0.87359405  0.66876013  1
  La  La26  1  0.50398851  0.12530629  0.83517809  1
  La  La27  1  0.66416808  0.87086143  0.66699843  1
  La  La28  1  0.66636029  0.37178457  0.33618080  1
  La  La29  1  0.66614265  0.12449053  0.99913090  1
  Pr  Pr30  1  0.66742213  0.12978593  0.66497315  1
  Pr  Pr31  1  0.83943012  0.37729278  0.82472473  1
  Pr  Pr32  1  0.00421726  0.12902938  0.33346984  1
  Pr  Pr33  1  0.15109791  0.87421058  0.16682104  1
  Pr  Pr34  1  0.33065560  0.37851651  0.66776674  1
  Pr  Pr35  1  0.83454233  0.62445523  0.83020592  1
  Pr  Pr36  1  0.17017736  0.12571782  0.17216488  1
  Pr  Pr37  1  0.83521842  0.12335722  0.50070994  1
  Pr  Pr38  1  0.66815757  0.37486010  0.00060849  1
  Pr  Pr39  1  0.00156097  0.61930476  0.33008153  1
  Pr  Pr40  1  0.66695773  0.62003888  0.66046503  1
  Pr  Pr41  1  -0.00920339  0.87709543  0.00298387  1
  Pr  Pr42  1  0.16722963  0.37886123  0.83091111  1
  Pr  Pr43  1  0.83402436  0.12688983  0.83510225  1
  Pr  Pr44  1  0.16993298  0.62389521  0.17431660  1
  Pr  Pr45  1  0.67090440  0.12969437  0.32986543  1
  Pr  Pr46  1  0.31836143  0.87686243  0.00634498  1
  Pr  Pr47  1  0.83092942  0.87257412  0.83153335  1
  Pr  Pr48  1  0.17191319  0.62683087  0.83332976  1
  Pr  Pr49  1  0.50291613  0.12667457  0.49847171  1
  Pr  Pr50  1  0.49641940  0.87041842  0.49713521  1
  Pr  Pr51  1  0.66788537  0.62527635  0.99868467  1
  Pr  Pr52  1  0.16659592  0.37697706  0.16660797  1
  Pr  Pr53  1  0.49018212  0.87296569  0.16330945  1
  Pr  Pr54  1  0.00590726  0.37622496  0.66363194  1
  Pr  Pr55  1  0.50769409  0.62415176  0.83206178  1
  Pr  Pr56  1  0.34204816  0.12764484  0.99781288  1
  Pr  Pr57  1  0.00318778  0.37288067  0.33712909  1
  Pr  Pr58  1  0.66891220  0.62117261  0.33385792  1
  Pr  Pr59  1  0.66560142  0.88024081  0.33561769  1
  Pr  Pr60  1  -0.00365096  0.12289451  0.99407912  1
  Pr  Pr61  1  0.00296624  0.37291372  -0.00090556  1
  Pr  Pr62  1  0.33926181  0.62378680  0.99758716  1
  Pr  Pr63  1  0.34119899  0.12851761  0.33474669  1
  Pr  Pr64  1  0.33961008  0.12634091  0.66584720  1
  Pr  Pr65  1  0.50190538  0.62308809  0.16793596  1
  Pr  Pr66  1  0.32706874  0.87817865  0.33773004  1
  Pr  Pr67  1  0.49307113  0.87528192  0.82888891  1
  Pr  Pr68  1  0.83554696  0.37562557  0.16365411  1
  Pr  Pr69  1  0.83393570  0.87332660  0.49449441  1
  Pr  Pr70  1  0.15759447  0.87321370  0.50255238  1
  Pr  Pr71  1  0.83299897  0.62926288  0.16970278  1
  Mn  Mn72  1  -0.00074390  0.00303681  0.16508276  1
  Mn  Mn73  1  -0.00134840  -0.00050565  0.49931483  1
  Mn  Mn74  1  -0.00348313  -0.00094793  0.83482647  1
  Mn  Mn75  1  -0.00010984  0.49865846  0.16489039  1
  Mn  Mn76  1  0.00055099  0.50008328  0.49891146  1
  Mn  Mn77  1  0.00125145  0.50161205  0.83058844  1
  Mn  Mn78  1  0.32970731  -0.00141759  0.17005876  1
  Mn  Mn79  1  0.33606071  -0.00214288  0.50266686  1
  Mn  Mn80  1  0.33332928  -0.00176749  0.83589089  1
  Mn  Mn81  1  0.33218590  0.50280755  0.16674135  1
  Mn  Mn82  1  0.33485859  0.50049858  0.50164469  1
  Mn  Mn83  1  0.33422345  0.50234233  0.83412814  1
  Mn  Mn84  1  0.66327073  -0.00132451  0.16753605  1
  Mn  Mn85  1  0.66600384  -0.00009993  0.50194785  1
  Mn  Mn86  1  0.66742313  -0.00222221  0.83212988  1
  Mn  Mn87  1  0.66874374  0.50087843  0.16515358  1
  Mn  Mn88  1  0.66836649  0.50070832  0.49808051  1
  Mn  Mn89  1  0.66963807  0.50147655  0.83196030  1
  Mn  Mn90  1  0.00156189  0.25116950  0.16550798  1
  Mn  Mn91  1  0.00094514  0.25057541  0.49998066  1
  Mn  Mn92  1  0.00006685  0.25218264  0.83356335  1
  Mn  Mn93  1  -0.00127161  0.74777781  0.16473915  1
  Mn  Mn94  1  -0.00236685  0.74825419  0.49871235  1
  Mn  Mn95  1  -0.00175264  0.74748908  0.83302719  1
  Mn  Mn96  1  0.33172667  0.24858131  0.16715973  1
  Mn  Mn97  1  0.33546380  0.24815711  0.50183748  1
  Mn  Mn98  1  0.33308321  0.24943073  0.83255515  1
  Mn  Mn99  1  0.33048449  0.75052169  0.16782858  1
  Mn  Mn100  1  0.33492103  0.75290214  0.50061524  1
  Mn  Mn101  1  0.33401947  0.75129907  0.83781233  1
  Mn  Mn102  1  0.66883453  0.25116216  0.16587161  1
  Mn  Mn103  1  0.66802793  0.24879905  0.49876591  1
  Mn  Mn104  1  0.66908710  0.25001866  0.83177481  1
  Mn  Mn105  1  0.66352182  0.75006694  0.16668427  1
  Mn  Mn106  1  0.66643286  0.75041357  0.50034137  1
  Mn  Mn107  1  0.66710279  0.75011701  0.83320578  1
  Mn  Mn108  1  0.16482928  0.24945218  0.00365410  1
  Mn  Mn109  1  0.16837045  0.24868047  0.33520503  1
  Mn  Mn110  1  0.16952552  0.25050415  0.66906893  1
  Mn  Mn111  1  0.16562152  0.74911532  0.00289377  1
  Mn  Mn112  1  0.16767132  0.75072038  0.33428115  1
  Mn  Mn113  1  0.16403097  0.75114746  0.66846331  1
  Mn  Mn114  1  0.50209837  0.24984033  -0.00212096  1
  Mn  Mn115  1  0.50168740  0.24934831  0.33321167  1
  Mn  Mn116  1  0.50118102  0.24944953  0.66593003  1
  Mn  Mn117  1  0.49793936  0.75055425  -0.00160060  1
  Mn  Mn118  1  0.50175621  0.75067170  0.33084643  1
  Mn  Mn119  1  0.50113647  0.75141835  0.66518067  1
  Mn  Mn120  1  0.83205951  0.25317498  -0.00283171  1
  Mn  Mn121  1  0.83555371  0.25036209  0.33163330  1
  Mn  Mn122  1  0.83417214  0.24992653  0.66648568  1
  Mn  Mn123  1  0.83055725  0.74704920  -0.00186747  1
  Mn  Mn124  1  0.83145447  0.74829322  0.33436442  1
  Mn  Mn125  1  0.83112453  0.74944177  0.66407934  1
  Mn  Mn126  1  0.16359773  0.00090482  0.00470036  1
  Mn  Mn127  1  0.16699075  0.00015538  0.33526657  1
  Mn  Mn128  1  0.16810393  -0.00056547  0.66980160  1
  Mn  Mn129  1  0.16686783  0.50161928  0.00113241  1
  Mn  Mn130  1  0.16758558  0.50001191  0.33521952  1
  Mn  Mn131  1  0.16648006  0.50024293  0.66703325  1
  Mn  Mn132  1  0.49816321  -0.00314420  -0.00215160  1
  Mn  Mn133  1  0.50068222  -0.00286444  0.33372406  1
  Mn  Mn134  1  0.50142241  -0.00114536  0.66561400  1
  Mn  Mn135  1  0.50246612  0.50218494  -0.00089872  1
  Mn  Mn136  1  0.50235336  0.50294184  0.33302189  1
  Mn  Mn137  1  0.50132936  0.49990832  0.66553554  1
  Mn  Mn138  1  0.83010272  0.00048063  -0.00344632  1
  Mn  Mn139  1  0.83244659  0.00075149  0.33456935  1
  Mn  Mn140  1  0.82922162  -0.00043515  0.66601724  1
  Mn  Mn141  1  0.83171398  0.49899298  -0.00243693  1
  Mn  Mn142  1  0.83401543  0.50124383  0.33009567  1
  Mn  Mn143  1  0.83558685  0.50049926  0.66446182  1
  O  O144  1  0.15285440  0.12462294  0.02745697  1
  O  O145  1  0.15465323  0.12444149  0.34728139  1
  O  O146  1  0.17557904  0.12375217  0.67946047  1
  O  O147  1  0.17023452  0.62869774  0.02862671  1
  O  O148  1  0.15344514  0.62650748  0.34321024  1
  O  O149  1  0.16321030  0.62654578  0.68849552  1
  O  O150  1  0.50025979  0.12237329  0.00842753  1
  O  O151  1  0.49581768  0.11789485  0.35450210  1
  O  O152  1  0.49888969  0.12027999  0.69276078  1
  O  O153  1  0.50166263  0.62980148  0.02370387  1
  O  O154  1  0.49910874  0.63029446  0.35096734  1
  O  O155  1  0.50792175  0.62925002  0.68885027  1
  O  O156  1  0.83582177  0.12811724  0.00926857  1
  O  O157  1  0.82553521  0.12427808  0.35475810  1
  O  O158  1  0.82446858  0.12305770  0.69204588  1
  O  O159  1  0.82490831  0.61914393  0.02681932  1
  O  O160  1  0.82545679  0.62489022  0.35032456  1
  O  O161  1  0.82661826  0.62564753  0.68764234  1
  O  O162  1  0.16470544  0.37298560  0.31015332  1
  O  O163  1  0.17318967  0.37412809  0.65489452  1
  O  O164  1  0.16325748  0.37372471  0.97572721  1
  O  O165  1  0.17745562  0.87549898  0.30840326  1
  O  O166  1  0.17133298  0.87624038  0.65149527  1
  O  O167  1  0.17039425  0.87480387  0.97848038  1
  O  O168  1  0.50968483  0.37968759  0.32255160  1
  O  O169  1  0.49690611  0.37228160  0.65639309  1
  O  O170  1  0.50858498  0.37541660  0.98834382  1
  O  O171  1  0.50817792  0.87285339  0.30522143  1
  O  O172  1  0.50899434  0.87756740  0.64031585  1
  O  O173  1  0.50387429  0.87191154  0.97163047  1
  O  O174  1  0.83795361  0.37765261  0.30765478  1
  O  O175  1  0.83418217  0.37474050  0.65690278  1
  O  O176  1  0.82495410  0.37704763  0.96943010  1
  O  O177  1  0.82852329  0.87413350  0.32253260  1
  O  O178  1  0.82315970  0.87630835  0.63905638  1
  O  O179  1  0.83437840  0.87529012  0.97726073  1
  O  O180  1  -0.00598754  0.37502559  0.19299074  1
  O  O181  1  -0.00068489  0.37538191  0.51732317  1
  O  O182  1  -0.00103734  0.37806822  0.85641300  1
  O  O183  1  -0.00165312  0.87355555  0.17528727  1
  O  O184  1  -0.00841736  0.87448817  0.50657669  1
  O  O185  1  -0.00435108  0.87254821  0.85734064  1
  O  O186  1  0.32509898  0.37596582  0.17791456  1
  O  O187  1  0.33409496  0.37054227  0.52045316  1
  O  O188  1  0.32810982  0.37714216  0.84521102  1
  O  O189  1  0.33757338  0.87315282  0.19406644  1
  O  O190  1  0.34649410  0.87709250  0.52465845  1
  O  O191  1  0.34344199  0.87320997  0.86371816  1
  O  O192  1  0.67172189  0.38072370  0.19111342  1
  O  O193  1  0.66639496  0.37139573  0.51225907  1
  O  O194  1  0.67501595  0.37945698  0.85668538  1
  O  O195  1  0.65757617  0.87322754  0.18942875  1
  O  O196  1  0.66721577  0.87691046  0.52588389  1
  O  O197  1  0.67405095  0.87304879  0.86152874  1
  O  O198  1  0.00930756  0.13000027  0.13819215  1
  O  O199  1  -0.00336143  0.12456047  0.47924614  1
  O  O200  1  -0.00940397  0.12617254  0.82588759  1
  O  O201  1  0.00914140  0.62319696  0.15426141  1
  O  O202  1  0.00037731  0.62424330  0.47588396  1
  O  O203  1  -0.00201548  0.62311526  0.81299103  1
  O  O204  1  0.32332871  0.11898041  0.14203719  1
  O  O205  1  0.33862157  0.11828970  0.47859134  1
  O  O206  1  0.33708611  0.12201888  0.81079342  1
  O  O207  1  0.32582539  0.63101367  0.14105248  1
  O  O208  1  0.33544112  0.63237075  0.48269732  1
  O  O209  1  0.32278217  0.62899718  0.82252943  1
  O  O210  1  0.66735166  0.12071088  0.14536804  1
  O  O211  1  0.66702715  0.12052778  0.47332029  1
  O  O212  1  0.66838731  0.11850202  0.80822796  1
  O  O213  1  0.66905953  0.62577181  0.14150151  1
  O  O214  1  0.66744926  0.62972254  0.47762724  1
  O  O215  1  0.66541856  0.62908847  0.80508485  1
  O  O216  1  0.08904906  0.01421901  0.24038018  1
  O  O217  1  0.08527011  -0.00049938  0.57833702  1
  O  O218  1  0.07657649  0.00902106  0.92400102  1
  O  O219  1  0.08597307  0.51143481  0.24795515  1
  O  O220  1  0.07996345  0.50489965  0.58910670  1
  O  O221  1  0.09280584  0.51542946  0.90810611  1
  O  O222  1  0.41458206  0.01132755  0.25189011  1
  O  O223  1  0.42671317  0.02189741  0.57768552  1
  O  O224  1  0.42355695  0.01856952  0.90890711  1
  O  O225  1  0.41828776  0.52312653  0.24771581  1
  O  O226  1  0.42030462  0.50872898  0.58387006  1
  O  O227  1  0.42045060  0.52353303  0.91347587  1
  O  O228  1  0.74813561  0.01091148  0.25676427  1
  O  O229  1  0.74930831  0.02629014  0.58164279  1
  O  O230  1  0.75513239  0.02019872  0.90717702  1
  O  O231  1  0.75071888  0.52369538  0.24568429  1
  O  O232  1  0.74720632  0.51434771  0.58752796  1
  O  O233  1  0.74612712  0.52682488  0.91943253  1
  O  O234  1  0.25296790  0.22493432  0.25588904  1
  O  O235  1  0.26407855  0.23816386  0.59562717  1
  O  O236  1  0.25412376  0.22930226  0.93026558  1
  O  O237  1  0.25743393  0.72615058  0.25888715  1
  O  O238  1  0.25259681  0.75103187  0.58839175  1
  O  O239  1  0.25992594  0.73673232  0.93456360  1
  O  O240  1  0.58902715  0.23684366  0.25363237  1
  O  O241  1  0.58362739  0.22577932  0.58080094  1
  O  O242  1  0.58513000  0.23062461  0.91117036  1
  O  O243  1  0.58834808  0.72358138  0.25241152  1
  O  O244  1  0.59095766  0.73389395  0.59079767  1
  O  O245  1  0.59003380  0.72793020  0.91959754  1
  O  O246  1  0.92487417  0.23177562  0.25164951  1
  O  O247  1  0.90997380  0.23248255  0.57839314  1
  O  O248  1  0.90970437  0.23952812  0.91125283  1
  O  O249  1  0.92040264  0.72580158  0.25296101  1
  O  O250  1  0.91356739  0.73627326  0.58478912  1
  O  O251  1  0.91359254  0.73443335  0.91420272  1
  O  O252  1  0.07983996  0.47537188  0.08055087  1
  O  O253  1  0.08289522  0.48002340  0.41247604  1
  O  O254  1  0.08362388  0.47604668  0.74964662  1
  O  O255  1  0.07755435  0.97572698  0.07913597  1
  O  O256  1  0.08549449  0.98372385  0.41527853  1
  O  O257  1  0.08116032  0.98648120  0.75814436  1
  O  O258  1  0.41571625  0.50120788  0.08334092  1
  O  O259  1  0.41750433  0.49939302  0.41377793  1
  O  O260  1  0.41353350  0.49260403  0.74774793  1
  O  O261  1  0.40532810  0.97833642  0.07917632  1
  O  O262  1  0.41539905  0.97450715  0.41311129  1
  O  O263  1  0.41490119  0.97579325  0.74083875  1
  O  O264  1  0.75287488  0.47414173  0.08390940  1
  O  O265  1  0.74905986  0.48625286  0.40757021  1
  O  O266  1  0.76046176  0.48938372  0.75930751  1
  O  O267  1  0.73899250  0.98684438  0.06885824  1
  O  O268  1  0.74597109  0.97803086  0.42015303  1
  O  O269  1  0.74320082  0.97312556  0.74625447  1
  O  O270  1  0.23756475  0.26043206  0.09557630  1
  O  O271  1  0.25016082  0.25499316  0.42128291  1
  O  O272  1  0.24676399  0.26941625  0.75690298  1
  O  O273  1  0.23864393  0.77568589  0.09624588  1
  O  O274  1  0.24948531  0.77460214  0.42106909  1
  O  O275  1  0.24522230  0.76955695  0.76438576  1
  O  O276  1  0.59486288  0.26031284  0.07516966  1
  O  O277  1  0.58870845  0.25395619  0.41232392  1
  O  O278  1  0.59050045  0.25578721  0.74333732  1
  O  O279  1  0.57069661  0.76966730  0.08917456  1
  O  O280  1  0.58212088  0.77392753  0.42008501  1
  O  O281  1  0.57851269  0.77335957  0.75862186  1
  O  O282  1  0.91760292  0.27434442  0.07795154  1
  O  O283  1  0.92192482  0.26030095  0.40805585  1
  O  O284  1  0.92338196  0.27113268  0.74704011  1
  O  O285  1  0.91083617  0.75633942  0.08439282  1
  O  O286  1  0.90750671  0.75862905  0.42110054  1
  O  O287  1  0.90387591  0.76272153  0.75517411  1
  O  O288  1  0.23903539  0.48877668  0.09336072  1
  O  O289  1  0.24994730  0.49592914  0.41642039  1
  O  O290  1  0.24502862  0.48743216  0.75794909  1
  O  O291  1  0.23834920  0.97661282  0.09843111  1
  O  O292  1  0.24925849  0.97523262  0.42754515  1
  O  O293  1  0.24752763  0.97402073  0.76363782  1
  O  O294  1  0.59415318  0.49018870  0.07535064  1
  O  O295  1  0.59208735  0.49496878  0.40618757  1
  O  O296  1  0.59174085  0.49193761  0.74537687  1
  O  O297  1  0.57224317  0.97588728  0.08540605  1
  O  O298  1  0.57939156  0.97621799  0.42378679  1
  O  O299  1  0.57858364  0.97633199  0.75620581  1
  O  O300  1  0.91568258  0.47506306  0.07762202  1
  O  O301  1  0.92560445  0.49023812  0.40115100  1
  O  O302  1  0.92252449  0.48096208  0.74483474  1
  O  O303  1  0.91678896  0.99065958  0.07715064  1
  O  O304  1  0.90674848  0.99302619  0.42375595  1
  O  O305  1  0.90371944  0.98527319  0.75843593  1
  O  O306  1  0.08195940  0.28111911  0.08534630  1
  O  O307  1  0.08110261  0.26606284  0.41057062  1
  O  O308  1  0.08529939  0.27162118  0.75554795  1
  O  O309  1  0.07562749  0.77269609  0.07371174  1
  O  O310  1  0.08737305  0.76697709  0.41644441  1
  O  O311  1  0.08289692  0.76402134  0.75354288  1
  O  O312  1  0.41192608  0.25095110  0.08001214  1
  O  O313  1  0.41864680  0.25071829  0.41804711  1
  O  O314  1  0.40906582  0.25945110  0.73868306  1
  O  O315  1  0.40485367  0.77230777  0.07522803  1
  O  O316  1  0.41279383  0.77251568  0.40647868  1
  O  O317  1  0.41523555  0.77235103  0.74531790  1
  O  O318  1  0.75452367  0.27457175  0.08326037  1
  O  O319  1  0.74875133  0.26178752  0.41203895  1
  O  O320  1  0.75933358  0.26345191  0.75866399  1
  O  O321  1  0.73544680  0.76432064  0.07283096  1
  O  O322  1  0.74384845  0.77219419  0.41552323  1
  O  O323  1  0.74471701  0.77220107  0.74784120  1
  O  O324  1  0.25621412  0.02307525  0.26148502  1
  O  O325  1  0.26662148  0.00859978  0.59583250  1
  O  O326  1  0.25781164  0.01520516  0.93786832  1
  O  O327  1  0.25223895  0.52341855  0.25344988  1
  O  O328  1  0.25290635  0.50361960  0.58964030  1
  O  O329  1  0.25374120  0.52224735  0.92404296  1
  O  O330  1  0.59020259  0.01616649  0.26377334  1
  O  O331  1  0.58830692  0.02566283  0.58856992  1
  O  O332  1  0.59214807  0.01674164  0.91802113  1
  O  O333  1  0.58427605  0.52450634  0.24537378  1
  O  O334  1  0.58564873  0.51668178  0.58307826  1
  O  O335  1  0.58514083  0.52440851  0.91242815  1
  O  O336  1  0.92572811  0.02057001  0.25651750  1
  O  O337  1  0.90957948  0.01499808  0.58222091  1
  O  O338  1  0.91532415  0.01556773  0.91846364  1
  O  O339  1  0.91335851  0.52398015  0.24295835  1
  O  O340  1  0.91504209  0.51462731  0.58097342  1
  O  O341  1  0.90814510  0.51374071  0.90683634  1
  O  O342  1  0.08697697  0.23341479  0.24575167  1
  O  O343  1  0.08446236  0.24872830  0.58823992  1
  O  O344  1  0.07289494  0.23784177  0.92736482  1
  O  O345  1  0.09082856  0.74061519  0.24028522  1
  O  O346  1  0.08199473  0.74636190  0.58098173  1
  O  O347  1  0.09701743  0.73445781  0.91013158  1
  O  O348  1  0.41430247  0.23546837  0.25287817  1
  O  O349  1  0.42250306  0.22311732  0.58081443  1
  O  O350  1  0.41867374  0.23117049  0.91028640  1
  O  O351  1  0.42370526  0.73137142  0.23678637  1
  O  O352  1  0.42737371  0.74228133  0.57474709  1
  O  O353  1  0.42555904  0.72464019  0.90920390  1
  O  O354  1  0.74928898  0.23953731  0.25181232  1
  O  O355  1  0.74728498  0.22836743  0.58361136  1
  O  O356  1  0.74513372  0.22818708  0.92118817  1
  O  O357  1  0.75244368  0.73114061  0.24671930  1
  O  O358  1  0.74794656  0.73129853  0.58354560  1
  O  O359  1  0.75288012  0.72466412  0.90942787  1
