# generated using pymatgen
data_Ba17Sr5La8Pr42Mn72O216
_symmetry_space_group_name_H-M   'P 1'
_cell_length_a   16.67205042
_cell_length_b   15.70566628
_cell_length_c   16.81472772
_cell_angle_alpha   90.00133876
_cell_angle_beta   90.01868920
_cell_angle_gamma   89.97510088
_symmetry_Int_Tables_number   1
_chemical_formula_structural   Ba17Sr5La8Pr42Mn72O216
_chemical_formula_sum   'Ba17 Sr5 La8 Pr42 Mn72 O216'
_cell_volume   4402.86282999
_cell_formula_units_Z   1
loop_
 _symmetry_equiv_pos_site_id
 _symmetry_equiv_pos_as_xyz
  1  'x, y, z'
loop_
 _atom_site_type_symbol
 _atom_site_label
 _atom_site_symmetry_multiplicity
 _atom_site_fract_x
 _atom_site_fract_y
 _atom_site_fract_z
 _atom_site_occupancy
  Ba  Ba0  1  -0.00082644  0.62544769  0.33020524  1
  Ba  Ba1  1  0.50143881  0.62416516  0.83459204  1
  Ba  Ba2  1  0.49825608  0.87316730  0.16703273  1
  Ba  Ba3  1  0.50340314  0.87471540  0.49970183  1
  Ba  Ba4  1  -0.00068904  0.12516281  0.66432158  1
  Ba  Ba5  1  -0.00260619  0.12378996  0.33043785  1
  Ba  Ba6  1  0.33551669  0.62252123  0.33532514  1
  Ba  Ba7  1  0.83448538  0.37538866  0.83254506  1
  Ba  Ba8  1  0.33513744  0.37448142  0.67051474  1
  Ba  Ba9  1  0.16610792  0.37420217  0.16624206  1
  Ba  Ba10  1  0.66588673  0.12471434  1.00016359  1
  Ba  Ba11  1  0.33203475  0.87420212  0.00297005  1
  Ba  Ba12  1  0.16900565  0.87387090  0.83264522  1
  Ba  Ba13  1  0.00271537  0.87306218  0.33013608  1
  Ba  Ba14  1  -0.00061800  0.37476020  0.66650710  1
  Ba  Ba15  1  0.33428841  0.37489393  0.00377033  1
  Ba  Ba16  1  0.83263413  0.12464038  0.49874832  1
  Sr  Sr17  1  0.49435000  0.62564381  0.16702627  1
  Sr  Sr18  1  0.16417310  0.87472579  0.16423074  1
  Sr  Sr19  1  0.16443930  0.12540481  0.16576279  1
  Sr  Sr20  1  0.16934979  0.87659112  0.49607044  1
  Sr  Sr21  1  0.33475778  0.37475528  0.33819153  1
  La  La22  1  0.33938756  0.87397488  0.67147040  1
  La  La23  1  0.49343395  0.12587187  0.83713590  1
  La  La24  1  0.66979494  0.87347179  0.33478159  1
  La  La25  1  0.83420544  0.87420705  0.16662572  1
  La  La26  1  0.49465653  0.12558737  0.50142931  1
  La  La27  1  0.33387106  0.87296191  0.33348061  1
  La  La28  1  0.66891587  0.37766874  0.00193866  1
  La  La29  1  0.50603830  0.37388218  0.83281303  1
  Pr  Pr30  1  0.49989947  0.37930564  0.16772274  1
  Pr  Pr31  1  0.83445666  0.87866674  0.83403489  1
  Pr  Pr32  1  0.32468045  0.12256438  0.66587836  1
  Pr  Pr33  1  0.82933753  0.62523726  0.17057378  1
  Pr  Pr34  1  0.00190587  0.37447666  -0.00198310  1
  Pr  Pr35  1  0.00332489  0.62512129  0.66211931  1
  Pr  Pr36  1  0.66531102  0.62233691  0.66380232  1
  Pr  Pr37  1  0.17331901  0.62438406  0.16908878  1
  Pr  Pr38  1  0.32514411  0.12228219  0.33359041  1
  Pr  Pr39  1  0.66063218  0.62641716  0.33071647  1
  Pr  Pr40  1  0.67250253  0.87521587  0.66644805  1
  Pr  Pr41  1  0.16570904  0.12773695  0.83442595  1
  Pr  Pr42  1  0.00582892  0.37423191  0.33549912  1
  Pr  Pr43  1  0.66533391  0.62732273  0.99702445  1
  Pr  Pr44  1  0.49216850  0.62521972  0.50500342  1
  Pr  Pr45  1  0.32572083  0.12231972  1.00359834  1
  Pr  Pr46  1  -0.00228014  0.87823768  0.66610350  1
  Pr  Pr47  1  0.66516239  0.12710403  0.66385344  1
  Pr  Pr48  1  0.83429966  0.62959491  0.50253578  1
  Pr  Pr49  1  0.00027054  0.87596562  0.00555153  1
  Pr  Pr50  1  0.83882057  0.87676184  0.49654238  1
  Pr  Pr51  1  0.17260875  0.62280020  0.83339383  1
  Pr  Pr52  1  0.83734864  0.62227975  0.83656339  1
  Pr  Pr53  1  0.00242730  0.12568238  0.99837567  1
  Pr  Pr54  1  0.16134564  0.12407393  0.50028682  1
  Pr  Pr55  1  0.67074174  0.37584467  0.33424140  1
  Pr  Pr56  1  0.16778909  0.37257126  0.49511262  1
  Pr  Pr57  1  0.00520662  0.62419971  0.99746488  1
  Pr  Pr58  1  0.66985796  0.37382835  0.66812466  1
  Pr  Pr59  1  0.33158211  0.62676098  1.00469404  1
  Pr  Pr60  1  0.16731920  0.62497433  0.49909323  1
  Pr  Pr61  1  0.33052363  0.62798073  0.66416443  1
  Pr  Pr62  1  0.50680355  0.87659979  0.83083293  1
  Pr  Pr63  1  0.50684860  0.37640098  0.49658069  1
  Pr  Pr64  1  0.48756694  0.12486072  0.16925046  1
  Pr  Pr65  1  0.84092791  0.37475987  0.49845612  1
  Pr  Pr66  1  0.65952033  0.12318735  0.32622111  1
  Pr  Pr67  1  0.83723171  0.12866691  0.83478797  1
  Pr  Pr68  1  0.66673121  0.87226293  0.00322338  1
  Pr  Pr69  1  0.16655306  0.37464402  0.82829444  1
  Pr  Pr70  1  0.83775946  0.37588433  0.16406123  1
  Pr  Pr71  1  0.82747265  0.12400588  0.17293090  1
  Mn  Mn72  1  -0.00238157  0.00035120  0.16362736  1
  Mn  Mn73  1  0.00186936  -0.00147717  0.49901982  1
  Mn  Mn74  1  0.00051555  -0.00128274  0.83350425  1
  Mn  Mn75  1  -0.00234079  0.50054781  0.16441443  1
  Mn  Mn76  1  0.00024487  0.50157980  0.49829527  1
  Mn  Mn77  1  0.00150639  0.50309215  0.83108183  1
  Mn  Mn78  1  0.32924905  0.00100324  0.16800535  1
  Mn  Mn79  1  0.33357642  0.00044557  0.50081763  1
  Mn  Mn80  1  0.33562033  0.00014574  0.83389926  1
  Mn  Mn81  1  0.33433141  0.49837930  0.16934364  1
  Mn  Mn82  1  0.33346705  0.49849439  0.50314431  1
  Mn  Mn83  1  0.33449876  0.50010008  0.83609405  1
  Mn  Mn84  1  0.66408221  -0.00104973  0.16545829  1
  Mn  Mn85  1  0.66674667  0.00112719  0.49872641  1
  Mn  Mn86  1  0.66853612  0.00028960  0.83211793  1
  Mn  Mn87  1  0.66513687  0.50091047  0.16756890  1
  Mn  Mn88  1  0.66885856  0.50089689  0.49886790  1
  Mn  Mn89  1  0.66864992  0.50081329  0.83282525  1
  Mn  Mn90  1  -0.00363820  0.25108199  0.16522131  1
  Mn  Mn91  1  0.00035131  0.25101988  0.49854336  1
  Mn  Mn92  1  0.00071591  0.24857679  0.83305956  1
  Mn  Mn93  1  -0.00175788  0.74827408  0.16200472  1
  Mn  Mn94  1  0.00207149  0.74878774  0.50004001  1
  Mn  Mn95  1  0.00013847  0.75097870  0.83134966  1
  Mn  Mn96  1  0.33291951  0.25050772  0.17049006  1
  Mn  Mn97  1  0.33403209  0.25008538  0.50205879  1
  Mn  Mn98  1  0.33343664  0.24973410  0.83649511  1
  Mn  Mn99  1  0.33176043  0.74959201  0.16876653  1
  Mn  Mn100  1  0.33349986  0.75130632  0.50149006  1
  Mn  Mn101  1  0.33663503  0.74890233  0.83415794  1
  Mn  Mn102  1  0.66395434  0.25187037  0.16778574  1
  Mn  Mn103  1  0.66678403  0.25074170  0.49823504  1
  Mn  Mn104  1  0.66708381  0.24816813  0.83215191  1
  Mn  Mn105  1  0.66522912  0.74784675  0.16627600  1
  Mn  Mn106  1  0.66859156  0.74820770  0.49983876  1
  Mn  Mn107  1  0.67078240  0.75085154  0.83300137  1
  Mn  Mn108  1  0.16606901  0.24921437  -0.00094944  1
  Mn  Mn109  1  0.16677034  0.24958032  0.33273670  1
  Mn  Mn110  1  0.16782708  0.24973521  0.66576973  1
  Mn  Mn111  1  0.16454112  0.74809038  -0.00039566  1
  Mn  Mn112  1  0.16842422  0.75007698  0.33284888  1
  Mn  Mn113  1  0.16705597  0.75137865  0.66450683  1
  Mn  Mn114  1  0.50009709  0.24981939  0.00229952  1
  Mn  Mn115  1  0.49969120  0.25033062  0.33442525  1
  Mn  Mn116  1  0.50079115  0.24902041  0.66701117  1
  Mn  Mn117  1  0.50074400  0.74820248  -0.00007215  1
  Mn  Mn118  1  0.50063815  0.74933919  0.33464195  1
  Mn  Mn119  1  0.50287649  0.75013310  0.66777543  1
  Mn  Mn120  1  0.83395129  0.25033806  0.00235173  1
  Mn  Mn121  1  0.82928369  0.25266764  0.33194914  1
  Mn  Mn122  1  0.83124494  0.24977766  0.66592439  1
  Mn  Mn123  1  0.83412799  0.74821776  -0.00025271  1
  Mn  Mn124  1  0.83152774  0.74792217  0.33446682  1
  Mn  Mn125  1  0.83340700  0.75029760  0.66906535  1
  Mn  Mn126  1  0.16423577  0.00104179  -0.00049676  1
  Mn  Mn127  1  0.16690300  -0.00133853  0.33150555  1
  Mn  Mn128  1  0.16769199  -0.00296241  0.66448693  1
  Mn  Mn129  1  0.16628175  0.50099022  -0.00125596  1
  Mn  Mn130  1  0.16755683  0.50012752  0.33306199  1
  Mn  Mn131  1  0.16717362  0.50114051  0.66664252  1
  Mn  Mn132  1  0.49930045  0.00102345  0.00005731  1
  Mn  Mn133  1  0.49981760  0.00084057  0.33446807  1
  Mn  Mn134  1  0.50282608  0.00158791  0.66825548  1
  Mn  Mn135  1  0.50137215  0.50046889  0.00171358  1
  Mn  Mn136  1  0.50143947  0.49894044  0.33426007  1
  Mn  Mn137  1  0.50091393  0.49898890  0.66698179  1
  Mn  Mn138  1  0.83344694  0.00069008  0.00007197  1
  Mn  Mn139  1  0.83023339  -0.00123121  0.33316463  1
  Mn  Mn140  1  0.83153798  -0.00169815  0.66668677  1
  Mn  Mn141  1  0.83422888  0.50070890  0.00172339  1
  Mn  Mn142  1  0.83113861  0.49988618  0.33309890  1
  Mn  Mn143  1  0.83221202  0.50345725  0.66629261  1
  O  O144  1  0.16315863  0.12582526  0.01441292  1
  O  O145  1  0.17173383  0.12558964  0.35594540  1
  O  O146  1  0.17075790  0.12013733  0.68903920  1
  O  O147  1  0.15991081  0.62359515  0.02331244  1
  O  O148  1  0.16719501  0.62410533  0.35402355  1
  O  O149  1  0.16453295  0.62731549  0.68998148  1
  O  O150  1  0.49995148  0.12772533  0.02446509  1
  O  O151  1  0.50865404  0.12739408  0.35779105  1
  O  O152  1  0.51311815  0.12334157  0.69335440  1
  O  O153  1  0.51390377  0.62317792  0.01707017  1
  O  O154  1  0.50858799  0.62085757  0.36012741  1
  O  O155  1  0.50532392  0.62475259  0.67903490  1
  O  O156  1  0.84126628  0.12873071  0.02850626  1
  O  O157  1  0.82270745  0.12693321  0.34011897  1
  O  O158  1  0.82538575  0.11908256  0.68883155  1
  O  O159  1  0.83476041  0.62465094  0.02760015  1
  O  O160  1  0.82614329  0.62202668  0.35890978  1
  O  O161  1  0.83002042  0.62989545  0.69373985  1
  O  O162  1  0.16325654  0.37490412  0.32451485  1
  O  O163  1  0.16898383  0.37954079  0.64279379  1
  O  O164  1  0.16005399  0.37620636  0.97254859  1
  O  O165  1  0.17495095  0.87553568  0.31533978  1
  O  O166  1  0.17375854  0.87344016  0.64631150  1
  O  O167  1  0.15656729  0.87396913  0.99056973  1
  O  O168  1  0.50476444  0.37326850  0.31164167  1
  O  O169  1  0.50589962  0.37600074  0.63998820  1
  O  O170  1  0.50276098  0.37430525  0.97729836  1
  O  O171  1  0.49874067  0.87887778  0.32440925  1
  O  O172  1  0.49909600  0.87704649  0.65477661  1
  O  O173  1  0.50355738  0.87369229  0.97660717  1
  O  O174  1  0.82553363  0.37821265  0.30729600  1
  O  O175  1  0.82398961  0.38131670  0.64373619  1
  O  O176  1  0.82657721  0.37550016  0.98660666  1
  O  O177  1  0.82487435  0.87208338  0.31329072  1
  O  O178  1  0.82924155  0.87111772  0.64018507  1
  O  O179  1  0.82987061  0.87071485  0.97496396  1
  O  O180  1  -0.00793257  0.37745958  0.19108627  1
  O  O181  1  0.00013670  0.37844418  0.50957715  1
  O  O182  1  0.00851661  0.37477900  0.85381291  1
  O  O183  1  -0.00011295  0.87269689  0.17175255  1
  O  O184  1  -0.00287867  0.86938911  0.52151360  1
  O  O185  1  -0.00634383  0.87348932  0.86159759  1
  O  O186  1  0.33949543  0.37255722  0.18550680  1
  O  O187  1  0.33049287  0.37348337  0.51522849  1
  O  O188  1  0.32515940  0.37437111  0.84822943  1
  O  O189  1  0.32645676  0.87791258  0.18660183  1
  O  O190  1  0.33230139  0.87687334  0.52689735  1
  O  O191  1  0.34213633  0.87701021  0.84478259  1
  O  O192  1  0.66013137  0.37740890  0.19159437  1
  O  O193  1  0.66048523  0.37750860  0.52632043  1
  O  O194  1  0.66336669  0.37078077  0.85567072  1
  O  O195  1  0.67102281  0.87002257  0.18943022  1
  O  O196  1  0.67162428  0.86988725  0.52399181  1
  O  O197  1  0.67020285  0.87594487  0.85966886  1
  O  O198  1  -0.01391850  0.12701653  0.14434173  1
  O  O199  1  0.00624997  0.12794099  0.48942293  1
  O  O200  1  -0.00133336  0.12223252  0.82024794  1
  O  O201  1  -0.01255206  0.62337345  0.14089799  1
  O  O202  1  -0.00337201  0.62388526  0.48671129  1
  O  O203  1  -0.00551096  0.63129971  0.80501097  1
  O  O204  1  0.33812731  0.12716954  0.14931897  1
  O  O205  1  0.33744396  0.12692730  0.47799509  1
  O  O206  1  0.33532634  0.12436443  0.81034376  1
  O  O207  1  0.32978603  0.62274353  0.15185353  1
  O  O208  1  0.33774378  0.62404364  0.49181592  1
  O  O209  1  0.32929244  0.62341825  0.80911270  1
  O  O210  1  0.67562142  0.12790508  0.15709652  1
  O  O211  1  0.66524853  0.13089059  0.47137373  1
  O  O212  1  0.67103306  0.12301212  0.80777525  1
  O  O213  1  0.67313593  0.62405112  0.14001952  1
  O  O214  1  0.67659313  0.62275430  0.47265954  1
  O  O215  1  0.67448481  0.63021410  0.80775862  1
  O  O216  1  0.08152268  0.01030430  0.24185225  1
  O  O217  1  0.08736914  0.00883349  0.58021862  1
  O  O218  1  0.08463150  0.02036671  0.91289866  1
  O  O219  1  0.08354602  0.51549950  0.24055496  1
  O  O220  1  0.08625056  0.52290689  0.58278542  1
  O  O221  1  0.08708708  0.52515359  0.91094837  1
  O  O222  1  0.41115422  0.02015098  0.25875839  1
  O  O223  1  0.41177727  0.02147322  0.59454062  1
  O  O224  1  0.41205553  0.02358722  0.92237410  1
  O  O225  1  0.42093093  0.50581007  0.25179463  1
  O  O226  1  0.41577807  0.51909511  0.58876127  1
  O  O227  1  0.41271008  0.51743061  0.92697079  1
  O  O228  1  0.74016630  0.01196854  0.25619606  1
  O  O229  1  0.73850194  0.01348272  0.59241562  1
  O  O230  1  0.75768238  0.01708697  0.91098209  1
  O  O231  1  0.74423516  0.52226655  0.25421813  1
  O  O232  1  0.74986834  0.52630385  0.58255361  1
  O  O233  1  0.75457683  0.52316728  0.91833466  1
  O  O234  1  0.24917632  0.23170214  0.25283853  1
  O  O235  1  0.25051757  0.22654115  0.58279696  1
  O  O236  1  0.24747590  0.22656948  0.91438715  1
  O  O237  1  0.24645855  0.73418193  0.24746087  1
  O  O238  1  0.24676378  0.72621929  0.58046838  1
  O  O239  1  0.24869811  0.72781693  0.91842453  1
  O  O240  1  0.57299738  0.23012597  0.24138380  1
  O  O241  1  0.57915837  0.22969965  0.57290283  1
  O  O242  1  0.57571158  0.23430757  0.90489985  1
  O  O243  1  0.58311311  0.73044873  0.24791751  1
  O  O244  1  0.58334357  0.72695187  0.57814482  1
  O  O245  1  0.59222177  0.73920751  0.91757229  1
  O  O246  1  0.89783480  0.23985927  0.23828933  1
  O  O247  1  0.91113013  0.24870312  0.57695368  1
  O  O248  1  0.92009808  0.23234889  0.91959181  1
  O  O249  1  0.90746391  0.73781669  0.24151298  1
  O  O250  1  0.91704577  0.72903407  0.58952778  1
  O  O251  1  0.91758169  0.72480142  0.91783900  1
  O  O252  1  0.07467376  0.48553202  0.07035790  1
  O  O253  1  0.08402296  0.48282288  0.41580450  1
  O  O254  1  0.08656886  0.48840946  0.75134568  1
  O  O255  1  0.07185515  0.99452501  0.07284943  1
  O  O256  1  0.08994326  0.99147790  0.41773400  1
  O  O257  1  0.07940893  0.98041643  0.74461002  1
  O  O258  1  0.42369527  0.48991186  0.09071947  1
  O  O259  1  0.42548332  0.48418383  0.42554219  1
  O  O260  1  0.42178259  0.48377980  0.76044116  1
  O  O261  1  0.41578448  0.99618374  0.08931273  1
  O  O262  1  0.42022907  0.99370951  0.42153982  1
  O  O263  1  0.42990846  0.98699511  0.75931442  1
  O  O264  1  0.74993689  0.48074584  0.08879503  1
  O  O265  1  0.75302484  0.47374535  0.42101064  1
  O  O266  1  0.74347894  0.48808222  0.74264167  1
  O  O267  1  0.75151760  0.97944799  0.08484089  1
  O  O268  1  0.75403368  0.97759245  0.42237967  1
  O  O269  1  0.75271831  0.97361424  0.75159078  1
  O  O270  1  0.25145415  0.25296162  0.08013252  1
  O  O271  1  0.24988572  0.26347709  0.42151555  1
  O  O272  1  0.24825676  0.25863459  0.75382293  1
  O  O273  1  0.24377104  0.75171311  0.08602171  1
  O  O274  1  0.25825075  0.76802515  0.41583598  1
  O  O275  1  0.25907978  0.76011096  0.74159670  1
  O  O276  1  0.58996201  0.27380823  0.07833397  1
  O  O277  1  0.59078042  0.27459912  0.41020147  1
  O  O278  1  0.58783712  0.27125202  0.74221101  1
  O  O279  1  0.59088581  0.76400624  0.07633560  1
  O  O280  1  0.59541256  0.76063439  0.40903245  1
  O  O281  1  0.59081509  0.77218157  0.74737555  1
  O  O282  1  0.91822477  0.27788230  0.07963399  1
  O  O283  1  0.91846347  0.27188194  0.40696877  1
  O  O284  1  0.91414543  0.25341596  0.75288341  1
  O  O285  1  0.91286518  0.77221940  0.08013319  1
  O  O286  1  0.91278016  0.76140589  0.42484613  1
  O  O287  1  0.91542447  0.77836730  0.75118123  1
  O  O288  1  0.24894043  0.49710588  0.08272270  1
  O  O289  1  0.24711129  0.48708688  0.42579275  1
  O  O290  1  0.24349457  0.48871932  0.75702172  1
  O  O291  1  0.24557756  0.99707802  0.08218546  1
  O  O292  1  0.25980632  0.98511890  0.41122646  1
  O  O293  1  0.26306117  0.98714949  0.73943658  1
  O  O294  1  0.58528403  0.47709534  0.08352204  1
  O  O295  1  0.58934159  0.47770824  0.41418608  1
  O  O296  1  0.58478356  0.47922434  0.74638587  1
  O  O297  1  0.58992625  0.98234356  0.07392860  1
  O  O298  1  0.59553817  0.98755244  0.40475003  1
  O  O299  1  0.59279496  0.97689769  0.74259774  1
  O  O300  1  0.91639241  0.47552691  0.08051316  1
  O  O301  1  0.91604929  0.47779529  0.41026844  1
  O  O302  1  0.91428790  0.49647989  0.74942175  1
  O  O303  1  0.91337461  0.97597699  0.08015961  1
  O  O304  1  0.91471575  0.98511677  0.41677330  1
  O  O305  1  0.91515717  0.97744398  0.75195247  1
  O  O306  1  0.07622807  0.26294098  0.07295314  1
  O  O307  1  0.08430660  0.26810756  0.41662336  1
  O  O308  1  0.08977356  0.26200559  0.75522230  1
  O  O309  1  0.07050265  0.75674063  0.06897385  1
  O  O310  1  0.09017456  0.75754342  0.41945157  1
  O  O311  1  0.07665786  0.76786309  0.73950727  1
  O  O312  1  0.42833032  0.26286937  0.10062754  1
  O  O313  1  0.42766809  0.26634561  0.42915653  1
  O  O314  1  0.42620711  0.26251413  0.76609425  1
  O  O315  1  0.41406832  0.74975561  0.08500428  1
  O  O316  1  0.42006124  0.75786696  0.42262430  1
  O  O317  1  0.42488731  0.76727527  0.75417196  1
  O  O318  1  0.75318989  0.26921061  0.09258687  1
  O  O319  1  0.75540552  0.27820358  0.42391006  1
  O  O320  1  0.74579911  0.26303670  0.74690611  1
  O  O321  1  0.75091942  0.76881319  0.08326312  1
  O  O322  1  0.75381497  0.76985397  0.42342851  1
  O  O323  1  0.75360569  0.77719803  0.75265080  1
  O  O324  1  0.24926586  0.02123539  0.25070451  1
  O  O325  1  0.24738923  0.02508109  0.57704046  1
  O  O326  1  0.24768168  0.02025847  0.91306617  1
  O  O327  1  0.24668692  0.51202257  0.24817431  1
  O  O328  1  0.24980993  0.52470343  0.58806323  1
  O  O329  1  0.25085248  0.52531179  0.91858966  1
  O  O330  1  0.57494778  0.02119592  0.24300963  1
  O  O331  1  0.57881015  0.02245713  0.57745255  1
  O  O332  1  0.57602924  0.01248484  0.90252523  1
  O  O333  1  0.58427971  0.52004568  0.24990490  1
  O  O334  1  0.58441731  0.52343241  0.57583035  1
  O  O335  1  0.59273134  0.51065873  0.92172602  1
  O  O336  1  0.90373663  0.00790995  0.23971910  1
  O  O337  1  0.91395549  0.00065532  0.58480224  1
  O  O338  1  0.91755755  0.02089325  0.91849516  1
  O  O339  1  0.90421768  0.51519306  0.24245137  1
  O  O340  1  0.91300183  0.52105481  0.58168481  1
  O  O341  1  0.92169920  0.52007485  0.91798696  1
  O  O342  1  0.07625423  0.24228509  0.24812102  1
  O  O343  1  0.09143399  0.24086209  0.57674023  1
  O  O344  1  0.08372208  0.22928187  0.91439184  1
  O  O345  1  0.08499269  0.73387258  0.23539817  1
  O  O346  1  0.08388812  0.72668628  0.58205375  1
  O  O347  1  0.08531432  0.72542505  0.90860087  1
  O  O348  1  0.41121092  0.22670729  0.26327766  1
  O  O349  1  0.41348304  0.22504426  0.59307406  1
  O  O350  1  0.40946903  0.22778863  0.92682258  1
  O  O351  1  0.41383672  0.74509598  0.25444015  1
  O  O352  1  0.41247749  0.73372756  0.59074764  1
  O  O353  1  0.41302176  0.73056493  0.92415836  1
  O  O354  1  0.73417671  0.24108033  0.26237791  1
  O  O355  1  0.73873903  0.23669868  0.58905507  1
  O  O356  1  0.75578310  0.23198527  0.91422230  1
  O  O357  1  0.74451793  0.72665016  0.25188562  1
  O  O358  1  0.74788662  0.72521836  0.58722638  1
  O  O359  1  0.75384548  0.72527703  0.91735539  1
