# generated using pymatgen
data_Ba17Sr5La8Pr42Mn72O216
_symmetry_space_group_name_H-M   'P 1'
_cell_length_a   16.67981010
_cell_length_b   15.70127567
_cell_length_c   16.82018407
_cell_angle_alpha   90.00567151
_cell_angle_beta   89.94600609
_cell_angle_gamma   89.97321445
_symmetry_Int_Tables_number   1
_chemical_formula_structural   Ba17Sr5La8Pr42Mn72O216
_chemical_formula_sum   'Ba17 Sr5 La8 Pr42 Mn72 O216'
_cell_volume   4405.10781423
_cell_formula_units_Z   1
loop_
 _symmetry_equiv_pos_site_id
 _symmetry_equiv_pos_as_xyz
  1  'x, y, z'
loop_
 _atom_site_type_symbol
 _atom_site_label
 _atom_site_symmetry_multiplicity
 _atom_site_fract_x
 _atom_site_fract_y
 _atom_site_fract_z
 _atom_site_occupancy
  Ba  Ba0  1  0.00107190  0.62559070  0.99806504  1
  Ba  Ba1  1  0.83419681  0.62384317  0.50198965  1
  Ba  Ba2  1  0.16480476  0.12658425  0.49776352  1
  Ba  Ba3  1  0.33531575  0.37620192  0.00107730  1
  Ba  Ba4  1  0.50256036  0.62500651  0.83472412  1
  Ba  Ba5  1  0.16733623  0.37769831  0.83238378  1
  Ba  Ba6  1  0.33664094  0.87585983  0.66802736  1
  Ba  Ba7  1  -0.00144574  0.12517388  0.66402999  1
  Ba  Ba8  1  0.66352687  0.37154926  0.33573268  1
  Ba  Ba9  1  -0.00056665  0.37691015  -0.00111824  1
  Ba  Ba10  1  0.00207181  0.87711114  0.66376493  1
  Ba  Ba11  1  0.83195030  0.12434662  0.83632146  1
  Ba  Ba12  1  0.00089819  0.62374703  0.33311132  1
  Ba  Ba13  1  0.66476792  0.87805712  0.33812261  1
  Ba  Ba14  1  0.83230384  0.12497225  0.16875980  1
  Ba  Ba15  1  0.16814064  0.87455106  0.16328425  1
  Ba  Ba16  1  0.16889824  0.87218566  0.82820737  1
  Sr  Sr17  1  0.50528108  0.87260354  0.82896493  1
  Sr  Sr18  1  0.50336033  0.37689262  0.83340074  1
  Sr  Sr19  1  0.16970794  0.62639334  0.82642138  1
  Sr  Sr20  1  0.65915326  0.12495783  0.33313175  1
  Sr  Sr21  1  0.67007729  0.87291109  0.66950752  1
  La  La22  1  0.50315686  0.62565740  0.50259584  1
  La  La23  1  0.66174940  0.12399186  0.66889498  1
  La  La24  1  0.66603496  0.62436841  0.33040122  1
  La  La25  1  0.82523591  0.12398895  0.50389653  1
  La  La26  1  0.33448192  0.37440097  0.67420107  1
  La  La27  1  0.83293275  0.62772113  0.83506730  1
  La  La28  1  0.83471451  0.87271061  0.16808528  1
  La  La29  1  0.00082888  0.12256829  0.99448335  1
  Pr  Pr30  1  0.83694401  0.62126442  0.17318617  1
  Pr  Pr31  1  0.82777655  0.37712975  0.16504875  1
  Pr  Pr32  1  0.00343695  0.62676117  0.66511808  1
  Pr  Pr33  1  0.50557371  0.87671230  0.16635004  1
  Pr  Pr34  1  0.49725100  0.12495310  0.50070358  1
  Pr  Pr35  1  0.49452602  0.12554836  0.16967557  1
  Pr  Pr36  1  0.49556904  0.12228874  0.83583091  1
  Pr  Pr37  1  0.33367170  0.62674168  0.33261305  1
  Pr  Pr38  1  0.67182327  0.37748420  0.67055199  1
  Pr  Pr39  1  0.32664706  0.12353701  0.99762295  1
  Pr  Pr40  1  0.66717758  0.37488720  0.00281015  1
  Pr  Pr41  1  0.32960250  0.37324769  0.33386721  1
  Pr  Pr42  1  0.34100425  0.62562078  0.67121635  1
  Pr  Pr43  1  0.16388006  0.37758814  0.15624300  1
  Pr  Pr44  1  0.49849009  0.62304059  0.16869923  1
  Pr  Pr45  1  0.32860599  0.87599104  0.33957701  1
  Pr  Pr46  1  0.67203371  0.87549379  0.00210551  1
  Pr  Pr47  1  0.49654193  0.37570608  0.49849261  1
  Pr  Pr48  1  0.17277964  0.62096302  0.16749391  1
  Pr  Pr49  1  -0.00806179  0.37439039  0.32990892  1
  Pr  Pr50  1  -0.00369948  0.37340061  0.66864175  1
  Pr  Pr51  1  0.83583271  0.37459439  0.49958242  1
  Pr  Pr52  1  0.83889542  0.87403039  0.83093361  1
  Pr  Pr53  1  0.50494376  0.37193580  0.16254685  1
  Pr  Pr54  1  0.17232309  0.62561239  0.50390229  1
  Pr  Pr55  1  -0.00699860  0.87615664  0.33578207  1
  Pr  Pr56  1  0.00084303  0.12442118  0.32881685  1
  Pr  Pr57  1  0.33161866  0.12543949  0.66676900  1
  Pr  Pr58  1  0.66706477  0.62660921  0.66791884  1
  Pr  Pr59  1  0.16453582  0.12978454  0.16713500  1
  Pr  Pr60  1  0.65761680  0.12514267  0.99727404  1
  Pr  Pr61  1  0.32892455  0.62698443  0.99593349  1
  Pr  Pr62  1  0.16222289  0.87718799  0.49507271  1
  Pr  Pr63  1  0.83799057  0.87506853  0.49946127  1
  Pr  Pr64  1  0.66608211  0.62575560  0.99942584  1
  Pr  Pr65  1  0.16437326  0.12225443  0.82896722  1
  Pr  Pr66  1  0.32787087  0.12295512  0.33173427  1
  Pr  Pr67  1  0.50033285  0.87527742  0.49919057  1
  Pr  Pr68  1  0.83832699  0.37456060  0.83552231  1
  Pr  Pr69  1  0.34120625  0.87069119  -0.00130061  1
  Pr  Pr70  1  0.00255792  0.87472357  -0.00275639  1
  Pr  Pr71  1  0.16201345  0.37067685  0.49828747  1
  Mn  Mn72  1  -0.00031100  -0.00122311  0.16459898  1
  Mn  Mn73  1  -0.00266870  0.00083882  0.49613301  1
  Mn  Mn74  1  0.00110758  0.00039092  0.83244093  1
  Mn  Mn75  1  0.00062428  0.50061534  0.16675332  1
  Mn  Mn76  1  0.00368242  0.49754774  0.49920963  1
  Mn  Mn77  1  -0.00003266  0.50036191  0.82927152  1
  Mn  Mn78  1  0.33479469  -0.00155374  0.16550425  1
  Mn  Mn79  1  0.33268893  0.00109523  0.50008754  1
  Mn  Mn80  1  0.33569995  0.00131824  0.83342162  1
  Mn  Mn81  1  0.33575809  0.50066033  0.16945657  1
  Mn  Mn82  1  0.33301192  0.49833487  0.50071858  1
  Mn  Mn83  1  0.33525656  0.50083865  0.83409844  1
  Mn  Mn84  1  0.66585849  0.00023680  0.16747459  1
  Mn  Mn85  1  0.66366013  0.00052256  0.50402979  1
  Mn  Mn86  1  0.66605333  -0.00096539  0.83431666  1
  Mn  Mn87  1  0.66491076  0.50100748  0.16644904  1
  Mn  Mn88  1  0.66493701  0.49955552  0.50163291  1
  Mn  Mn89  1  0.66896355  0.49932776  0.83583652  1
  Mn  Mn90  1  -0.00049584  0.24994335  0.16548180  1
  Mn  Mn91  1  -0.00369824  0.25194133  0.49746129  1
  Mn  Mn92  1  0.00060618  0.25058318  0.83221406  1
  Mn  Mn93  1  0.00026486  0.75036639  0.16538853  1
  Mn  Mn94  1  0.00289779  0.74956167  0.49729417  1
  Mn  Mn95  1  0.00125696  0.74847105  0.83031040  1
  Mn  Mn96  1  0.33374630  0.24891627  0.16760141  1
  Mn  Mn97  1  0.33304281  0.25184799  0.50150993  1
  Mn  Mn98  1  0.33586449  0.24996122  0.83343744  1
  Mn  Mn99  1  0.33680210  0.75093239  0.16705199  1
  Mn  Mn100  1  0.33266787  0.74916984  0.49962866  1
  Mn  Mn101  1  0.33601182  0.74899649  0.83360754  1
  Mn  Mn102  1  0.66530666  0.24756003  0.16716025  1
  Mn  Mn103  1  0.66284808  0.24998239  0.50400485  1
  Mn  Mn104  1  0.66546788  0.25139216  0.83503547  1
  Mn  Mn105  1  0.66613741  0.75085260  0.16697808  1
  Mn  Mn106  1  0.66585783  0.75074953  0.50219941  1
  Mn  Mn107  1  0.66866083  0.75073194  0.83527758  1
  Mn  Mn108  1  0.16736844  0.24854291  -0.00023186  1
  Mn  Mn109  1  0.16546990  0.25249026  0.32923445  1
  Mn  Mn110  1  0.16847252  0.25124742  0.66476635  1
  Mn  Mn111  1  0.16827121  0.75069084  -0.00212250  1
  Mn  Mn112  1  0.16602669  0.74840987  0.33145093  1
  Mn  Mn113  1  0.16993344  0.74836529  0.66233698  1
  Mn  Mn114  1  0.49986068  0.24922747  0.00034591  1
  Mn  Mn115  1  0.49487542  0.25009655  0.33377432  1
  Mn  Mn116  1  0.50144120  0.25053720  0.66774091  1
  Mn  Mn117  1  0.50231507  0.75159552  0.00204989  1
  Mn  Mn118  1  0.49656245  0.74965439  0.33425311  1
  Mn  Mn119  1  0.50337805  0.75040126  0.66621430  1
  Mn  Mn120  1  0.83172178  0.25018191  0.00212557  1
  Mn  Mn121  1  0.83148381  0.24904629  0.33547030  1
  Mn  Mn122  1  0.82970051  0.25022017  0.66739526  1
  Mn  Mn123  1  0.83300598  0.75078337  0.00110770  1
  Mn  Mn124  1  0.83073248  0.74943452  0.33370968  1
  Mn  Mn125  1  0.83422339  0.75007461  0.66823988  1
  Mn  Mn126  1  0.16858955  -0.00127643  -0.00198546  1
  Mn  Mn127  1  0.16545671  0.00086923  0.32855403  1
  Mn  Mn128  1  0.16885848  0.00121557  0.66362982  1
  Mn  Mn129  1  0.16716311  0.50270248  -0.00210074  1
  Mn  Mn130  1  0.16751916  0.49691308  0.33266985  1
  Mn  Mn131  1  0.16952941  0.50016224  0.66123237  1
  Mn  Mn132  1  0.49993974  -0.00185834  0.00042164  1
  Mn  Mn133  1  0.49569206  0.00036292  0.33381326  1
  Mn  Mn134  1  0.50228356  0.00062814  0.66858303  1
  Mn  Mn135  1  0.50118017  0.50052535  0.00242996  1
  Mn  Mn136  1  0.49582486  0.49961701  0.33462418  1
  Mn  Mn137  1  0.50251932  0.49898449  0.66537661  1
  Mn  Mn138  1  0.83292474  -0.00123400  0.00187305  1
  Mn  Mn139  1  0.83132662  0.00198309  0.33541890  1
  Mn  Mn140  1  0.82980270  -0.00045208  0.66794428  1
  Mn  Mn141  1  0.83121528  0.50196051  0.00112941  1
  Mn  Mn142  1  0.83105519  0.49795265  0.33477337  1
  Mn  Mn143  1  0.83474257  0.49987917  0.66895802  1
  O  O144  1  0.17121030  0.12168850  0.02396566  1
  O  O145  1  0.16305707  0.12718428  0.34331506  1
  O  O146  1  0.16928865  0.12817797  0.68148154  1
  O  O147  1  0.17658412  0.62852892  0.02340129  1
  O  O148  1  0.17136008  0.61854927  0.35966378  1
  O  O149  1  0.15068781  0.62215794  0.66775802  1
  O  O150  1  0.50567048  0.12213728  0.02623580  1
  O  O151  1  0.48983922  0.12702397  0.35623833  1
  O  O152  1  0.50004346  0.12916715  0.69287809  1
  O  O153  1  0.50788484  0.62770191  0.02628003  1
  O  O154  1  0.49340178  0.62615410  0.35944805  1
  O  O155  1  0.49611624  0.62423546  0.67647199  1
  O  O156  1  0.84308609  0.12127116  0.01234628  1
  O  O157  1  0.84138162  0.12770942  0.35892363  1
  O  O158  1  0.82229804  0.12597430  0.67761524  1
  O  O159  1  0.82750416  0.62726230  0.02923120  1
  O  O160  1  0.82535133  0.62415039  0.34264797  1
  O  O161  1  0.83343179  0.62341983  0.69002704  1
  O  O162  1  0.17743186  0.37443565  0.30042575  1
  O  O163  1  0.18228677  0.37610068  0.64526486  1
  O  O164  1  0.16818320  0.37444722  0.99405187  1
  O  O165  1  0.17629562  0.87717849  0.31982669  1
  O  O166  1  0.17369011  0.87437496  0.64495033  1
  O  O167  1  0.16588104  0.87628330  0.98513776  1
  O  O168  1  0.49061028  0.37346810  0.30544333  1
  O  O169  1  0.50367203  0.37408785  0.64093080  1
  O  O170  1  0.50617558  0.37315367  0.98487578  1
  O  O171  1  0.49211829  0.87275912  0.30951300  1
  O  O172  1  0.50584730  0.87336119  0.64310455  1
  O  O173  1  0.49361603  0.87641336  0.97784181  1
  O  O174  1  0.83415409  0.37201054  0.31082213  1
  O  O175  1  0.83258162  0.37619992  0.64335917  1
  O  O176  1  0.82107154  0.37888389  0.97950171  1
  O  O177  1  0.83708649  0.87477389  0.31473293  1
  O  O178  1  0.83033519  0.87393324  0.64433653  1
  O  O179  1  0.82397352  0.87421220  0.97476914  1
  O  O180  1  0.01237310  0.37505115  0.18574596  1
  O  O181  1  -0.00705588  0.37519088  0.52272881  1
  O  O182  1  -0.00311044  0.37471650  0.84048097  1
  O  O183  1  -0.00098745  0.87477771  0.19166753  1
  O  O184  1  -0.00611054  0.87452971  0.50563117  1
  O  O185  1  -0.00308057  0.87463079  0.85077637  1
  O  O186  1  0.33530001  0.37620944  0.19044285  1
  O  O187  1  0.33087978  0.37734381  0.52947644  1
  O  O188  1  0.33511122  0.37596882  0.84160454  1
  O  O189  1  0.34045430  0.87419569  0.19573205  1
  O  O190  1  0.32032073  0.87592311  0.51058411  1
  O  O191  1  0.33632981  0.87742228  0.85375744  1
  O  O192  1  0.66286344  0.37404386  0.17979080  1
  O  O193  1  0.65369402  0.37419275  0.52571434  1
  O  O194  1  0.66845813  0.37575306  0.85983927  1
  O  O195  1  0.66363462  0.87446841  0.18310536  1
  O  O196  1  0.65196223  0.87773120  0.51918141  1
  O  O197  1  0.66822500  0.87480259  0.85863226  1
  O  O198  1  0.00238642  0.12368986  0.14119732  1
  O  O199  1  -0.00655291  0.12793127  0.47395543  1
  O  O200  1  0.00281684  0.12722118  0.82510115  1
  O  O201  1  -0.01204359  0.62542627  0.15616568  1
  O  O202  1  0.01669601  0.62238912  0.49213813  1
  O  O203  1  -0.01053571  0.62251382  0.80791602  1
  O  O204  1  0.33941414  0.12103938  0.14088938  1
  O  O205  1  0.34410568  0.12591340  0.47444739  1
  O  O206  1  0.34520753  0.12699620  0.81240571  1
  O  O207  1  0.33725278  0.62727677  0.14141553  1
  O  O208  1  0.33644857  0.62128182  0.47338211  1
  O  O209  1  0.33777350  0.62274689  0.81768739  1
  O  O210  1  0.65873196  0.12389411  0.14194697  1
  O  O211  1  0.67206639  0.12625360  0.48362230  1
  O  O212  1  0.66181713  0.12690524  0.81291153  1
  O  O213  1  0.66391455  0.62671633  0.14300915  1
  O  O214  1  0.66192016  0.62344254  0.47337666  1
  O  O215  1  0.67552987  0.62240762  0.81109830  1
  O  O216  1  0.08457476  0.02191804  0.24295397  1
  O  O217  1  0.08422969  0.00249617  0.57236998  1
  O  O218  1  0.08576779  0.01974619  0.91468228  1
  O  O219  1  0.09508031  0.51523468  0.24239228  1
  O  O220  1  0.10204967  0.49927516  0.56395164  1
  O  O221  1  0.08463018  0.51355882  0.90489795  1
  O  O222  1  0.40989462  0.02290553  0.25365712  1
  O  O223  1  0.41811929  0.01867049  0.58354123  1
  O  O224  1  0.41095071  0.02180399  0.92686381  1
  O  O225  1  0.41622672  0.52568353  0.25254510  1
  O  O226  1  0.42247793  0.51486062  0.57446814  1
  O  O227  1  0.41641577  0.51595168  0.92780648  1
  O  O228  1  0.74659887  0.01383797  0.26013449  1
  O  O229  1  0.73950310  0.01523470  0.59165687  1
  O  O230  1  0.73804358  0.01477350  0.92935903  1
  O  O231  1  0.74842602  0.51695200  0.24506010  1
  O  O232  1  0.74669230  0.51262167  0.59463533  1
  O  O233  1  0.74939678  0.52558949  0.92032565  1
  O  O234  1  0.25011674  0.22678233  0.24912574  1
  O  O235  1  0.25567002  0.23325251  0.58501868  1
  O  O236  1  0.24875417  0.22681273  0.91534126  1
  O  O237  1  0.25350363  0.72688377  0.25128777  1
  O  O238  1  0.25881545  0.72147342  0.58510000  1
  O  O239  1  0.25261312  0.73476344  0.91786830  1
  O  O240  1  0.57314442  0.23369755  0.24122528  1
  O  O241  1  0.57761297  0.22374307  0.58135066  1
  O  O242  1  0.57598396  0.22821931  0.91198027  1
  O  O243  1  0.57956741  0.72762034  0.25206398  1
  O  O244  1  0.58607220  0.72597309  0.58456982  1
  O  O245  1  0.58903593  0.73712708  0.92348544  1
  O  O246  1  0.92598428  0.23751429  0.25694051  1
  O  O247  1  0.90161204  0.23832677  0.57527249  1
  O  O248  1  0.91463146  0.24527641  0.91968611  1
  O  O249  1  0.90829018  0.74044300  0.24245917  1
  O  O250  1  0.92676016  0.73514601  0.58611616  1
  O  O251  1  0.90909081  0.73942922  0.91275767  1
  O  O252  1  0.08657363  0.49500946  0.08497777  1
  O  O253  1  0.08045997  0.46830509  0.40605396  1
  O  O254  1  0.07499216  0.48741259  0.72861904  1
  O  O255  1  0.07560215  0.98658032  0.07341987  1
  O  O256  1  0.07857321  0.98257344  0.40649142  1
  O  O257  1  0.08725091  0.99810549  0.75084414  1
  O  O258  1  0.42597045  0.48669815  0.09587487  1
  O  O259  1  0.40686552  0.47292273  0.41467957  1
  O  O260  1  0.41644742  0.48582822  0.74202829  1
  O  O261  1  0.42471941  0.97708012  0.09111752  1
  O  O262  1  0.41418625  0.97521605  0.41810537  1
  O  O263  1  0.42666280  0.99029583  0.75877981  1
  O  O264  1  0.74580386  0.48129668  0.08312044  1
  O  O265  1  0.74980472  0.48104678  0.42426776  1
  O  O266  1  0.75381354  0.47648169  0.75689311  1
  O  O267  1  0.75325874  0.97971082  0.08820818  1
  O  O268  1  0.75553736  0.98576192  0.43356995  1
  O  O269  1  0.75409941  0.98004542  0.76027380  1
  O  O270  1  0.24911823  0.25916142  0.08861450  1
  O  O271  1  0.24781060  0.26959499  0.41320237  1
  O  O272  1  0.25817485  0.25551687  0.74535160  1
  O  O273  1  0.26325474  0.76566145  0.07814567  1
  O  O274  1  0.24323998  0.76205621  0.42087795  1
  O  O275  1  0.25205550  0.74465349  0.74393357  1
  O  O276  1  0.58922332  0.26611387  0.07555237  1
  O  O277  1  0.57384867  0.26057499  0.42192246  1
  O  O278  1  0.59194194  0.26996661  0.74253080  1
  O  O279  1  0.58583161  0.77358693  0.08290160  1
  O  O280  1  0.57005327  0.76393015  0.42244251  1
  O  O281  1  0.59174512  0.75782975  0.74814479  1
  O  O282  1  0.91194462  0.27149092  0.09372672  1
  O  O283  1  0.91604613  0.27673074  0.41533144  1
  O  O284  1  0.91573406  0.26850077  0.74427214  1
  O  O285  1  0.91711266  0.77667870  0.07817579  1
  O  O286  1  0.91541847  0.76417623  0.41516356  1
  O  O287  1  0.91412681  0.76432249  0.75260140  1
  O  O288  1  0.24873844  0.49030515  0.09645578  1
  O  O289  1  0.24459067  0.47373593  0.42157253  1
  O  O290  1  0.25074035  0.49865854  0.74252646  1
  O  O291  1  0.26372029  0.98386448  0.07253419  1
  O  O292  1  0.25081695  0.99089610  0.41140210  1
  O  O293  1  0.25644049  1.00292840  0.74987185  1
  O  O294  1  0.58359813  0.48124787  0.08591382  1
  O  O295  1  0.56978215  0.48454024  0.42217945  1
  O  O296  1  0.58996326  0.48399004  0.74770095  1
  O  O297  1  0.58723601  0.97724655  0.07446417  1
  O  O298  1  0.57482438  0.99261808  0.42270605  1
  O  O299  1  0.59087675  0.98822627  0.74614733  1
  O  O300  1  0.90625840  0.48521074  0.09080932  1
  O  O301  1  0.91614861  0.48111197  0.42076217  1
  O  O302  1  0.91336207  0.47621060  0.75084098  1
  O  O303  1  0.91570206  0.97213157  0.08539944  1
  O  O304  1  0.91497048  0.97989666  0.41419707  1
  O  O305  1  0.91396742  0.98729210  0.75452769  1
  O  O306  1  0.08808323  0.25851805  0.08695254  1
  O  O307  1  0.08134572  0.27491091  0.40727480  1
  O  O308  1  0.08396147  0.26439204  0.74285592  1
  O  O309  1  0.07975027  0.76304848  0.07639779  1
  O  O310  1  0.07888728  0.77293088  0.40792300  1
  O  O311  1  0.08135214  0.75134036  0.73878094  1
  O  O312  1  0.42766295  0.26203316  0.09497795  1
  O  O313  1  0.41214438  0.27733658  0.41945328  1
  O  O314  1  0.42328340  0.26931263  0.75051173  1
  O  O315  1  0.42491750  0.77270949  0.09060368  1
  O  O316  1  0.40830446  0.77189165  0.41208683  1
  O  O317  1  0.42176199  0.75850764  0.74989063  1
  O  O318  1  0.75098963  0.26868211  0.08854231  1
  O  O319  1  0.75447379  0.26563157  0.43360001  1
  O  O320  1  0.75419073  0.27506339  0.75772608  1
  O  O321  1  0.75264268  0.77188491  0.08511991  1
  O  O322  1  0.75223308  0.76775094  0.42570274  1
  O  O323  1  0.75704195  0.76600590  0.76219316  1
  O  O324  1  0.24871431  0.02255101  0.24367059  1
  O  O325  1  0.25677372  0.02043328  0.58414472  1
  O  O326  1  0.24875242  0.02534196  0.91120759  1
  O  O327  1  0.25656932  0.52377369  0.25611739  1
  O  O328  1  0.25968732  0.52829242  0.58596875  1
  O  O329  1  0.25236586  0.51831304  0.92155324  1
  O  O330  1  0.57272728  0.01533989  0.24367779  1
  O  O331  1  0.57849136  0.02609888  0.58133847  1
  O  O332  1  0.57673996  0.02110119  0.91239668  1
  O  O333  1  0.58273856  0.52246933  0.24989511  1
  O  O334  1  0.58701804  0.52356049  0.58554960  1
  O  O335  1  0.59073236  0.51385846  0.92495939  1
  O  O336  1  0.92469562  0.01372248  0.25526798  1
  O  O337  1  0.90563002  0.01149576  0.57430910  1
  O  O338  1  0.92366312  0.00398689  0.92468871  1
  O  O339  1  0.91621800  0.50287199  0.24988151  1
  O  O340  1  0.92902982  0.51278380  0.59369205  1
  O  O341  1  0.90794379  0.51160015  0.91321309  1
  O  O342  1  0.08377374  0.22958300  0.24642480  1
  O  O343  1  0.08236022  0.25159347  0.57818484  1
  O  O344  1  0.08641412  0.22928579  0.91911636  1
  O  O345  1  0.09154226  0.73116584  0.24272149  1
  O  O346  1  0.09979394  0.74838224  0.56552256  1
  O  O347  1  0.08268025  0.73934461  0.90895103  1
  O  O348  1  0.40905723  0.22638742  0.25529780  1
  O  O349  1  0.41818191  0.23051500  0.58761404  1
  O  O350  1  0.41404264  0.22750967  0.92397914  1
  O  O351  1  0.41726404  0.72394342  0.25004644  1
  O  O352  1  0.42187229  0.73706239  0.57523369  1
  O  O353  1  0.41218635  0.73609236  0.93060454  1
  O  O354  1  0.74425186  0.23569280  0.25688147  1
  O  O355  1  0.73637765  0.24106535  0.59661215  1
  O  O356  1  0.73632350  0.23512956  0.92785381  1
  O  O357  1  0.74594531  0.73048858  0.25001516  1
  O  O358  1  0.74687922  0.73390330  0.59455971  1
  O  O359  1  0.74769606  0.72714207  0.92316437  1
