# generated using pymatgen
data_Ba17Sr5La8Pr42Mn72O216
_symmetry_space_group_name_H-M   'P 1'
_cell_length_a   16.67203929
_cell_length_b   15.70691453
_cell_length_c   16.81977952
_cell_angle_alpha   90.00445782
_cell_angle_beta   90.00994004
_cell_angle_gamma   90.02872428
_symmetry_Int_Tables_number   1
_chemical_formula_structural   Ba17Sr5La8Pr42Mn72O216
_chemical_formula_sum   'Ba17 Sr5 La8 Pr42 Mn72 O216'
_cell_volume   4404.53273372
_cell_formula_units_Z   1
loop_
 _symmetry_equiv_pos_site_id
 _symmetry_equiv_pos_as_xyz
  1  'x, y, z'
loop_
 _atom_site_type_symbol
 _atom_site_label
 _atom_site_symmetry_multiplicity
 _atom_site_fract_x
 _atom_site_fract_y
 _atom_site_fract_z
 _atom_site_occupancy
  Ba  Ba0  1  0.16350474  0.37490184  0.83430117  1
  Ba  Ba1  1  0.50163505  0.37464749  0.83158138  1
  Ba  Ba2  1  0.66535395  0.12449099  0.99894328  1
  Ba  Ba3  1  0.66496839  0.12759125  0.32908403  1
  Ba  Ba4  1  0.83199528  0.62273927  0.50304008  1
  Ba  Ba5  1  0.33105123  0.12523506  0.66611774  1
  Ba  Ba6  1  0.33203671  0.37390535  0.00101105  1
  Ba  Ba7  1  0.66799197  0.37559120  -0.00299161  1
  Ba  Ba8  1  0.32895057  0.62453164  0.66556074  1
  Ba  Ba9  1  0.83629929  0.37570837  0.50063538  1
  Ba  Ba10  1  0.16191836  0.62485558  0.83377223  1
  Ba  Ba11  1  0.83737180  0.87382841  0.16918591  1
  Ba  Ba12  1  0.50198750  0.87434128  0.49564120  1
  Ba  Ba13  1  0.33720485  0.87317682  0.33316126  1
  Ba  Ba14  1  0.16547186  0.62386920  0.16979754  1
  Ba  Ba15  1  0.49908637  0.12568160  0.16421355  1
  Ba  Ba16  1  0.83286035  0.12400135  0.16848043  1
  Sr  Sr17  1  0.82933613  0.62463592  0.17053118  1
  Sr  Sr18  1  0.00378774  0.37559085  0.33455202  1
  Sr  Sr19  1  0.16503891  0.62667309  0.50416155  1
  Sr  Sr20  1  0.32982978  0.12541768  0.99795848  1
  Sr  Sr21  1  0.16717963  0.37612324  0.16247162  1
  La  La22  1  0.82908489  0.12786057  0.49935441  1
  La  La23  1  0.00579080  0.87330365  0.00710264  1
  La  La24  1  0.00493541  0.87317061  0.66927353  1
  La  La25  1  -0.00601947  0.62401864  1.00345498  1
  La  La26  1  0.82939191  0.62498080  0.83479600  1
  La  La27  1  -0.00323886  0.12621689  1.00281674  1
  La  La28  1  0.49235182  0.62441855  0.83468224  1
  La  La29  1  -0.00062796  0.37719577  0.66819070  1
  Pr  Pr30  1  0.33381692  0.12058428  0.32816901  1
  Pr  Pr31  1  0.17027344  0.37382484  0.49986209  1
  Pr  Pr32  1  0.66063755  0.12823829  0.66221399  1
  Pr  Pr33  1  0.16426083  0.12416146  0.49995305  1
  Pr  Pr34  1  0.16178293  0.12399056  0.84026474  1
  Pr  Pr35  1  0.67152520  0.87808053  0.33325986  1
  Pr  Pr36  1  0.82897953  0.12534287  0.83928126  1
  Pr  Pr37  1  0.32252450  0.62274567  0.99503876  1
  Pr  Pr38  1  0.83783983  0.37331013  0.16693982  1
  Pr  Pr39  1  0.33337261  0.37691601  0.32937757  1
  Pr  Pr40  1  0.83933084  0.87912168  0.83525273  1
  Pr  Pr41  1  0.67095033  0.37299311  0.33003453  1
  Pr  Pr42  1  0.49463810  0.62000382  0.16578760  1
  Pr  Pr43  1  -0.00192391  0.12696424  0.66782181  1
  Pr  Pr44  1  0.50800742  0.87600502  0.16543816  1
  Pr  Pr45  1  0.66255303  0.62652227  0.99834364  1
  Pr  Pr46  1  0.50845581  0.87830220  0.82570744  1
  Pr  Pr47  1  0.17744843  0.87441579  0.83256106  1
  Pr  Pr48  1  0.00235191  0.37724726  0.00540518  1
  Pr  Pr49  1  0.00467489  0.87365852  0.33733987  1
  Pr  Pr50  1  0.65873422  0.62356331  0.66055339  1
  Pr  Pr51  1  -0.00899965  0.62099213  0.33278788  1
  Pr  Pr52  1  0.83261740  0.37064740  0.83131465  1
  Pr  Pr53  1  0.83791775  0.87418999  0.49418145  1
  Pr  Pr54  1  0.17664097  0.87728122  0.49947248  1
  Pr  Pr55  1  0.49339495  0.62717187  0.50070122  1
  Pr  Pr56  1  0.66273758  0.62373771  0.33115237  1
  Pr  Pr57  1  0.67847900  0.87351337  0.66493114  1
  Pr  Pr58  1  0.48923704  0.12534371  0.83944058  1
  Pr  Pr59  1  0.50418917  0.37226742  0.15701576  1
  Pr  Pr60  1  0.49838085  0.37603874  0.49865529  1
  Pr  Pr61  1  0.67478838  0.87526980  0.00252985  1
  Pr  Pr62  1  0.17576760  0.87439832  0.16630133  1
  Pr  Pr63  1  0.00054849  0.62292826  0.66408107  1
  Pr  Pr64  1  0.33471488  0.37666605  0.67419287  1
  Pr  Pr65  1  0.67432087  0.37818303  0.67183505  1
  Pr  Pr66  1  -0.00194080  0.12960909  0.33010388  1
  Pr  Pr67  1  0.34058598  0.87228094  0.66530724  1
  Pr  Pr68  1  0.34373344  0.87181795  0.00292948  1
  Pr  Pr69  1  0.49709206  0.12175321  0.49677690  1
  Pr  Pr70  1  0.16846320  0.12762832  0.16845687  1
  Pr  Pr71  1  0.32748405  0.62788327  0.33485240  1
  Mn  Mn72  1  0.00535260  -0.00048474  0.16977197  1
  Mn  Mn73  1  0.00001380  0.00123566  0.50203311  1
  Mn  Mn74  1  0.00025220  -0.00140080  0.83569072  1
  Mn  Mn75  1  -0.00121638  0.50051960  0.16926662  1
  Mn  Mn76  1  0.00333191  0.49969772  0.49939256  1
  Mn  Mn77  1  -0.00431285  0.50043872  0.83535827  1
  Mn  Mn78  1  0.33469245  -0.00147416  0.16358694  1
  Mn  Mn79  1  0.33332791  0.00358654  0.49821441  1
  Mn  Mn80  1  0.33277234  -0.00176536  0.83376774  1
  Mn  Mn81  1  0.33321045  0.50164570  0.16802954  1
  Mn  Mn82  1  0.33187215  0.49658986  0.49991908  1
  Mn  Mn83  1  0.33125000  0.49981404  0.83260610  1
  Mn  Mn84  1  0.66757395  -0.00181996  0.16658889  1
  Mn  Mn85  1  0.66813397  0.00177585  0.50038058  1
  Mn  Mn86  1  0.66776339  -0.00172212  0.82901599  1
  Mn  Mn87  1  0.66695234  0.50163605  0.16561230  1
  Mn  Mn88  1  0.66346460  0.49768715  0.49814821  1
  Mn  Mn89  1  0.66732348  0.50341742  0.83113366  1
  Mn  Mn90  1  0.00180558  0.25106395  0.16792319  1
  Mn  Mn91  1  0.00242428  0.24734389  0.50017731  1
  Mn  Mn92  1  -0.00215346  0.24877345  0.83460571  1
  Mn  Mn93  1  0.00189257  0.74950422  0.17090971  1
  Mn  Mn94  1  0.00162510  0.75155620  0.50261011  1
  Mn  Mn95  1  -0.00205598  0.75171232  0.83575989  1
  Mn  Mn96  1  0.33208750  0.24891491  0.16738407  1
  Mn  Mn97  1  0.33356637  0.25173014  0.49774206  1
  Mn  Mn98  1  0.33041239  0.24958321  0.83192376  1
  Mn  Mn99  1  0.33607367  0.74949819  0.16583073  1
  Mn  Mn100  1  0.33260783  0.74918239  0.49978254  1
  Mn  Mn101  1  0.33466271  0.75141536  0.83543864  1
  Mn  Mn102  1  0.66701748  0.25223213  0.16576654  1
  Mn  Mn103  1  0.66422269  0.25186597  0.49893069  1
  Mn  Mn104  1  0.66606531  0.24857971  0.82851858  1
  Mn  Mn105  1  0.66615340  0.74761083  0.16591809  1
  Mn  Mn106  1  0.66730451  0.74884735  0.49866927  1
  Mn  Mn107  1  0.66751948  0.75072613  0.83140702  1
  Mn  Mn108  1  0.16494570  0.24799180  0.00212249  1
  Mn  Mn109  1  0.16861419  0.25188552  0.33363636  1
  Mn  Mn110  1  0.16418562  0.24762831  0.66615769  1
  Mn  Mn111  1  0.16561989  0.75152805  0.00084936  1
  Mn  Mn112  1  0.16491695  0.74903439  0.33747285  1
  Mn  Mn113  1  0.16619468  0.75313071  0.66664856  1
  Mn  Mn114  1  0.49854995  0.24893411  -0.00183779  1
  Mn  Mn115  1  0.49713956  0.25617100  0.33147713  1
  Mn  Mn116  1  0.50038883  0.24855742  0.66279509  1
  Mn  Mn117  1  0.50157749  0.75026541  -0.00157054  1
  Mn  Mn118  1  0.50250934  0.74482695  0.33087533  1
  Mn  Mn119  1  0.50158074  0.75171181  0.66580586  1
  Mn  Mn120  1  0.83423247  0.25156305  -0.00047155  1
  Mn  Mn121  1  0.83543819  0.25233913  0.33414331  1
  Mn  Mn122  1  0.83335905  0.24674939  0.66840178  1
  Mn  Mn123  1  0.83316366  0.74820797  0.00086026  1
  Mn  Mn124  1  0.83268191  0.74895356  0.33481838  1
  Mn  Mn125  1  0.83512742  0.75205267  0.66857185  1
  Mn  Mn126  1  0.16675410  -0.00164047  0.00070424  1
  Mn  Mn127  1  0.16611846  0.00068655  0.33366733  1
  Mn  Mn128  1  0.16576904  0.00027985  0.66864703  1
  Mn  Mn129  1  0.16416533  0.50001668  0.00235194  1
  Mn  Mn130  1  0.16651387  0.49823820  0.33628867  1
  Mn  Mn131  1  0.16408537  0.49936714  0.66426452  1
  Mn  Mn132  1  0.50000673  -0.00240373  -0.00460319  1
  Mn  Mn133  1  0.50105133  -0.00010714  0.33114139  1
  Mn  Mn134  1  0.50197122  0.00073955  0.66571109  1
  Mn  Mn135  1  0.49980635  0.50239293  0.00082799  1
  Mn  Mn136  1  0.49850127  0.49873393  0.33148879  1
  Mn  Mn137  1  0.50005106  0.50037984  0.66339131  1
  Mn  Mn138  1  0.83501273  -0.00047171  -0.00046492  1
  Mn  Mn139  1  0.83622326  -0.00109335  0.33545902  1
  Mn  Mn140  1  0.83488971  0.00131619  0.66606903  1
  Mn  Mn141  1  0.83278735  0.50155737  0.00184276  1
  Mn  Mn142  1  0.83187719  0.50025415  0.33309540  1
  Mn  Mn143  1  0.83396389  0.50075181  0.67058038  1
  O  O144  1  0.16441495  0.12096112  0.02303465  1
  O  O145  1  0.17041943  0.12577836  0.35772483  1
  O  O146  1  0.16144395  0.12085403  0.69645110  1
  O  O147  1  0.16971640  0.62856187  0.01039035  1
  O  O148  1  0.17393618  0.62275771  0.35571380  1
  O  O149  1  0.15966702  0.62925781  0.67721914  1
  O  O150  1  0.49700910  0.12108481  0.00434328  1
  O  O151  1  0.49544365  0.13577077  0.35382719  1
  O  O152  1  0.50979993  0.12181802  0.69329469  1
  O  O153  1  0.50959186  0.62958567  0.02248836  1
  O  O154  1  0.51116512  0.61921774  0.35967653  1
  O  O155  1  0.50792367  0.63003315  0.68887998  1
  O  O156  1  0.83803131  0.12500824  0.01065669  1
  O  O157  1  0.84005545  0.12235698  0.35285413  1
  O  O158  1  0.83853584  0.12194110  0.69689396  1
  O  O159  1  0.83393832  0.62533989  0.02182079  1
  O  O160  1  0.83193442  0.62524597  0.34624130  1
  O  O161  1  0.84195241  0.62427631  0.69166250  1
  O  O162  1  0.16987263  0.37290799  0.31045443  1
  O  O163  1  0.15647739  0.37138177  0.64492255  1
  O  O164  1  0.15668171  0.37329259  0.99289605  1
  O  O165  1  0.15711589  0.87756477  0.30973891  1
  O  O166  1  0.15832112  0.87936025  0.64349856  1
  O  O167  1  0.15613276  0.87564249  0.97570990  1
  O  O168  1  0.48604203  0.38050987  0.30040628  1
  O  O169  1  0.49713945  0.37302279  0.64375562  1
  O  O170  1  0.50009278  0.37692508  0.99216634  1
  O  O171  1  0.50513384  0.86487841  0.31034797  1
  O  O172  1  0.49261272  0.87598131  0.65236663  1
  O  O173  1  0.49652783  0.87182909  0.96883122  1
  O  O174  1  0.83314450  0.37973733  0.31401701  1
  O  O175  1  0.82989280  0.37297998  0.65696870  1
  O  O176  1  0.84231116  0.37797152  0.97464119  1
  O  O177  1  0.83242126  0.87303499  0.32724753  1
  O  O178  1  0.83158898  0.88097041  0.63728906  1
  O  O179  1  0.83193786  0.87238184  0.97882626  1
  O  O180  1  -0.00396471  0.37602372  0.18325517  1
  O  O181  1  0.00859037  0.36807408  0.52447496  1
  O  O182  1  -0.00957372  0.37028642  0.86020026  1
  O  O183  1  0.01055069  0.87575907  0.19182860  1
  O  O184  1  -0.00834936  0.87967466  0.52736794  1
  O  O185  1  -0.00909895  0.87563749  0.86348940  1
  O  O186  1  0.33502011  0.37656951  0.18585939  1
  O  O187  1  0.33721577  0.37185740  0.52883431  1
  O  O188  1  0.33347395  0.37435790  0.83857661  1
  O  O189  1  0.33281813  0.87327616  0.17808166  1
  O  O190  1  0.33040328  0.88012857  0.51895721  1
  O  O191  1  0.33481094  0.87517533  0.85799299  1
  O  O192  1  0.65836748  0.38031492  0.18383389  1
  O  O193  1  0.65791320  0.37457287  0.52820297  1
  O  O194  1  0.67213316  0.37678616  0.83944158  1
  O  O195  1  0.65871212  0.86855866  0.18760225  1
  O  O196  1  0.67319046  0.87864910  0.52260315  1
  O  O197  1  0.65964435  0.87199571  0.85907108  1
  O  O198  1  0.00722154  0.12346958  0.14761374  1
  O  O199  1  0.00788791  0.12203986  0.47289786  1
  O  O200  1  0.00239555  0.12184183  0.81091057  1
  O  O201  1  -0.00295554  0.62545955  0.14864198  1
  O  O202  1  0.00699629  0.63062751  0.47808931  1
  O  O203  1  -0.00740236  0.63170943  0.80767295  1
  O  O204  1  0.32691789  0.11944787  0.14840628  1
  O  O205  1  0.33154629  0.13009248  0.47263494  1
  O  O206  1  0.33078914  0.12165848  0.82267284  1
  O  O207  1  0.34024758  0.62975188  0.13925867  1
  O  O208  1  0.33281235  0.61865662  0.47979332  1
  O  O209  1  0.33614096  0.62825857  0.82409382  1
  O  O210  1  0.66794206  0.12580031  0.15898515  1
  O  O211  1  0.66901025  0.12578417  0.48520299  1
  O  O212  1  0.67641315  0.12124280  0.80640343  1
  O  O213  1  0.66851650  0.62587755  0.14203717  1
  O  O214  1  0.66069339  0.62030524  0.47592114  1
  O  O215  1  0.67349076  0.63013015  0.80304955  1
  O  O216  1  0.08309067  0.02698037  0.25606902  1
  O  O217  1  0.07525614  0.02290995  0.58968102  1
  O  O218  1  0.07500892  0.02153404  0.92761875  1
  O  O219  1  0.07449866  0.51530252  0.26242283  1
  O  O220  1  0.07883378  0.51687087  0.58622598  1
  O  O221  1  0.07020233  0.51195653  0.92360417  1
  O  O222  1  0.41092192  0.01263427  0.25378901  1
  O  O223  1  0.41844095  0.01682366  0.58161367  1
  O  O224  1  0.40873151  0.01232680  0.92043380  1
  O  O225  1  0.41263103  0.52961132  0.25639163  1
  O  O226  1  0.41970580  0.51429255  0.57622831  1
  O  O227  1  0.41530818  0.52212133  0.92341416  1
  O  O228  1  0.74929362  -0.00040817  0.25707685  1
  O  O229  1  0.74705380  0.02416860  0.59131500  1
  O  O230  1  0.74916999  0.00763049  0.90947474  1
  O  O231  1  0.73919904  0.51308881  0.25622542  1
  O  O232  1  0.74251347  0.51295796  0.59801145  1
  O  O233  1  0.74449990  0.52376969  0.92282188  1
  O  O234  1  0.24947475  0.22602292  0.25187026  1
  O  O235  1  0.24213360  0.23542109  0.57081237  1
  O  O236  1  0.24157302  0.23244581  0.91540606  1
  O  O237  1  0.24952182  0.73889687  0.25323066  1
  O  O238  1  0.24490566  0.74953082  0.58142116  1
  O  O239  1  0.24699213  0.74483637  0.91644243  1
  O  O240  1  0.57927225  0.25277855  0.24969878  1
  O  O241  1  0.57915192  0.22599934  0.57733812  1
  O  O242  1  0.57944371  0.23285539  0.90179043  1
  O  O243  1  0.57700446  0.72281208  0.24038346  1
  O  O244  1  0.58018946  0.72961290  0.57522109  1
  O  O245  1  0.57845441  0.72601481  0.90663999  1
  O  O246  1  0.92326379  0.23789915  0.25311302  1
  O  O247  1  0.91642073  0.22755900  0.58732180  1
  O  O248  1  0.91719784  0.22644504  0.91573635  1
  O  O249  1  0.91411020  0.73505295  0.25214603  1
  O  O250  1  0.91850167  0.73631503  0.58540176  1
  O  O251  1  0.90756262  0.73052096  0.91011258  1
  O  O252  1  0.08020576  0.48878709  0.08587215  1
  O  O253  1  0.09241815  0.47892813  0.42300118  1
  O  O254  1  0.07460083  0.48882862  0.74481656  1
  O  O255  1  0.09560567  0.97924050  0.09325309  1
  O  O256  1  0.08540323  0.97743802  0.42385887  1
  O  O257  1  0.08887795  0.97672611  0.76485884  1
  O  O258  1  0.42522869  0.49061522  0.09585897  1
  O  O259  1  0.41785647  0.47869045  0.41577716  1
  O  O260  1  0.41698135  0.49090678  0.74548695  1
  O  O261  1  0.42412173  0.97538367  0.08379096  1
  O  O262  1  0.42019205  0.99979097  0.41747978  1
  O  O263  1  0.42382272  0.98388444  0.75549311  1
  O  O264  1  0.76074655  0.48204466  0.09288335  1
  O  O265  1  0.74485246  0.48364848  0.41497771  1
  O  O266  1  0.75780178  0.48554639  0.75872384  1
  O  O267  1  0.74973967  0.98359571  0.07981110  1
  O  O268  1  0.75795135  0.98500829  0.42631734  1
  O  O269  1  0.75660264  0.97287031  0.75161329  1
  O  O270  1  0.24402654  0.25586950  0.09007203  1
  O  O271  1  0.25490190  0.27632962  0.41304816  1
  O  O272  1  0.25079206  0.26498981  0.74089024  1
  O  O273  1  0.25573179  0.77007577  0.07734549  1
  O  O274  1  0.24700316  0.76498125  0.41871486  1
  O  O275  1  0.25424471  0.77511975  0.74468646  1
  O  O276  1  0.58336159  0.26075004  0.08378232  1
  O  O277  1  0.57903161  0.27852557  0.41194527  1
  O  O278  1  0.59325425  0.26304695  0.73469043  1
  O  O279  1  0.58837259  0.77342420  0.07318652  1
  O  O280  1  0.59517275  0.76196967  0.40182486  1
  O  O281  1  0.59246130  0.77383466  0.74172880  1
  O  O282  1  0.91801871  0.26958745  0.08283748  1
  O  O283  1  0.92167462  0.25556327  0.41865490  1
  O  O284  1  0.91361152  0.26639562  0.75341139  1
  O  O285  1  0.92851485  0.76289230  0.07444101  1
  O  O286  1  0.92365495  0.76853447  0.41674675  1
  O  O287  1  0.92050064  0.77825339  0.74899247  1
  O  O288  1  0.25278115  0.49508624  0.08587174  1
  O  O289  1  0.25442075  0.47268506  0.41619196  1
  O  O290  1  0.24953452  0.48540234  0.74107142  1
  O  O291  1  0.25612002  0.97459778  0.07291907  1
  O  O292  1  0.24818159  0.98674303  0.41459101  1
  O  O293  1  0.25875508  0.97235983  0.74451552  1
  O  O294  1  0.58597977  0.49315339  0.08196937  1
  O  O295  1  0.58088680  0.46970530  0.40771355  1
  O  O296  1  0.59376507  0.48962577  0.73674178  1
  O  O297  1  0.58632572  0.97583686  0.07321290  1
  O  O298  1  0.59186774  0.98644307  0.40946179  1
  O  O299  1  0.59378134  0.97584241  0.73998294  1
  O  O300  1  0.92074190  0.48182186  0.07848382  1
  O  O301  1  0.92513930  0.49323130  0.41314785  1
  O  O302  1  0.91540462  0.47718122  0.75416238  1
  O  O303  1  0.93108421  0.98753368  0.07761540  1
  O  O304  1  0.92104069  0.97967145  0.41843373  1
  O  O305  1  0.92273859  0.97780245  0.74367006  1
  O  O306  1  0.07713146  0.26145723  0.08041716  1
  O  O307  1  0.09248548  0.26450339  0.42049369  1
  O  O308  1  0.07243753  0.26229801  0.74635418  1
  O  O309  1  0.09326317  0.77033042  0.09248119  1
  O  O310  1  0.08682917  0.77848013  0.42701750  1
  O  O311  1  0.08738867  0.77525912  0.75966859  1
  O  O312  1  0.41835201  0.26210232  0.09185331  1
  O  O313  1  0.41724224  0.27888863  0.41685140  1
  O  O314  1  0.41649135  0.26008934  0.74125620  1
  O  O315  1  0.42715650  0.77210642  0.08618146  1
  O  O316  1  0.42030982  0.74697895  0.41660714  1
  O  O317  1  0.42291410  0.76870085  0.75681779  1
  O  O318  1  0.75676568  0.26847106  0.08598484  1
  O  O319  1  0.74580431  0.26590055  0.41540919  1
  O  O320  1  0.75173054  0.26553992  0.74895762  1
  O  O321  1  0.74887708  0.76468991  0.08128924  1
  O  O322  1  0.75503121  0.76863172  0.42511777  1
  O  O323  1  0.75735229  0.77702294  0.75864794  1
  O  O324  1  0.24375151  0.01496572  0.24351619  1
  O  O325  1  0.24207808  0.01532662  0.57231881  1
  O  O326  1  0.23538055  0.01061304  0.90581154  1
  O  O327  1  0.25540026  0.51417841  0.25782082  1
  O  O328  1  0.24434003  0.50180168  0.57753424  1
  O  O329  1  0.24969288  0.51033039  0.91943276  1
  O  O330  1  0.57849926  0.00098289  0.24482429  1
  O  O331  1  0.58130629  0.02190183  0.57870256  1
  O  O332  1  0.57196974  0.01290456  0.89837439  1
  O  O333  1  0.57788052  0.52147697  0.24620476  1
  O  O334  1  0.57716521  0.52205841  0.57617773  1
  O  O335  1  0.58148400  0.52485976  0.90836027  1
  O  O336  1  0.92484993  0.01067032  0.25727190  1
  O  O337  1  0.91213843  0.02985434  0.57939007  1
  O  O338  1  0.91088682  0.01806235  0.90735200  1
  O  O339  1  0.91128999  0.51588157  0.24658179  1
  O  O340  1  0.92056231  0.50980795  0.59259942  1
  O  O341  1  0.90983260  0.52570486  0.91585101  1
  O  O342  1  0.08608839  0.22890904  0.25153279  1
  O  O343  1  0.08171150  0.22064669  0.58481158  1
  O  O344  1  0.08026891  0.22674153  0.91671762  1
  O  O345  1  0.07368702  0.73224487  0.26856652  1
  O  O346  1  0.07463892  0.73927274  0.59396832  1
  O  O347  1  0.06844094  0.73606730  0.92960514  1
  O  O348  1  0.40602322  0.23513102  0.25946690  1
  O  O349  1  0.42183316  0.23005143  0.57349082  1
  O  O350  1  0.41438889  0.23589544  0.91333501  1
  O  O351  1  0.41604128  0.72296854  0.25263376  1
  O  O352  1  0.41626874  0.73774527  0.58379080  1
  O  O353  1  0.41202794  0.72844629  0.92795338  1
  O  O354  1  0.75104646  0.25481661  0.24778415  1
  O  O355  1  0.75045607  0.22901156  0.58799432  1
  O  O356  1  0.75531799  0.23979207  0.90898264  1
  O  O357  1  0.73866666  0.73694480  0.25937216  1
  O  O358  1  0.74109138  0.73565446  0.59687109  1
  O  O359  1  0.74188337  0.73002014  0.91970114  1
