# generated using pymatgen
data_Ba17Sr5La8Pr42Mn72O216
_symmetry_space_group_name_H-M   'P 1'
_cell_length_a   16.66722726
_cell_length_b   15.70810144
_cell_length_c   16.81686423
_cell_angle_alpha   89.99446216
_cell_angle_beta   90.01140455
_cell_angle_gamma   89.99681850
_symmetry_Int_Tables_number   1
_chemical_formula_structural   Ba17Sr5La8Pr42Mn72O216
_chemical_formula_sum   'Ba17 Sr5 La8 Pr42 Mn72 O216'
_cell_volume   4402.83146158
_cell_formula_units_Z   1
loop_
 _symmetry_equiv_pos_site_id
 _symmetry_equiv_pos_as_xyz
  1  'x, y, z'
loop_
 _atom_site_type_symbol
 _atom_site_label
 _atom_site_symmetry_multiplicity
 _atom_site_fract_x
 _atom_site_fract_y
 _atom_site_fract_z
 _atom_site_occupancy
  Ba  Ba0  1  0.33248275  0.37510919  -0.00046381  1
  Ba  Ba1  1  0.49839303  0.62658119  0.83548361  1
  Ba  Ba2  1  0.33321489  0.12524731  0.66369194  1
  Ba  Ba3  1  0.16642210  0.87543386  0.16427423  1
  Ba  Ba4  1  0.83284460  0.87618299  0.16869162  1
  Ba  Ba5  1  0.83255644  0.62429811  0.16780387  1
  Ba  Ba6  1  0.83492123  0.62490982  0.83603552  1
  Ba  Ba7  1  0.16426627  0.37438183  0.83069224  1
  Ba  Ba8  1  0.16877213  0.62568071  0.16517407  1
  Ba  Ba9  1  0.00028628  0.87730621  0.33368920  1
  Ba  Ba10  1  0.66579050  0.87694831  0.66458507  1
  Ba  Ba11  1  0.33068936  0.37394206  0.66845775  1
  Ba  Ba12  1  0.66632483  0.62477672  0.33271668  1
  Ba  Ba13  1  0.50161779  0.12488600  0.17060340  1
  Ba  Ba14  1  0.16622806  0.37490012  0.16321070  1
  Ba  Ba15  1  0.83488227  0.62374498  0.50215526  1
  Ba  Ba16  1  0.66809562  0.62468399  0.99824518  1
  Sr  Sr17  1  0.33179956  0.62468054  1.00010811  1
  Sr  Sr18  1  0.17081388  0.12297318  0.49880476  1
  Sr  Sr19  1  0.66568498  0.87526154  0.33530991  1
  Sr  Sr20  1  -0.00459013  0.87494864  0.00618304  1
  Sr  Sr21  1  0.00701079  0.12490645  0.33244484  1
  La  La22  1  0.84211798  0.12244168  0.50116887  1
  La  La23  1  0.33098152  0.37513348  0.33294332  1
  La  La24  1  0.00019841  0.62648771  0.32834623  1
  La  La25  1  0.66429496  0.37685364  0.66786324  1
  La  La26  1  0.66660313  0.62706164  0.66407523  1
  La  La27  1  0.49993133  0.37583062  0.16449804  1
  La  La28  1  0.83864780  0.12314421  0.83273898  1
  La  La29  1  0.49840825  0.87209431  0.83339421  1
  Pr  Pr30  1  0.17150965  0.12526631  0.16680894  1
  Pr  Pr31  1  0.67540727  0.12491244  0.32812262  1
  Pr  Pr32  1  -0.00747675  0.87676584  0.66600167  1
  Pr  Pr33  1  0.17209453  0.12634489  0.83196869  1
  Pr  Pr34  1  0.67120128  0.12459627  0.99870478  1
  Pr  Pr35  1  0.33612378  0.87179755  0.00359877  1
  Pr  Pr36  1  0.00285167  0.62346730  0.66534039  1
  Pr  Pr37  1  0.49246869  0.37797895  0.49997598  1
  Pr  Pr38  1  0.82726957  0.37286994  0.49731626  1
  Pr  Pr39  1  0.82571684  0.87503839  0.49093392  1
  Pr  Pr40  1  0.00814008  0.11993660  1.00010425  1
  Pr  Pr41  1  0.16836466  0.62274771  0.83769802  1
  Pr  Pr42  1  0.84179350  0.12459825  0.16942752  1
  Pr  Pr43  1  0.16119202  0.87321046  0.83192223  1
  Pr  Pr44  1  0.49556688  0.87339322  0.49890375  1
  Pr  Pr45  1  0.00316044  0.63070733  1.00149015  1
  Pr  Pr46  1  -0.00608008  0.37396392  0.67071451  1
  Pr  Pr47  1  0.66678666  0.87149233  0.00156934  1
  Pr  Pr48  1  0.82766608  0.37289889  0.83262870  1
  Pr  Pr49  1  0.50399554  0.87301452  0.16728471  1
  Pr  Pr50  1  0.66247109  0.37782786  -0.00119818  1
  Pr  Pr51  1  0.49938601  0.12402893  0.83734908  1
  Pr  Pr52  1  0.00866939  0.12690546  0.66286237  1
  Pr  Pr53  1  -0.00114466  0.37652206  0.33454674  1
  Pr  Pr54  1  0.50175941  0.62663802  0.50491134  1
  Pr  Pr55  1  0.82764981  0.37320088  0.16604334  1
  Pr  Pr56  1  0.16646076  0.62851916  0.49895960  1
  Pr  Pr57  1  0.33311174  0.12501889  0.33173866  1
  Pr  Pr58  1  0.16649591  0.88218593  0.49259991  1
  Pr  Pr59  1  0.33110202  0.12472713  0.99770269  1
  Pr  Pr60  1  0.82638992  0.87516119  0.83488630  1
  Pr  Pr61  1  0.67194071  0.12519787  0.66152326  1
  Pr  Pr62  1  0.32959391  0.87642965  0.66957753  1
  Pr  Pr63  1  0.16620146  0.36774640  0.49681259  1
  Pr  Pr64  1  0.33342800  0.87474755  0.33355689  1
  Pr  Pr65  1  0.66180489  0.37562418  0.33343426  1
  Pr  Pr66  1  0.33444406  0.62584514  0.32830580  1
  Pr  Pr67  1  -0.00404294  0.37618272  0.00350966  1
  Pr  Pr68  1  0.50389282  0.12448347  0.50444219  1
  Pr  Pr69  1  0.49601108  0.37973869  0.83142736  1
  Pr  Pr70  1  0.49915289  0.62409500  0.16699221  1
  Pr  Pr71  1  0.32981250  0.62261798  0.66674501  1
  Mn  Mn72  1  0.00120657  0.00152057  0.16560911  1
  Mn  Mn73  1  0.00202853  0.00216224  0.50164885  1
  Mn  Mn74  1  0.00023646  -0.00193373  0.83294719  1
  Mn  Mn75  1  -0.00113392  0.49807479  0.16764016  1
  Mn  Mn76  1  0.00216074  0.49739183  0.50113686  1
  Mn  Mn77  1  -0.00142482  0.49904009  0.83401124  1
  Mn  Mn78  1  0.33581399  -0.00081678  0.16604725  1
  Mn  Mn79  1  0.33585646  -0.00069100  0.49958015  1
  Mn  Mn80  1  0.33198954  -0.00147646  0.83427511  1
  Mn  Mn81  1  0.33453539  0.50141244  0.16683883  1
  Mn  Mn82  1  0.33057638  0.50213414  0.49871410  1
  Mn  Mn83  1  0.33211487  0.50130901  0.83328619  1
  Mn  Mn84  1  0.66719241  0.00064027  0.16624646  1
  Mn  Mn85  1  0.66595408  0.00294314  0.49725588  1
  Mn  Mn86  1  0.66562955  0.00328794  0.83313636  1
  Mn  Mn87  1  0.66528085  0.49790818  0.16653369  1
  Mn  Mn88  1  0.66463931  0.49777296  0.50088598  1
  Mn  Mn89  1  0.66672475  0.49681611  0.83258473  1
  Mn  Mn90  1  -0.00023113  0.24903963  0.16716216  1
  Mn  Mn91  1  0.00168896  0.25063709  0.50105060  1
  Mn  Mn92  1  -0.00142571  0.24667071  0.83429628  1
  Mn  Mn93  1  0.00005897  0.75063044  0.16593382  1
  Mn  Mn94  1  0.00093093  0.74977599  0.50179460  1
  Mn  Mn95  1  -0.00054585  0.75401851  0.83286740  1
  Mn  Mn96  1  0.33541815  0.24859043  0.16629821  1
  Mn  Mn97  1  0.33450137  0.25086142  0.49830602  1
  Mn  Mn98  1  0.33475601  0.24768123  0.83300951  1
  Mn  Mn99  1  0.33591456  0.75056271  0.16723492  1
  Mn  Mn100  1  0.33208853  0.74889001  0.50095475  1
  Mn  Mn101  1  0.32999183  0.75268220  0.83418194  1
  Mn  Mn102  1  0.66756575  0.24922504  0.16500377  1
  Mn  Mn103  1  0.66579523  0.25007344  0.49818192  1
  Mn  Mn104  1  0.66558621  0.24740050  0.83100554  1
  Mn  Mn105  1  0.66616415  0.75144926  0.16799146  1
  Mn  Mn106  1  0.66527727  0.75061459  0.49963204  1
  Mn  Mn107  1  0.66623765  0.75206563  0.83287471  1
  Mn  Mn108  1  0.16499057  0.24861933  -0.00115728  1
  Mn  Mn109  1  0.16729194  0.24876348  0.33099779  1
  Mn  Mn110  1  0.16517751  0.24923487  0.66411890  1
  Mn  Mn111  1  0.16688197  0.75073216  -0.00287825  1
  Mn  Mn112  1  0.16793249  0.75118138  0.33548559  1
  Mn  Mn113  1  0.16404578  0.75152487  0.66526331  1
  Mn  Mn114  1  0.50115534  0.24705606  0.00000234  1
  Mn  Mn115  1  0.49958070  0.25022057  0.33691415  1
  Mn  Mn116  1  0.50272187  0.24916998  0.66828486  1
  Mn  Mn117  1  0.49990479  0.75184193  0.00071355  1
  Mn  Mn118  1  0.49966507  0.75067553  0.33418896  1
  Mn  Mn119  1  0.49754499  0.75121761  0.66642589  1
  Mn  Mn120  1  0.83406928  0.24845320  -0.00019636  1
  Mn  Mn121  1  0.83533090  0.25065372  0.33321971  1
  Mn  Mn122  1  0.83332058  0.24891583  0.66598427  1
  Mn  Mn123  1  0.83469231  0.75074449  0.00004943  1
  Mn  Mn124  1  0.83299621  0.75025459  0.33492010  1
  Mn  Mn125  1  0.83377175  0.75153629  0.66792347  1
  Mn  Mn126  1  0.16785922  -0.00048909  -0.00257696  1
  Mn  Mn127  1  0.16857460  0.00262629  0.33170411  1
  Mn  Mn128  1  0.16508015  -0.00356095  0.66460949  1
  Mn  Mn129  1  0.16487738  0.50066497  -0.00209945  1
  Mn  Mn130  1  0.16672813  0.49810712  0.33513038  1
  Mn  Mn131  1  0.16363232  0.50266436  0.66461382  1
  Mn  Mn132  1  0.50112745  0.00103502  0.00145026  1
  Mn  Mn133  1  0.50015559  0.00009236  0.33697961  1
  Mn  Mn134  1  0.50000205  0.00000081  0.66839847  1
  Mn  Mn135  1  0.49930448  0.49927031  -0.00052788  1
  Mn  Mn136  1  0.49808468  0.49934873  0.33328771  1
  Mn  Mn137  1  0.49899772  0.50079400  0.66601079  1
  Mn  Mn138  1  0.83301091  0.00349014  0.00011779  1
  Mn  Mn139  1  0.83421857  0.00248572  0.33465759  1
  Mn  Mn140  1  0.83453176  0.00029748  0.66655149  1
  Mn  Mn141  1  0.83534722  0.49694176  -0.00002296  1
  Mn  Mn142  1  0.83428107  0.49691941  0.33416347  1
  Mn  Mn143  1  0.83315362  0.49884226  0.66817512  1
  O  O144  1  0.16675304  0.12394195  0.02051040  1
  O  O145  1  0.17523531  0.12616197  0.35068282  1
  O  O146  1  0.15912958  0.11757936  0.68875832  1
  O  O147  1  0.16002144  0.62604939  0.00570612  1
  O  O148  1  0.17179741  0.62302481  0.35575404  1
  O  O149  1  0.16109399  0.63096085  0.69363384  1
  O  O150  1  0.49906091  0.12346859  0.01598408  1
  O  O151  1  0.49309975  0.12683958  0.36234237  1
  O  O152  1  0.50847620  0.12571649  0.69074176  1
  O  O153  1  0.49874555  0.62964119  0.02179823  1
  O  O154  1  0.49366874  0.62493791  0.36071092  1
  O  O155  1  0.50680946  0.62694424  0.67702473  1
  O  O156  1  0.82228053  0.12885277  0.02645570  1
  O  O157  1  0.82831899  0.12976136  0.35724012  1
  O  O158  1  0.83063548  0.12489074  0.68817555  1
  O  O159  1  0.83782876  0.61959431  0.01010583  1
  O  O160  1  0.84087297  0.61936092  0.34469643  1
  O  O161  1  0.83612934  0.62166503  0.67978509  1
  O  O162  1  0.16735033  0.37199394  0.31956922  1
  O  O163  1  0.15823667  0.37981546  0.64216782  1
  O  O164  1  0.15659811  0.37203419  0.98795208  1
  O  O165  1  0.17326379  0.87938933  0.32327895  1
  O  O166  1  0.16752685  0.87200829  0.63550081  1
  O  O167  1  0.17350592  0.87679114  0.97595548  1
  O  O168  1  0.49835784  0.37410129  0.30870462  1
  O  O169  1  0.50300318  0.37360609  0.64460861  1
  O  O170  1  0.50626728  0.36705191  0.97536476  1
  O  O171  1  0.49530741  0.87467270  0.31125322  1
  O  O172  1  0.48996015  0.87394616  0.64344785  1
  O  O173  1  0.50123428  0.88009932  0.97719800  1
  O  O174  1  0.83906697  0.37113108  0.31113092  1
  O  O175  1  0.83607923  0.37292497  0.64174506  1
  O  O176  1  0.84437777  0.36839565  0.97389645  1
  O  O177  1  0.82946046  0.88001584  0.33099347  1
  O  O178  1  0.83900526  0.87974902  0.63781844  1
  O  O179  1  0.83233938  0.88275237  0.97860540  1
  O  O180  1  -0.00240259  0.37163231  0.18918751  1
  O  O181  1  0.01193573  0.37372728  0.52884910  1
  O  O182  1  -0.00443671  0.36670755  0.85952114  1
  O  O183  1  0.00060003  0.87950793  0.17314548  1
  O  O184  1  0.01068616  0.87900855  0.52173320  1
  O  O185  1  0.00821951  0.87825363  0.85843749  1
  O  O186  1  0.34031504  0.37494732  0.18763098  1
  O  O187  1  0.33542696  0.37842623  0.51386869  1
  O  O188  1  0.34110673  0.37059978  0.84134102  1
  O  O189  1  0.33948657  0.87523863  0.18974806  1
  O  O190  1  0.33799571  0.87027450  0.52689309  1
  O  O191  1  0.32784017  0.87756800  0.85935494  1
  O  O192  1  0.66356488  0.37071152  0.18913243  1
  O  O193  1  0.67285386  0.37084373  0.52476192  1
  O  O194  1  0.67005428  0.36715710  0.85530773  1
  O  O195  1  0.65942566  0.87890920  0.18532016  1
  O  O196  1  0.67524484  0.87761666  0.50828585  1
  O  O197  1  0.67077531  0.88451475  0.85589913  1
  O  O198  1  -0.00361107  0.12722209  0.14517895  1
  O  O199  1  -0.00757935  0.12775489  0.48253746  1
  O  O200  1  -0.00474582  0.12095346  0.80466268  1
  O  O201  1  -0.00127164  0.62147471  0.15017386  1
  O  O202  1  0.00357912  0.61843791  0.47260264  1
  O  O203  1  0.00238126  0.63277931  0.80715305  1
  O  O204  1  0.33214753  0.12195107  0.14323881  1
  O  O205  1  0.34130514  0.12552943  0.47628953  1
  O  O206  1  0.33600938  0.12139179  0.81962142  1
  O  O207  1  0.34237839  0.62821007  0.15144778  1
  O  O208  1  0.32801788  0.62603469  0.47064204  1
  O  O209  1  0.32661583  0.63161566  0.81068198  1
  O  O210  1  0.67052963  0.12698017  0.14283391  1
  O  O211  1  0.65527246  0.12994363  0.47040245  1
  O  O212  1  0.65996719  0.12619606  0.80348760  1
  O  O213  1  0.65847573  0.62276097  0.15554642  1
  O  O214  1  0.65469715  0.62421533  0.49147465  1
  O  O215  1  0.66745854  0.62051466  0.80971661  1
  O  O216  1  0.08818823  0.02051468  0.24422193  1
  O  O217  1  0.08383438  0.01940097  0.58350540  1
  O  O218  1  0.08745053  0.02316330  0.90871156  1
  O  O219  1  0.08314798  0.51144148  0.25616462  1
  O  O220  1  0.08796846  0.52837152  0.57745580  1
  O  O221  1  0.08464441  0.51948951  0.90719366  1
  O  O222  1  0.41243118  0.01521347  0.25940487  1
  O  O223  1  0.42651047  0.01483190  0.57509176  1
  O  O224  1  0.41888775  0.01725124  0.91802238  1
  O  O225  1  0.41722871  0.52214596  0.25260514  1
  O  O226  1  0.41393768  0.52328172  0.57909114  1
  O  O227  1  0.41612430  0.50767458  0.91950809  1
  O  O228  1  0.75487056  0.02396277  0.24431717  1
  O  O229  1  0.75406150  0.02367680  0.57571813  1
  O  O230  1  0.75263608  0.02719779  0.91154195  1
  O  O231  1  0.74754021  0.49731397  0.24930082  1
  O  O232  1  0.74391470  0.51034584  0.59177879  1
  O  O233  1  0.75343292  0.49667115  0.91523418  1
  O  O234  1  0.25335051  0.22880630  0.24848725  1
  O  O235  1  0.24899692  0.24240215  0.57496619  1
  O  O236  1  0.25104052  0.22910191  0.91715483  1
  O  O237  1  0.25779105  0.73898481  0.25909115  1
  O  O238  1  0.25021714  0.72471497  0.58652572  1
  O  O239  1  0.24533266  0.73404535  0.90995695  1
  O  O240  1  0.59167062  0.23616543  0.26525813  1
  O  O241  1  0.59140728  0.22915256  0.58900654  1
  O  O242  1  0.58648494  0.22451097  0.91554861  1
  O  O243  1  0.57455077  0.73825195  0.24304306  1
  O  O244  1  0.57807308  0.74065172  0.57949770  1
  O  O245  1  0.58271349  0.74935624  0.91742016  1
  O  O246  1  0.92152775  0.23038380  0.25378692  1
  O  O247  1  0.92329398  0.23324004  0.59096236  1
  O  O248  1  0.92180736  0.22016667  0.92353044  1
  O  O249  1  0.92155628  0.73963065  0.25788612  1
  O  O250  1  0.92631133  0.73846080  0.59536085  1
  O  O251  1  0.92566237  0.73943682  0.92123130  1
  O  O252  1  0.07111905  0.48976480  0.07389134  1
  O  O253  1  0.08107197  0.47445483  0.41660839  1
  O  O254  1  0.07026609  0.48718381  0.73738367  1
  O  O255  1  0.08256442  0.99498017  0.07460364  1
  O  O256  1  0.08874507  0.99291930  0.42061025  1
  O  O257  1  0.07940682  0.97479900  0.74513667  1
  O  O258  1  0.42539368  0.48741346  0.09268204  1
  O  O259  1  0.41408758  0.48008235  0.41367403  1
  O  O260  1  0.41991338  0.49174533  0.75065613  1
  O  O261  1  0.41910485  0.97623884  0.08447460  1
  O  O262  1  0.41517269  0.97338794  0.41664415  1
  O  O263  1  0.40952733  0.97715916  0.75022539  1
  O  O264  1  0.74848657  0.47460265  0.08078728  1
  O  O265  1  0.74931907  0.47734784  0.41732705  1
  O  O266  1  0.74814205  0.47458228  0.75003795  1
  O  O267  1  0.74077168  0.98691781  0.07104899  1
  O  O268  1  0.74400758  0.99604700  0.41250370  1
  O  O269  1  0.75225045  0.98873235  0.75131694  1
  O  O270  1  0.24817431  0.25144172  0.08285600  1
  O  O271  1  0.25194980  0.26752944  0.41309313  1
  O  O272  1  0.24339759  0.25119663  0.75027692  1
  O  O273  1  0.25848643  0.76320324  0.07654348  1
  O  O274  1  0.25039651  0.77385869  0.42214455  1
  O  O275  1  0.24505315  0.77644305  0.74739121  1
  O  O276  1  0.58461266  0.26921821  0.08243339  1
  O  O277  1  0.57698248  0.27824129  0.42555272  1
  O  O278  1  0.58187427  0.27578720  0.75290434  1
  O  O279  1  0.58295141  0.77302992  0.08278988  1
  O  O280  1  0.57745358  0.76807695  0.41940687  1
  O  O281  1  0.57839507  0.76713112  0.75349549  1
  O  O282  1  0.91003844  0.26761465  0.09222735  1
  O  O283  1  0.91352297  0.27373555  0.42614858  1
  O  O284  1  0.90922185  0.26700618  0.76018275  1
  O  O285  1  0.91622627  0.75608630  0.08077315  1
  O  O286  1  0.91379200  0.76600553  0.42855981  1
  O  O287  1  0.91417680  0.77984657  0.75644398  1
  O  O288  1  0.25234971  0.49604227  0.08482454  1
  O  O289  1  0.24419310  0.47802200  0.42279403  1
  O  O290  1  0.24581158  0.49878907  0.74716468  1
  O  O291  1  0.25805160  0.98723276  0.07369078  1
  O  O292  1  0.25629658  0.98262203  0.41485662  1
  O  O293  1  0.24332698  0.97693318  0.75029249  1
  O  O294  1  0.58478579  0.47752334  0.08111620  1
  O  O295  1  0.58003033  0.47487377  0.41470180  1
  O  O296  1  0.58505534  0.47733583  0.74909881  1
  O  O297  1  0.58070309  0.97982902  0.08594111  1
  O  O298  1  0.57258743  0.98314495  0.42834573  1
  O  O299  1  0.57257807  0.98374147  0.76164120  1
  O  O300  1  0.90971410  0.47332679  0.08983103  1
  O  O301  1  0.91653261  0.47031994  0.42518678  1
  O  O302  1  0.91075647  0.47458924  0.75810549  1
  O  O303  1  0.91397253  1.00028957  0.08346368  1
  O  O304  1  0.90844599  0.98922572  0.43165691  1
  O  O305  1  0.91389265  0.97572059  0.75704899  1
  O  O306  1  0.07022286  0.25759363  0.07190639  1
  O  O307  1  0.07973738  0.26853216  0.41402963  1
  O  O308  1  0.06979865  0.26144697  0.74125138  1
  O  O309  1  0.08142709  0.75713209  0.07451640  1
  O  O310  1  0.09127625  0.76082954  0.42381519  1
  O  O311  1  0.07857209  0.77785742  0.74352192  1
  O  O312  1  0.42164053  0.26453650  0.08948891  1
  O  O313  1  0.41605754  0.27529477  0.41584731  1
  O  O314  1  0.42512207  0.25821018  0.75618433  1
  O  O315  1  0.42215316  0.77397288  0.08762161  1
  O  O316  1  0.41392099  0.77143199  0.41703688  1
  O  O317  1  0.41034592  0.77129949  0.74901053  1
  O  O318  1  0.74749865  0.27622060  0.07453252  1
  O  O319  1  0.74292695  0.27270899  0.40945103  1
  O  O320  1  0.74430692  0.26796948  0.74317110  1
  O  O321  1  0.74440114  0.76507231  0.07876314  1
  O  O322  1  0.75034903  0.75917714  0.42089588  1
  O  O323  1  0.75290775  0.76685827  0.75177268  1
  O  O324  1  0.25154608  0.02117640  0.24661649  1
  O  O325  1  0.25093510  0.00621052  0.57917905  1
  O  O326  1  0.24977390  0.02468198  0.91507844  1
  O  O327  1  0.25863260  0.51042587  0.26041131  1
  O  O328  1  0.24901207  0.52728227  0.58467487  1
  O  O329  1  0.24832827  0.51424748  0.91342219  1
  O  O330  1  0.59020679  0.01754854  0.26389331  1
  O  O331  1  0.59157318  0.02214996  0.58665497  1
  O  O332  1  0.58747107  0.02343633  0.92160412  1
  O  O333  1  0.57481519  0.50998202  0.24416094  1
  O  O334  1  0.57758247  0.51093244  0.58037061  1
  O  O335  1  0.58417415  0.50101147  0.91339356  1
  O  O336  1  0.91750350  0.01954597  0.25417726  1
  O  O337  1  0.92408723  0.02040463  0.59300974  1
  O  O338  1  0.91847298  0.02421453  0.91919883  1
  O  O339  1  0.92541674  0.50728155  0.26010150  1
  O  O340  1  0.92802066  0.50948770  0.59341235  1
  O  O341  1  0.92882959  0.51147845  0.92979548  1
  O  O342  1  0.08922241  0.22967008  0.24198900  1
  O  O343  1  0.08613877  0.22863054  0.57866648  1
  O  O344  1  0.08635007  0.22133371  0.90880889  1
  O  O345  1  0.08396711  0.73681383  0.25712142  1
  O  O346  1  0.08437930  0.72413005  0.58286149  1
  O  O347  1  0.08660308  0.73446470  0.90609134  1
  O  O348  1  0.41272080  0.23450698  0.25921114  1
  O  O349  1  0.42811866  0.23746285  0.57627739  1
  O  O350  1  0.41745114  0.22692546  0.91968729  1
  O  O351  1  0.41789526  0.72959350  0.25255546  1
  O  O352  1  0.41313343  0.72374671  0.58157650  1
  O  O353  1  0.41145895  0.74682882  0.92320569  1
  O  O354  1  0.75696306  0.23179144  0.24155667  1
  O  O355  1  0.75446676  0.22637308  0.57262847  1
  O  O356  1  0.75303219  0.22721145  0.90823688  1
  O  O357  1  0.74690229  0.74579654  0.25077022  1
  O  O358  1  0.74375109  0.73617897  0.58834803  1
  O  O359  1  0.75221420  0.75066618  0.91564053  1
