# generated using pymatgen
data_Ba17Sr5La8Pr42Mn72O216
_symmetry_space_group_name_H-M   'P 1'
_cell_length_a   16.68643376
_cell_length_b   15.71528298
_cell_length_c   16.82981454
_cell_angle_alpha   90.01481360
_cell_angle_beta   90.01245523
_cell_angle_gamma   90.00162643
_symmetry_Int_Tables_number   1
_chemical_formula_structural   Ba17Sr5La8Pr42Mn72O216
_chemical_formula_sum   'Ba17 Sr5 La8 Pr42 Mn72 O216'
_cell_volume   4413.31615344
_cell_formula_units_Z   1
loop_
 _symmetry_equiv_pos_site_id
 _symmetry_equiv_pos_as_xyz
  1  'x, y, z'
loop_
 _atom_site_type_symbol
 _atom_site_label
 _atom_site_symmetry_multiplicity
 _atom_site_fract_x
 _atom_site_fract_y
 _atom_site_fract_z
 _atom_site_occupancy
  Ba  Ba0  1  0.83825380  0.37782839  0.83145957  1
  Ba  Ba1  1  0.16851071  0.37646631  0.17024403  1
  Ba  Ba2  1  0.66148147  0.62484603  0.99790984  1
  Ba  Ba3  1  0.16609965  0.12341634  0.83541865  1
  Ba  Ba4  1  -0.00182084  0.12451947  0.33201353  1
  Ba  Ba5  1  0.49757004  0.12448402  0.16594911  1
  Ba  Ba6  1  0.66567191  0.12784886  0.66588704  1
  Ba  Ba7  1  0.67217716  0.37386495  0.66549899  1
  Ba  Ba8  1  0.33333355  0.37571544  0.66908192  1
  Ba  Ba9  1  0.50377986  0.87406567  0.50110102  1
  Ba  Ba10  1  -0.00106560  0.12331094  0.99831622  1
  Ba  Ba11  1  0.33014180  0.62430009  0.66778796  1
  Ba  Ba12  1  0.33571303  0.37407812  0.33516922  1
  Ba  Ba13  1  0.00043108  0.37656407  0.33437978  1
  Ba  Ba14  1  0.33596544  0.87572200  -0.00022896  1
  Ba  Ba15  1  0.33784156  0.87385910  0.67016298  1
  Ba  Ba16  1  0.16671292  0.12426179  0.16864676  1
  Sr  Sr17  1  -0.00999423  0.62492087  0.33155228  1
  Sr  Sr18  1  0.16310514  0.12892764  0.50080633  1
  Sr  Sr19  1  0.17607806  0.87818978  0.83445681  1
  Sr  Sr20  1  0.33014895  0.12511741  0.33152180  1
  Sr  Sr21  1  0.32792415  0.12420468  1.00315586  1
  La  La22  1  0.82155059  0.62332717  0.16900679  1
  La  La23  1  0.01033921  0.87486527  -0.00063532  1
  La  La24  1  0.17578753  0.87509669  0.50101922  1
  La  La25  1  0.00767998  0.37335191  0.00375779  1
  La  La26  1  0.66234828  0.62035532  0.66472326  1
  La  La27  1  0.33809972  0.88051116  0.33711460  1
  La  La28  1  0.83020534  0.12651375  0.49872941  1
  La  La29  1  0.67522382  0.37315629  0.00205850  1
  Pr  Pr30  1  0.16567518  0.62995602  0.83359133  1
  Pr  Pr31  1  0.49056008  0.12854281  0.83670288  1
  Pr  Pr32  1  0.50715041  0.87772642  0.16540870  1
  Pr  Pr33  1  0.66090243  0.12282605  0.33110593  1
  Pr  Pr34  1  0.50388472  0.37225345  0.16524185  1
  Pr  Pr35  1  0.66065700  0.12420875  0.99255197  1
  Pr  Pr36  1  0.83052290  0.12613011  0.83340621  1
  Pr  Pr37  1  0.67254442  0.87513650  -0.00017709  1
  Pr  Pr38  1  0.48964724  0.62162737  0.83489030  1
  Pr  Pr39  1  0.32543432  0.62478762  0.99859517  1
  Pr  Pr40  1  0.17376812  0.87901318  0.16793545  1
  Pr  Pr41  1  0.01156508  0.87366213  0.33567510  1
  Pr  Pr42  1  0.49112028  0.62334666  0.50169553  1
  Pr  Pr43  1  0.32646291  0.12319206  0.66562482  1
  Pr  Pr44  1  0.50795996  0.37503931  0.49865438  1
  Pr  Pr45  1  -0.00710832  0.62783564  0.66321258  1
  Pr  Pr46  1  -0.00549307  0.62438739  0.99732703  1
  Pr  Pr47  1  0.00582418  0.37557508  0.66749276  1
  Pr  Pr48  1  -0.00318974  0.12315633  0.66210919  1
  Pr  Pr49  1  0.83631412  0.37235807  0.49896588  1
  Pr  Pr50  1  0.50713142  0.87379337  0.82642532  1
  Pr  Pr51  1  0.82671441  0.62414121  0.49585577  1
  Pr  Pr52  1  0.50884050  0.37483590  0.83252676  1
  Pr  Pr53  1  0.01313205  0.87374874  0.66764721  1
  Pr  Pr54  1  0.48991039  0.12655069  0.50206372  1
  Pr  Pr55  1  0.84315803  0.87126775  0.82988758  1
  Pr  Pr56  1  0.33629195  0.37049122  0.00693751  1
  Pr  Pr57  1  0.84280216  0.37586794  0.16160429  1
  Pr  Pr58  1  0.67053824  0.37570154  0.33317563  1
  Pr  Pr59  1  0.67434078  0.87628267  0.66842812  1
  Pr  Pr60  1  0.15717447  0.62914623  0.17214654  1
  Pr  Pr61  1  0.84191005  0.87300169  0.16217762  1
  Pr  Pr62  1  0.83921617  0.87684616  0.49573716  1
  Pr  Pr63  1  0.48764093  0.62674976  0.16729488  1
  Pr  Pr64  1  0.15669442  0.62096002  0.50542773  1
  Pr  Pr65  1  0.17394614  0.37540591  0.49450497  1
  Pr  Pr66  1  0.82471619  0.62371842  0.83354298  1
  Pr  Pr67  1  0.32256950  0.62655151  0.33578228  1
  Pr  Pr68  1  0.82893977  0.12563683  0.16811213  1
  Pr  Pr69  1  0.65523445  0.62664154  0.32698015  1
  Pr  Pr70  1  0.67196129  0.87526334  0.33435821  1
  Pr  Pr71  1  0.16929856  0.37216676  0.83710928  1
  Mn  Mn72  1  -0.00156498  -0.00268204  0.16738864  1
  Mn  Mn73  1  0.00033513  -0.00196422  0.49976268  1
  Mn  Mn74  1  -0.00035401  -0.00345725  0.83072956  1
  Mn  Mn75  1  -0.00131073  0.50352775  0.16466051  1
  Mn  Mn76  1  -0.00333507  0.50185008  0.50164598  1
  Mn  Mn77  1  0.00310228  0.50403820  0.83210833  1
  Mn  Mn78  1  0.33511755  -0.00073139  0.16971513  1
  Mn  Mn79  1  0.33268277  0.00206125  0.50104174  1
  Mn  Mn80  1  0.33659535  0.00100442  0.83422054  1
  Mn  Mn81  1  0.33371984  0.50188025  0.16682730  1
  Mn  Mn82  1  0.33359284  0.50025737  0.50073183  1
  Mn  Mn83  1  0.33130273  0.49939238  0.83891243  1
  Mn  Mn84  1  0.66813946  -0.00074078  0.16473136  1
  Mn  Mn85  1  0.66748647  -0.00041206  0.49930949  1
  Mn  Mn86  1  0.66848838  -0.00137280  0.83346873  1
  Mn  Mn87  1  0.66315551  0.49928528  0.16665731  1
  Mn  Mn88  1  0.66777651  0.50155708  0.49494871  1
  Mn  Mn89  1  0.66584818  0.50049888  0.83258637  1
  Mn  Mn90  1  -0.00037520  0.24920145  0.16645145  1
  Mn  Mn91  1  -0.00114317  0.24919375  0.50207425  1
  Mn  Mn92  1  0.00044474  0.25103600  0.83188738  1
  Mn  Mn93  1  -0.00230841  0.75038302  0.16728446  1
  Mn  Mn94  1  -0.00149092  0.75031470  0.49861379  1
  Mn  Mn95  1  0.00244601  0.74844065  0.83133312  1
  Mn  Mn96  1  0.33394936  0.24997215  0.16995689  1
  Mn  Mn97  1  0.33246212  0.24924400  0.50248658  1
  Mn  Mn98  1  0.33322601  0.25223358  0.83679066  1
  Mn  Mn99  1  0.33336466  0.74953110  0.16914985  1
  Mn  Mn100  1  0.33350850  0.74993832  0.49975823  1
  Mn  Mn101  1  0.33571561  0.74956916  0.83560413  1
  Mn  Mn102  1  0.66773546  0.24946867  0.16659311  1
  Mn  Mn103  1  0.66611389  0.25073102  0.49601553  1
  Mn  Mn104  1  0.66796409  0.24925175  0.83375379  1
  Mn  Mn105  1  0.66401431  0.75113292  0.16592009  1
  Mn  Mn106  1  0.66859618  0.74828503  0.49849321  1
  Mn  Mn107  1  0.66668009  0.74958264  0.83090637  1
  Mn  Mn108  1  0.16789740  0.24935532  0.00058475  1
  Mn  Mn109  1  0.16702365  0.24962008  0.33597855  1
  Mn  Mn110  1  0.16451710  0.25097855  0.66780956  1
  Mn  Mn111  1  0.16645276  0.74999582  0.00458185  1
  Mn  Mn112  1  0.16549061  0.74910754  0.33570738  1
  Mn  Mn113  1  0.16600725  0.74886378  0.66867663  1
  Mn  Mn114  1  0.49974209  0.25015759  -0.00084291  1
  Mn  Mn115  1  0.50164051  0.25099507  0.33375049  1
  Mn  Mn116  1  0.49866598  0.25022900  0.66815617  1
  Mn  Mn117  1  0.50033086  0.75107090  -0.00065254  1
  Mn  Mn118  1  0.49859407  0.74937549  0.33239449  1
  Mn  Mn119  1  0.50470460  0.74770990  0.66603223  1
  Mn  Mn120  1  0.83395494  0.24907821  0.00025167  1
  Mn  Mn121  1  0.83096075  0.24953517  0.33154186  1
  Mn  Mn122  1  0.83689630  0.24911513  0.66599866  1
  Mn  Mn123  1  0.83415494  0.74980340  -0.00201203  1
  Mn  Mn124  1  0.83110004  0.75079775  0.33088521  1
  Mn  Mn125  1  0.83345361  0.74993708  0.66325149  1
  Mn  Mn126  1  0.16817282  -0.00190589  0.00011426  1
  Mn  Mn127  1  0.16785516  -0.00042818  0.33527653  1
  Mn  Mn128  1  0.16650682  0.00115309  0.66723243  1
  Mn  Mn129  1  0.16684751  0.50389482  0.00067924  1
  Mn  Mn130  1  0.16413469  0.50298270  0.33655699  1
  Mn  Mn131  1  0.16338301  0.49950315  0.66904340  1
  Mn  Mn132  1  0.50113488  -0.00090154  -0.00328238  1
  Mn  Mn133  1  0.50134415  -0.00006756  0.33388705  1
  Mn  Mn134  1  0.50276149  0.00235410  0.66750914  1
  Mn  Mn135  1  0.49844104  0.49912979  0.00152676  1
  Mn  Mn136  1  0.49953304  0.50130137  0.33222545  1
  Mn  Mn137  1  0.50051954  0.49803433  0.66705058  1
  Mn  Mn138  1  0.83275292  -0.00305947  -0.00129523  1
  Mn  Mn139  1  0.83215893  -0.00231164  0.33047036  1
  Mn  Mn140  1  0.83537427  -0.00353208  0.66500259  1
  Mn  Mn141  1  0.83454186  0.50161610  -0.00128663  1
  Mn  Mn142  1  0.82951850  0.50039875  0.33188963  1
  Mn  Mn143  1  0.83569840  0.50348343  0.66462821  1
  O  O144  1  0.16804396  0.12009745  0.00842655  1
  O  O145  1  0.16582792  0.12035424  0.34863718  1
  O  O146  1  0.15831162  0.12650973  0.67808191  1
  O  O147  1  0.16812236  0.62744451  0.02932872  1
  O  O148  1  0.16605403  0.62833072  0.36041922  1
  O  O149  1  0.15508861  0.62440759  0.68833361  1
  O  O150  1  0.51126158  0.12402800  0.01103335  1
  O  O151  1  0.50931593  0.12771046  0.35650418  1
  O  O152  1  0.49440548  0.12838943  0.69000216  1
  O  O153  1  0.49707816  0.62305635  0.02457431  1
  O  O154  1  0.50790401  0.62540970  0.35730945  1
  O  O155  1  0.50831892  0.62228397  0.68849044  1
  O  O156  1  0.82592096  0.12152770  0.02276920  1
  O  O157  1  0.82831600  0.12020359  0.35519570  1
  O  O158  1  0.84366100  0.11592407  0.69016159  1
  O  O159  1  0.83793509  0.62877373  0.02329772  1
  O  O160  1  0.82669765  0.62646278  0.35181035  1
  O  O161  1  0.83929857  0.62948389  0.69123996  1
  O  O162  1  0.16732191  0.38162839  0.33171636  1
  O  O163  1  0.15913577  0.37614492  0.64065477  1
  O  O164  1  0.16593689  0.38239992  0.98129158  1
  O  O165  1  0.16699318  0.86979416  0.31357891  1
  O  O166  1  0.16556235  0.87346738  0.64601704  1
  O  O167  1  0.16199428  0.87085473  0.98587214  1
  O  O168  1  0.50717656  0.37828609  0.30965067  1
  O  O169  1  0.50166683  0.37414804  0.64410800  1
  O  O170  1  0.48954355  0.37537179  0.97587844  1
  O  O171  1  0.49751492  0.87039890  0.31088325  1
  O  O172  1  0.50981325  0.87402821  0.65904715  1
  O  O173  1  0.50675059  0.87734693  0.97169593  1
  O  O174  1  0.82475075  0.37775941  0.30591758  1
  O  O175  1  0.84445226  0.38191845  0.64270610  1
  O  O176  1  0.83346115  0.37598917  0.98948757  1
  O  O177  1  0.82146276  0.87401826  0.30450270  1
  O  O178  1  0.82630277  0.87189633  0.63822108  1
  O  O179  1  0.82924849  0.87186858  0.97427774  1
  O  O180  1  -0.00911427  0.37786912  0.17318769  1
  O  O181  1  -0.01397597  0.37790060  0.52354569  1
  O  O182  1  0.00193363  0.38687229  0.86043931  1
  O  O183  1  -0.01147855  0.87096693  0.19242847  1
  O  O184  1  -0.01032794  0.87246429  0.52321352  1
  O  O185  1  -0.01005134  0.87003294  0.85515188  1
  O  O186  1  0.33930812  0.37974279  0.17713840  1
  O  O187  1  0.32625371  0.37574471  0.51110596  1
  O  O188  1  0.32386900  0.37927227  0.86193993  1
  O  O189  1  0.32758815  0.86910449  0.19356895  1
  O  O190  1  0.32824026  0.87563065  0.51142710  1
  O  O191  1  0.34287802  0.87182854  0.84097158  1
  O  O192  1  0.65909755  0.37774751  0.19038026  1
  O  O193  1  0.65886349  0.37780194  0.51071508  1
  O  O194  1  0.66148708  0.37543291  0.85492939  1
  O  O195  1  0.65823800  0.87421510  0.19121115  1
  O  O196  1  0.67132351  0.86890895  0.52527261  1
  O  O197  1  0.65865874  0.87437292  0.85483414  1
  O  O198  1  -0.00902743  0.12150523  0.15658849  1
  O  O199  1  0.00067060  0.12022113  0.48891293  1
  O  O200  1  -0.00520326  0.11698408  0.80793296  1
  O  O201  1  0.00450717  0.62946064  0.14285290  1
  O  O202  1  0.00743013  0.62891473  0.47996259  1
  O  O203  1  0.01489134  0.62695839  0.80429755  1
  O  O204  1  0.33393399  0.12349070  0.15613692  1
  O  O205  1  0.33955729  0.12527492  0.48335254  1
  O  O206  1  0.34154795  0.12816199  0.81147581  1
  O  O207  1  0.33998178  0.62652519  0.14102007  1
  O  O208  1  0.34020045  0.62494434  0.48156206  1
  O  O209  1  0.33960121  0.62382503  0.82493279  1
  O  O210  1  0.67544971  0.12082107  0.13707069  1
  O  O211  1  0.67551351  0.12911281  0.47365334  1
  O  O212  1  0.67977240  0.12179308  0.82499501  1
  O  O213  1  0.66965213  0.62622725  0.15330667  1
  O  O214  1  0.67759722  0.62494808  0.46868589  1
  O  O215  1  0.67286595  0.62689759  0.81129917  1
  O  O216  1  0.07758700  -0.00355991  0.25574490  1
  O  O217  1  0.07335048  0.00656937  0.59364792  1
  O  O218  1  0.07385570  -0.00073844  0.91901478  1
  O  O219  1  0.07872596  0.52039273  0.25201868  1
  O  O220  1  0.06999935  0.51828440  0.59405642  1
  O  O221  1  0.08009498  0.52823652  0.91892133  1
  O  O222  1  0.41351908  0.00471512  0.25734314  1
  O  O223  1  0.41043458  0.02047038  0.59049984  1
  O  O224  1  0.41624286  0.02118342  0.92019431  1
  O  O225  1  0.40898787  0.52650911  0.25973714  1
  O  O226  1  0.41767864  0.51222879  0.58401589  1
  O  O227  1  0.40487000  0.51675696  0.93327285  1
  O  O228  1  0.74318993  0.02136877  0.25418034  1
  O  O229  1  0.74886138  0.01310047  0.58449291  1
  O  O230  1  0.73810095  0.01033409  0.92971940  1
  O  O231  1  0.73555043  0.51742882  0.25988682  1
  O  O232  1  0.74819228  0.52146803  0.58227559  1
  O  O233  1  0.75008274  0.51269812  0.91727815  1
  O  O234  1  0.25163033  0.24308434  0.25327138  1
  O  O235  1  0.24733853  0.23327483  0.58719548  1
  O  O236  1  0.25071793  0.24482701  0.91909518  1
  O  O237  1  0.24201448  0.72483263  0.24765395  1
  O  O238  1  0.23683044  0.73453199  0.57440995  1
  O  O239  1  0.24414108  0.73015375  0.91901236  1
  O  O240  1  0.58721397  0.23440886  0.24990711  1
  O  O241  1  0.57497963  0.23561494  0.56865145  1
  O  O242  1  0.57811216  0.23592660  0.91278315  1
  O  O243  1  0.57095881  0.73156675  0.23829483  1
  O  O244  1  0.58143498  0.72241296  0.57286210  1
  O  O245  1  0.57338984  0.73364187  0.89868756  1
  O  O246  1  0.90427761  0.23981319  0.23928092  1
  O  O247  1  0.91241284  0.22587213  0.57980120  1
  O  O248  1  0.90710781  0.23214650  0.90626968  1
  O  O249  1  0.90130597  0.73135761  0.23580447  1
  O  O250  1  0.90589708  0.72845031  0.57094665  1
  O  O251  1  0.91391018  0.72511215  0.90340653  1
  O  O252  1  0.08487940  0.49059365  0.08001421  1
  O  O253  1  0.08919081  0.48710868  0.43572434  1
  O  O254  1  0.08892259  0.47387730  0.75709948  1
  O  O255  1  0.08400071  0.97674293  0.09174017  1
  O  O256  1  0.08773316  0.97469821  0.42352235  1
  O  O257  1  0.08663705  0.97768778  0.75286650  1
  O  O258  1  0.42980049  0.48325085  0.09612386  1
  O  O259  1  0.43323109  0.48703220  0.42532294  1
  O  O260  1  0.42293141  0.48566825  0.76951858  1
  O  O261  1  0.42639835  0.98131227  0.09130587  1
  O  O262  1  0.41973604  0.99114183  0.42013637  1
  O  O263  1  0.43269926  0.99061917  0.76163235  1
  O  O264  1  0.75394528  0.48345232  0.09530307  1
  O  O265  1  0.75631736  0.47566630  0.42151877  1
  O  O266  1  0.75677233  0.49763634  0.74772380  1
  O  O267  1  0.75661664  0.97192318  0.09025687  1
  O  O268  1  0.75680164  0.97682938  0.41915269  1
  O  O269  1  0.75983668  0.97591779  0.75911296  1
  O  O270  1  0.25702160  0.26232894  0.07991932  1
  O  O271  1  0.24834537  0.25809908  0.42434082  1
  O  O272  1  0.24880678  0.26358014  0.75414521  1
  O  O273  1  0.25003779  0.76350336  0.08885401  1
  O  O274  1  0.25606906  0.76519220  0.40766460  1
  O  O275  1  0.25001461  0.75323075  0.75297572  1
  O  O276  1  0.58866013  0.27180447  0.07671582  1
  O  O277  1  0.58904365  0.27230605  0.40948434  1
  O  O278  1  0.58331519  0.26192804  0.75177485  1
  O  O279  1  0.58889986  0.77368518  0.07501212  1
  O  O280  1  0.59662879  0.76408632  0.40121517  1
  O  O281  1  0.59993361  0.76345581  0.73566853  1
  O  O282  1  0.91939391  0.26544889  0.07697063  1
  O  O283  1  0.91036989  0.26146761  0.42018068  1
  O  O284  1  0.93042951  0.26391657  0.73868498  1
  O  O285  1  0.92546075  0.77033865  0.07409840  1
  O  O286  1  0.92117702  0.77024728  0.40285398  1
  O  O287  1  0.92391790  0.76877721  0.73544091  1
  O  O288  1  0.26443262  0.48976639  0.07097390  1
  O  O289  1  0.25373417  0.49844750  0.41665006  1
  O  O290  1  0.24686061  0.48951158  0.75583258  1
  O  O291  1  0.25041261  0.98434849  0.09044431  1
  O  O292  1  0.25234463  0.98125699  0.41560833  1
  O  O293  1  0.25763877  0.99798762  0.74495180  1
  O  O294  1  0.58913649  0.47362398  0.07428867  1
  O  O295  1  0.59414915  0.48626944  0.40114161  1
  O  O296  1  0.58501102  0.48620541  0.74762938  1
  O  O297  1  0.59227081  0.97856083  0.07406744  1
  O  O298  1  0.59550382  0.98493039  0.40600751  1
  O  O299  1  0.59693131  0.98300993  0.74317376  1
  O  O300  1  0.92286411  0.48932017  0.07307417  1
  O  O301  1  0.91341185  0.49260939  0.41786438  1
  O  O302  1  0.93099054  0.49234011  0.73898683  1
  O  O303  1  0.92116572  0.97472227  0.07311411  1
  O  O304  1  0.92037041  0.97389524  0.40525239  1
  O  O305  1  0.92416943  0.96997866  0.73883990  1
  O  O306  1  0.08248595  0.26223469  0.08077572  1
  O  O307  1  0.08630622  0.26532184  0.43097432  1
  O  O308  1  0.08799478  0.27617915  0.75467278  1
  O  O309  1  0.08913380  0.77138673  0.09652448  1
  O  O310  1  0.09018095  0.77427345  0.42549013  1
  O  O311  1  0.08827403  0.77318657  0.75588454  1
  O  O312  1  0.42290072  0.26907063  0.08613111  1
  O  O313  1  0.42957025  0.26359259  0.42988108  1
  O  O314  1  0.42300385  0.27038977  0.76464098  1
  O  O315  1  0.42757242  0.76759584  0.10033606  1
  O  O316  1  0.41999408  0.75936717  0.41524527  1
  O  O317  1  0.43511194  0.75573157  0.76098710  1
  O  O318  1  0.75590936  0.27206168  0.09226896  1
  O  O319  1  0.75103695  0.27376903  0.41542971  1
  O  O320  1  0.76030034  0.25456632  0.75269605  1
  O  O321  1  0.75334680  0.77031811  0.09189224  1
  O  O322  1  0.75991153  0.77120523  0.42502096  1
  O  O323  1  0.75853890  0.77190073  0.75331423  1
  O  O324  1  0.24959282  0.00273362  0.25455311  1
  O  O325  1  0.24530435  0.01720403  0.58026047  1
  O  O326  1  0.25356402  0.00448633  0.91368717  1
  O  O327  1  0.24584316  0.52645193  0.24265029  1
  O  O328  1  0.23532488  0.51455474  0.57784247  1
  O  O329  1  0.24130518  0.52708490  0.91325970  1
  O  O330  1  0.58386123  0.01197510  0.24669767  1
  O  O331  1  0.57462637  0.01965172  0.57370601  1
  O  O332  1  0.57824972  0.02020123  0.90491067  1
  O  O333  1  0.57080895  0.52139267  0.23769156  1
  O  O334  1  0.58182016  0.52130121  0.56862159  1
  O  O335  1  0.56854234  0.51291511  0.90848456  1
  O  O336  1  0.90080249  0.00976762  0.23574000  1
  O  O337  1  0.90901225  0.01581172  0.57307026  1
  O  O338  1  0.90114769  0.01063551  0.90090020  1
  O  O339  1  0.90174566  0.51725989  0.24006584  1
  O  O340  1  0.90994838  0.53000171  0.57696803  1
  O  O341  1  0.91649935  0.53055479  0.90547560  1
  O  O342  1  0.07806583  0.24622764  0.25093658  1
  O  O343  1  0.07087725  0.23930944  0.59466489  1
  O  O344  1  0.07975845  0.25065399  0.91695739  1
  O  O345  1  0.07404088  0.73532674  0.25857555  1
  O  O346  1  0.07433055  0.73575089  0.59266345  1
  O  O347  1  0.07800577  0.73034101  0.92764168  1
  O  O348  1  0.41820983  0.24256156  0.25525729  1
  O  O349  1  0.41013219  0.22909228  0.59054470  1
  O  O350  1  0.41396263  0.23217760  0.92269408  1
  O  O351  1  0.40747537  0.72513637  0.25811343  1
  O  O352  1  0.42036668  0.73593251  0.58518679  1
  O  O353  1  0.41222052  0.72888031  0.92732615  1
  O  O354  1  0.74552923  0.22538479  0.25374753  1
  O  O355  1  0.75444661  0.24252581  0.57528608  1
  O  O356  1  0.74287670  0.23603609  0.92831099  1
  O  O357  1  0.73696509  0.73438373  0.25984788  1
  O  O358  1  0.74445135  0.72294599  0.59021201  1
  O  O359  1  0.74835200  0.73759782  0.91340782  1
