# generated using pymatgen
data_Ba17Sr5La8Pr42Mn72O216
_symmetry_space_group_name_H-M   'P 1'
_cell_length_a   16.67175784
_cell_length_b   15.70247221
_cell_length_c   16.81738880
_cell_angle_alpha   90.00177216
_cell_angle_beta   89.99277335
_cell_angle_gamma   89.99752565
_symmetry_Int_Tables_number   1
_chemical_formula_structural   Ba17Sr5La8Pr42Mn72O216
_chemical_formula_sum   'Ba17 Sr5 La8 Pr42 Mn72 O216'
_cell_volume   4402.58741199
_cell_formula_units_Z   1
loop_
 _symmetry_equiv_pos_site_id
 _symmetry_equiv_pos_as_xyz
  1  'x, y, z'
loop_
 _atom_site_type_symbol
 _atom_site_label
 _atom_site_symmetry_multiplicity
 _atom_site_fract_x
 _atom_site_fract_y
 _atom_site_fract_z
 _atom_site_occupancy
  Ba  Ba0  1  0.49924454  0.87416386  0.82920967  1
  Ba  Ba1  1  0.00103217  0.12485614  0.99880898  1
  Ba  Ba2  1  0.00017385  0.37681425  -0.00029780  1
  Ba  Ba3  1  0.00091728  0.62588539  1.00036758  1
  Ba  Ba4  1  0.66667916  0.62202419  0.33145278  1
  Ba  Ba5  1  0.00143651  0.37460092  0.66795670  1
  Ba  Ba6  1  0.33460822  0.12687990  1.00024411  1
  Ba  Ba7  1  0.66641822  0.37456691  0.66582864  1
  Ba  Ba8  1  0.00264928  0.62740904  0.33392649  1
  Ba  Ba9  1  0.83496699  0.62461764  0.50009396  1
  Ba  Ba10  1  0.66709276  0.12561419  0.99959259  1
  Ba  Ba11  1  0.66558604  0.87518138  0.66645203  1
  Ba  Ba12  1  0.17022394  0.12489012  0.16518256  1
  Ba  Ba13  1  0.83150927  0.87550549  0.16968290  1
  Ba  Ba14  1  0.66599410  0.62428824  1.00149764  1
  Ba  Ba15  1  0.32961876  0.87578011  0.66919704  1
  Ba  Ba16  1  0.83401520  0.12473959  0.83714060  1
  Sr  Sr17  1  0.16356208  0.37454736  0.83524788  1
  Sr  Sr18  1  0.33024775  0.37316309  0.33611804  1
  Sr  Sr19  1  0.16259913  0.87442022  0.83211170  1
  Sr  Sr20  1  0.66538442  0.37465042  0.33764770  1
  Sr  Sr21  1  -0.00563877  0.87629959  0.33402160  1
  La  La22  1  0.16564443  0.37692928  0.16415449  1
  La  La23  1  0.33084682  0.37585399  0.66759052  1
  La  La24  1  0.32868914  0.87544521  -0.00072992  1
  La  La25  1  0.82686945  0.87384817  0.49486847  1
  La  La26  1  0.16791527  0.12633992  0.83948077  1
  La  La27  1  0.49791585  0.37475208  0.49309989  1
  La  La28  1  0.32689331  0.87749019  0.33705933  1
  La  La29  1  0.83658690  0.37432273  0.83604862  1
  Pr  Pr30  1  0.33168977  0.37556992  0.00429517  1
  Pr  Pr31  1  0.66462802  0.87821891  0.00079535  1
  Pr  Pr32  1  0.17250145  0.12554622  0.50103803  1
  Pr  Pr33  1  0.67375030  0.12662449  0.32874489  1
  Pr  Pr34  1  0.15704446  0.87471986  0.49860497  1
  Pr  Pr35  1  0.83251935  0.37420544  0.49571602  1
  Pr  Pr36  1  0.49901450  0.87275878  0.16060677  1
  Pr  Pr37  1  0.83186695  0.37929205  0.16610667  1
  Pr  Pr38  1  0.00802373  0.12767673  0.66971445  1
  Pr  Pr39  1  -0.00737011  0.87720103  0.00125609  1
  Pr  Pr40  1  0.49505548  0.87447761  0.49609073  1
  Pr  Pr41  1  -0.00031534  0.37303924  0.33620470  1
  Pr  Pr42  1  0.00590994  0.12156859  0.32787383  1
  Pr  Pr43  1  0.50271048  0.62385419  0.17029759  1
  Pr  Pr44  1  0.17171814  0.62246076  0.83092064  1
  Pr  Pr45  1  0.50491354  0.12343833  0.83512183  1
  Pr  Pr46  1  0.33683053  0.12360652  0.66907591  1
  Pr  Pr47  1  0.50182034  0.62580198  0.83019099  1
  Pr  Pr48  1  0.83916506  0.62318716  0.17639992  1
  Pr  Pr49  1  0.49959681  0.37357166  0.83180380  1
  Pr  Pr50  1  0.15838333  0.87316690  0.16211855  1
  Pr  Pr51  1  0.66896811  0.37237035  0.00105792  1
  Pr  Pr52  1  0.50437398  0.12864413  0.50069433  1
  Pr  Pr53  1  0.66238150  0.87432454  0.33763667  1
  Pr  Pr54  1  0.33561885  0.62403321  0.33110692  1
  Pr  Pr55  1  0.83358869  0.62160617  0.83323446  1
  Pr  Pr56  1  0.67012197  0.12295114  0.66810321  1
  Pr  Pr57  1  -0.00529975  0.87435712  0.66905811  1
  Pr  Pr58  1  0.82921971  0.87405066  0.83710832  1
  Pr  Pr59  1  0.50140253  0.37686246  0.16521933  1
  Pr  Pr60  1  0.83959462  0.12678019  0.16769961  1
  Pr  Pr61  1  0.50315654  0.62109573  0.50062035  1
  Pr  Pr62  1  0.83801244  0.12305474  0.50662755  1
  Pr  Pr63  1  0.33565594  0.62444987  0.99893214  1
  Pr  Pr64  1  0.33715618  0.62789337  0.66375532  1
  Pr  Pr65  1  0.16217247  0.37604297  0.49741306  1
  Pr  Pr66  1  0.17169687  0.62485710  0.50303340  1
  Pr  Pr67  1  0.34084050  0.12618276  0.32602051  1
  Pr  Pr68  1  0.00841850  0.62382360  0.66142922  1
  Pr  Pr69  1  0.50481972  0.12572975  0.16755202  1
  Pr  Pr70  1  0.66834570  0.62761674  0.66169637  1
  Pr  Pr71  1  0.17048679  0.62367689  0.16976642  1
  Mn  Mn72  1  0.00050223  -0.00091960  0.16740366  1
  Mn  Mn73  1  0.00056466  0.00237832  0.50125392  1
  Mn  Mn74  1  0.00068948  -0.00376166  0.83274325  1
  Mn  Mn75  1  0.00161351  0.50020113  0.16909156  1
  Mn  Mn76  1  0.00119996  0.49893299  0.50043987  1
  Mn  Mn77  1  -0.00002536  0.50222413  0.83110470  1
  Mn  Mn78  1  0.33526265  -0.00199702  0.16843561  1
  Mn  Mn79  1  0.33267541  0.00173392  0.49914149  1
  Mn  Mn80  1  0.33201145  0.00036017  0.83333288  1
  Mn  Mn81  1  0.33503825  0.49983051  0.16783816  1
  Mn  Mn82  1  0.33258692  0.49940084  0.49954782  1
  Mn  Mn83  1  0.33397891  0.49908987  0.83345401  1
  Mn  Mn84  1  0.66616213  0.00117682  0.16876166  1
  Mn  Mn85  1  0.66424290  0.00228840  0.49835824  1
  Mn  Mn86  1  0.66656914  -0.00079866  0.83320570  1
  Mn  Mn87  1  0.66557761  0.49713322  0.16629843  1
  Mn  Mn88  1  0.66665037  0.49850619  0.50047490  1
  Mn  Mn89  1  0.66584392  0.49975658  0.83222817  1
  Mn  Mn90  1  0.00085738  0.24998245  0.16996686  1
  Mn  Mn91  1  0.00164662  0.24765128  0.49910403  1
  Mn  Mn92  1  0.00127089  0.25099933  0.83307608  1
  Mn  Mn93  1  0.00042146  0.75108513  0.16529532  1
  Mn  Mn94  1  0.00089938  0.75119239  0.50092643  1
  Mn  Mn95  1  -0.00074373  0.74887533  0.83097057  1
  Mn  Mn96  1  0.33610151  0.25196608  0.16853018  1
  Mn  Mn97  1  0.33239974  0.24818080  0.49993826  1
  Mn  Mn98  1  0.33341148  0.25328156  0.83269190  1
  Mn  Mn99  1  0.33352264  0.75054940  0.16780590  1
  Mn  Mn100  1  0.33322580  0.75157274  0.49823200  1
  Mn  Mn101  1  0.33181617  0.74720616  0.83312549  1
  Mn  Mn102  1  0.66711041  0.25132916  0.16868193  1
  Mn  Mn103  1  0.66719253  0.24866110  0.49884028  1
  Mn  Mn104  1  0.66607284  0.25321439  0.83381658  1
  Mn  Mn105  1  0.66572096  0.75069415  0.16607561  1
  Mn  Mn106  1  0.66392415  0.75001525  0.49950527  1
  Mn  Mn107  1  0.66763461  0.74655810  0.83225761  1
  Mn  Mn108  1  0.16777855  0.25220216  -0.00047729  1
  Mn  Mn109  1  0.16826376  0.25028714  0.33491731  1
  Mn  Mn110  1  0.16946871  0.24886459  0.66779464  1
  Mn  Mn111  1  0.16711913  0.74861634  -0.00211798  1
  Mn  Mn112  1  0.16762962  0.75131330  0.33335388  1
  Mn  Mn113  1  0.16656531  0.75118959  0.66659758  1
  Mn  Mn114  1  0.49931898  0.25249171  -0.00156407  1
  Mn  Mn115  1  0.50044689  0.25033145  0.33348723  1
  Mn  Mn116  1  0.49872267  0.25061984  0.66580628  1
  Mn  Mn117  1  0.49890898  0.74862482  -0.00133648  1
  Mn  Mn118  1  0.49750206  0.75104771  0.33063503  1
  Mn  Mn119  1  0.49880377  0.74850207  0.66407975  1
  Mn  Mn120  1  0.83314933  0.25282887  0.00242080  1
  Mn  Mn121  1  0.83530854  0.24838519  0.33529879  1
  Mn  Mn122  1  0.83405436  0.24853891  0.66642824  1
  Mn  Mn123  1  0.83169650  0.74772546  0.00087089  1
  Mn  Mn124  1  0.83222135  0.75088604  0.33310203  1
  Mn  Mn125  1  0.83499391  0.75077070  0.66869899  1
  Mn  Mn126  1  0.16744748  -0.00357312  -0.00257056  1
  Mn  Mn127  1  0.16678355  -0.00138547  0.33491502  1
  Mn  Mn128  1  0.16603359  0.00212195  0.66779135  1
  Mn  Mn129  1  0.16863576  0.50218700  0.00016460  1
  Mn  Mn130  1  0.16812167  0.49953966  0.33403035  1
  Mn  Mn131  1  0.16962443  0.49932524  0.66673471  1
  Mn  Mn132  1  0.49836071  -0.00087616  -0.00086116  1
  Mn  Mn133  1  0.49996106  0.00018443  0.33156006  1
  Mn  Mn134  1  0.49889130  0.00393798  0.66469573  1
  Mn  Mn135  1  0.49935808  0.50077960  -0.00193533  1
  Mn  Mn136  1  0.49782326  0.49839096  0.33316150  1
  Mn  Mn137  1  0.49848726  0.49810977  0.66525161  1
  Mn  Mn138  1  0.83185674  -0.00184176  0.00163295  1
  Mn  Mn139  1  0.83236189  0.00197786  0.33660880  1
  Mn  Mn140  1  0.83485578  0.00020381  0.66730683  1
  Mn  Mn141  1  0.83223952  0.50211490  0.00186447  1
  Mn  Mn142  1  0.83420466  0.49698617  0.33312786  1
  Mn  Mn143  1  0.83405511  0.49901312  0.66790310  1
  O  O144  1  0.16769013  0.12318964  0.00533335  1
  O  O145  1  0.16332903  0.12418286  0.35719029  1
  O  O146  1  0.16434088  0.12528595  0.69185752  1
  O  O147  1  0.17552674  0.62590551  0.02695466  1
  O  O148  1  0.17436014  0.62683119  0.35931539  1
  O  O149  1  0.16792459  0.62544098  0.68424964  1
  O  O150  1  0.49972071  0.12529918  0.02442524  1
  O  O151  1  0.49406615  0.12261953  0.35742130  1
  O  O152  1  0.49204790  0.13065177  0.69082771  1
  O  O153  1  0.49324406  0.62382366  0.02830023  1
  O  O154  1  0.49284713  0.62518275  0.35663996  1
  O  O155  1  0.49342504  0.61874206  0.68565874  1
  O  O156  1  0.83223638  0.12585354  0.02135026  1
  O  O157  1  0.83151729  0.12732115  0.36291296  1
  O  O158  1  0.82548693  0.12307951  0.68043101  1
  O  O159  1  0.83150339  0.62522556  0.02960464  1
  O  O160  1  0.83408964  0.62346749  0.33920180  1
  O  O161  1  0.83130634  0.62627601  0.68860442  1
  O  O162  1  0.16552679  0.37404762  0.30950336  1
  O  O163  1  0.17472818  0.37301492  0.63989341  1
  O  O164  1  0.17518396  0.38053832  0.98664413  1
  O  O165  1  0.17501248  0.87464376  0.30807420  1
  O  O166  1  0.16038935  0.87798389  0.64250513  1
  O  O167  1  0.17276874  0.87043296  0.98035473  1
  O  O168  1  0.49853621  0.37254450  0.31165262  1
  O  O169  1  0.49320307  0.37362504  0.63624541  1
  O  O170  1  0.49461992  0.37923842  0.97408523  1
  O  O171  1  0.50204345  0.87980503  0.30549647  1
  O  O172  1  0.49852736  0.87870031  0.64093167  1
  O  O173  1  0.50151629  0.87298873  0.98585913  1
  O  O174  1  0.84041045  0.36787066  0.31002872  1
  O  O175  1  0.83512532  0.37099992  0.63961533  1
  O  O176  1  0.82914587  0.37958236  0.98346482  1
  O  O177  1  0.82617681  0.87908467  0.32730387  1
  O  O178  1  0.84143614  0.87902368  0.63864158  1
  O  O179  1  0.83275176  0.87039059  0.98225886  1
  O  O180  1  0.00162286  0.37270298  0.19089473  1
  O  O181  1  0.00186757  0.37145803  0.51307099  1
  O  O182  1  -0.00208858  0.37823617  0.84101839  1
  O  O183  1  0.00831212  0.87502270  0.18322271  1
  O  O184  1  0.00570703  0.87877835  0.52595054  1
  O  O185  1  0.00553536  0.86971874  0.85608156  1
  O  O186  1  0.33785369  0.37715555  0.18856075  1
  O  O187  1  0.33386142  0.36986583  0.52463270  1
  O  O188  1  0.34177623  0.37877554  0.86013763  1
  O  O189  1  0.34326255  0.87195839  0.19511178  1
  O  O190  1  0.34312916  0.87559370  0.51380736  1
  O  O191  1  0.33266525  0.86813857  0.85346273  1
  O  O192  1  0.66386133  0.37238780  0.18927189  1
  O  O193  1  0.66635157  0.37165750  0.51031479  1
  O  O194  1  0.65724361  0.37825412  0.85575220  1
  O  O195  1  0.65748177  0.87881357  0.19383708  1
  O  O196  1  0.66336234  0.87739859  0.51049279  1
  O  O197  1  0.66977518  0.86884554  0.85419948  1
  O  O198  1  -0.00603223  0.12454161  0.15800338  1
  O  O199  1  0.00078487  0.12570553  0.47056380  1
  O  O200  1  0.00535521  0.12249995  0.81590948  1
  O  O201  1  -0.00463827  0.62751540  0.15842270  1
  O  O202  1  0.00880128  0.62473109  0.48971424  1
  O  O203  1  -0.01209569  0.62781799  0.80519857  1
  O  O204  1  0.34074158  0.12558805  0.15697332  1
  O  O205  1  0.32659991  0.12579921  0.46938726  1
  O  O206  1  0.32891270  0.13192989  0.81299736  1
  O  O207  1  0.33101712  0.62588528  0.14258994  1
  O  O208  1  0.32833923  0.62898669  0.47338601  1
  O  O209  1  0.32903972  0.62036272  0.80738393  1
  O  O210  1  0.66376019  0.12753355  0.15444465  1
  O  O211  1  0.66322687  0.12515906  0.47168931  1
  O  O212  1  0.66160272  0.12983367  0.81457863  1
  O  O213  1  0.66113211  0.62207165  0.15684243  1
  O  O214  1  0.65923415  0.62492521  0.48807589  1
  O  O215  1  0.67146610  0.62176012  0.80734539  1
  O  O216  1  0.08606493  0.01205315  0.25261924  1
  O  O217  1  0.08928944  0.02652823  0.57705081  1
  O  O218  1  0.09130310  0.00926433  0.90519015  1
  O  O219  1  0.09396081  0.51453128  0.24511380  1
  O  O220  1  0.09343197  0.51505401  0.57766912  1
  O  O221  1  0.08982108  0.51680845  0.90894415  1
  O  O222  1  0.42776720  0.02170866  0.24491887  1
  O  O223  1  0.42066625  0.02562995  0.57473013  1
  O  O224  1  0.42212702  0.01564913  0.91078152  1
  O  O225  1  0.41666985  0.52361045  0.24833143  1
  O  O226  1  0.41705008  0.52157651  0.58022268  1
  O  O227  1  0.41646550  0.52641833  0.91587964  1
  O  O228  1  0.75509687  0.02513070  0.24939052  1
  O  O229  1  0.75300388  0.01833349  0.57773493  1
  O  O230  1  0.75018690  -0.00001068  0.91831786  1
  O  O231  1  0.75781554  0.50669211  0.24161568  1
  O  O232  1  0.74776417  0.51410379  0.58916790  1
  O  O233  1  0.75365368  0.51256070  0.91416096  1
  O  O234  1  0.25754930  0.23583090  0.26164548  1
  O  O235  1  0.25375988  0.22334860  0.58639421  1
  O  O236  1  0.25103636  0.24418601  0.91149635  1
  O  O237  1  0.25704106  0.72759079  0.25552738  1
  O  O238  1  0.25500389  0.73036070  0.58570471  1
  O  O239  1  0.25609511  0.72527290  0.92181569  1
  O  O240  1  0.58528093  0.22870125  0.25392969  1
  O  O241  1  0.58409028  0.22513520  0.58769723  1
  O  O242  1  0.57891319  0.23897828  0.91430433  1
  O  O243  1  0.57602723  0.73712209  0.24459023  1
  O  O244  1  0.58044432  0.72917296  0.58027090  1
  O  O245  1  0.57971429  0.73038122  0.90956205  1
  O  O246  1  0.91772819  0.22517338  0.25867451  1
  O  O247  1  0.92121636  0.22430079  0.58037803  1
  O  O248  1  0.91496956  0.24858925  0.91731255  1
  O  O249  1  0.91601171  0.74249856  0.24810865  1
  O  O250  1  0.92856358  0.73676376  0.59544783  1
  O  O251  1  0.91441066  0.73708209  0.91142460  1
  O  O252  1  0.08955011  0.49077979  0.08830007  1
  O  O253  1  0.08120450  0.47776329  0.41264968  1
  O  O254  1  0.08457006  0.49965926  0.74621598  1
  O  O255  1  0.08235817  0.97815145  0.07557582  1
  O  O256  1  0.07956648  0.98016900  0.41522962  1
  O  O257  1  0.07180946  0.98704529  0.73675024  1
  O  O258  1  0.41735269  0.47918441  0.08362115  1
  O  O259  1  0.41411715  0.48268366  0.41762983  1
  O  O260  1  0.41530156  0.47763558  0.74737991  1
  O  O261  1  0.41327680  0.97664317  0.07987994  1
  O  O262  1  0.41333404  0.98080022  0.40534635  1
  O  O263  1  0.41129998  0.99826484  0.74394433  1
  O  O264  1  0.74514964  0.47682711  0.08219843  1
  O  O265  1  0.75354303  0.48048981  0.41692761  1
  O  O266  1  0.75400494  0.48265487  0.75547737  1
  O  O267  1  0.74213992  0.98333743  0.07995959  1
  O  O268  1  0.73913219  0.98587338  0.41009290  1
  O  O269  1  0.75231528  0.98591817  0.75118453  1
  O  O270  1  0.25268724  0.27065965  0.08681003  1
  O  O271  1  0.24241973  0.26886815  0.42664650  1
  O  O272  1  0.25425577  0.27047707  0.74722900  1
  O  O273  1  0.24853049  0.77248811  0.09310271  1
  O  O274  1  0.24518551  0.77432871  0.42350786  1
  O  O275  1  0.24028416  0.75699435  0.75699209  1
  O  O276  1  0.57987268  0.27368804  0.08313291  1
  O  O277  1  0.57682599  0.26307052  0.42079023  1
  O  O278  1  0.57452590  0.26473258  0.75439654  1
  O  O279  1  0.58073115  0.76957454  0.08376552  1
  O  O280  1  0.57625346  0.77207062  0.41446684  1
  O  O281  1  0.58473433  0.74807338  0.74543060  1
  O  O282  1  0.90899733  0.26346563  0.09620036  1
  O  O283  1  0.91536829  0.27122013  0.41640822  1
  O  O284  1  0.91731884  0.25599038  0.74979559  1
  O  O285  1  0.91942423  0.76627974  0.07897301  1
  O  O286  1  0.91313754  0.76860359  0.42708558  1
  O  O287  1  0.91279774  0.77767479  0.75372818  1
  O  O288  1  0.25400724  0.48145480  0.08636976  1
  O  O289  1  0.24362335  0.48042354  0.42364047  1
  O  O290  1  0.25019793  0.48033042  0.75031113  1
  O  O291  1  0.24717011  0.97665304  0.09049574  1
  O  O292  1  0.24109251  0.97955649  0.42655373  1
  O  O293  1  0.23985705  0.99284665  0.75664183  1
  O  O294  1  0.58193523  0.47601754  0.08010528  1
  O  O295  1  0.57679001  0.48472566  0.41960354  1
  O  O296  1  0.57469277  0.48654893  0.75202268  1
  O  O297  1  0.57709490  0.98190114  0.08803523  1
  O  O298  1  0.57341105  0.97856292  0.41781710  1
  O  O299  1  0.58267629  1.00048591  0.74693032  1
  O  O300  1  0.90927330  0.48755640  0.09259438  1
  O  O301  1  0.91507866  0.47750716  0.41859105  1
  O  O302  1  0.90966864  0.48643745  0.75525531  1
  O  O303  1  0.91554523  0.98707935  0.08286855  1
  O  O304  1  0.90597792  0.98644218  0.43068432  1
  O  O305  1  0.91422997  0.97562635  0.75446284  1
  O  O306  1  0.08721376  0.26482400  0.09177807  1
  O  O307  1  0.08328597  0.27090080  0.41640112  1
  O  O308  1  0.08771007  0.25647026  0.74938800  1
  O  O309  1  0.08103822  0.76987404  0.07629450  1
  O  O310  1  0.08160438  0.77193359  0.41415013  1
  O  O311  1  0.07129933  0.76108288  0.73578312  1
  O  O312  1  0.41761397  0.27454782  0.08044417  1
  O  O313  1  0.41521590  0.26544683  0.41670152  1
  O  O314  1  0.41321210  0.27478209  0.74521278  1
  O  O315  1  0.41161538  0.76943532  0.08189408  1
  O  O316  1  0.41266114  0.77115629  0.41013547  1
  O  O317  1  0.41225003  0.75112309  0.74612744  1
  O  O318  1  0.74930459  0.27326705  0.08667370  1
  O  O319  1  0.75524693  0.26783660  0.41521452  1
  O  O320  1  0.75052485  0.26616863  0.75597276  1
  O  O321  1  0.73982010  0.76957881  0.07683110  1
  O  O322  1  0.74400916  0.76694382  0.41572993  1
  O  O323  1  0.75542002  0.76508619  0.75409846  1
  O  O324  1  0.26273047  0.01323638  0.26494049  1
  O  O325  1  0.25260800  0.02448167  0.59026246  1
  O  O326  1  0.25398608  0.00635041  0.92099515  1
  O  O327  1  0.25367582  0.52189861  0.25225306  1
  O  O328  1  0.25533556  0.52200086  0.58657137  1
  O  O329  1  0.25354920  0.52256268  0.91940029  1
  O  O330  1  0.58745944  0.02512377  0.25853957  1
  O  O331  1  0.58551299  0.02868465  0.58273436  1
  O  O332  1  0.58088981  0.01222932  0.91584672  1
  O  O333  1  0.57513499  0.50907928  0.24214616  1
  O  O334  1  0.58107004  0.51915257  0.58578343  1
  O  O335  1  0.57609856  0.51824810  0.91023192  1
  O  O336  1  0.91753789  0.01838496  0.25945134  1
  O  O337  1  0.92545373  0.02611384  0.59046956  1
  O  O338  1  0.91997200  -0.00229799  0.91926028  1
  O  O339  1  0.91770467  0.50660974  0.25154048  1
  O  O340  1  0.92428807  0.51541082  0.59029782  1
  O  O341  1  0.91276149  0.51475838  0.91422903  1
  O  O342  1  0.07989402  0.23577333  0.25849827  1
  O  O343  1  0.08810102  0.22723467  0.58039183  1
  O  O344  1  0.08679614  0.24240882  0.91182167  1
  O  O345  1  0.09652736  0.73707849  0.23814783  1
  O  O346  1  0.09343621  0.73288711  0.57513287  1
  O  O347  1  0.09093796  0.72764926  0.89993215  1
  O  O348  1  0.42441649  0.23043346  0.24680856  1
  O  O349  1  0.41724317  0.22443632  0.57942703  1
  O  O350  1  0.42308978  0.23606377  0.90661339  1
  O  O351  1  0.41757095  0.72434803  0.24653335  1
  O  O352  1  0.41925557  0.72685906  0.57471755  1
  O  O353  1  0.41661428  0.72408039  0.91477790  1
  O  O354  1  0.75761910  0.22748374  0.25236124  1
  O  O355  1  0.75056826  0.22707416  0.58060549  1
  O  O356  1  0.74670480  0.25225803  0.92075832  1
  O  O357  1  0.75085269  0.73769870  0.24253500  1
  O  O358  1  0.74922645  0.73807180  0.58906273  1
  O  O359  1  0.75549197  0.73170252  0.91086471  1
