# generated using pymatgen
data_Ba17Sr5La8Pr42Mn72O216
_symmetry_space_group_name_H-M   'P 1'
_cell_length_a   16.69347570
_cell_length_b   15.72139871
_cell_length_c   16.83100424
_cell_angle_alpha   89.98155335
_cell_angle_beta   89.97999027
_cell_angle_gamma   89.99138432
_symmetry_Int_Tables_number   1
_chemical_formula_structural   Ba17Sr5La8Pr42Mn72O216
_chemical_formula_sum   'Ba17 Sr5 La8 Pr42 Mn72 O216'
_cell_volume   4417.20878180
_cell_formula_units_Z   1
loop_
 _symmetry_equiv_pos_site_id
 _symmetry_equiv_pos_as_xyz
  1  'x, y, z'
loop_
 _atom_site_type_symbol
 _atom_site_label
 _atom_site_symmetry_multiplicity
 _atom_site_fract_x
 _atom_site_fract_y
 _atom_site_fract_z
 _atom_site_occupancy
  Ba  Ba0  1  0.33357676  0.87540182  0.00040173  1
  Ba  Ba1  1  0.83025626  0.12720119  0.16682260  1
  Ba  Ba2  1  0.49628507  0.62515047  0.16811857  1
  Ba  Ba3  1  0.33675804  0.87480182  0.66670841  1
  Ba  Ba4  1  0.33322736  0.62447874  1.00158838  1
  Ba  Ba5  1  0.50087015  0.87592685  0.16606649  1
  Ba  Ba6  1  0.33285863  0.62405298  0.66494412  1
  Ba  Ba7  1  0.83346853  0.87592163  0.83175935  1
  Ba  Ba8  1  0.33776273  0.37380588  0.66568420  1
  Ba  Ba9  1  0.66584405  0.62366325  0.66558990  1
  Ba  Ba10  1  0.66843789  0.87508879  -0.00062044  1
  Ba  Ba11  1  0.16904010  0.87617620  0.83480930  1
  Ba  Ba12  1  0.16583618  0.62545296  0.83264211  1
  Ba  Ba13  1  -0.00056355  0.62526926  0.66275236  1
  Ba  Ba14  1  0.16300290  0.12589032  0.83507008  1
  Ba  Ba15  1  0.49585999  0.12562200  0.16918983  1
  Ba  Ba16  1  -0.00164913  0.62263044  0.99764445  1
  Sr  Sr17  1  0.16644995  0.62526291  0.50345669  1
  Sr  Sr18  1  0.32850527  0.62490464  0.33307950  1
  Sr  Sr19  1  0.50620876  0.37912418  0.50024853  1
  Sr  Sr20  1  0.50495639  0.87093642  0.49909942  1
  Sr  Sr21  1  0.49717928  0.62453939  0.50172094  1
  La  La22  1  0.34351842  0.37608886  0.34120785  1
  La  La23  1  0.00794352  0.37482833  0.66550463  1
  La  La24  1  0.50433119  0.37734840  0.82957111  1
  La  La25  1  0.66693485  0.87128473  0.66829317  1
  La  La26  1  0.83775751  0.87525431  0.15856905  1
  La  La27  1  0.84002602  0.37513388  0.83006781  1
  La  La28  1  0.65960943  0.12364667  0.66575036  1
  La  La29  1  0.67185133  0.37600136  0.00324213  1
  Pr  Pr30  1  -0.01008146  0.12595791  0.32901566  1
  Pr  Pr31  1  0.67394303  0.37470201  0.33489784  1
  Pr  Pr32  1  0.48826562  0.12554969  0.50278410  1
  Pr  Pr33  1  -0.00554812  0.62420305  0.32840204  1
  Pr  Pr34  1  0.34382395  0.87276528  0.33758661  1
  Pr  Pr35  1  0.17388987  0.87329532  0.16322362  1
  Pr  Pr36  1  0.15711260  0.12673470  0.50781910  1
  Pr  Pr37  1  0.32117202  0.12458551  0.66554533  1
  Pr  Pr38  1  0.16042504  0.12284174  0.16945711  1
  Pr  Pr39  1  0.67093703  0.37629338  0.66741225  1
  Pr  Pr40  1  -0.01130781  0.12181588  0.66577879  1
  Pr  Pr41  1  0.82207292  0.62369965  0.16545538  1
  Pr  Pr42  1  0.16467480  0.62916176  0.16839033  1
  Pr  Pr43  1  0.50073661  0.86991547  0.83071404  1
  Pr  Pr44  1  0.32296606  0.12461075  0.33341132  1
  Pr  Pr45  1  0.01073742  0.37161852  0.33478657  1
  Pr  Pr46  1  0.65667155  0.12259468  0.99821962  1
  Pr  Pr47  1  0.65779880  0.12486117  0.32915641  1
  Pr  Pr48  1  0.82772846  0.62582246  0.83502431  1
  Pr  Pr49  1  0.17369083  0.37979262  0.83273480  1
  Pr  Pr50  1  0.00885217  0.87804887  0.33311688  1
  Pr  Pr51  1  0.65836516  0.62782094  0.99436886  1
  Pr  Pr52  1  0.17498768  0.37698570  0.16826676  1
  Pr  Pr53  1  0.83824556  0.87074263  0.49792798  1
  Pr  Pr54  1  0.84343966  0.37535392  0.16223361  1
  Pr  Pr55  1  -0.00957551  0.12426810  0.99646831  1
  Pr  Pr56  1  0.32726148  0.12153746  1.00252991  1
  Pr  Pr57  1  0.00774458  0.87378149  0.66824872  1
  Pr  Pr58  1  0.00721697  0.87452809  0.00061632  1
  Pr  Pr59  1  0.82922206  0.62415908  0.50214704  1
  Pr  Pr60  1  0.83973531  0.37951816  0.49858313  1
  Pr  Pr61  1  0.01204551  0.37362771  0.00118148  1
  Pr  Pr62  1  0.82233055  0.12629525  0.49881957  1
  Pr  Pr63  1  0.49285064  0.62489507  0.83452351  1
  Pr  Pr64  1  0.82405257  0.12511444  0.83637490  1
  Pr  Pr65  1  0.49068223  0.12641703  0.83671627  1
  Pr  Pr66  1  0.33647815  0.37365106  0.00225912  1
  Pr  Pr67  1  0.50780468  0.37653446  0.16825442  1
  Pr  Pr68  1  0.65761206  0.62474070  0.33442340  1
  Pr  Pr69  1  0.17814643  0.37859982  0.49934010  1
  Pr  Pr70  1  0.17695528  0.87193676  0.50073952  1
  Pr  Pr71  1  0.67257532  0.87391794  0.33147054  1
  Mn  Mn72  1  -0.00031918  0.00030333  0.16776993  1
  Mn  Mn73  1  -0.00223369  0.00055908  0.49810694  1
  Mn  Mn74  1  -0.00321141  0.00113201  0.83194630  1
  Mn  Mn75  1  0.00062096  0.49950744  0.16717426  1
  Mn  Mn76  1  0.00210775  0.49871031  0.49605362  1
  Mn  Mn77  1  -0.00128495  0.49804541  0.83241314  1
  Mn  Mn78  1  0.33047311  0.00300391  0.17038737  1
  Mn  Mn79  1  0.33279427  0.00046642  0.49914120  1
  Mn  Mn80  1  0.33539893  0.00174373  0.83257453  1
  Mn  Mn81  1  0.33185072  0.49795895  0.17107051  1
  Mn  Mn82  1  0.33611015  0.50144298  0.49925072  1
  Mn  Mn83  1  0.33518882  0.49826463  0.83499487  1
  Mn  Mn84  1  0.66774303  0.00117795  0.16723146  1
  Mn  Mn85  1  0.66687435  0.00031141  0.49866737  1
  Mn  Mn86  1  0.66457858  0.00180762  0.83019440  1
  Mn  Mn87  1  0.66813490  0.49885638  0.16775648  1
  Mn  Mn88  1  0.66868130  0.49806605  0.49906866  1
  Mn  Mn89  1  0.66776176  0.49785864  0.83491508  1
  Mn  Mn90  1  0.00146320  0.25152161  0.16678703  1
  Mn  Mn91  1  -0.00194635  0.24899922  0.49925911  1
  Mn  Mn92  1  -0.00186667  0.25077494  0.83290293  1
  Mn  Mn93  1  -0.00103694  0.74857339  0.16775437  1
  Mn  Mn94  1  0.00135671  0.75226435  0.49581570  1
  Mn  Mn95  1  -0.00203182  0.75019542  0.83189210  1
  Mn  Mn96  1  0.33174680  0.25175085  0.17115459  1
  Mn  Mn97  1  0.33321947  0.24874391  0.49980426  1
  Mn  Mn98  1  0.33397874  0.24920956  0.83655153  1
  Mn  Mn99  1  0.33144594  0.74850859  0.17056296  1
  Mn  Mn100  1  0.33533280  0.74900429  0.49873402  1
  Mn  Mn101  1  0.33393697  0.75027968  0.83312812  1
  Mn  Mn102  1  0.66767413  0.25243692  0.16790494  1
  Mn  Mn103  1  0.66671965  0.24969850  0.49927897  1
  Mn  Mn104  1  0.66709141  0.25102754  0.83382391  1
  Mn  Mn105  1  0.66806912  0.74846918  0.16704874  1
  Mn  Mn106  1  0.66863713  0.75167059  0.49890555  1
  Mn  Mn107  1  0.66582610  0.74914749  0.83160808  1
  Mn  Mn108  1  0.16650821  0.24969079  0.00320273  1
  Mn  Mn109  1  0.16651091  0.24815933  0.33647733  1
  Mn  Mn110  1  0.16403698  0.25068610  0.66839662  1
  Mn  Mn111  1  0.16593437  0.74979548  0.00149880  1
  Mn  Mn112  1  0.16501743  0.75107217  0.33466086  1
  Mn  Mn113  1  0.16665564  0.74945375  0.66447761  1
  Mn  Mn114  1  0.49945052  0.25136700  0.00056191  1
  Mn  Mn115  1  0.50102025  0.25026011  0.33629606  1
  Mn  Mn116  1  0.50189787  0.24943082  0.66761848  1
  Mn  Mn117  1  0.49977155  0.74987260  -0.00008344  1
  Mn  Mn118  1  0.50060408  0.75005505  0.33535587  1
  Mn  Mn119  1  0.50128566  0.74931973  0.66380629  1
  Mn  Mn120  1  0.83187180  0.25145156  -0.00217375  1
  Mn  Mn121  1  0.83364660  0.25232650  0.33414025  1
  Mn  Mn122  1  0.83271093  0.24962360  0.66539365  1
  Mn  Mn123  1  0.83491613  0.74868803  -0.00026299  1
  Mn  Mn124  1  0.83442461  0.74870569  0.33012060  1
  Mn  Mn125  1  0.83406968  0.75062757  0.66366751  1
  Mn  Mn126  1  0.16411448  0.00185366  0.00468440  1
  Mn  Mn127  1  0.16584545  0.00070301  0.33589901  1
  Mn  Mn128  1  0.16346305  0.00176582  0.66613487  1
  Mn  Mn129  1  0.16841840  0.49709006  0.00147969  1
  Mn  Mn130  1  0.16493011  0.50096037  0.33453066  1
  Mn  Mn131  1  0.16691427  0.49891163  0.66407536  1
  Mn  Mn132  1  0.49872360  0.00241809  -0.00061681  1
  Mn  Mn133  1  0.50148419  -0.00017373  0.33743905  1
  Mn  Mn134  1  0.50078045  0.00225000  0.66668387  1
  Mn  Mn135  1  0.50061895  0.49617757  -0.00084670  1
  Mn  Mn136  1  0.50061412  0.49965709  0.33464253  1
  Mn  Mn137  1  0.50282668  0.49813768  0.66480223  1
  Mn  Mn138  1  0.83352136  0.00117918  -0.00068984  1
  Mn  Mn139  1  0.83319054  -0.00213669  0.33315955  1
  Mn  Mn140  1  0.83101768  0.00167124  0.66340225  1
  Mn  Mn141  1  0.83304844  0.49814228  -0.00151757  1
  Mn  Mn142  1  0.83426610  0.50010545  0.33109329  1
  Mn  Mn143  1  0.83523873  0.49837124  0.66494128  1
  O  O144  1  0.16638098  0.12847876  0.02693796  1
  O  O145  1  0.17277306  0.12421970  0.36576855  1
  O  O146  1  0.16838524  0.12742428  0.67510502  1
  O  O147  1  0.16531805  0.62036468  0.02275029  1
  O  O148  1  0.15817296  0.62540878  0.35350905  1
  O  O149  1  0.16529094  0.62067804  0.66973976  1
  O  O150  1  0.50688780  0.12955037  0.01305954  1
  O  O151  1  0.51116036  0.12536128  0.35659450  1
  O  O152  1  0.50849883  0.12808972  0.69204125  1
  O  O153  1  0.50617993  0.61809212  0.00906301  1
  O  O154  1  0.50941263  0.62357579  0.34905843  1
  O  O155  1  0.50240775  0.62129784  0.68750727  1
  O  O156  1  0.83974849  0.12862061  0.01160539  1
  O  O157  1  0.84188904  0.12903864  0.35697172  1
  O  O158  1  0.83912777  0.12785215  0.69217777  1
  O  O159  1  0.83029873  0.62023688  0.02133662  1
  O  O160  1  0.84370416  0.62455144  0.36073542  1
  O  O161  1  0.83543696  0.61953325  0.68898130  1
  O  O162  1  0.16096197  0.37081663  0.31058262  1
  O  O163  1  0.16208260  0.37066059  0.64506915  1
  O  O164  1  0.16489110  0.36994072  0.97795282  1
  O  O165  1  0.15846851  0.88002960  0.30542123  1
  O  O166  1  0.15902681  0.88068503  0.64665682  1
  O  O167  1  0.15973514  0.87846671  0.99619882  1
  O  O168  1  0.49512171  0.37358808  0.31510512  1
  O  O169  1  0.50802961  0.37067275  0.64977430  1
  O  O170  1  0.49700716  0.37170100  0.97420950  1
  O  O171  1  0.49387763  0.87759662  0.32555167  1
  O  O172  1  0.50666327  0.88018666  0.65033793  1
  O  O173  1  0.50086077  0.88116546  0.97754272  1
  O  O174  1  0.82434670  0.37696177  0.30487053  1
  O  O175  1  0.82784380  0.37166275  0.64128645  1
  O  O176  1  0.82336895  0.37383519  0.97405876  1
  O  O177  1  0.82585137  0.86836329  0.30265365  1
  O  O178  1  0.82378560  0.88156532  0.63969293  1
  O  O179  1  0.84002053  0.87696756  0.99064046  1
  O  O180  1  -0.00534373  0.37517784  0.19092161  1
  O  O181  1  -0.01072844  0.36936632  0.52259841  1
  O  O182  1  -0.00845264  0.37235067  0.85785465  1
  O  O183  1  -0.00692530  0.87131148  0.19027967  1
  O  O184  1  -0.01197387  0.88071283  0.52495883  1
  O  O185  1  -0.00246571  0.87986250  0.85432419  1
  O  O186  1  0.32323056  0.37282110  0.19811016  1
  O  O187  1  0.33070328  0.37151874  0.50628473  1
  O  O188  1  0.33268090  0.37069841  0.85613297  1
  O  O189  1  0.32255693  0.87783568  0.19116607  1
  O  O190  1  0.33231395  0.87815646  0.50770920  1
  O  O191  1  0.34218310  0.87917024  0.84128272  1
  O  O192  1  0.66862153  0.37590713  0.19022360  1
  O  O193  1  0.67226713  0.37080025  0.52358893  1
  O  O194  1  0.66492890  0.37286054  0.86068786  1
  O  O195  1  0.67759300  0.87133244  0.18604893  1
  O  O196  1  0.67272666  0.88051545  0.52466516  1
  O  O197  1  0.65780974  0.87601386  0.84117930  1
  O  O198  1  0.00759924  0.13037541  0.14170297  1
  O  O199  1  0.00667875  0.12482611  0.46941739  1
  O  O200  1  -0.00699149  0.12756964  0.81039402  1
  O  O201  1  0.01144066  0.62297533  0.15472550  1
  O  O202  1  0.00211463  0.62623620  0.47157549  1
  O  O203  1  -0.00650682  0.62002189  0.82149169  1
  O  O204  1  0.32609559  0.13088943  0.14646438  1
  O  O205  1  0.32798953  0.12493455  0.47744641  1
  O  O206  1  0.34095369  0.12709720  0.80986523  1
  O  O207  1  0.32521439  0.62026760  0.16021270  1
  O  O208  1  0.33052872  0.62486978  0.48423249  1
  O  O209  1  0.34272900  0.62294384  0.82598507  1
  O  O210  1  0.66639434  0.13213815  0.14556275  1
  O  O211  1  0.67461118  0.12567523  0.46985990  1
  O  O212  1  0.67257072  0.12962289  0.80976247  1
  O  O213  1  0.67193813  0.62041811  0.14168459  1
  O  O214  1  0.67725558  0.62313517  0.47587070  1
  O  O215  1  0.67210756  0.62164262  0.82275196  1
  O  O216  1  0.07740117  0.02541681  0.26202537  1
  O  O217  1  0.07200503  0.02242771  0.58594362  1
  O  O218  1  0.07225754  0.01513608  0.93327187  1
  O  O219  1  0.07144209  0.51171747  0.26440176  1
  O  O220  1  0.07932051  0.50010601  0.58207029  1
  O  O221  1  0.07962256  0.49798266  0.92064167  1
  O  O222  1  0.40395705  0.01423160  0.26434591  1
  O  O223  1  0.40928099  0.02734887  0.59436530  1
  O  O224  1  0.41208786  0.02600957  0.92175672  1
  O  O225  1  0.40890452  0.50542379  0.25709098  1
  O  O226  1  0.41913118  0.50679813  0.58198352  1
  O  O227  1  0.42030747  0.50633418  0.91584803  1
  O  O228  1  0.74195183  0.01604181  0.26402191  1
  O  O229  1  0.74343880  0.02866763  0.58667808  1
  O  O230  1  0.74327553  0.02139171  0.92095025  1
  O  O231  1  0.74499103  0.52555146  0.25993742  1
  O  O232  1  0.75247113  0.51092382  0.57986435  1
  O  O233  1  0.74207153  0.51723870  0.92680509  1
  O  O234  1  0.23919527  0.22648445  0.24577170  1
  O  O235  1  0.24209149  0.23457653  0.57393408  1
  O  O236  1  0.25028350  0.23382613  0.92286811  1
  O  O237  1  0.23668816  0.73556138  0.24640117  1
  O  O238  1  0.24471241  0.74773281  0.57337514  1
  O  O239  1  0.24890713  0.74481305  0.91802272  1
  O  O240  1  0.57946421  0.24418847  0.24691618  1
  O  O241  1  0.57902780  0.22614534  0.57234995  1
  O  O242  1  0.57995433  0.23045073  0.90705583  1
  O  O243  1  0.58762531  0.74083299  0.25244220  1
  O  O244  1  0.58361473  0.74258980  0.57879538  1
  O  O245  1  0.58058183  0.73149120  0.91012369  1
  O  O246  1  0.91489786  0.24001326  0.24987408  1
  O  O247  1  0.90856794  0.22490418  0.57117365  1
  O  O248  1  0.90560047  0.23392099  0.90369174  1
  O  O249  1  0.90812151  0.72358094  0.24012227  1
  O  O250  1  0.90915205  0.73603504  0.56461803  1
  O  O251  1  0.90551035  0.73333254  0.90616184  1
  O  O252  1  0.09069709  0.47622441  0.09112836  1
  O  O253  1  0.08978042  0.47186798  0.42231406  1
  O  O254  1  0.08623453  0.47716297  0.75403940  1
  O  O255  1  0.08789578  0.98176204  0.09727182  1
  O  O256  1  0.09010489  0.97609215  0.42493412  1
  O  O257  1  0.08070071  0.99027050  0.74670595  1
  O  O258  1  0.42072531  0.47350814  0.08781929  1
  O  O259  1  0.42187942  0.48666531  0.41856118  1
  O  O260  1  0.42659975  0.48592017  0.75748117  1
  O  O261  1  0.41378398  0.99846970  0.08480938  1
  O  O262  1  0.42647356  0.99485057  0.42732914  1
  O  O263  1  0.43464785  0.99061916  0.76108188  1
  O  O264  1  0.75987508  0.47915625  0.09228543  1
  O  O265  1  0.75934420  0.47803818  0.41945621  1
  O  O266  1  0.75379400  0.47705317  0.75729248  1
  O  O267  1  0.76040363  0.98881106  0.09013765  1
  O  O268  1  0.76035696  0.98005848  0.42599129  1
  O  O269  1  0.75169419  0.99355722  0.74870465  1
  O  O270  1  0.25620546  0.27388524  0.08326462  1
  O  O271  1  0.25710729  0.26776492  0.40699558  1
  O  O272  1  0.25206156  0.26238328  0.75420025  1
  O  O273  1  0.24552455  0.75873319  0.09044698  1
  O  O274  1  0.25308584  0.77177859  0.40861706  1
  O  O275  1  0.25266427  0.75483385  0.74929642  1
  O  O276  1  0.58814651  0.27453315  0.07879073  1
  O  O277  1  0.59828881  0.26869403  0.40785784  1
  O  O278  1  0.59693838  0.27103001  0.74441762  1
  O  O279  1  0.59024693  0.75375278  0.07891351  1
  O  O280  1  0.59584530  0.76583247  0.41105146  1
  O  O281  1  0.58437806  0.76628006  0.74700107  1
  O  O282  1  0.92137687  0.27259335  0.07181633  1
  O  O283  1  0.92402206  0.27301602  0.40894399  1
  O  O284  1  0.92443316  0.27042803  0.73832397  1
  O  O285  1  0.92525272  0.76680202  0.07798185  1
  O  O286  1  0.92525099  0.77410243  0.40286928  1
  O  O287  1  0.92105947  0.76987471  0.73510647  1
  O  O288  1  0.25517861  0.47375214  0.08163443  1
  O  O289  1  0.25413034  0.48115711  0.40772234  1
  O  O290  1  0.24959603  0.48453200  0.75339898  1
  O  O291  1  0.24571152  0.99263609  0.09079163  1
  O  O292  1  0.25557865  0.97791880  0.40521550  1
  O  O293  1  0.25603488  0.99983877  0.74351627  1
  O  O294  1  0.58738593  0.47575354  0.07849678  1
  O  O295  1  0.59535379  0.48315033  0.40894789  1
  O  O296  1  0.59082485  0.47692518  0.74782219  1
  O  O297  1  0.58882154  0.99646665  0.07635915  1
  O  O298  1  0.59797140  0.98126583  0.40855830  1
  O  O299  1  0.59344102  0.98780457  0.73611892  1
  O  O300  1  0.92199627  0.47438927  0.07255486  1
  O  O301  1  0.92578314  0.47618592  0.40205496  1
  O  O302  1  0.92260786  0.47375460  0.74104400  1
  O  O303  1  0.92640538  0.98776213  0.07332324  1
  O  O304  1  0.92303542  0.97766366  0.40812699  1
  O  O305  1  0.92263647  0.98546989  0.73036920  1
  O  O306  1  0.09194043  0.27531117  0.09288388  1
  O  O307  1  0.09183536  0.27171022  0.42777663  1
  O  O308  1  0.08641844  0.27418191  0.76021856  1
  O  O309  1  0.08671826  0.76798483  0.09535951  1
  O  O310  1  0.08827616  0.78064513  0.42032832  1
  O  O311  1  0.08080105  0.76344921  0.74801734  1
  O  O312  1  0.41932283  0.27603966  0.09552671  1
  O  O313  1  0.42685422  0.25804367  0.42779407  1
  O  O314  1  0.42880624  0.26350223  0.76541231  1
  O  O315  1  0.41633507  0.75624955  0.08630572  1
  O  O316  1  0.41890012  0.76157212  0.41882580  1
  O  O317  1  0.42619825  0.75900848  0.75525842  1
  O  O318  1  0.75574016  0.27375003  0.08970906  1
  O  O319  1  0.76203047  0.27082515  0.42676165  1
  O  O320  1  0.75653562  0.27108638  0.75935813  1
  O  O321  1  0.76310820  0.75853469  0.09510141  1
  O  O322  1  0.75823125  0.77186075  0.41729058  1
  O  O323  1  0.74839610  0.76027660  0.74939340  1
  O  O324  1  0.24063788  0.02625933  0.24932253  1
  O  O325  1  0.23896680  0.01586307  0.57376235  1
  O  O326  1  0.24847781  0.01653564  0.92475270  1
  O  O327  1  0.23162271  0.51412380  0.24214529  1
  O  O328  1  0.24519435  0.50177266  0.57387426  1
  O  O329  1  0.24881171  0.49968705  0.91785492  1
  O  O330  1  0.58281019  0.01021509  0.25182213  1
  O  O331  1  0.57632108  0.02463331  0.57333706  1
  O  O332  1  0.57771337  0.02238128  0.90702183  1
  O  O333  1  0.58187855  0.50614109  0.24871489  1
  O  O334  1  0.58390424  0.50711144  0.57770713  1
  O  O335  1  0.58139314  0.51466025  0.91119417  1
  O  O336  1  0.91685078  0.01330115  0.24751461  1
  O  O337  1  0.90732111  0.02688694  0.57130630  1
  O  O338  1  0.90824978  0.02286310  0.90898855  1
  O  O339  1  0.90497571  0.51834972  0.23800326  1
  O  O340  1  0.91051148  0.51346292  0.56514968  1
  O  O341  1  0.90069672  0.51032579  0.90259721  1
  O  O342  1  0.07807830  0.22778496  0.26411322  1
  O  O343  1  0.06926307  0.22955516  0.58950997  1
  O  O344  1  0.06817804  0.23627328  0.93062496  1
  O  O345  1  0.07225948  0.73498330  0.26030696  1
  O  O346  1  0.07956441  0.74894422  0.57908643  1
  O  O347  1  0.07752240  0.74804706  0.92539408  1
  O  O348  1  0.40232094  0.23467457  0.26515930  1
  O  O349  1  0.40779337  0.22435733  0.59004140  1
  O  O350  1  0.40833074  0.22823634  0.92687632  1
  O  O351  1  0.40693869  0.74401534  0.25785985  1
  O  O352  1  0.41941708  0.74061846  0.58237555  1
  O  O353  1  0.42208032  0.74171879  0.91107874  1
  O  O354  1  0.74017691  0.23513732  0.26522380  1
  O  O355  1  0.74191407  0.22659945  0.59032925  1
  O  O356  1  0.74108666  0.22806616  0.92397762  1
  O  O357  1  0.74587341  0.72058742  0.25760813  1
  O  O358  1  0.75332420  0.73611070  0.57836714  1
  O  O359  1  0.74522135  0.73098686  0.92161841  1
