# generated using pymatgen
data_Ba17Sr5La8Pr42Mn72O216
_symmetry_space_group_name_H-M   'P 1'
_cell_length_a   16.67741374
_cell_length_b   15.70084528
_cell_length_c   16.82257612
_cell_angle_alpha   90.00765181
_cell_angle_beta   90.02387143
_cell_angle_gamma   90.03627398
_symmetry_Int_Tables_number   1
_chemical_formula_structural   Ba17Sr5La8Pr42Mn72O216
_chemical_formula_sum   'Ba17 Sr5 La8 Pr42 Mn72 O216'
_cell_volume   4404.98171829
_cell_formula_units_Z   1
loop_
 _symmetry_equiv_pos_site_id
 _symmetry_equiv_pos_as_xyz
  1  'x, y, z'
loop_
 _atom_site_type_symbol
 _atom_site_label
 _atom_site_symmetry_multiplicity
 _atom_site_fract_x
 _atom_site_fract_y
 _atom_site_fract_z
 _atom_site_occupancy
  Ba  Ba0  1  -0.00073972  0.87510505  0.00235469  1
  Ba  Ba1  1  0.50409160  0.87654643  0.16634770  1
  Ba  Ba2  1  0.49760937  0.62417267  0.50044388  1
  Ba  Ba3  1  0.66803070  0.62516777  0.33402403  1
  Ba  Ba4  1  0.33377493  0.37568555  -0.00001673  1
  Ba  Ba5  1  -0.00174983  0.62427407  0.66576638  1
  Ba  Ba6  1  0.33085577  0.62517137  0.33510377  1
  Ba  Ba7  1  0.33709796  0.87461926  0.00002744  1
  Ba  Ba8  1  0.50161535  0.62379961  0.83155159  1
  Ba  Ba9  1  -0.00035828  0.87577134  0.66617012  1
  Ba  Ba10  1  0.33187483  0.12469983  1.00092868  1
  Ba  Ba11  1  0.50392699  0.87374716  0.83532741  1
  Ba  Ba12  1  0.16744884  0.37277800  0.49913780  1
  Ba  Ba13  1  0.83013387  0.12576665  0.83675367  1
  Ba  Ba14  1  0.16566522  0.62456292  0.83066218  1
  Ba  Ba15  1  0.16827763  0.37484621  0.83046921  1
  Ba  Ba16  1  -0.00521024  0.12508376  0.99942120  1
  Sr  Sr17  1  0.49421420  0.12610159  0.16661870  1
  Sr  Sr18  1  0.67370222  0.87550991  0.33548823  1
  Sr  Sr19  1  0.83796845  0.87481195  0.49776746  1
  Sr  Sr20  1  -0.00423835  0.12829828  0.33159425  1
  Sr  Sr21  1  0.00268566  0.37539009  0.66801031  1
  La  La22  1  0.49427644  0.62463639  0.17193926  1
  La  La23  1  0.49235846  0.12370501  0.50004190  1
  La  La24  1  0.16375336  0.62642493  0.16486249  1
  La  La25  1  0.00329564  0.87860909  0.33838131  1
  La  La26  1  -0.00772909  0.12970711  0.66721431  1
  La  La27  1  0.33914624  0.87341153  0.66921476  1
  La  La28  1  0.66380965  0.12221007  0.32940897  1
  La  La29  1  0.67070058  0.37442736  0.33680911  1
  Pr  Pr30  1  0.83455034  0.62600881  0.83332161  1
  Pr  Pr31  1  0.83421224  0.62694526  0.16977800  1
  Pr  Pr32  1  0.17341606  0.87559821  0.16329945  1
  Pr  Pr33  1  0.00528357  0.37213966  0.33747212  1
  Pr  Pr34  1  0.66554033  0.62583269  0.99982483  1
  Pr  Pr35  1  0.33387342  0.62834144  0.99990666  1
  Pr  Pr36  1  0.82732286  0.12223517  0.50437072  1
  Pr  Pr37  1  0.15740554  0.12409101  0.83609201  1
  Pr  Pr38  1  0.50440959  0.37468774  0.49864544  1
  Pr  Pr39  1  0.15432595  0.12510343  0.49941513  1
  Pr  Pr40  1  0.50231991  0.37096514  0.83253453  1
  Pr  Pr41  1  0.16339497  0.62540478  0.50568172  1
  Pr  Pr42  1  0.32549331  0.12615724  0.32601731  1
  Pr  Pr43  1  0.83261856  0.12302106  0.16811769  1
  Pr  Pr44  1  0.66093753  0.62711807  0.66027967  1
  Pr  Pr45  1  0.66796677  0.37753344  0.66919678  1
  Pr  Pr46  1  0.17304804  0.87811788  0.83225355  1
  Pr  Pr47  1  0.17227056  0.87416522  0.49615048  1
  Pr  Pr48  1  0.32556932  0.62558448  0.66121762  1
  Pr  Pr49  1  0.32333391  0.12370494  0.66532715  1
  Pr  Pr50  1  -0.00128465  0.62353360  0.99286668  1
  Pr  Pr51  1  0.00495151  0.37410901  -0.00178595  1
  Pr  Pr52  1  0.66956654  0.87525587  0.00333532  1
  Pr  Pr53  1  0.83699330  0.87711715  0.83239143  1
  Pr  Pr54  1  0.83991180  0.37593820  0.49827230  1
  Pr  Pr55  1  0.83358402  0.87315091  0.16872640  1
  Pr  Pr56  1  0.49571334  0.12537912  0.83815348  1
  Pr  Pr57  1  0.67178533  0.87215113  0.66704325  1
  Pr  Pr58  1  0.34244236  0.37486244  0.33564491  1
  Pr  Pr59  1  0.66947152  0.37548177  0.00012325  1
  Pr  Pr60  1  0.83857036  0.37360931  0.82997921  1
  Pr  Pr61  1  0.65924466  0.12357601  0.66549022  1
  Pr  Pr62  1  0.33752417  0.37748620  0.67278492  1
  Pr  Pr63  1  0.51021464  0.87392651  0.49431583  1
  Pr  Pr64  1  0.34555309  0.87544198  0.33405909  1
  Pr  Pr65  1  0.83851300  0.37725506  0.16664558  1
  Pr  Pr66  1  0.66120235  0.12514489  0.99729873  1
  Pr  Pr67  1  0.82810440  0.62782803  0.50533524  1
  Pr  Pr68  1  0.50732847  0.37609486  0.16575205  1
  Pr  Pr69  1  0.15979572  0.12252711  0.16491952  1
  Pr  Pr70  1  0.16785365  0.37272574  0.16318907  1
  Pr  Pr71  1  -0.00006678  0.62288447  0.33496848  1
  Mn  Mn72  1  -0.00173130  0.00010478  0.17177638  1
  Mn  Mn73  1  -0.00139988  0.00164820  0.50028527  1
  Mn  Mn74  1  -0.00047755  -0.00189871  0.83301449  1
  Mn  Mn75  1  0.00038570  0.50073224  0.16613395  1
  Mn  Mn76  1  -0.00070163  0.49896266  0.49851930  1
  Mn  Mn77  1  -0.00119189  0.50028936  0.83204714  1
  Mn  Mn78  1  0.33269956  0.00194149  0.16745593  1
  Mn  Mn79  1  0.33234459  0.00159035  0.49867771  1
  Mn  Mn80  1  0.33450899  0.00078142  0.82957729  1
  Mn  Mn81  1  0.33162668  0.49764293  0.16876903  1
  Mn  Mn82  1  0.33237154  0.49637118  0.50125707  1
  Mn  Mn83  1  0.33552138  0.50155356  0.83377394  1
  Mn  Mn84  1  0.66857345  0.00144020  0.16628161  1
  Mn  Mn85  1  0.66698820  0.00189122  0.49883921  1
  Mn  Mn86  1  0.66640172  -0.00044571  0.83303151  1
  Mn  Mn87  1  0.66916441  0.49870829  0.16650542  1
  Mn  Mn88  1  0.66808629  0.49704265  0.50196594  1
  Mn  Mn89  1  0.66874088  0.50005755  0.83377204  1
  Mn  Mn90  1  -0.00183065  0.25125085  0.16768641  1
  Mn  Mn91  1  -0.00280787  0.24875390  0.49920751  1
  Mn  Mn92  1  -0.00142836  0.25126051  0.83192670  1
  Mn  Mn93  1  -0.00019744  0.74879435  0.16951202  1
  Mn  Mn94  1  0.00063939  0.75207152  0.49835164  1
  Mn  Mn95  1  0.00013920  0.75060193  0.83406456  1
  Mn  Mn96  1  0.33153483  0.25013365  0.16894525  1
  Mn  Mn97  1  0.33309274  0.24807759  0.49925975  1
  Mn  Mn98  1  0.33409242  0.24903756  0.83086606  1
  Mn  Mn99  1  0.33310231  0.74879104  0.16758407  1
  Mn  Mn100  1  0.33253270  0.75286600  0.50025727  1
  Mn  Mn101  1  0.33456597  0.74816937  0.83196664  1
  Mn  Mn102  1  0.66849349  0.25016941  0.16723964  1
  Mn  Mn103  1  0.66650895  0.24927924  0.50001006  1
  Mn  Mn104  1  0.66610522  0.25163187  0.83257904  1
  Mn  Mn105  1  0.66867691  0.74927837  0.16641333  1
  Mn  Mn106  1  0.66854784  0.75164814  0.49953055  1
  Mn  Mn107  1  0.66962381  0.74819146  0.83360231  1
  Mn  Mn108  1  0.16548444  0.24933580  -0.00082837  1
  Mn  Mn109  1  0.16672803  0.24935498  0.33083623  1
  Mn  Mn110  1  0.16662672  0.24833842  0.66560721  1
  Mn  Mn111  1  0.16599470  0.74967637  -0.00014297  1
  Mn  Mn112  1  0.16633349  0.75097369  0.33244069  1
  Mn  Mn113  1  0.16655769  0.75372729  0.66440713  1
  Mn  Mn114  1  0.50105907  0.25194685  0.00087275  1
  Mn  Mn115  1  0.50082095  0.24922141  0.33358334  1
  Mn  Mn116  1  0.49893458  0.24783734  0.66597016  1
  Mn  Mn117  1  0.50339549  0.74776009  0.00246344  1
  Mn  Mn118  1  0.50267010  0.75010737  0.33265429  1
  Mn  Mn119  1  0.49985128  0.75110434  0.66504691  1
  Mn  Mn120  1  0.83078744  0.25434414  0.00170720  1
  Mn  Mn121  1  0.83286680  0.25019073  0.33384970  1
  Mn  Mn122  1  0.82983014  0.25012452  0.66572901  1
  Mn  Mn123  1  0.83230239  0.74748381  0.00148851  1
  Mn  Mn124  1  0.83682232  0.74924087  0.33459980  1
  Mn  Mn125  1  0.83155319  0.75074406  0.66787035  1
  Mn  Mn126  1  0.16555116  -0.00060907  -0.00036892  1
  Mn  Mn127  1  0.16714233  -0.00006833  0.33272089  1
  Mn  Mn128  1  0.16605143  0.00143222  0.66475148  1
  Mn  Mn129  1  0.16602483  0.49973071  0.00123115  1
  Mn  Mn130  1  0.16666042  0.50052705  0.33161086  1
  Mn  Mn131  1  0.16671689  0.49855339  0.66421392  1
  Mn  Mn132  1  0.50182925  0.00155360  0.00071063  1
  Mn  Mn133  1  0.50109811  0.00132533  0.33423730  1
  Mn  Mn134  1  0.49961880  0.00164713  0.66541825  1
  Mn  Mn135  1  0.50210183  0.49901870  0.00202558  1
  Mn  Mn136  1  0.50159430  0.49842136  0.33263469  1
  Mn  Mn137  1  0.49984607  0.49790442  0.66726997  1
  Mn  Mn138  1  0.83073440  -0.00130024  0.00238543  1
  Mn  Mn139  1  0.83478382  0.00175622  0.33530138  1
  Mn  Mn140  1  0.83050901  0.00081447  0.66745838  1
  Mn  Mn141  1  0.83266947  0.49975640  0.00010870  1
  Mn  Mn142  1  0.83578431  0.49903118  0.33345420  1
  Mn  Mn143  1  0.83115701  0.49888108  0.66657756  1
  O  O144  1  0.16200392  0.12442104  0.01862686  1
  O  O145  1  0.17681460  0.12316190  0.35826266  1
  O  O146  1  0.17164023  0.12351779  0.69109227  1
  O  O147  1  0.15515539  0.62381828  0.02035712  1
  O  O148  1  0.16217995  0.62921476  0.36120503  1
  O  O149  1  0.17421850  0.62752731  0.67036381  1
  O  O150  1  0.50889213  0.12985509  0.01532966  1
  O  O151  1  0.49942941  0.12693684  0.35559807  1
  O  O152  1  0.50835432  0.12641025  0.69479633  1
  O  O153  1  0.50792644  0.61994761  0.02629328  1
  O  O154  1  0.49894004  0.62324797  0.34086934  1
  O  O155  1  0.50808280  0.62232862  0.67429206  1
  O  O156  1  0.82489798  0.13164312  0.02440323  1
  O  O157  1  0.83016719  0.12968962  0.36034524  1
  O  O158  1  0.82873326  0.12645331  0.68042550  1
  O  O159  1  0.83357106  0.62171281  0.02861385  1
  O  O160  1  0.84108924  0.62016688  0.36156940  1
  O  O161  1  0.82334693  0.62436577  0.68763973  1
  O  O162  1  0.15762850  0.37326368  0.30765745  1
  O  O163  1  0.17368802  0.37071067  0.65557728  1
  O  O164  1  0.16277376  0.37522068  0.98938631  1
  O  O165  1  0.15791057  0.87586376  0.30546349  1
  O  O166  1  0.17199792  0.88073018  0.64003144  1
  O  O167  1  0.16916340  0.87444640  0.97971934  1
  O  O168  1  0.50375724  0.37192287  0.31140560  1
  O  O169  1  0.49571057  0.37005260  0.64047073  1
  O  O170  1  0.50718932  0.37592521  0.97700094  1
  O  O171  1  0.49949959  0.87683726  0.32540483  1
  O  O172  1  0.49707917  0.88093693  0.63954954  1
  O  O173  1  0.51053592  0.87434794  0.99286573  1
  O  O174  1  0.83367148  0.37462712  0.30958188  1
  O  O175  1  0.82526793  0.37252241  0.64097231  1
  O  O176  1  0.82479732  0.37978345  0.97260007  1
  O  O177  1  0.83813439  0.87574002  0.31288666  1
  O  O178  1  0.82430355  0.87740173  0.64824267  1
  O  O179  1  0.82365675  0.86701271  0.97571123  1
  O  O180  1  -0.00414185  0.37738770  0.19603822  1
  O  O181  1  -0.00715283  0.37187044  0.51757453  1
  O  O182  1  -0.00788366  0.37828605  0.85069397  1
  O  O183  1  -0.00915325  0.87543755  0.19521912  1
  O  O184  1  0.00352184  0.87886412  0.50953750  1
  O  O185  1  -0.00669881  0.87341267  0.84303213  1
  O  O186  1  0.31844209  0.37356015  0.19073323  1
  O  O187  1  0.33768139  0.36880687  0.52802102  1
  O  O188  1  0.33676447  0.37509876  0.84130838  1
  O  O189  1  0.32336498  0.87740010  0.18698959  1
  O  O190  1  0.32531997  0.88062164  0.52580172  1
  O  O191  1  0.32379123  0.87563300  0.84077212  1
  O  O192  1  0.66397292  0.37293170  0.19454734  1
  O  O193  1  0.66466800  0.37087139  0.52515160  1
  O  O194  1  0.66467929  0.37623899  0.85731713  1
  O  O195  1  0.67320116  0.87671556  0.18564086  1
  O  O196  1  0.66244641  0.88016358  0.52155414  1
  O  O197  1  0.67412265  0.86982484  0.85916878  1
  O  O198  1  -0.00062959  0.12742208  0.15426362  1
  O  O199  1  -0.00293943  0.12563646  0.48170690  1
  O  O200  1  0.00455804  0.12352756  0.81459900  1
  O  O201  1  -0.00017791  0.62088626  0.13667770  1
  O  O202  1  0.00090070  0.62512923  0.47937152  1
  O  O203  1  -0.00564644  0.62395097  0.82422198  1
  O  O204  1  0.33505348  0.12657289  0.16072627  1
  O  O205  1  0.34006680  0.12443312  0.46940663  1
  O  O206  1  0.34368984  0.12499540  0.80911354  1
  O  O207  1  0.33994727  0.62000829  0.14944393  1
  O  O208  1  0.32619551  0.62550601  0.49082563  1
  O  O209  1  0.33556131  0.62507528  0.80788514  1
  O  O210  1  0.68044736  0.12886006  0.14057147  1
  O  O211  1  0.67183374  0.12783178  0.47439137  1
  O  O212  1  0.66317150  0.12968894  0.80779175  1
  O  O213  1  0.67833244  0.62088242  0.14356527  1
  O  O214  1  0.67315213  0.62183349  0.49277109  1
  O  O215  1  0.67581933  0.62279412  0.80394516  1
  O  O216  1  0.07906788  0.01992669  0.25849503  1
  O  O217  1  0.07628978  0.02646880  0.59122046  1
  O  O218  1  0.08365862  0.00993383  0.91488256  1
  O  O219  1  0.07936316  0.52592401  0.24783996  1
  O  O220  1  0.08386088  0.51158209  0.57618620  1
  O  O221  1  0.07434625  0.50792296  0.92692343  1
  O  O222  1  0.40576513  0.01009192  0.26343609  1
  O  O223  1  0.40963837  0.02502402  0.58897305  1
  O  O224  1  0.41859114  0.01252424  0.91382979  1
  O  O225  1  0.41249223  0.50078403  0.25316856  1
  O  O226  1  0.40547660  0.51145536  0.59508277  1
  O  O227  1  0.41427583  0.51765254  0.92717679  1
  O  O228  1  0.74910441  0.02216677  0.25326461  1
  O  O229  1  0.73971473  0.02115011  0.58948543  1
  O  O230  1  0.73777512  0.01430065  0.92943123  1
  O  O231  1  0.75605942  0.51122414  0.24667598  1
  O  O232  1  0.74632500  0.51725593  0.58871220  1
  O  O233  1  0.75150987  0.52436672  0.91759657  1
  O  O234  1  0.24242941  0.22752366  0.24556588  1
  O  O235  1  0.24414342  0.22208904  0.57281071  1
  O  O236  1  0.24552691  0.23190690  0.90380910  1
  O  O237  1  0.23835419  0.73565995  0.24189916  1
  O  O238  1  0.24311024  0.73816137  0.57358468  1
  O  O239  1  0.25279169  0.73297850  0.91799206  1
  O  O240  1  0.58317927  0.23022397  0.24604418  1
  O  O241  1  0.57644418  0.22680222  0.57971115  1
  O  O242  1  0.57993117  0.23304184  0.90681930  1
  O  O243  1  0.58184451  0.73275891  0.23926918  1
  O  O244  1  0.58260561  0.74469342  0.58153586  1
  O  O245  1  0.58995517  0.73212093  0.91900856  1
  O  O246  1  0.90714016  0.23486568  0.24293026  1
  O  O247  1  0.90751819  0.23064968  0.57899735  1
  O  O248  1  0.91090875  0.24921978  0.91596089  1
  O  O249  1  0.91736407  0.72259106  0.25001003  1
  O  O250  1  0.90577450  0.73664578  0.57632555  1
  O  O251  1  0.91234192  0.72806178  0.92140721  1
  O  O252  1  0.08308113  0.47535307  0.08892491  1
  O  O253  1  0.07896162  0.48627903  0.40846090  1
  O  O254  1  0.08344478  0.49083129  0.74475733  1
  O  O255  1  0.08666199  0.98562780  0.09929726  1
  O  O256  1  0.09647006  0.98659234  0.42400502  1
  O  O257  1  0.09686190  0.98565083  0.75740015  1
  O  O258  1  0.42504112  0.48213010  0.09539217  1
  O  O259  1  0.42079210  0.47539345  0.42515512  1
  O  O260  1  0.42539556  0.47741146  0.75399099  1
  O  O261  1  0.42025710  0.99659377  0.08909801  1
  O  O262  1  0.42280438  0.97928199  0.42962849  1
  O  O263  1  0.41964939  0.98631035  0.74745709  1
  O  O264  1  0.75196348  0.47464581  0.08431138  1
  O  O265  1  0.75450549  0.47734000  0.42210181  1
  O  O266  1  0.75054579  0.47366335  0.75239066  1
  O  O267  1  0.75545709  0.97655287  0.09000117  1
  O  O268  1  0.75766167  0.98879281  0.42261278  1
  O  O269  1  0.75309474  0.97857957  0.75645957  1
  O  O270  1  0.24467022  0.25920129  0.08790163  1
  O  O271  1  0.26082884  0.26654520  0.40319934  1
  O  O272  1  0.26335144  0.25724004  0.73579951  1
  O  O273  1  0.25075046  0.75304134  0.08299342  1
  O  O274  1  0.25485874  0.77702743  0.40929521  1
  O  O275  1  0.25311721  0.76760389  0.74078087  1
  O  O276  1  0.59123735  0.27197568  0.08025496  1
  O  O277  1  0.58874094  0.27011311  0.41419413  1
  O  O278  1  0.58730815  0.27514696  0.74392185  1
  O  O279  1  0.59485860  0.75765007  0.07620221  1
  O  O280  1  0.58812444  0.76594198  0.41614366  1
  O  O281  1  0.59338057  0.76313683  0.74096823  1
  O  O282  1  0.91675667  0.27719661  0.08106546  1
  O  O283  1  0.91786439  0.27175178  0.41203942  1
  O  O284  1  0.91624645  0.26510611  0.74599350  1
  O  O285  1  0.91016745  0.76315539  0.09120761  1
  O  O286  1  0.92735042  0.76482318  0.40796043  1
  O  O287  1  0.91020910  0.75925904  0.75475508  1
  O  O288  1  0.24653915  0.49316240  0.08693216  1
  O  O289  1  0.25864300  0.47949366  0.40937473  1
  O  O290  1  0.25975357  0.49196860  0.73775643  1
  O  O291  1  0.24704082  0.98927894  0.08533607  1
  O  O292  1  0.25818664  0.97544544  0.40560588  1
  O  O293  1  0.25870618  0.98680424  0.73519776  1
  O  O294  1  0.58902775  0.47589980  0.08203090  1
  O  O295  1  0.58815891  0.47765205  0.41660917  1
  O  O296  1  0.58558684  0.47605019  0.75019442  1
  O  O297  1  0.59725965  0.99301459  0.07320782  1
  O  O298  1  0.58927710  0.98833433  0.41459698  1
  O  O299  1  0.59423011  0.98401360  0.73553179  1
  O  O300  1  0.91888473  0.47446201  0.07990291  1
  O  O301  1  0.92054441  0.47557928  0.41159373  1
  O  O302  1  0.91090990  0.48349076  0.74925641  1
  O  O303  1  0.91110888  0.98852080  0.09130156  1
  O  O304  1  0.92394158  0.98635460  0.40999848  1
  O  O305  1  0.91639020  0.99202200  0.74817980  1
  O  O306  1  0.07944083  0.27150885  0.08671684  1
  O  O307  1  0.08315021  0.25843779  0.41217279  1
  O  O308  1  0.08248065  0.25439261  0.74662417  1
  O  O309  1  0.08978733  0.76721065  0.09761140  1
  O  O310  1  0.09144434  0.77238400  0.41832341  1
  O  O311  1  0.09258179  0.76687772  0.75350466  1
  O  O312  1  0.42350378  0.26765695  0.09706507  1
  O  O313  1  0.42408704  0.27211965  0.42632735  1
  O  O314  1  0.42398755  0.27018715  0.75194427  1
  O  O315  1  0.42153557  0.74981359  0.08729020  1
  O  O316  1  0.41910914  0.77245831  0.42550127  1
  O  O317  1  0.41852803  0.76313878  0.74748559  1
  O  O318  1  0.75481000  0.27955924  0.09106529  1
  O  O319  1  0.75529769  0.27450838  0.41972305  1
  O  O320  1  0.75142387  0.27452017  0.75379019  1
  O  O321  1  0.75146759  0.76972367  0.08324192  1
  O  O322  1  0.75828455  0.76062291  0.42293777  1
  O  O323  1  0.75337833  0.77288819  0.75432621  1
  O  O324  1  0.24070626  0.02051889  0.24463306  1
  O  O325  1  0.24122195  0.02672358  0.57052761  1
  O  O326  1  0.24347936  0.01475741  0.89880546  1
  O  O327  1  0.24068273  0.51620434  0.24380951  1
  O  O328  1  0.24496117  0.51546241  0.57615406  1
  O  O329  1  0.25204641  0.51800746  0.92265061  1
  O  O330  1  0.58505399  0.02182578  0.24470926  1
  O  O331  1  0.57533568  0.02473152  0.57620374  1
  O  O332  1  0.58016326  0.02150035  0.90783964  1
  O  O333  1  0.58027433  0.51228424  0.23936396  1
  O  O334  1  0.58549388  0.50460102  0.58783568  1
  O  O335  1  0.59245488  0.51580163  0.92148781  1
  O  O336  1  0.90995082  0.02119456  0.24849450  1
  O  O337  1  0.90733403  0.01931427  0.58040758  1
  O  O338  1  0.90744225  0.00292832  0.91664809  1
  O  O339  1  0.91751076  0.52360688  0.24553707  1
  O  O340  1  0.90573306  0.51289289  0.57351848  1
  O  O341  1  0.91140060  0.51998431  0.91770239  1
  O  O342  1  0.08342060  0.23244412  0.24795180  1
  O  O343  1  0.07825902  0.22909437  0.58492678  1
  O  O344  1  0.08129133  0.24055740  0.91416627  1
  O  O345  1  0.07721633  0.72641341  0.25737537  1
  O  O346  1  0.08415227  0.73903603  0.57852364  1
  O  O347  1  0.07735392  0.73738784  0.92459247  1
  O  O348  1  0.40579432  0.24116603  0.26338663  1
  O  O349  1  0.41155625  0.22209077  0.58990461  1
  O  O350  1  0.41908824  0.23950468  0.91221986  1
  O  O351  1  0.41329751  0.74490229  0.25309534  1
  O  O352  1  0.40566145  0.73985685  0.59137501  1
  O  O353  1  0.41564728  0.73318177  0.92477491  1
  O  O354  1  0.74602793  0.22975821  0.25605251  1
  O  O355  1  0.74249419  0.22764507  0.58643598  1
  O  O356  1  0.73845285  0.23940112  0.92804484  1
  O  O357  1  0.75806145  0.73691046  0.24539391  1
  O  O358  1  0.74313850  0.73443081  0.59105487  1
  O  O359  1  0.75136466  0.72011979  0.91814636  1
