# generated using pymatgen
data_Ba17Sr5La8Pr42Mn72O216
_symmetry_space_group_name_H-M   'P 1'
_cell_length_a   16.67145481
_cell_length_b   15.70735191
_cell_length_c   16.81880796
_cell_angle_alpha   90.00516749
_cell_angle_beta   90.01437166
_cell_angle_gamma   90.00463423
_symmetry_Int_Tables_number   1
_chemical_formula_structural   Ba17Sr5La8Pr42Mn72O216
_chemical_formula_sum   'Ba17 Sr5 La8 Pr42 Mn72 O216'
_cell_volume   4404.24700959
_cell_formula_units_Z   1
loop_
 _symmetry_equiv_pos_site_id
 _symmetry_equiv_pos_as_xyz
  1  'x, y, z'
loop_
 _atom_site_type_symbol
 _atom_site_label
 _atom_site_symmetry_multiplicity
 _atom_site_fract_x
 _atom_site_fract_y
 _atom_site_fract_z
 _atom_site_occupancy
  Ba  Ba0  1  0.66772368  0.37308921  0.00049937  1
  Ba  Ba1  1  0.16833883  0.87466892  0.83075373  1
  Ba  Ba2  1  0.66631145  0.12493564  0.33492292  1
  Ba  Ba3  1  0.66666750  0.87534484  -0.00096667  1
  Ba  Ba4  1  0.49848083  0.87457005  0.50210832  1
  Ba  Ba5  1  0.50121696  0.12579337  0.50209923  1
  Ba  Ba6  1  0.33159014  0.87560468  -0.00145012  1
  Ba  Ba7  1  0.66741974  0.87494099  0.33561647  1
  Ba  Ba8  1  0.83330255  0.37449300  0.16390739  1
  Ba  Ba9  1  0.83302753  0.62395444  0.16678986  1
  Ba  Ba10  1  0.50019540  0.37569195  0.50019844  1
  Ba  Ba11  1  0.00135119  0.87411265  0.66670304  1
  Ba  Ba12  1  0.49675358  0.62458331  0.16659504  1
  Ba  Ba13  1  0.66813600  0.12667881  0.66591185  1
  Ba  Ba14  1  0.16685592  0.12614002  0.49998712  1
  Ba  Ba15  1  0.33128768  0.62383836  0.33161784  1
  Ba  Ba16  1  0.83462705  0.87412342  0.50095869  1
  Sr  Sr17  1  0.33406676  0.37639599  0.33503229  1
  Sr  Sr18  1  0.16786115  0.87550992  0.49959887  1
  Sr  Sr19  1  0.00011025  0.87506539  -0.00051217  1
  Sr  Sr20  1  0.33341936  0.87754746  0.66811898  1
  Sr  Sr21  1  0.33285362  0.87320249  0.33670388  1
  La  La22  1  0.49870425  0.12401861  0.83595091  1
  La  La23  1  0.33672105  0.37502748  0.00476865  1
  La  La24  1  0.00157986  0.12229831  0.33295975  1
  La  La25  1  0.00281955  0.37537452  0.66682944  1
  La  La26  1  0.49925028  0.87335158  0.16938351  1
  La  La27  1  0.00278257  0.12194121  0.66226735  1
  La  La28  1  0.83227646  0.87588161  0.16646842  1
  La  La29  1  0.83580774  0.12302029  0.83335950  1
  Pr  Pr30  1  -0.00356585  0.37741910  0.33487258  1
  Pr  Pr31  1  0.16640838  0.37615359  0.49385150  1
  Pr  Pr32  1  0.66548388  0.36926916  0.66884946  1
  Pr  Pr33  1  0.00061123  0.12705612  0.99702296  1
  Pr  Pr34  1  0.50391127  0.37571750  0.16860862  1
  Pr  Pr35  1  0.83314180  0.12432637  0.16610871  1
  Pr  Pr36  1  0.66045219  0.62701465  0.33073141  1
  Pr  Pr37  1  0.50111888  0.87321745  0.82604812  1
  Pr  Pr38  1  0.15991446  0.62854203  0.83464292  1
  Pr  Pr39  1  0.50800160  0.37638663  0.82999490  1
  Pr  Pr40  1  0.83149986  0.62790877  0.83790217  1
  Pr  Pr41  1  0.49205712  0.62694482  0.49764491  1
  Pr  Pr42  1  0.16798063  0.87521777  0.16209316  1
  Pr  Pr43  1  0.33823571  0.12459948  0.33575523  1
  Pr  Pr44  1  0.66672397  0.87993126  0.66990685  1
  Pr  Pr45  1  0.33267964  0.12232790  0.66187347  1
  Pr  Pr46  1  -0.00132583  0.62856550  0.33049232  1
  Pr  Pr47  1  0.16462261  0.62886630  0.16878188  1
  Pr  Pr48  1  0.17010400  0.37745948  0.82993164  1
  Pr  Pr49  1  0.67200547  0.12540645  0.99852263  1
  Pr  Pr50  1  0.83059931  0.37176043  0.49546170  1
  Pr  Pr51  1  0.83188352  0.12135545  0.50219985  1
  Pr  Pr52  1  0.66305438  0.62212842  0.66240958  1
  Pr  Pr53  1  0.00233986  0.37646990  0.00494788  1
  Pr  Pr54  1  0.00078168  0.62807441  0.66459940  1
  Pr  Pr55  1  0.50084114  0.12293483  0.17168232  1
  Pr  Pr56  1  0.16970749  0.12308933  0.16992943  1
  Pr  Pr57  1  0.16998954  0.37481601  0.16472443  1
  Pr  Pr58  1  0.83427396  0.37506398  0.83098893  1
  Pr  Pr59  1  0.33128376  0.12489360  0.99809873  1
  Pr  Pr60  1  0.33871806  0.37264522  0.66745198  1
  Pr  Pr61  1  0.16700878  0.12098353  0.83195828  1
  Pr  Pr62  1  0.66607310  0.37818600  0.33217879  1
  Pr  Pr63  1  0.83014624  0.62647051  0.50015848  1
  Pr  Pr64  1  0.16580217  0.62720092  0.49839388  1
  Pr  Pr65  1  0.83500575  0.87506339  0.82629707  1
  Pr  Pr66  1  -0.00474742  0.62469755  0.99913441  1
  Pr  Pr67  1  0.32286637  0.62688283  1.00116793  1
  Pr  Pr68  1  0.66332550  0.62057197  0.99653098  1
  Pr  Pr69  1  0.49109573  0.62398254  0.84147909  1
  Pr  Pr70  1  0.32662191  0.62643708  0.66343765  1
  Pr  Pr71  1  0.00072304  0.87270937  0.33894172  1
  Mn  Mn72  1  0.00086108  0.00026467  0.16584486  1
  Mn  Mn73  1  0.00168478  -0.00032516  0.49800645  1
  Mn  Mn74  1  0.00067949  0.00205315  0.83316643  1
  Mn  Mn75  1  0.00222343  0.50039312  0.16690998  1
  Mn  Mn76  1  -0.00164430  0.50122149  0.50083377  1
  Mn  Mn77  1  -0.00015376  0.49849496  0.83357075  1
  Mn  Mn78  1  0.33262548  0.00078467  0.16767702  1
  Mn  Mn79  1  0.33132840  -0.00141642  0.49958130  1
  Mn  Mn80  1  0.33441802  0.00230364  0.83265720  1
  Mn  Mn81  1  0.33147606  0.49649009  0.16701967  1
  Mn  Mn82  1  0.33110771  0.50072753  0.50059937  1
  Mn  Mn83  1  0.33221587  0.49886568  0.83534157  1
  Mn  Mn84  1  0.66595845  -0.00046602  0.16487667  1
  Mn  Mn85  1  0.66766216  -0.00054038  0.50158322  1
  Mn  Mn86  1  0.66665458  0.00133722  0.83532874  1
  Mn  Mn87  1  0.66598480  0.50104785  0.16578181  1
  Mn  Mn88  1  0.66761782  0.50057948  0.49938276  1
  Mn  Mn89  1  0.66859090  0.49964864  0.82895106  1
  Mn  Mn90  1  0.00269813  0.24909232  0.16578697  1
  Mn  Mn91  1  -0.00071396  0.25186737  0.50043172  1
  Mn  Mn92  1  0.00192997  0.25272917  0.83255788  1
  Mn  Mn93  1  0.00010255  0.75257617  0.16653993  1
  Mn  Mn94  1  0.00101549  0.74823827  0.49834976  1
  Mn  Mn95  1  -0.00169901  0.74859166  0.83377922  1
  Mn  Mn96  1  0.33342179  0.25012376  0.16679335  1
  Mn  Mn97  1  0.33138305  0.25228518  0.49969054  1
  Mn  Mn98  1  0.33278711  0.25202602  0.83478025  1
  Mn  Mn99  1  0.33166561  0.75195706  0.16716550  1
  Mn  Mn100  1  0.33078566  0.74996778  0.50059318  1
  Mn  Mn101  1  0.33400771  0.74709285  0.83218028  1
  Mn  Mn102  1  0.66575470  0.24785333  0.16592469  1
  Mn  Mn103  1  0.66863726  0.25252396  0.50027044  1
  Mn  Mn104  1  0.66828220  0.24863521  0.83465169  1
  Mn  Mn105  1  0.66637180  0.75039699  0.16546358  1
  Mn  Mn106  1  0.66621117  0.74579398  0.50068810  1
  Mn  Mn107  1  0.66641212  0.74795520  0.83095572  1
  Mn  Mn108  1  0.16669592  0.24953523  -0.00204808  1
  Mn  Mn109  1  0.16554685  0.25052581  0.33155232  1
  Mn  Mn110  1  0.16798106  0.25419605  0.66689472  1
  Mn  Mn111  1  0.16332346  0.75052836  0.00086842  1
  Mn  Mn112  1  0.16574531  0.75143800  0.33246580  1
  Mn  Mn113  1  0.16778815  0.74854019  0.66664749  1
  Mn  Mn114  1  0.49792675  0.24879549  0.00253274  1
  Mn  Mn115  1  0.49952676  0.25057427  0.33321542  1
  Mn  Mn116  1  0.49916175  0.25143069  0.66955273  1
  Mn  Mn117  1  0.49852616  0.75034730  -0.00041585  1
  Mn  Mn118  1  0.49849573  0.75011666  0.33432397  1
  Mn  Mn119  1  0.50112683  0.74523726  0.66920642  1
  Mn  Mn120  1  0.83706389  0.24859481  -0.00150288  1
  Mn  Mn121  1  0.83437605  0.25010337  0.33224054  1
  Mn  Mn122  1  0.83765154  0.25334057  0.66498973  1
  Mn  Mn123  1  0.83368939  0.75133274  -0.00016680  1
  Mn  Mn124  1  0.83343272  0.74826832  0.33341383  1
  Mn  Mn125  1  0.83137602  0.74599392  0.66900741  1
  Mn  Mn126  1  0.16432158  0.00175487  0.00126041  1
  Mn  Mn127  1  0.16791765  0.00066261  0.33224109  1
  Mn  Mn128  1  0.16809218  0.00014000  0.66620125  1
  Mn  Mn129  1  0.16566352  0.49915625  -0.00147478  1
  Mn  Mn130  1  0.16299302  0.49884132  0.33136602  1
  Mn  Mn131  1  0.16713093  0.49929837  0.66569538  1
  Mn  Mn132  1  0.49842359  0.00078597  0.00215766  1
  Mn  Mn133  1  0.49839507  0.00011870  0.33446080  1
  Mn  Mn134  1  0.49944942  -0.00108161  0.66885132  1
  Mn  Mn135  1  0.49807208  0.49882925  0.00005915  1
  Mn  Mn136  1  0.49965348  0.49843050  0.33377879  1
  Mn  Mn137  1  0.50031034  0.50172514  0.66889794  1
  Mn  Mn138  1  0.83664024  -0.00093794  -0.00018066  1
  Mn  Mn139  1  0.83588059  0.00243647  0.33236574  1
  Mn  Mn140  1  0.83388335  0.00074263  0.66745917  1
  Mn  Mn141  1  0.83396388  0.50135283  -0.00224008  1
  Mn  Mn142  1  0.83320820  0.49909831  0.33510676  1
  Mn  Mn143  1  0.83460458  0.50007724  0.66584395  1
  O  O144  1  0.16281863  0.12674060  0.02529986  1
  O  O145  1  0.16398345  0.12757305  0.34561903  1
  O  O146  1  0.16773884  0.13457762  0.68835399  1
  O  O147  1  0.16565632  0.61995396  0.02487485  1
  O  O148  1  0.15772763  0.62158597  0.35466551  1
  O  O149  1  0.16723685  0.61981822  0.69108084  1
  O  O150  1  0.48819042  0.12811410  0.02790823  1
  O  O151  1  0.49291004  0.12688307  0.34237462  1
  O  O152  1  0.49201680  0.12896883  0.68945606  1
  O  O153  1  0.51067480  0.62416951  0.00922276  1
  O  O154  1  0.50607244  0.62092520  0.35024006  1
  O  O155  1  0.50852850  0.62146160  0.69743263  1
  O  O156  1  0.84394643  0.12266420  0.02090549  1
  O  O157  1  0.84187319  0.12965140  0.35762272  1
  O  O158  1  0.84099113  0.13199623  0.68990654  1
  O  O159  1  0.83835835  0.62617671  0.01000466  1
  O  O160  1  0.83773200  0.61913754  0.35613022  1
  O  O161  1  0.83155802  0.62039004  0.69539625  1
  O  O162  1  0.15652678  0.37437261  0.30712278  1
  O  O163  1  0.16566860  0.37853696  0.63943467  1
  O  O164  1  0.16442078  0.37564026  0.97068277  1
  O  O165  1  0.16035464  0.87812436  0.30617950  1
  O  O166  1  0.17015046  0.86894818  0.65352943  1
  O  O167  1  0.16394152  0.87917920  0.98713408  1
  O  O168  1  0.50599119  0.37387775  0.31388001  1
  O  O169  1  0.49784231  0.37793793  0.65737063  1
  O  O170  1  0.49258131  0.37293789  0.97196190  1
  O  O171  1  0.49569014  0.87769397  0.31706965  1
  O  O172  1  0.49985353  0.86912289  0.66136791  1
  O  O173  1  0.49805477  0.87324903  0.97068939  1
  O  O174  1  0.83725587  0.37340848  0.31841455  1
  O  O175  1  0.84229945  0.37897938  0.63782724  1
  O  O176  1  0.84201604  0.37564219  0.97640830  1
  O  O177  1  0.84302431  0.87837704  0.31147684  1
  O  O178  1  0.82839065  0.86934236  0.65875612  1
  O  O179  1  0.83608436  0.87588801  0.97151939  1
  O  O180  1  0.00716048  0.37121296  0.19046271  1
  O  O181  1  -0.00227456  0.37870216  0.52594998  1
  O  O182  1  0.00271012  0.37587035  0.86248739  1
  O  O183  1  0.00181404  0.87763923  0.19452047  1
  O  O184  1  0.00317744  0.87110272  0.50899044  1
  O  O185  1  -0.00781250  0.87201497  0.84791923  1
  O  O186  1  0.32119793  0.37149162  0.18555670  1
  O  O187  1  0.32442371  0.37876083  0.52270898  1
  O  O188  1  0.32428039  0.37570496  0.86379623  1
  O  O189  1  0.32155275  0.87994617  0.18431222  1
  O  O190  1  0.32954437  0.87035805  0.51699955  1
  O  O191  1  0.34132009  0.87232446  0.84149339  1
  O  O192  1  0.66262302  0.37296538  0.18546966  1
  O  O193  1  0.67523941  0.37969947  0.52621569  1
  O  O194  1  0.66671381  0.37362310  0.84561309  1
  O  O195  1  0.67212086  0.87603917  0.17664848  1
  O  O196  1  0.66723201  0.86619653  0.52467994  1
  O  O197  1  0.66513027  0.87445315  0.84415072  1
  O  O198  1  0.00100639  0.12522234  0.13881453  1
  O  O199  1  -0.00498723  0.12901358  0.47881814  1
  O  O200  1  0.00022445  0.13394956  0.80549347  1
  O  O201  1  0.00823565  0.62810019  0.14166745  1
  O  O202  1  0.00455238  0.62190190  0.47357339  1
  O  O203  1  0.00024458  0.61934461  0.80885955  1
  O  O204  1  0.33606507  0.12772021  0.14037044  1
  O  O205  1  0.33200575  0.12860345  0.48345038  1
  O  O206  1  0.33454564  0.13304015  0.80617925  1
  O  O207  1  0.32578084  0.62043685  0.14564279  1
  O  O208  1  0.33258212  0.62331350  0.48966500  1
  O  O209  1  0.33761038  0.61893125  0.80797767  1
  O  O210  1  0.65888819  0.12378101  0.14468949  1
  O  O211  1  0.67557016  0.13115358  0.49366793  1
  O  O212  1  0.66969292  0.12677448  0.82182206  1
  O  O213  1  0.66427211  0.62752102  0.14245670  1
  O  O214  1  0.67543860  0.62004268  0.47450597  1
  O  O215  1  0.67462292  0.62223789  0.80477402  1
  O  O216  1  0.08570147  0.02274280  0.24467277  1
  O  O217  1  0.08085214  0.01323498  0.58607391  1
  O  O218  1  0.08379852  0.02528930  0.91640116  1
  O  O219  1  0.08053631  0.52387250  0.25031671  1
  O  O220  1  0.07994374  0.52265304  0.58369634  1
  O  O221  1  0.07884476  0.52369694  0.91984788  1
  O  O222  1  0.41418692  0.02031387  0.24840707  1
  O  O223  1  0.41277175  0.01178245  0.59196399  1
  O  O224  1  0.41411035  0.02530209  0.91915387  1
  O  O225  1  0.41436395  0.49906793  0.25001615  1
  O  O226  1  0.41248687  0.51914926  0.59513634  1
  O  O227  1  0.40709933  0.52178860  0.92490957  1
  O  O228  1  0.75865573  0.01487337  0.24301862  1
  O  O229  1  0.75659560  0.01197918  0.58316576  1
  O  O230  1  0.75382560  0.02163342  0.91747529  1
  O  O231  1  0.74441408  0.51141364  0.25959769  1
  O  O232  1  0.74931697  0.52374614  0.58336043  1
  O  O233  1  0.74816901  0.51932293  0.91143807  1
  O  O234  1  0.25172524  0.22810071  0.24612119  1
  O  O235  1  0.25435471  0.23907415  0.59164575  1
  O  O236  1  0.24773232  0.22465720  0.91360960  1
  O  O237  1  0.24070348  0.73689368  0.24314385  1
  O  O238  1  0.24572416  0.72619635  0.58135334  1
  O  O239  1  0.24534361  0.72646511  0.91232526  1
  O  O240  1  0.57792461  0.23841898  0.24423812  1
  O  O241  1  0.58819803  0.25002522  0.58924123  1
  O  O242  1  0.58028735  0.22636875  0.92337823  1
  O  O243  1  0.58539247  0.73957708  0.25199222  1
  O  O244  1  0.57987939  0.72005236  0.58139171  1
  O  O245  1  0.58045675  0.72810755  0.90637603  1
  O  O246  1  0.92067063  0.22816775  0.24756156  1
  O  O247  1  0.91987485  0.22937887  0.58475369  1
  O  O248  1  0.91832107  0.22916711  0.91122945  1
  O  O249  1  0.92166070  0.73594568  0.25237449  1
  O  O250  1  0.91456501  0.72482074  0.58474867  1
  O  O251  1  0.91665987  0.72823005  0.91575498  1
  O  O252  1  0.09054927  0.47454978  0.08352654  1
  O  O253  1  0.07888098  0.47538667  0.41657641  1
  O  O254  1  0.08702417  0.47857020  0.75342429  1
  O  O255  1  0.08140314  0.98236413  0.08482097  1
  O  O256  1  0.08072965  0.98703498  0.40812213  1
  O  O257  1  0.08389272  0.99954291  0.75111870  1
  O  O258  1  0.41514431  0.47705613  0.08763759  1
  O  O259  1  0.41876683  0.49359027  0.42067880  1
  O  O260  1  0.42111192  0.47769803  0.76421074  1
  O  O261  1  0.41895607  0.98142148  0.09065575  1
  O  O262  1  0.41026616  0.99454126  0.41216341  1
  O  O263  1  0.42420226  0.98931817  0.75871971  1
  O  O264  1  0.74811316  0.49577117  0.07860654  1
  O  O265  1  0.75283957  0.47632311  0.41984027  1
  O  O266  1  0.75405711  0.47242760  0.74761288  1
  O  O267  1  0.75370477  0.99657555  0.08232115  1
  O  O268  1  0.75588053  0.99680127  0.41809344  1
  O  O269  1  0.74953213  0.98392049  0.75115484  1
  O  O270  1  0.25105533  0.26763818  0.07946911  1
  O  O271  1  0.24342226  0.27144443  0.41799252  1
  O  O272  1  0.25182623  0.27818645  0.75074417  1
  O  O273  1  0.24703526  0.75714989  0.08349405  1
  O  O274  1  0.24466474  0.75884523  0.41646665  1
  O  O275  1  0.25878837  0.75209761  0.74445456  1
  O  O276  1  0.57639671  0.26452455  0.08706262  1
  O  O277  1  0.58849937  0.26572615  0.41239972  1
  O  O278  1  0.58142538  0.26666782  0.75361796  1
  O  O279  1  0.57804412  0.76747846  0.08472443  1
  O  O280  1  0.58412265  0.74929007  0.41911283  1
  O  O281  1  0.59253094  0.76730560  0.74186007  1
  O  O282  1  0.92685582  0.26469452  0.07522775  1
  O  O283  1  0.91687794  0.27323583  0.41870584  1
  O  O284  1  0.91966148  0.27905420  0.75096848  1
  O  O285  1  0.91940521  0.76994558  0.08563281  1
  O  O286  1  0.92230080  0.75758538  0.41215106  1
  O  O287  1  0.91093221  0.75648855  0.75641085  1
  O  O288  1  0.25250169  0.47822653  0.07417560  1
  O  O289  1  0.24184818  0.48285092  0.41559472  1
  O  O290  1  0.25615799  0.47657629  0.74682982  1
  O  O291  1  0.24281742  0.99350534  0.09009296  1
  O  O292  1  0.24743282  0.98684947  0.41388918  1
  O  O293  1  0.25377459  0.99858923  0.74971407  1
  O  O294  1  0.57787239  0.48263669  0.08390682  1
  O  O295  1  0.59310360  0.48535645  0.41088576  1
  O  O296  1  0.59141785  0.47836061  0.74284495  1
  O  O297  1  0.57752567  0.98758217  0.08518354  1
  O  O298  1  0.58324710  0.99470718  0.41882917  1
  O  O299  1  0.58187034  0.98446679  0.75400552  1
  O  O300  1  0.92859955  0.48855931  0.07685092  1
  O  O301  1  0.91494980  0.47893418  0.42213576  1
  O  O302  1  0.92032087  0.47491791  0.75101773  1
  O  O303  1  0.91379970  0.97842078  0.08786572  1
  O  O304  1  0.92335418  0.98910407  0.40873413  1
  O  O305  1  0.90967398  0.99065959  0.75685878  1
  O  O306  1  0.08651575  0.27345585  0.08218235  1
  O  O307  1  0.07823583  0.27365865  0.41705121  1
  O  O308  1  0.08697468  0.27763341  0.75323091  1
  O  O309  1  0.08577025  0.76942558  0.08978289  1
  O  O310  1  0.08265121  0.76515296  0.41150242  1
  O  O311  1  0.08337742  0.75017938  0.75134569  1
  O  O312  1  0.41667708  0.27684745  0.08604894  1
  O  O313  1  0.41054603  0.26058739  0.41199949  1
  O  O314  1  0.41749107  0.27716799  0.75919310  1
  O  O315  1  0.41573796  0.76329150  0.08801690  1
  O  O316  1  0.41714413  0.75177359  0.42209916  1
  O  O317  1  0.43023822  0.75489200  0.76353895  1
  O  O318  1  0.75014244  0.24739025  0.08047350  1
  O  O319  1  0.74854868  0.27256508  0.41352071  1
  O  O320  1  0.75538156  0.27391791  0.74476382  1
  O  O321  1  0.75635834  0.76474167  0.08677016  1
  O  O322  1  0.75377130  0.75304685  0.42100253  1
  O  O323  1  0.75199488  0.76803000  0.75441781  1
  O  O324  1  0.25247504  0.02579789  0.25099550  1
  O  O325  1  0.25278578  0.01377247  0.58815346  1
  O  O326  1  0.24974591  0.02419074  0.91703678  1
  O  O327  1  0.23826555  0.51138446  0.23844804  1
  O  O328  1  0.24412798  0.52276918  0.58129060  1
  O  O329  1  0.24296157  0.52512477  0.91089671  1
  O  O330  1  0.57630912  0.00855113  0.24418820  1
  O  O331  1  0.58647780  0.00156496  0.59163282  1
  O  O332  1  0.58271867  0.02470629  0.92015242  1
  O  O333  1  0.58572934  0.51032262  0.25251666  1
  O  O334  1  0.58177766  0.52356485  0.57656832  1
  O  O335  1  0.58118825  0.51552607  0.90598601  1
  O  O336  1  0.91941048  0.02628763  0.24750071  1
  O  O337  1  0.91710725  0.01980248  0.58320884  1
  O  O338  1  0.92088386  0.02314225  0.91819594  1
  O  O339  1  0.92217770  0.51142188  0.26000750  1
  O  O340  1  0.91693752  0.52876903  0.58472512  1
  O  O341  1  0.91499974  0.52031487  0.91080504  1
  O  O342  1  0.08431545  0.22695550  0.24559593  1
  O  O343  1  0.07865441  0.24105259  0.58961530  1
  O  O344  1  0.08260007  0.22678062  0.91517214  1
  O  O345  1  0.08114632  0.72954394  0.25068549  1
  O  O346  1  0.08256884  0.72503473  0.58201543  1
  O  O347  1  0.07871726  0.72622871  0.91937332  1
  O  O348  1  0.41460879  0.23251394  0.24645684  1
  O  O349  1  0.41133305  0.24227414  0.59434134  1
  O  O350  1  0.41215459  0.22764771  0.92025431  1
  O  O351  1  0.41380420  0.74880351  0.24937057  1
  O  O352  1  0.41498642  0.72513236  0.59237349  1
  O  O353  1  0.40899231  0.72348757  0.92249099  1
  O  O354  1  0.75540671  0.23243274  0.24326395  1
  O  O355  1  0.76292488  0.24202096  0.57582464  1
  O  O356  1  0.75484811  0.23051878  0.91564297  1
  O  O357  1  0.74714130  0.73477975  0.25559581  1
  O  O358  1  0.74712538  0.72263965  0.58794198  1
  O  O359  1  0.74467996  0.72663034  0.91659449  1
