# generated using pymatgen
data_Ba17Sr5La8Pr42Mn72O216
_symmetry_space_group_name_H-M   'P 1'
_cell_length_a   16.67400769
_cell_length_b   15.70535634
_cell_length_c   16.82225229
_cell_angle_alpha   89.99516316
_cell_angle_beta   90.00670924
_cell_angle_gamma   89.99823877
_symmetry_Int_Tables_number   1
_chemical_formula_structural   Ba17Sr5La8Pr42Mn72O216
_chemical_formula_sum   'Ba17 Sr5 La8 Pr42 Mn72 O216'
_cell_volume   4405.26388941
_cell_formula_units_Z   1
loop_
 _symmetry_equiv_pos_site_id
 _symmetry_equiv_pos_as_xyz
  1  'x, y, z'
loop_
 _atom_site_type_symbol
 _atom_site_label
 _atom_site_symmetry_multiplicity
 _atom_site_fract_x
 _atom_site_fract_y
 _atom_site_fract_z
 _atom_site_occupancy
  Ba  Ba0  1  0.33167874  0.12679379  0.33539533  1
  Ba  Ba1  1  0.16885709  0.87529012  0.49833583  1
  Ba  Ba2  1  0.33252892  0.37567662  0.00289917  1
  Ba  Ba3  1  0.66395259  0.62455531  0.66686187  1
  Ba  Ba4  1  0.66788757  0.37548636  0.66652326  1
  Ba  Ba5  1  0.83232958  0.37406798  0.83250337  1
  Ba  Ba6  1  0.83552435  0.12300241  0.50025443  1
  Ba  Ba7  1  0.50055100  0.87636640  0.16683748  1
  Ba  Ba8  1  0.49987277  0.62684557  0.83265899  1
  Ba  Ba9  1  0.16779929  0.37679381  0.83310263  1
  Ba  Ba10  1  0.83360451  0.37275455  0.49893623  1
  Ba  Ba11  1  0.00184342  0.12460419  0.66449616  1
  Ba  Ba12  1  0.00041900  0.62512147  0.33002451  1
  Ba  Ba13  1  0.49804673  0.62469266  0.50228768  1
  Ba  Ba14  1  0.16447026  0.62605770  0.83507563  1
  Ba  Ba15  1  0.66553834  0.62575613  0.33229834  1
  Ba  Ba16  1  0.49992576  0.37513463  0.16640843  1
  Sr  Sr17  1  0.83526283  0.87598022  0.49851585  1
  Sr  Sr18  1  0.49795327  0.62438255  0.17103748  1
  Sr  Sr19  1  0.33149563  0.12574327  0.66594839  1
  Sr  Sr20  1  0.83057246  0.62610623  0.17034047  1
  Sr  Sr21  1  0.33590860  0.37302947  0.33399605  1
  La  La22  1  0.83084984  0.62635481  0.50109791  1
  La  La23  1  0.67091636  0.87224656  0.66481163  1
  La  La24  1  0.33133886  0.87033226  0.00360852  1
  La  La25  1  0.83289365  0.12737502  0.83177152  1
  La  La26  1  0.83661702  0.87053960  0.16807908  1
  La  La27  1  0.50307042  0.87606380  0.49752076  1
  La  La28  1  0.83483776  0.37969409  0.16430263  1
  La  La29  1  0.00032775  0.87794048  0.66325730  1
  Pr  Pr30  1  0.50119663  0.37579800  0.83305029  1
  Pr  Pr31  1  0.83503783  0.87586383  0.82862009  1
  Pr  Pr32  1  0.00049894  0.87256964  0.33788067  1
  Pr  Pr33  1  0.50493351  0.37594445  0.49701342  1
  Pr  Pr34  1  0.16551831  0.87658591  0.16862503  1
  Pr  Pr35  1  0.16757566  0.62234079  0.16794726  1
  Pr  Pr36  1  0.66623042  0.37886940  0.33619315  1
  Pr  Pr37  1  0.16425882  0.62547969  0.50333428  1
  Pr  Pr38  1  -0.00595691  0.62555155  0.99612930  1
  Pr  Pr39  1  0.16899358  0.12533680  0.83627227  1
  Pr  Pr40  1  0.49649128  0.12754417  0.50364067  1
  Pr  Pr41  1  0.33811853  0.12593491  1.00074360  1
  Pr  Pr42  1  0.66669287  0.12699729  0.66099951  1
  Pr  Pr43  1  0.33209026  0.62593799  0.33315789  1
  Pr  Pr44  1  0.16708855  0.87557883  0.82708975  1
  Pr  Pr45  1  0.16713299  0.37456181  0.16329984  1
  Pr  Pr46  1  0.83346302  0.12131393  0.16887933  1
  Pr  Pr47  1  -0.00134357  0.12222816  0.33340204  1
  Pr  Pr48  1  0.16575799  0.12863664  0.16860008  1
  Pr  Pr49  1  0.33667792  0.37478020  0.67329256  1
  Pr  Pr50  1  0.67066981  0.87191806  0.33548683  1
  Pr  Pr51  1  0.33634704  0.87534535  0.66988055  1
  Pr  Pr52  1  0.00016426  0.12465319  0.99321904  1
  Pr  Pr53  1  0.00272287  0.37540451  0.00064787  1
  Pr  Pr54  1  0.33829482  0.62350621  1.00116117  1
  Pr  Pr55  1  0.82473052  0.62407639  0.83629598  1
  Pr  Pr56  1  -0.00083299  0.62091659  0.66286691  1
  Pr  Pr57  1  0.17029419  0.12478041  0.50397824  1
  Pr  Pr58  1  0.33941915  0.87659007  0.33927059  1
  Pr  Pr59  1  0.65780815  0.62604683  1.00010838  1
  Pr  Pr60  1  -0.00308168  0.37123046  0.66896068  1
  Pr  Pr61  1  0.66787384  0.12545946  0.33023595  1
  Pr  Pr62  1  0.66796828  0.37790926  0.00281903  1
  Pr  Pr63  1  0.00113563  0.37621822  0.33412581  1
  Pr  Pr64  1  0.67326106  0.87142024  0.00231021  1
  Pr  Pr65  1  0.66158097  0.12193649  0.99639731  1
  Pr  Pr66  1  0.50290443  0.87517470  0.83297897  1
  Pr  Pr67  1  0.32813854  0.62254692  0.66457254  1
  Pr  Pr68  1  0.49460473  0.12689857  0.17081393  1
  Pr  Pr69  1  0.00219586  0.87564657  -0.00046075  1
  Pr  Pr70  1  0.49917647  0.12598070  0.83307755  1
  Pr  Pr71  1  0.16772513  0.37263370  0.49979392  1
  Mn  Mn72  1  0.00071850  -0.00025330  0.16474832  1
  Mn  Mn73  1  0.00189103  -0.00116950  0.49796360  1
  Mn  Mn74  1  0.00031707  -0.00019169  0.83334588  1
  Mn  Mn75  1  0.00050573  0.49972320  0.16515968  1
  Mn  Mn76  1  0.00094144  0.49954455  0.49880971  1
  Mn  Mn77  1  -0.00208674  0.50140589  0.83192920  1
  Mn  Mn78  1  0.33028973  -0.00071231  0.16710300  1
  Mn  Mn79  1  0.33482849  0.00147527  0.50320816  1
  Mn  Mn80  1  0.33396504  0.00129812  0.83597179  1
  Mn  Mn81  1  0.33175981  0.50146340  0.16938029  1
  Mn  Mn82  1  0.33145178  0.49660810  0.50049593  1
  Mn  Mn83  1  0.33438100  0.50092690  0.83440025  1
  Mn  Mn84  1  0.66863838  0.00041804  0.16418413  1
  Mn  Mn85  1  0.66598765  0.00041243  0.49824146  1
  Mn  Mn86  1  0.66660613  -0.00037982  0.83118861  1
  Mn  Mn87  1  0.66708298  0.50006505  0.16752432  1
  Mn  Mn88  1  0.66731910  0.49997467  0.49953438  1
  Mn  Mn89  1  0.66545420  0.50048792  0.83596847  1
  Mn  Mn90  1  -0.00135878  0.24790328  0.16548536  1
  Mn  Mn91  1  0.00309877  0.25133414  0.49818684  1
  Mn  Mn92  1  0.00074404  0.24890813  0.83289263  1
  Mn  Mn93  1  0.00215396  0.75204601  0.16445067  1
  Mn  Mn94  1  -0.00002605  0.74872280  0.49926954  1
  Mn  Mn95  1  -0.00258282  0.75130201  0.83178412  1
  Mn  Mn96  1  0.33132558  0.24963905  0.16741989  1
  Mn  Mn97  1  0.33327303  0.25101489  0.50368745  1
  Mn  Mn98  1  0.33426291  0.24779232  0.83355904  1
  Mn  Mn99  1  0.33025405  0.75106121  0.16971101  1
  Mn  Mn100  1  0.33320304  0.75035630  0.50116779  1
  Mn  Mn101  1  0.33328978  0.75113246  0.83625908  1
  Mn  Mn102  1  0.66949884  0.24753423  0.16458463  1
  Mn  Mn103  1  0.66604341  0.24824646  0.49686508  1
  Mn  Mn104  1  0.66505592  0.24602740  0.83317829  1
  Mn  Mn105  1  0.66729637  0.75154843  0.16708584  1
  Mn  Mn106  1  0.66791396  0.75223822  0.50057587  1
  Mn  Mn107  1  0.66717823  0.75301062  0.83591195  1
  Mn  Mn108  1  0.16593899  0.24793707  0.00156043  1
  Mn  Mn109  1  0.16482919  0.25090624  0.33360209  1
  Mn  Mn110  1  0.16879582  0.24985803  0.66644094  1
  Mn  Mn111  1  0.16396970  0.75170998  0.00128464  1
  Mn  Mn112  1  0.16822900  0.74911145  0.33226290  1
  Mn  Mn113  1  0.16621163  0.75088721  0.66680047  1
  Mn  Mn114  1  0.50217275  0.24721720  0.00027261  1
  Mn  Mn115  1  0.50098758  0.24920298  0.33426514  1
  Mn  Mn116  1  0.49920901  0.24872910  0.66761181  1
  Mn  Mn117  1  0.49933852  0.75262079  0.00152282  1
  Mn  Mn118  1  0.49949610  0.75079833  0.33316548  1
  Mn  Mn119  1  0.49764054  0.75338950  0.66671775  1
  Mn  Mn120  1  0.83330674  0.24892620  0.00157587  1
  Mn  Mn121  1  0.83406079  0.24752032  0.32867736  1
  Mn  Mn122  1  0.83371613  0.24856763  0.66622493  1
  Mn  Mn123  1  0.83404176  0.75019556  0.00008252  1
  Mn  Mn124  1  0.83420858  0.75079655  0.33330153  1
  Mn  Mn125  1  0.83565137  0.75070157  0.66677696  1
  Mn  Mn126  1  0.16681272  -0.00090993  0.00000243  1
  Mn  Mn127  1  0.16599266  0.00159636  0.33189031  1
  Mn  Mn128  1  0.16878499  -0.00019882  0.66722849  1
  Mn  Mn129  1  0.16384982  0.50167155  0.00265066  1
  Mn  Mn130  1  0.16875645  0.49773860  0.33414205  1
  Mn  Mn131  1  0.16647613  0.49976810  0.66486656  1
  Mn  Mn132  1  0.49976234  -0.00057260  -0.00052977  1
  Mn  Mn133  1  0.50175367  0.00147380  0.33335062  1
  Mn  Mn134  1  0.50035119  -0.00008147  0.66673133  1
  Mn  Mn135  1  0.50012287  0.50080099  0.00176115  1
  Mn  Mn136  1  0.49829118  0.49949560  0.33335468  1
  Mn  Mn137  1  0.49741636  0.49838827  0.66657546  1
  Mn  Mn138  1  0.83401943  0.00004654  -0.00020030  1
  Mn  Mn139  1  0.83386480  -0.00001598  0.33229686  1
  Mn  Mn140  1  0.83267843  -0.00216220  0.66574581  1
  Mn  Mn141  1  0.83280600  0.50135681  0.00071748  1
  Mn  Mn142  1  0.83405766  0.49907208  0.33093931  1
  Mn  Mn143  1  0.83503198  0.50160460  0.66742787  1
  O  O144  1  0.15835743  0.12068640  0.02584991  1
  O  O145  1  0.15815318  0.12692802  0.35992746  1
  O  O146  1  0.16873384  0.12221489  0.69219212  1
  O  O147  1  0.15438475  0.62780173  0.02482703  1
  O  O148  1  0.17373351  0.61897737  0.36071693  1
  O  O149  1  0.16760986  0.62768581  0.67885174  1
  O  O150  1  0.50654852  0.12104169  0.02587585  1
  O  O151  1  0.50830036  0.12454392  0.35745313  1
  O  O152  1  0.50948611  0.12175240  0.69168733  1
  O  O153  1  0.50610996  0.63042661  0.01722827  1
  O  O154  1  0.49046788  0.62610333  0.34488938  1
  O  O155  1  0.49165772  0.62586669  0.67656065  1
  O  O156  1  0.83833322  0.12413876  0.02708863  1
  O  O157  1  0.83616350  0.12270801  0.34547481  1
  O  O158  1  0.82777029  0.11916456  0.68503359  1
  O  O159  1  0.84118210  0.62778327  0.02275033  1
  O  O160  1  0.83439201  0.62939669  0.35416790  1
  O  O161  1  0.84355106  0.62914990  0.69109330  1
  O  O162  1  0.15970991  0.37405995  0.30601063  1
  O  O163  1  0.17104996  0.37654963  0.64451119  1
  O  O164  1  0.16111304  0.37450796  0.98964815  1
  O  O165  1  0.16533856  0.87895239  0.31092958  1
  O  O166  1  0.17009968  0.87425482  0.65510846  1
  O  O167  1  0.16690861  0.87738704  0.97026616  1
  O  O168  1  0.50597757  0.37207674  0.32269373  1
  O  O169  1  0.49027365  0.37122086  0.64399060  1
  O  O170  1  0.50642057  0.36889979  0.97882741  1
  O  O171  1  0.49402376  0.87748181  0.32280254  1
  O  O172  1  0.49072956  0.87958450  0.64230329  1
  O  O173  1  0.49036001  0.87854836  0.97794065  1
  O  O174  1  0.83537999  0.36801472  0.30866728  1
  O  O175  1  0.84022580  0.37654489  0.65822073  1
  O  O176  1  0.83029241  0.37441634  0.98618270  1
  O  O177  1  0.83485348  0.87807259  0.31213032  1
  O  O178  1  0.82919416  0.87420717  0.64972461  1
  O  O179  1  0.83050056  0.87568854  0.97108777  1
  O  O180  1  0.00108553  0.36814717  0.19148728  1
  O  O181  1  0.00829652  0.37783953  0.52477967  1
  O  O182  1  -0.00102631  0.37089597  0.85616995  1
  O  O183  1  0.00503086  0.87891538  0.19432037  1
  O  O184  1  -0.00000929  0.87081373  0.51838654  1
  O  O185  1  -0.00186600  0.87675877  0.85769547  1
  O  O186  1  0.32347022  0.37635314  0.18066114  1
  O  O187  1  0.32684470  0.37273659  0.52979500  1
  O  O188  1  0.33935351  0.37186893  0.84672811  1
  O  O189  1  0.32366679  0.87601445  0.19518600  1
  O  O190  1  0.33881482  0.87828883  0.52466118  1
  O  O191  1  0.33061111  0.87855852  0.86159769  1
  O  O192  1  0.67211812  0.36795892  0.19066699  1
  O  O193  1  0.66146074  0.37133533  0.50716101  1
  O  O194  1  0.66188788  0.37006272  0.85853753  1
  O  O195  1  0.67195055  0.87962265  0.19032319  1
  O  O196  1  0.66442737  0.87846990  0.52010315  1
  O  O197  1  0.67509806  0.87849095  0.85946372  1
  O  O198  1  -0.00222203  0.12263783  0.13501838  1
  O  O199  1  0.00952765  0.12731575  0.47808165  1
  O  O200  1  0.00449095  0.12265020  0.82120448  1
  O  O201  1  0.00622213  0.63010984  0.13961155  1
  O  O202  1  0.00348602  0.62431078  0.48613894  1
  O  O203  1  -0.00757712  0.63186482  0.80753536  1
  O  O204  1  0.32920737  0.12152193  0.14616554  1
  O  O205  1  0.33194990  0.12613837  0.48931576  1
  O  O206  1  0.33378045  0.12284229  0.81348852  1
  O  O207  1  0.32597586  0.62897707  0.14541933  1
  O  O208  1  0.32791466  0.62155667  0.47713055  1
  O  O209  1  0.33366675  0.62880337  0.81022447  1
  O  O210  1  0.67670597  0.12287998  0.13691198  1
  O  O211  1  0.65842097  0.12325508  0.47560028  1
  O  O212  1  0.65715258  0.11884830  0.80422232  1
  O  O213  1  0.66943087  0.62830636  0.14438108  1
  O  O214  1  0.67360570  0.62833916  0.49137376  1
  O  O215  1  0.66932684  0.63079816  0.82607885  1
  O  O216  1  0.08114408  0.02625899  0.24543416  1
  O  O217  1  0.08998237  0.01282376  0.57715017  1
  O  O218  1  0.08576816  0.01897472  0.91633141  1
  O  O219  1  0.09070150  0.51377012  0.24384633  1
  O  O220  1  0.08319401  0.51995502  0.58183216  1
  O  O221  1  0.07081205  0.51451279  0.92375818  1
  O  O222  1  0.41972025  0.01651301  0.24717673  1
  O  O223  1  0.41966871  0.02209103  0.58560856  1
  O  O224  1  0.41693047  0.02572362  0.91725539  1
  O  O225  1  0.40984896  0.51349308  0.25616101  1
  O  O226  1  0.40227859  0.51060907  0.59456193  1
  O  O227  1  0.41436512  0.51512666  0.92293934  1
  O  O228  1  0.74946855  0.02025187  0.24883579  1
  O  O229  1  0.73995557  0.01325229  0.58876956  1
  O  O230  1  0.74676781  0.02693066  0.91404669  1
  O  O231  1  0.75144597  0.50615281  0.24677534  1
  O  O232  1  0.75687918  0.51364463  0.58057456  1
  O  O233  1  0.74569081  0.52111503  0.92552771  1
  O  O234  1  0.24053294  0.23631143  0.24731198  1
  O  O235  1  0.24892964  0.23050951  0.58377336  1
  O  O236  1  0.25083186  0.22527114  0.91894483  1
  O  O237  1  0.24715435  0.72474493  0.24964748  1
  O  O238  1  0.24662290  0.72977560  0.57765594  1
  O  O239  1  0.25142024  0.73454219  0.92721426  1
  O  O240  1  0.58688532  0.22288116  0.24445181  1
  O  O241  1  0.58031769  0.22915447  0.58300143  1
  O  O242  1  0.58207345  0.22149498  0.91478496  1
  O  O243  1  0.57960533  0.74378575  0.24687286  1
  O  O244  1  0.58103753  0.75222054  0.58235016  1
  O  O245  1  0.58343763  0.74967356  0.91709793  1
  O  O246  1  0.91532716  0.22377924  0.24327919  1
  O  O247  1  0.92271275  0.24531274  0.58184437  1
  O  O248  1  0.91625611  0.22743779  0.91867357  1
  O  O249  1  0.91604892  0.74442628  0.24144458  1
  O  O250  1  0.91733877  0.72959342  0.58299161  1
  O  O251  1  0.90819775  0.73195243  0.90908614  1
  O  O252  1  0.08098974  0.47629525  0.08431082  1
  O  O253  1  0.08653174  0.47713551  0.41664348  1
  O  O254  1  0.08197257  0.48792258  0.74226420  1
  O  O255  1  0.08355371  0.97507556  0.08159045  1
  O  O256  1  0.07796300  0.98403237  0.40549048  1
  O  O257  1  0.08329031  0.97782485  0.75045085  1
  O  O258  1  0.41507268  0.49989344  0.08499414  1
  O  O259  1  0.41832422  0.47746177  0.42654009  1
  O  O260  1  0.42063383  0.47810708  0.75320149  1
  O  O261  1  0.40838751  0.98956709  0.07899519  1
  O  O262  1  0.41882143  0.98533973  0.42301520  1
  O  O263  1  0.41873196  0.97846600  0.75472483  1
  O  O264  1  0.75265951  0.48061681  0.08515399  1
  O  O265  1  0.74830699  0.48579628  0.41069780  1
  O  O266  1  0.75338251  0.49972440  0.75631865  1
  O  O267  1  0.75467019  0.97640879  0.08396302  1
  O  O268  1  0.74752122  0.98372973  0.41229505  1
  O  O269  1  0.75173293  0.97887546  0.75262478  1
  O  O270  1  0.24260276  0.25688309  0.08698127  1
  O  O271  1  0.24680939  0.26656308  0.42213828  1
  O  O272  1  0.25399080  0.26220189  0.74730930  1
  O  O273  1  0.24585863  0.77269798  0.08947580  1
  O  O274  1  0.26233509  0.76578562  0.40811495  1
  O  O275  1  0.25412218  0.77179731  0.75121786  1
  O  O276  1  0.59394835  0.26208519  0.07483831  1
  O  O277  1  0.58378816  0.26715863  0.41530810  1
  O  O278  1  0.57668517  0.26635018  0.75649816  1
  O  O279  1  0.59314693  0.76752352  0.07540396  1
  O  O280  1  0.58618499  0.77023569  0.41332440  1
  O  O281  1  0.58499265  0.77526764  0.74966911  1
  O  O282  1  0.92003944  0.27331240  0.08248334  1
  O  O283  1  0.92555711  0.26134741  0.40531499  1
  O  O284  1  0.91877730  0.25658579  0.75018784  1
  O  O285  1  0.92229384  0.77484817  0.07568583  1
  O  O286  1  0.91889995  0.76817714  0.41430771  1
  O  O287  1  0.92072172  0.77969832  0.74608083  1
  O  O288  1  0.23987158  0.49314767  0.09434189  1
  O  O289  1  0.24987520  0.47304143  0.41705894  1
  O  O290  1  0.25817534  0.48980080  0.74006380  1
  O  O291  1  0.24678147  0.97550342  0.08120477  1
  O  O292  1  0.25501328  0.98663189  0.41065375  1
  O  O293  1  0.25078517  0.97937169  0.75547000  1
  O  O294  1  0.59188309  0.48641455  0.07714496  1
  O  O295  1  0.58350617  0.48462225  0.41432376  1
  O  O296  1  0.57940800  0.48389601  0.75536617  1
  O  O297  1  0.59356548  0.98275030  0.07151690  1
  O  O298  1  0.58782968  0.97780888  0.41260644  1
  O  O299  1  0.58596220  0.96974262  0.74715778  1
  O  O300  1  0.92130664  0.48047970  0.07560814  1
  O  O301  1  0.92308444  0.48280089  0.41086923  1
  O  O302  1  0.92572348  0.48652906  0.74187416  1
  O  O303  1  0.92033240  0.97336813  0.08445100  1
  O  O304  1  0.92072657  0.98512325  0.40986402  1
  O  O305  1  0.91584103  0.98121561  0.75309889  1
  O  O306  1  0.08110585  0.26851812  0.08502352  1
  O  O307  1  0.08336175  0.27752428  0.41411151  1
  O  O308  1  0.08109207  0.26688768  0.74239306  1
  O  O309  1  0.08383879  0.78101062  0.08219908  1
  O  O310  1  0.08322321  0.76267093  0.41077345  1
  O  O311  1  0.08390493  0.77235944  0.75454253  1
  O  O312  1  0.41816225  0.24896802  0.08139597  1
  O  O313  1  0.41980968  0.26471183  0.42687504  1
  O  O314  1  0.41898680  0.26597287  0.75240187  1
  O  O315  1  0.40966682  0.76270822  0.08363888  1
  O  O316  1  0.42038231  0.77074436  0.42488583  1
  O  O317  1  0.41909722  0.77808591  0.75620960  1
  O  O318  1  0.75262600  0.27167150  0.08512744  1
  O  O319  1  0.74413179  0.25880143  0.40325765  1
  O  O320  1  0.74696634  0.24818570  0.75282053  1
  O  O321  1  0.75613687  0.77373626  0.08524632  1
  O  O322  1  0.74967080  0.77006013  0.41670128  1
  O  O323  1  0.75510804  0.76747978  0.75719665  1
  O  O324  1  0.24005781  0.01839673  0.24214156  1
  O  O325  1  0.25105114  0.01632738  0.58417816  1
  O  O326  1  0.24980344  0.02647854  0.92026043  1
  O  O327  1  0.25141197  0.52282838  0.25400354  1
  O  O328  1  0.24368193  0.52176448  0.57686762  1
  O  O329  1  0.25086147  0.51840265  0.92638601  1
  O  O330  1  0.58555702  0.02479192  0.24285188  1
  O  O331  1  0.58013412  0.02005699  0.57935152  1
  O  O332  1  0.57950821  0.01742357  0.90884314  1
  O  O333  1  0.58198121  0.50840066  0.24589376  1
  O  O334  1  0.57693015  0.50066651  0.58133909  1
  O  O335  1  0.58542486  0.51010316  0.92110371  1
  O  O336  1  0.91728200  0.01925529  0.24506338  1
  O  O337  1  0.91884771  0.00131502  0.58508809  1
  O  O338  1  0.91705703  0.02010096  0.91804641  1
  O  O339  1  0.91543830  0.50738602  0.24183530  1
  O  O340  1  0.91754963  0.52101830  0.58107502  1
  O  O341  1  0.90881628  0.52326621  0.91283355  1
  O  O342  1  0.07741663  0.22298689  0.24933109  1
  O  O343  1  0.09382256  0.23723137  0.57329106  1
  O  O344  1  0.08494321  0.22838814  0.91726170  1
  O  O345  1  0.08942353  0.73755683  0.24011303  1
  O  O346  1  0.07945395  0.73256016  0.58546812  1
  O  O347  1  0.06946857  0.73773163  0.92327265  1
  O  O348  1  0.42100719  0.23527861  0.24824882  1
  O  O349  1  0.41857350  0.22964997  0.58646252  1
  O  O350  1  0.41912596  0.22511739  0.91703156  1
  O  O351  1  0.40617905  0.73911671  0.25852895  1
  O  O352  1  0.40249438  0.73876784  0.59490352  1
  O  O353  1  0.40988528  0.73598812  0.92402880  1
  O  O354  1  0.75107144  0.22292298  0.24517418  1
  O  O355  1  0.74459016  0.23421786  0.58356656  1
  O  O356  1  0.74684614  0.22258380  0.91737613  1
  O  O357  1  0.75057295  0.74557807  0.24951434  1
  O  O358  1  0.75481339  0.73977766  0.58363306  1
  O  O359  1  0.74591448  0.73023654  0.92696168  1
