# generated using pymatgen
data_Ba17Sr5La8Pr42Mn72O216
_symmetry_space_group_name_H-M   'P 1'
_cell_length_a   16.67202510
_cell_length_b   15.70432486
_cell_length_c   16.82105691
_cell_angle_alpha   90.01601250
_cell_angle_beta   90.01695863
_cell_angle_gamma   89.96263634
_symmetry_Int_Tables_number   1
_chemical_formula_structural   Ba17Sr5La8Pr42Mn72O216
_chemical_formula_sum   'Ba17 Sr5 La8 Pr42 Mn72 O216'
_cell_volume   4404.13656914
_cell_formula_units_Z   1
loop_
 _symmetry_equiv_pos_site_id
 _symmetry_equiv_pos_as_xyz
  1  'x, y, z'
loop_
 _atom_site_type_symbol
 _atom_site_label
 _atom_site_symmetry_multiplicity
 _atom_site_fract_x
 _atom_site_fract_y
 _atom_site_fract_z
 _atom_site_occupancy
  Ba  Ba0  1  -0.00130595  0.62472470  0.66373408  1
  Ba  Ba1  1  0.33341912  0.12783282  0.66712186  1
  Ba  Ba2  1  0.16802091  0.12478257  0.83418599  1
  Ba  Ba3  1  0.33312715  0.87544175  0.33636673  1
  Ba  Ba4  1  0.66615436  0.87625609  0.66865622  1
  Ba  Ba5  1  0.16836196  0.37605416  0.16590308  1
  Ba  Ba6  1  -0.00154574  0.62463799  0.99921222  1
  Ba  Ba7  1  0.00021494  0.87421467  0.66596173  1
  Ba  Ba8  1  0.49993551  0.87434411  0.49898002  1
  Ba  Ba9  1  0.83491196  0.12522011  0.16967093  1
  Ba  Ba10  1  0.50059542  0.37591909  0.83178173  1
  Ba  Ba11  1  0.83357256  0.62553427  0.16826539  1
  Ba  Ba12  1  0.66808085  0.12418290  0.33292984  1
  Ba  Ba13  1  0.83477374  0.37410824  0.16445807  1
  Ba  Ba14  1  0.16556423  0.87607818  0.83263572  1
  Ba  Ba15  1  0.49864191  0.62357994  0.83347723  1
  Ba  Ba16  1  0.50108141  0.37471791  0.16444322  1
  Sr  Sr17  1  0.83101672  0.62382258  0.50340043  1
  Sr  Sr18  1  0.33729821  0.12809275  0.99684155  1
  Sr  Sr19  1  0.16768192  0.62432204  0.50177269  1
  Sr  Sr20  1  0.83225995  0.12551721  0.50159823  1
  Sr  Sr21  1  0.83608929  0.37477987  0.83465193  1
  La  La22  1  0.16338749  0.87365559  0.50146333  1
  La  La23  1  0.00034737  0.87636598  -0.00131148  1
  La  La24  1  0.83067332  0.62794582  0.83617833  1
  La  La25  1  0.49805325  0.37331638  0.49486340  1
  La  La26  1  0.67379454  0.37393378  0.33231928  1
  La  La27  1  -0.00153636  0.87535839  0.33573374  1
  La  La28  1  0.33254181  0.87686450  0.00294537  1
  La  La29  1  0.00234385  0.62479434  0.33028454  1
  Pr  Pr30  1  0.16907279  0.12392300  0.50533067  1
  Pr  Pr31  1  0.49893399  0.62319625  0.16582638  1
  Pr  Pr32  1  0.50205961  0.87686185  0.16635340  1
  Pr  Pr33  1  0.33408561  0.37143674  0.00237078  1
  Pr  Pr34  1  0.66239565  0.62170388  0.66570503  1
  Pr  Pr35  1  0.67385367  0.87486512  0.34063246  1
  Pr  Pr36  1  0.15880565  0.37512083  0.49541714  1
  Pr  Pr37  1  0.50171822  0.12580512  0.16834190  1
  Pr  Pr38  1  0.83797004  0.87383405  0.82897225  1
  Pr  Pr39  1  0.33503524  0.62637840  0.33298592  1
  Pr  Pr40  1  0.49686863  0.62928253  0.50363713  1
  Pr  Pr41  1  0.00110327  0.12339393  0.66392024  1
  Pr  Pr42  1  -0.00352216  0.37488225  0.33221213  1
  Pr  Pr43  1  0.66761148  0.37765371  0.00384103  1
  Pr  Pr44  1  0.83613315  0.37604342  0.49825132  1
  Pr  Pr45  1  0.83574855  0.87281878  0.50158063  1
  Pr  Pr46  1  0.33128001  0.37709903  0.33510250  1
  Pr  Pr47  1  0.33286002  0.62417146  0.66616404  1
  Pr  Pr48  1  0.16974444  0.62602923  0.17216833  1
  Pr  Pr49  1  0.49781737  0.87608065  0.82782498  1
  Pr  Pr50  1  0.83507738  0.87748090  0.16793043  1
  Pr  Pr51  1  0.16358540  0.62797259  0.83359065  1
  Pr  Pr52  1  0.16350795  0.37476236  0.83357750  1
  Pr  Pr53  1  0.00252417  0.37475899  0.00262926  1
  Pr  Pr54  1  0.17513252  0.12567713  0.16724626  1
  Pr  Pr55  1  0.66596018  0.61982039  0.99789576  1
  Pr  Pr56  1  0.33180043  0.87469061  0.66995052  1
  Pr  Pr57  1  0.33104795  0.61965098  0.99830333  1
  Pr  Pr58  1  0.50022377  0.12387498  0.83435665  1
  Pr  Pr59  1  -0.00202375  0.12988885  0.99649501  1
  Pr  Pr60  1  0.66515671  0.12977632  1.00134396  1
  Pr  Pr61  1  0.83101093  0.12030945  0.83588442  1
  Pr  Pr62  1  0.66719847  0.87176373  0.00084767  1
  Pr  Pr63  1  0.34073711  0.12565241  0.33313805  1
  Pr  Pr64  1  0.16618512  0.87423376  0.16363715  1
  Pr  Pr65  1  -0.00086919  0.37581782  0.66635247  1
  Pr  Pr66  1  0.00497876  0.12458374  0.32871271  1
  Pr  Pr67  1  0.50212260  0.12016989  0.50139493  1
  Pr  Pr68  1  0.66263804  0.12810386  0.66276218  1
  Pr  Pr69  1  0.32888232  0.37690306  0.66840928  1
  Pr  Pr70  1  0.66284279  0.62571885  0.33196696  1
  Pr  Pr71  1  0.67362730  0.37370434  0.66992644  1
  Mn  Mn72  1  0.00359976  -0.00031320  0.16609949  1
  Mn  Mn73  1  -0.00080622  0.00220708  0.49771213  1
  Mn  Mn74  1  -0.00161472  0.00270126  0.83284761  1
  Mn  Mn75  1  0.00221618  0.50070626  0.16610424  1
  Mn  Mn76  1  -0.00092514  0.50039176  0.49911573  1
  Mn  Mn77  1  -0.00158582  0.49830670  0.83201582  1
  Mn  Mn78  1  0.33476780  0.00070030  0.16777037  1
  Mn  Mn79  1  0.33142836  0.00095828  0.50028589  1
  Mn  Mn80  1  0.33471373  0.00056578  0.83595439  1
  Mn  Mn81  1  0.33456516  0.50079889  0.16633157  1
  Mn  Mn82  1  0.33237246  0.49928488  0.50096225  1
  Mn  Mn83  1  0.32964064  0.49901849  0.83301399  1
  Mn  Mn84  1  0.66595825  -0.00410157  0.16717081  1
  Mn  Mn85  1  0.66872005  0.00088365  0.50122763  1
  Mn  Mn86  1  0.66551293  0.00176806  0.83599275  1
  Mn  Mn87  1  0.66641810  0.50261647  0.16665856  1
  Mn  Mn88  1  0.66557561  0.49896932  0.50023763  1
  Mn  Mn89  1  0.66879863  0.49745378  0.83239119  1
  Mn  Mn90  1  0.00386364  0.24877830  0.16535384  1
  Mn  Mn91  1  -0.00169540  0.24831139  0.49895443  1
  Mn  Mn92  1  -0.00222562  0.25141699  0.83128613  1
  Mn  Mn93  1  0.00179590  0.75121423  0.16762484  1
  Mn  Mn94  1  -0.00039593  0.74953452  0.49804311  1
  Mn  Mn95  1  -0.00117441  0.74844228  0.83295032  1
  Mn  Mn96  1  0.33517876  0.24836820  0.16641564  1
  Mn  Mn97  1  0.33209940  0.25220025  0.49791033  1
  Mn  Mn98  1  0.33353186  0.25178762  0.83397778  1
  Mn  Mn99  1  0.33522606  0.75057363  0.16692383  1
  Mn  Mn100  1  0.33065682  0.74813075  0.50161058  1
  Mn  Mn101  1  0.33250526  0.74869477  0.83527599  1
  Mn  Mn102  1  0.66710597  0.24982780  0.16598611  1
  Mn  Mn103  1  0.66584650  0.25149674  0.50180488  1
  Mn  Mn104  1  0.66870345  0.24945033  0.83206772  1
  Mn  Mn105  1  0.66515048  0.75119413  0.16866991  1
  Mn  Mn106  1  0.66878757  0.74811585  0.50050010  1
  Mn  Mn107  1  0.66497991  0.75047920  0.83590257  1
  Mn  Mn108  1  0.16685317  0.24916687  -0.00010248  1
  Mn  Mn109  1  0.16812540  0.24957190  0.33452789  1
  Mn  Mn110  1  0.16501080  0.25214798  0.66470598  1
  Mn  Mn111  1  0.16724907  0.74973337  0.00139017  1
  Mn  Mn112  1  0.16739446  0.74973799  0.33455550  1
  Mn  Mn113  1  0.16813715  0.74740890  0.66597557  1
  Mn  Mn114  1  0.50090759  0.24890022  -0.00166079  1
  Mn  Mn115  1  0.50001865  0.25227458  0.33213988  1
  Mn  Mn116  1  0.49943479  0.25232591  0.66366616  1
  Mn  Mn117  1  0.49955267  0.75173119  0.00012983  1
  Mn  Mn118  1  0.50167183  0.74740806  0.33258975  1
  Mn  Mn119  1  0.49900032  0.74935484  0.66752520  1
  Mn  Mn120  1  0.83219225  0.24894863  -0.00284629  1
  Mn  Mn121  1  0.83537918  0.25009551  0.33534724  1
  Mn  Mn122  1  0.83398439  0.24933361  0.66763272  1
  Mn  Mn123  1  0.83113166  0.75299214  0.00065693  1
  Mn  Mn124  1  0.83473368  0.74840720  0.33621033  1
  Mn  Mn125  1  0.83076405  0.74848334  0.66742205  1
  Mn  Mn126  1  0.16708697  -0.00030020  0.00220052  1
  Mn  Mn127  1  0.16747629  0.00236893  0.33363331  1
  Mn  Mn128  1  0.16715283  0.00135822  0.66626761  1
  Mn  Mn129  1  0.16693867  0.50071671  -0.00147055  1
  Mn  Mn130  1  0.16712614  0.49997668  0.33491799  1
  Mn  Mn131  1  0.16609235  0.49797118  0.66569765  1
  Mn  Mn132  1  0.50176501  -0.00127024  -0.00131414  1
  Mn  Mn133  1  0.50163906  -0.00033614  0.33234392  1
  Mn  Mn134  1  0.49831814  0.00063169  0.66776022  1
  Mn  Mn135  1  0.49946476  0.50001558  -0.00017103  1
  Mn  Mn136  1  0.50038294  0.49992199  0.33364564  1
  Mn  Mn137  1  0.49936888  0.49937336  0.66217791  1
  Mn  Mn138  1  0.83168345  -0.00069590  0.00033269  1
  Mn  Mn139  1  0.83590149  -0.00007284  0.33516294  1
  Mn  Mn140  1  0.83230814  0.00272329  0.66762767  1
  Mn  Mn141  1  0.83285550  0.49964584  -0.00220709  1
  Mn  Mn142  1  0.83429666  0.50086746  0.33662223  1
  Mn  Mn143  1  0.83193706  0.49838695  0.66739079  1
  O  O144  1  0.15866589  0.12267144  0.02263885  1
  O  O145  1  0.16619909  0.12821943  0.36293630  1
  O  O146  1  0.16039166  0.13012138  0.67562411  1
  O  O147  1  0.17316732  0.62627889  0.02753296  1
  O  O148  1  0.17022359  0.62188166  0.35338127  1
  O  O149  1  0.17518786  0.61903897  0.68969960  1
  O  O150  1  0.50424801  0.12141680  0.02548141  1
  O  O151  1  0.49670379  0.13163400  0.35704521  1
  O  O152  1  0.50521738  0.12669466  0.68889449  1
  O  O153  1  0.49922645  0.62854707  0.02220370  1
  O  O154  1  0.50649585  0.62154736  0.36015833  1
  O  O155  1  0.50111636  0.62400099  0.67799547  1
  O  O156  1  0.83647648  0.12127265  0.01536411  1
  O  O157  1  0.84410205  0.12532058  0.34959488  1
  O  O158  1  0.83595479  0.12733847  0.69250189  1
  O  O159  1  0.82659131  0.62979385  0.01145529  1
  O  O160  1  0.83731674  0.62436158  0.35358180  1
  O  O161  1  0.82566120  0.61973103  0.69120038  1
  O  O162  1  0.16590632  0.37461086  0.31962158  1
  O  O163  1  0.16412186  0.37477844  0.63953064  1
  O  O164  1  0.16583367  0.37645691  0.97852107  1
  O  O165  1  0.16223497  0.87924913  0.30742218  1
  O  O166  1  0.17426752  0.87386310  0.64678744  1
  O  O167  1  0.17383533  0.87406267  0.98924812  1
  O  O168  1  0.49151458  0.37703694  0.31910811  1
  O  O169  1  0.49855429  0.37714013  0.63891997  1
  O  O170  1  0.50036249  0.37451382  0.98896184  1
  O  O171  1  0.50347208  0.86891495  0.31093256  1
  O  O172  1  0.49255396  0.87373730  0.65630780  1
  O  O173  1  0.50254046  0.87487680  0.97104915  1
  O  O174  1  0.83350321  0.37657068  0.32247501  1
  O  O175  1  0.82975001  0.37257120  0.64104136  1
  O  O176  1  0.82280261  0.37213933  0.98273599  1
  O  O177  1  0.83257021  0.87256938  0.31355961  1
  O  O178  1  0.83122960  0.87952209  0.64576936  1
  O  O179  1  0.82650442  0.87823332  0.97236293  1
  O  O180  1  0.00297478  0.37592985  0.18695397  1
  O  O181  1  0.00148715  0.37183506  0.52264555  1
  O  O182  1  0.00403121  0.37443986  0.85850260  1
  O  O183  1  0.00612933  0.87635853  0.19105259  1
  O  O184  1  0.00432527  0.87815371  0.50924770  1
  O  O185  1  -0.00783306  0.87697484  0.85170307  1
  O  O186  1  0.33524503  0.37247477  0.19099206  1
  O  O187  1  0.34231692  0.37631555  0.52494328  1
  O  O188  1  0.32651250  0.37797790  0.85874979  1
  O  O189  1  0.33471494  0.87468024  0.18163141  1
  O  O190  1  0.32841467  0.87062019  0.52365837  1
  O  O191  1  0.34083238  0.87525297  0.85792582  1
  O  O192  1  0.66602734  0.38053390  0.18485997  1
  O  O193  1  0.66293794  0.37553764  0.52696275  1
  O  O194  1  0.66917559  0.37179885  0.86029275  1
  O  O195  1  0.65715950  0.87179209  0.19646357  1
  O  O196  1  0.67544538  0.87519397  0.51135858  1
  O  O197  1  0.65766498  0.87891901  0.85824421  1
  O  O198  1  0.00512554  0.12087519  0.14024724  1
  O  O199  1  0.00276952  0.12649830  0.47177946  1
  O  O200  1  -0.00823932  0.12905552  0.80916274  1
  O  O201  1  0.00614252  0.62662327  0.15642340  1
  O  O202  1  -0.00149849  0.62427495  0.47526650  1
  O  O203  1  -0.00216843  0.62079042  0.82233876  1
  O  O204  1  0.33441413  0.12402085  0.14661473  1
  O  O205  1  0.32263643  0.13145296  0.47615662  1
  O  O206  1  0.34134337  0.12505389  0.82370008  1
  O  O207  1  0.33120897  0.62881457  0.14206267  1
  O  O208  1  0.33106617  0.62138065  0.47646678  1
  O  O209  1  0.32477810  0.62122743  0.80983788  1
  O  O210  1  0.66086880  0.11795840  0.14570506  1
  O  O211  1  0.65970468  0.12710798  0.48814737  1
  O  O212  1  0.66920879  0.12639665  0.80602225  1
  O  O213  1  0.66349039  0.62985575  0.14209532  1
  O  O214  1  0.66533265  0.62148645  0.47481099  1
  O  O215  1  0.67435256  0.62176611  0.81104307  1
  O  O216  1  0.09318044  0.02684769  0.24570943  1
  O  O217  1  0.08435247  0.01889348  0.57475056  1
  O  O218  1  0.07516076  0.01186927  0.92254976  1
  O  O219  1  0.09005958  0.52114898  0.24953270  1
  O  O220  1  0.08767000  0.50882255  0.57650442  1
  O  O221  1  0.09090683  0.51281150  0.90772764  1
  O  O222  1  0.41959163  0.02099698  0.24737119  1
  O  O223  1  0.41989395  0.01690938  0.57844151  1
  O  O224  1  0.42629858  0.01539578  0.91150790  1
  O  O225  1  0.41765810  0.52664159  0.25267093  1
  O  O226  1  0.41705992  0.52340119  0.57704187  1
  O  O227  1  0.40907547  0.51231890  0.92176262  1
  O  O228  1  0.75280094  0.00041181  0.25002643  1
  O  O229  1  0.74863143  0.02290844  0.58971963  1
  O  O230  1  0.74578550  0.02275450  0.92099727  1
  O  O231  1  0.74299816  0.51443640  0.26038408  1
  O  O232  1  0.74010921  0.51517999  0.59129274  1
  O  O233  1  0.74872804  0.52009702  0.91656724  1
  O  O234  1  0.25574824  0.22806870  0.25512380  1
  O  O235  1  0.24491477  0.24261699  0.57632597  1
  O  O236  1  0.25070821  0.24281327  0.92161368  1
  O  O237  1  0.25321275  0.72881925  0.25289171  1
  O  O238  1  0.25319893  0.72780872  0.58740620  1
  O  O239  1  0.24775332  0.72654079  0.91664992  1
  O  O240  1  0.57932438  0.23667033  0.24523066  1
  O  O241  1  0.58051171  0.23061665  0.58112346  1
  O  O242  1  0.58372428  0.22493455  0.91249167  1
  O  O243  1  0.57877303  0.72313590  0.24506366  1
  O  O244  1  0.58101863  0.73073732  0.57954488  1
  O  O245  1  0.58558071  0.73188575  0.92319329  1
  O  O246  1  0.93087233  0.23846301  0.25515807  1
  O  O247  1  0.91733100  0.23063786  0.58368392  1
  O  O248  1  0.91153668  0.23042336  0.91049172  1
  O  O249  1  0.92185342  0.74053203  0.25600817  1
  O  O250  1  0.91120154  0.74282822  0.57469394  1
  O  O251  1  0.90672691  0.74269969  0.91220827  1
  O  O252  1  0.08115114  0.48541339  0.07546742  1
  O  O253  1  0.07832910  0.47935388  0.41243089  1
  O  O254  1  0.08219022  0.47635628  0.74624053  1
  O  O255  1  0.08287560  0.97401764  0.08288790  1
  O  O256  1  0.07658631  0.98639020  0.40585238  1
  O  O257  1  0.07868993  0.99771821  0.74609115  1
  O  O258  1  0.41490286  0.49182726  0.08200773  1
  O  O259  1  0.41174663  0.48232157  0.41525879  1
  O  O260  1  0.40649084  0.48644471  0.74071821  1
  O  O261  1  0.41933783  0.97748819  0.07961496  1
  O  O262  1  0.41428186  0.99933234  0.41569879  1
  O  O263  1  0.41440880  0.98050407  0.74998520  1
  O  O264  1  0.74512282  0.49014232  0.07779425  1
  O  O265  1  0.75196032  0.47770384  0.42416790  1
  O  O266  1  0.75154254  0.47590600  0.75144814  1
  O  O267  1  0.74848361  0.97268715  0.08601839  1
  O  O268  1  0.75395525  0.98320794  0.41807370  1
  O  O269  1  0.75299467  0.98578894  0.76197457  1
  O  O270  1  0.25244807  0.26122834  0.08333697  1
  O  O271  1  0.24862912  0.27768579  0.41791865  1
  O  O272  1  0.24750729  0.27276321  0.74863767  1
  O  O273  1  0.25099541  0.76947117  0.08696471  1
  O  O274  1  0.24207438  0.76566954  0.42426812  1
  O  O275  1  0.25727494  0.76374528  0.74551264  1
  O  O276  1  0.58985073  0.26044351  0.07389745  1
  O  O277  1  0.58176171  0.27367631  0.41543038  1
  O  O278  1  0.59314023  0.26618296  0.74302459  1
  O  O279  1  0.58248230  0.77501475  0.08228211  1
  O  O280  1  0.59471736  0.76118441  0.40631278  1
  O  O281  1  0.58129734  0.76132393  0.75532082  1
  O  O282  1  0.92203242  0.26213180  0.06986715  1
  O  O283  1  0.91688547  0.27351176  0.41971773  1
  O  O284  1  0.92216609  0.27248086  0.74287603  1
  O  O285  1  0.91542260  0.77571320  0.08156008  1
  O  O286  1  0.91768269  0.77205525  0.41545409  1
  O  O287  1  0.91159750  0.76019824  0.75125339  1
  O  O288  1  0.25658931  0.48424184  0.07357202  1
  O  O289  1  0.24760880  0.47554898  0.42212261  1
  O  O290  1  0.24404958  0.47254430  0.75295575  1
  O  O291  1  0.24469809  0.98547332  0.09457336  1
  O  O292  1  0.23813798  0.98502828  0.42456854  1
  O  O293  1  0.25566164  0.98620225  0.74910305  1
  O  O294  1  0.58748153  0.49253964  0.07871772  1
  O  O295  1  0.58748283  0.47610387  0.41216639  1
  O  O296  1  0.59146552  0.48599001  0.73970783  1
  O  O297  1  0.58415991  0.97254328  0.08008801  1
  O  O298  1  0.58767144  0.98560111  0.41013476  1
  O  O299  1  0.57522220  0.98999140  0.76016956  1
  O  O300  1  0.91914475  0.48466768  0.07517222  1
  O  O301  1  0.91796238  0.47683117  0.41762166  1
  O  O302  1  0.91988862  0.47830869  0.74368487  1
  O  O303  1  0.91525946  0.97434247  0.08323722  1
  O  O304  1  0.91306408  0.97822874  0.42125710  1
  O  O305  1  0.91065460  0.98761167  0.75597147  1
  O  O306  1  0.08006958  0.26523315  0.07761361  1
  O  O307  1  0.07932108  0.27103828  0.41438484  1
  O  O308  1  0.08260570  0.27385311  0.74900444  1
  O  O309  1  0.08486509  0.77156418  0.08335434  1
  O  O310  1  0.07955521  0.76691136  0.40991969  1
  O  O311  1  0.08847850  0.75091577  0.75005883  1
  O  O312  1  0.41311426  0.26154984  0.07718311  1
  O  O313  1  0.40845701  0.26981838  0.40906294  1
  O  O314  1  0.41264438  0.26933664  0.73917128  1
  O  O315  1  0.42143819  0.77245908  0.08636668  1
  O  O316  1  0.41663920  0.75034991  0.41694297  1
  O  O317  1  0.41603909  0.76673331  0.75342348  1
  O  O318  1  0.74621609  0.25848040  0.07652564  1
  O  O319  1  0.74937915  0.26995173  0.42429010  1
  O  O320  1  0.75339279  0.26897866  0.75220485  1
  O  O321  1  0.75144174  0.77793507  0.09065144  1
  O  O322  1  0.75774116  0.76791309  0.42334423  1
  O  O323  1  0.75408031  0.76630325  0.76391593  1
  O  O324  1  0.25407984  0.02554955  0.25844490  1
  O  O325  1  0.24788720  0.01332627  0.58065718  1
  O  O326  1  0.25712249  0.00853618  0.92710544  1
  O  O327  1  0.25443025  0.51993956  0.25229421  1
  O  O328  1  0.25849314  0.51237510  0.59213608  1
  O  O329  1  0.24711400  0.52432750  0.91484589  1
  O  O330  1  0.57602887  0.01375556  0.23983432  1
  O  O331  1  0.58308412  0.01773930  0.58558368  1
  O  O332  1  0.58576814  0.02816577  0.91927315  1
  O  O333  1  0.58195226  0.52384488  0.24729787  1
  O  O334  1  0.57970868  0.52216863  0.57476503  1
  O  O335  1  0.58808199  0.51244758  0.91945818  1
  O  O336  1  0.92784893  0.00968538  0.25791033  1
  O  O337  1  0.92071698  0.02132202  0.58547334  1
  O  O338  1  0.91551813  0.01957914  0.91661869  1
  O  O339  1  0.92509241  0.51101902  0.25837947  1
  O  O340  1  0.91077089  0.50581173  0.57832316  1
  O  O341  1  0.90987064  0.50899909  0.91021513  1
  O  O342  1  0.09237217  0.22465531  0.24916773  1
  O  O343  1  0.07959362  0.23052498  0.58030796  1
  O  O344  1  0.07555392  0.23613704  0.91944011  1
  O  O345  1  0.09133988  0.73106044  0.24839662  1
  O  O346  1  0.08813718  0.74110652  0.57554387  1
  O  O347  1  0.08480691  0.73908707  0.91603281  1
  O  O348  1  0.41897290  0.22622413  0.24783738  1
  O  O349  1  0.42267343  0.23274902  0.56669173  1
  O  O350  1  0.42273768  0.23608711  0.91357635  1
  O  O351  1  0.41762597  0.72384312  0.24924489  1
  O  O352  1  0.41273464  0.72889726  0.58460860  1
  O  O353  1  0.40794706  0.73414751  0.92711195  1
  O  O354  1  0.74933485  0.24575574  0.25400089  1
  O  O355  1  0.74483767  0.23411470  0.59208834  1
  O  O356  1  0.74812602  0.22344685  0.91612579  1
  O  O357  1  0.74231725  0.73678580  0.26275691  1
  O  O358  1  0.74339333  0.72830960  0.59120351  1
  O  O359  1  0.74156621  0.73551123  0.92531551  1
