# generated using pymatgen
data_Ba17Sr5La8Pr42Mn72O216
_symmetry_space_group_name_H-M   'P 1'
_cell_length_a   16.67834098
_cell_length_b   15.69981492
_cell_length_c   16.82798801
_cell_angle_alpha   89.99975119
_cell_angle_beta   90.03560743
_cell_angle_gamma   90.00621621
_symmetry_Int_Tables_number   1
_chemical_formula_structural   Ba17Sr5La8Pr42Mn72O216
_chemical_formula_sum   'Ba17 Sr5 La8 Pr42 Mn72 O216'
_cell_volume   4406.35505360
_cell_formula_units_Z   1
loop_
 _symmetry_equiv_pos_site_id
 _symmetry_equiv_pos_as_xyz
  1  'x, y, z'
loop_
 _atom_site_type_symbol
 _atom_site_label
 _atom_site_symmetry_multiplicity
 _atom_site_fract_x
 _atom_site_fract_y
 _atom_site_fract_z
 _atom_site_occupancy
  Ba  Ba0  1  0.83612369  0.12554216  0.49879308  1
  Ba  Ba1  1  0.83380427  0.12593448  0.16687645  1
  Ba  Ba2  1  0.33633076  0.62476352  0.66844628  1
  Ba  Ba3  1  0.33206727  0.87324216  0.66930106  1
  Ba  Ba4  1  0.83214246  0.62446803  0.16120170  1
  Ba  Ba5  1  0.83169056  0.37584914  0.49639430  1
  Ba  Ba6  1  0.16914587  0.12692852  0.49803132  1
  Ba  Ba7  1  0.66978085  0.87445631  0.66936030  1
  Ba  Ba8  1  0.00089030  0.12519003  0.33071893  1
  Ba  Ba9  1  0.50173926  0.12528870  0.83674545  1
  Ba  Ba10  1  0.16747013  0.12344599  0.16838507  1
  Ba  Ba11  1  0.83387951  0.87413065  0.49878853  1
  Ba  Ba12  1  0.50137145  0.62429734  0.83806882  1
  Ba  Ba13  1  0.49966348  0.62334981  0.16866359  1
  Ba  Ba14  1  -0.00164662  0.62449871  0.99504126  1
  Ba  Ba15  1  -0.00052516  0.12590075  0.99879184  1
  Ba  Ba16  1  0.16606532  0.87531503  0.83095985  1
  Sr  Sr17  1  0.33438689  0.87545785  0.00131785  1
  Sr  Sr18  1  0.16746613  0.87788562  0.16094163  1
  Sr  Sr19  1  0.49741598  0.37616722  0.16808718  1
  Sr  Sr20  1  0.66450414  0.62138068  1.00051787  1
  Sr  Sr21  1  0.82825884  0.37493452  0.16507545  1
  La  La22  1  -0.00257268  0.37354921  0.32862861  1
  La  La23  1  0.16607087  0.37817872  0.49678848  1
  La  La24  1  0.16803315  0.62923869  0.16541791  1
  La  La25  1  0.33716087  0.12092620  0.66560977  1
  La  La26  1  0.15835770  0.37755413  0.83163968  1
  La  La27  1  0.83384078  0.87550050  0.16551634  1
  La  La28  1  0.83390211  0.12356429  0.83441173  1
  La  La29  1  0.49675686  0.37364286  0.50043787  1
  Pr  Pr30  1  0.00247880  0.87532961  0.00099747  1
  Pr  Pr31  1  0.67031389  0.12469096  0.66449285  1
  Pr  Pr32  1  0.66256844  0.87382201  0.00147218  1
  Pr  Pr33  1  0.49572665  0.87499092  0.50105376  1
  Pr  Pr34  1  0.50475511  0.62486608  0.50700511  1
  Pr  Pr35  1  0.00274260  0.62486784  0.66403944  1
  Pr  Pr36  1  0.49713405  0.87274700  0.83244400  1
  Pr  Pr37  1  0.33191880  0.37515449  0.33276528  1
  Pr  Pr38  1  0.82990655  0.62739177  0.83949778  1
  Pr  Pr39  1  0.16308569  0.37323118  0.16056997  1
  Pr  Pr40  1  -0.00665473  0.37341497  0.66259752  1
  Pr  Pr41  1  0.83067067  0.37824489  0.83214480  1
  Pr  Pr42  1  0.33051301  0.87413637  0.33421020  1
  Pr  Pr43  1  0.17440029  0.62806262  0.83584454  1
  Pr  Pr44  1  0.50188110  0.12574754  0.17141994  1
  Pr  Pr45  1  0.33120363  0.12243068  1.00189785  1
  Pr  Pr46  1  0.66790344  0.12832950  1.00091984  1
  Pr  Pr47  1  0.83830850  0.62519382  0.49902661  1
  Pr  Pr48  1  0.33471216  0.62487310  0.33152963  1
  Pr  Pr49  1  0.50317654  0.12445913  0.50653065  1
  Pr  Pr50  1  0.33548337  0.62640334  0.99638309  1
  Pr  Pr51  1  0.17017593  0.62444452  0.50017173  1
  Pr  Pr52  1  0.00035945  0.87821961  0.66591340  1
  Pr  Pr53  1  0.66362563  0.87139299  0.34088127  1
  Pr  Pr54  1  0.00600452  0.87747611  0.32924678  1
  Pr  Pr55  1  0.66026336  0.37546378  0.00517415  1
  Pr  Pr56  1  0.16858664  0.87247380  0.49875898  1
  Pr  Pr57  1  0.66619393  0.37216856  0.67013500  1
  Pr  Pr58  1  0.00436120  0.12390413  0.65765724  1
  Pr  Pr59  1  0.66421943  0.37764959  0.33458433  1
  Pr  Pr60  1  0.33715104  0.12476731  0.33061402  1
  Pr  Pr61  1  0.83719713  0.87354552  0.82886746  1
  Pr  Pr62  1  0.33362717  0.37525538  0.00521101  1
  Pr  Pr63  1  0.67054222  0.62346699  0.66782827  1
  Pr  Pr64  1  -0.00934452  0.37510644  0.00220020  1
  Pr  Pr65  1  0.49756827  0.87412908  0.16662991  1
  Pr  Pr66  1  -0.00458693  0.62575469  0.32278741  1
  Pr  Pr67  1  0.67393223  0.12506608  0.33289845  1
  Pr  Pr68  1  0.49611782  0.37520472  0.83552809  1
  Pr  Pr69  1  0.67333101  0.62454817  0.33076722  1
  Pr  Pr70  1  0.17211742  0.12322158  0.83495860  1
  Pr  Pr71  1  0.32820548  0.37274311  0.67264822  1
  Mn  Mn72  1  0.00060515  -0.00276228  0.16526488  1
  Mn  Mn73  1  0.00295120  -0.00267286  0.49861448  1
  Mn  Mn74  1  -0.00023903  0.00171127  0.83013268  1
  Mn  Mn75  1  0.00037472  0.50074137  0.16337344  1
  Mn  Mn76  1  0.00217740  0.50247555  0.49455425  1
  Mn  Mn77  1  -0.00174487  0.49893134  0.82929325  1
  Mn  Mn78  1  0.33536512  -0.00053168  0.16726677  1
  Mn  Mn79  1  0.33422168  -0.00038908  0.49861010  1
  Mn  Mn80  1  0.33482974  0.00098524  0.83501638  1
  Mn  Mn81  1  0.33141750  0.50013633  0.16702224  1
  Mn  Mn82  1  0.33524242  0.49894816  0.50009548  1
  Mn  Mn83  1  0.33234014  0.49741287  0.83659971  1
  Mn  Mn84  1  0.66426051  -0.00218757  0.16940331  1
  Mn  Mn85  1  0.66544363  -0.00042291  0.50065576  1
  Mn  Mn86  1  0.66803994  0.00064825  0.83674090  1
  Mn  Mn87  1  0.66453053  0.50029991  0.16822097  1
  Mn  Mn88  1  0.66621541  0.50098607  0.50140701  1
  Mn  Mn89  1  0.66578453  0.49669546  0.83468587  1
  Mn  Mn90  1  -0.00074861  0.25290233  0.16500714  1
  Mn  Mn91  1  0.00214197  0.25274097  0.49818964  1
  Mn  Mn92  1  -0.00121912  0.25204354  0.82961413  1
  Mn  Mn93  1  0.00071940  0.75037554  0.16325189  1
  Mn  Mn94  1  0.00320437  0.74769842  0.49580293  1
  Mn  Mn95  1  -0.00041809  0.74921575  0.82947677  1
  Mn  Mn96  1  0.33430393  0.25139419  0.16818316  1
  Mn  Mn97  1  0.33406487  0.25081752  0.50122919  1
  Mn  Mn98  1  0.33195976  0.25106137  0.83614098  1
  Mn  Mn99  1  0.33261137  0.75020441  0.16641065  1
  Mn  Mn100  1  0.33521617  0.74953007  0.49844373  1
  Mn  Mn101  1  0.33413507  0.75030103  0.83580501  1
  Mn  Mn102  1  0.66364539  0.25108536  0.16835614  1
  Mn  Mn103  1  0.66553558  0.25027562  0.50111414  1
  Mn  Mn104  1  0.66745586  0.25076461  0.83555523  1
  Mn  Mn105  1  0.66479027  0.75091151  0.16979776  1
  Mn  Mn106  1  0.66584482  0.74765287  0.50114124  1
  Mn  Mn107  1  0.66694572  0.75038637  0.83669718  1
  Mn  Mn108  1  0.16676603  0.25050121  -0.00368384  1
  Mn  Mn109  1  0.16962948  0.25329361  0.33112489  1
  Mn  Mn110  1  0.16575239  0.25333853  0.66757605  1
  Mn  Mn111  1  0.16725231  0.75055503  0.00015955  1
  Mn  Mn112  1  0.16866118  0.74882796  0.33242677  1
  Mn  Mn113  1  0.16515585  0.74655282  0.66490312  1
  Mn  Mn114  1  0.49844431  0.24929326  0.00429085  1
  Mn  Mn115  1  0.50043501  0.25025955  0.33585360  1
  Mn  Mn116  1  0.50002205  0.25078430  0.66839709  1
  Mn  Mn117  1  0.49931587  0.75170911  0.00208707  1
  Mn  Mn118  1  0.49834106  0.74955633  0.33668652  1
  Mn  Mn119  1  0.50325657  0.74909863  0.66902599  1
  Mn  Mn120  1  0.83067882  0.25010705  -0.00191938  1
  Mn  Mn121  1  0.83210902  0.25220468  0.33097482  1
  Mn  Mn122  1  0.83382691  0.25199714  0.66823099  1
  Mn  Mn123  1  0.82913538  0.75277468  -0.00303202  1
  Mn  Mn124  1  0.83366256  0.75091164  0.33178194  1
  Mn  Mn125  1  0.83610584  0.74663417  0.66703958  1
  Mn  Mn126  1  0.16695125  0.00048690  -0.00112431  1
  Mn  Mn127  1  0.16936959  -0.00259865  0.33223946  1
  Mn  Mn128  1  0.16695632  0.00173656  0.66555733  1
  Mn  Mn129  1  0.16679511  0.49907863  -0.00246207  1
  Mn  Mn130  1  0.16843467  0.50196692  0.33030620  1
  Mn  Mn131  1  0.16566475  0.49978552  0.66478477  1
  Mn  Mn132  1  0.50003873  0.00014035  0.00359928  1
  Mn  Mn133  1  0.49988282  0.00072940  0.33530321  1
  Mn  Mn134  1  0.50243556  -0.00056223  0.66949677  1
  Mn  Mn135  1  0.49871066  0.49823596  0.00273415  1
  Mn  Mn136  1  0.49897984  0.49849350  0.33795346  1
  Mn  Mn137  1  0.50197899  0.49780998  0.66827510  1
  Mn  Mn138  1  0.83037456  -0.00147331  -0.00229430  1
  Mn  Mn139  1  0.83197648  -0.00268258  0.33134130  1
  Mn  Mn140  1  0.83521637  -0.00018603  0.66817390  1
  Mn  Mn141  1  0.82939138  0.49910018  -0.00243796  1
  Mn  Mn142  1  0.83299679  0.49927129  0.33136356  1
  Mn  Mn143  1  0.83332134  0.50125952  0.66567053  1
  O  O144  1  0.17184710  0.12675171  0.01153012  1
  O  O145  1  0.17374689  0.12580188  0.34278458  1
  O  O146  1  0.15466372  0.13461090  0.69025523  1
  O  O147  1  0.17223713  0.62273346  0.02067185  1
  O  O148  1  0.17082146  0.62558142  0.35940580  1
  O  O149  1  0.15819984  0.62065032  0.69090261  1
  O  O150  1  0.50391335  0.12520057  0.02746251  1
  O  O151  1  0.49276043  0.12546348  0.36417519  1
  O  O152  1  0.49886029  0.12700711  0.68028402  1
  O  O153  1  0.49471876  0.62417164  0.01148027  1
  O  O154  1  0.48930532  0.62285953  0.36367246  1
  O  O155  1  0.50883204  0.62095868  0.68115357  1
  O  O156  1  0.82890981  0.12429563  0.01258356  1
  O  O157  1  0.82929116  0.12462488  0.34008719  1
  O  O158  1  0.83775688  0.12866533  0.68905516  1
  O  O159  1  0.83171932  0.62591533  0.00547887  1
  O  O160  1  0.83877255  0.62587634  0.35235363  1
  O  O161  1  0.83818194  0.62174150  0.69367895  1
  O  O162  1  0.17847770  0.38162142  0.30511826  1
  O  O163  1  0.17521574  0.37767258  0.64167732  1
  O  O164  1  0.17536490  0.37484823  0.97364719  1
  O  O165  1  0.17399065  0.86772001  0.31094774  1
  O  O166  1  0.16031300  0.86796104  0.64407062  1
  O  O167  1  0.15986547  0.87615786  0.98697504  1
  O  O168  1  0.50674896  0.37286305  0.31507763  1
  O  O169  1  0.50151084  0.37390599  0.64412118  1
  O  O170  1  0.49636585  0.37161327  0.98041139  1
  O  O171  1  0.50307404  0.87791049  0.30936911  1
  O  O172  1  0.50161760  0.87542933  0.64641229  1
  O  O173  1  0.50167487  0.87894555  0.97752609  1
  O  O174  1  0.82393801  0.37774605  0.31945925  1
  O  O175  1  0.82766244  0.37888841  0.64987715  1
  O  O176  1  0.82800890  0.37367835  0.97572155  1
  O  O177  1  0.81940202  0.87210339  0.31571643  1
  O  O178  1  0.83743356  0.87039852  0.65417667  1
  O  O179  1  0.82067486  0.87645808  0.97120613  1
  O  O180  1  0.00872883  0.38073127  0.18190468  1
  O  O181  1  0.00676994  0.38069933  0.51901060  1
  O  O182  1  0.00431042  0.37552614  0.85865731  1
  O  O183  1  0.00364863  0.87105246  0.18186957  1
  O  O184  1  0.00926042  0.86771167  0.52328772  1
  O  O185  1  -0.00287588  0.87483883  0.85473086  1
  O  O186  1  0.32749675  0.37695103  0.19008039  1
  O  O187  1  0.33362754  0.37743574  0.52933810  1
  O  O188  1  0.33382206  0.37267773  0.86065482  1
  O  O189  1  0.33956535  0.87580741  0.19087368  1
  O  O190  1  0.33173569  0.87508609  0.51414668  1
  O  O191  1  0.34019472  0.87539067  0.84877911  1
  O  O192  1  0.66342370  0.37588950  0.19092954  1
  O  O193  1  0.66419462  0.37695002  0.52564523  1
  O  O194  1  0.67867597  0.37221096  0.86039784  1
  O  O195  1  0.65796163  0.87546964  0.19765292  1
  O  O196  1  0.66276603  0.87329546  0.51195821  1
  O  O197  1  0.67713440  0.87785407  0.85669673  1
  O  O198  1  -0.00075353  0.12366116  0.15924023  1
  O  O199  1  0.00256489  0.12641619  0.49219053  1
  O  O200  1  -0.00797932  0.13008015  0.80353248  1
  O  O201  1  0.00485374  0.62489244  0.15386987  1
  O  O202  1  0.00252095  0.62555828  0.46618376  1
  O  O203  1  -0.01081039  0.62202319  0.80792629  1
  O  O204  1  0.34126871  0.12559926  0.14622101  1
  O  O205  1  0.34039448  0.12293719  0.47395834  1
  O  O206  1  0.32805036  0.13092195  0.80966798  1
  O  O207  1  0.32903013  0.62297952  0.14128222  1
  O  O208  1  0.33617346  0.62363201  0.47475835  1
  O  O209  1  0.32968075  0.62202737  0.82649436  1
  O  O210  1  0.65777635  0.12186020  0.14337861  1
  O  O211  1  0.65608853  0.12471534  0.47839333  1
  O  O212  1  0.66853704  0.12818625  0.80793167  1
  O  O213  1  0.66424312  0.62696591  0.15138509  1
  O  O214  1  0.65403515  0.62373349  0.47500155  1
  O  O215  1  0.66829483  0.62057210  0.81213767  1
  O  O216  1  0.08557806  -0.00157044  0.25255524  1
  O  O217  1  0.08556154  0.00983532  0.58242097  1
  O  O218  1  0.08623461  0.01890521  0.90469628  1
  O  O219  1  0.08831702  0.52153613  0.24946409  1
  O  O220  1  0.08397076  0.52355677  0.57462882  1
  O  O221  1  0.09085757  0.51508636  0.90202711  1
  O  O222  1  0.42163920  0.02323318  0.25044174  1
  O  O223  1  0.42197218  0.01599394  0.57599627  1
  O  O224  1  0.41338794  0.01834633  0.92810911  1
  O  O225  1  0.40928893  0.51114110  0.25887849  1
  O  O226  1  0.42579882  0.51380468  0.57452867  1
  O  O227  1  0.41105805  0.50658386  0.92374323  1
  O  O228  1  0.74321081  0.01271919  0.25111485  1
  O  O229  1  0.74888248  0.01727273  0.59032236  1
  O  O230  1  0.74695052  0.02638238  0.91903834  1
  O  O231  1  0.74825951  0.51513308  0.25294862  1
  O  O232  1  0.75424333  0.52926833  0.57843688  1
  O  O233  1  0.75282046  0.51625463  0.90843073  1
  O  O234  1  0.26319388  0.23736356  0.26029121  1
  O  O235  1  0.25919413  0.23387672  0.59916310  1
  O  O236  1  0.25330781  0.22722276  0.91954029  1
  O  O237  1  0.24954176  0.72592598  0.25184843  1
  O  O238  1  0.24514374  0.73380329  0.57508697  1
  O  O239  1  0.25094584  0.73182584  0.92001834  1
  O  O240  1  0.58356599  0.22442989  0.25784638  1
  O  O241  1  0.58685842  0.23129021  0.58755066  1
  O  O242  1  0.59071176  0.23944067  0.92689533  1
  O  O243  1  0.58663246  0.73291771  0.26433437  1
  O  O244  1  0.59089457  0.72789202  0.58773613  1
  O  O245  1  0.58535905  0.74706291  0.92405561  1
  O  O246  1  0.91795620  0.25578890  0.24974004  1
  O  O247  1  0.92269703  0.24273466  0.59338545  1
  O  O248  1  0.91365798  0.24174669  0.90979794  1
  O  O249  1  0.91939829  0.74276121  0.24942645  1
  O  O250  1  0.91991150  0.72310012  0.57935888  1
  O  O251  1  0.90929833  0.74180524  0.90518124  1
  O  O252  1  0.08251737  0.47744939  0.07432790  1
  O  O253  1  0.08728950  0.47876056  0.41111549  1
  O  O254  1  0.07500822  0.47712246  0.74120306  1
  O  O255  1  0.07853066  0.98561993  0.07634457  1
  O  O256  1  0.08731057  0.97441688  0.41516934  1
  O  O257  1  0.07435234  0.98858931  0.74026108  1
  O  O258  1  0.41080977  0.48111402  0.08388159  1
  O  O259  1  0.41449633  0.47192177  0.41701207  1
  O  O260  1  0.41388877  0.47550259  0.75242339  1
  O  O261  1  0.42192495  0.98214467  0.08994653  1
  O  O262  1  0.41364175  0.97561424  0.41190479  1
  O  O263  1  0.41978148  0.98837698  0.75437526  1
  O  O264  1  0.74403733  0.48281592  0.07575197  1
  O  O265  1  0.74071393  0.49344130  0.41158717  1
  O  O266  1  0.74249364  0.48195252  0.74524737  1
  O  O267  1  0.74560035  0.97629315  0.08596764  1
  O  O268  1  0.74162679  0.99050155  0.41163955  1
  O  O269  1  0.75773074  0.99225238  0.75845272  1
  O  O270  1  0.24709864  0.27010945  0.08625688  1
  O  O271  1  0.24905270  0.27461375  0.42246943  1
  O  O272  1  0.24252480  0.27411094  0.75594510  1
  O  O273  1  0.24967532  0.76249941  0.08707456  1
  O  O274  1  0.25161070  0.76692399  0.41219632  1
  O  O275  1  0.24642580  0.75098441  0.75297223  1
  O  O276  1  0.57917908  0.26954105  0.08857823  1
  O  O277  1  0.57902426  0.27108337  0.42155517  1
  O  O278  1  0.58301069  0.27561613  0.75752590  1
  O  O279  1  0.58106707  0.77333910  0.08850463  1
  O  O280  1  0.57561392  0.76976429  0.42361419  1
  O  O281  1  0.58275796  0.76731109  0.75986428  1
  O  O282  1  0.91425745  0.26990988  0.07784619  1
  O  O283  1  0.92120736  0.26536579  0.41241109  1
  O  O284  1  0.91372039  0.27922238  0.75215992  1
  O  O285  1  0.91251287  0.77509602  0.07418208  1
  O  O286  1  0.92514257  0.76554229  0.40908644  1
  O  O287  1  0.92003231  0.77088422  0.74566671  1
  O  O288  1  0.24702839  0.47771124  0.08515323  1
  O  O289  1  0.25281161  0.48062456  0.41412181  1
  O  O290  1  0.24865187  0.47945802  0.75498700  1
  O  O291  1  0.25519941  0.99040430  0.08363583  1
  O  O292  1  0.24849382  0.97761450  0.41932481  1
  O  O293  1  0.24614092  1.00143824  0.74894468  1
  O  O294  1  0.57996537  0.48137890  0.08456728  1
  O  O295  1  0.57782475  0.47844221  0.42720440  1
  O  O296  1  0.58218470  0.47011395  0.75658020  1
  O  O297  1  0.58111294  0.97429090  0.08913601  1
  O  O298  1  0.57620674  0.97860444  0.42034991  1
  O  O299  1  0.58174330  0.98197338  0.76197557  1
  O  O300  1  0.91392774  0.48148328  0.07671944  1
  O  O301  1  0.92089095  0.48782397  0.41185793  1
  O  O302  1  0.91478548  0.47415370  0.74851294  1
  O  O303  1  0.91408667  0.97396980  0.07679603  1
  O  O304  1  0.92406206  0.98155696  0.41090697  1
  O  O305  1  0.91694601  0.97824451  0.74968232  1
  O  O306  1  0.08077539  0.27318900  0.07296328  1
  O  O307  1  0.08708216  0.27502659  0.41017389  1
  O  O308  1  0.07704762  0.27980548  0.74197537  1
  O  O309  1  0.08046211  0.76355223  0.07699314  1
  O  O310  1  0.09060597  0.77278411  0.41508120  1
  O  O311  1  0.07443692  0.76041274  0.73740994  1
  O  O312  1  0.41059945  0.26904162  0.08329488  1
  O  O313  1  0.41397183  0.27403367  0.41141367  1
  O  O314  1  0.41190055  0.27285866  0.75075238  1
  O  O315  1  0.41956834  0.76893620  0.08814560  1
  O  O316  1  0.41583369  0.77531684  0.41544260  1
  O  O317  1  0.42067772  0.76142866  0.75716185  1
  O  O318  1  0.74069886  0.26466854  0.07665315  1
  O  O319  1  0.74063720  0.25993213  0.41157912  1
  O  O320  1  0.74870935  0.27003574  0.75022119  1
  O  O321  1  0.74702522  0.77478502  0.08506000  1
  O  O322  1  0.74341303  0.75371125  0.41439962  1
  O  O323  1  0.75681502  0.75620907  0.75801226  1
  O  O324  1  0.26221677  0.01084424  0.25932186  1
  O  O325  1  0.25778751  0.01774307  0.58770873  1
  O  O326  1  0.25194428  0.01967426  0.91686435  1
  O  O327  1  0.24949298  0.52854522  0.24905505  1
  O  O328  1  0.24836668  0.51813029  0.57605689  1
  O  O329  1  0.25107612  0.52009276  0.92027094  1
  O  O330  1  0.58254412  0.02643967  0.25632964  1
  O  O331  1  0.58657116  0.02115196  0.58765657  1
  O  O332  1  0.59088617  0.01431688  0.92942268  1
  O  O333  1  0.58730286  0.51546629  0.26641670  1
  O  O334  1  0.59396593  0.51729469  0.59073493  1
  O  O335  1  0.58563235  0.49929913  0.92057469  1
  O  O336  1  0.91415912  -0.00805365  0.24642544  1
  O  O337  1  0.92422140  0.00930952  0.58999004  1
  O  O338  1  0.91209337  0.01130639  0.90743788  1
  O  O339  1  0.92223035  0.50883526  0.25345859  1
  O  O340  1  0.92065168  0.52301892  0.58064622  1
  O  O341  1  0.91216961  0.50645870  0.90825063  1
  O  O342  1  0.09077776  0.25283968  0.24584124  1
  O  O343  1  0.08507191  0.24477856  0.58392615  1
  O  O344  1  0.09068248  0.23649167  0.90079884  1
  O  O345  1  0.08640903  0.72919408  0.25636464  1
  O  O346  1  0.08452024  0.72053625  0.57704014  1
  O  O347  1  0.08697679  0.73135037  0.90415994  1
  O  O348  1  0.42232439  0.22984593  0.25057889  1
  O  O349  1  0.42021593  0.23136587  0.57732264  1
  O  O350  1  0.41387401  0.23392700  0.92441882  1
  O  O351  1  0.41105937  0.73585679  0.25821314  1
  O  O352  1  0.42608342  0.73707593  0.57503372  1
  O  O353  1  0.41169391  0.74026732  0.92509092  1
  O  O354  1  0.74283227  0.23811373  0.25131057  1
  O  O355  1  0.74574523  0.23439022  0.59015910  1
  O  O356  1  0.75062204  0.22598408  0.91343357  1
  O  O357  1  0.74725402  0.73534724  0.25253543  1
  O  O358  1  0.75415304  0.72232066  0.58292507  1
  O  O359  1  0.74632983  0.72964676  0.91794171  1
