# generated using pymatgen
data_Ba17Sr5La8Pr42Mn72O216
_symmetry_space_group_name_H-M   'P 1'
_cell_length_a   16.67563663
_cell_length_b   15.70524343
_cell_length_c   16.82730178
_cell_angle_alpha   89.99303545
_cell_angle_beta   90.07345771
_cell_angle_gamma   90.01032700
_symmetry_Int_Tables_number   1
_chemical_formula_structural   Ba17Sr5La8Pr42Mn72O216
_chemical_formula_sum   'Ba17 Sr5 La8 Pr42 Mn72 O216'
_cell_volume   4406.98133862
_cell_formula_units_Z   1
loop_
 _symmetry_equiv_pos_site_id
 _symmetry_equiv_pos_as_xyz
  1  'x, y, z'
loop_
 _atom_site_type_symbol
 _atom_site_label
 _atom_site_symmetry_multiplicity
 _atom_site_fract_x
 _atom_site_fract_y
 _atom_site_fract_z
 _atom_site_occupancy
  Ba  Ba0  1  0.16852709  0.62463702  0.16721875  1
  Ba  Ba1  1  0.66589895  0.12400935  0.66362235  1
  Ba  Ba2  1  -0.00039303  0.87771863  0.00101904  1
  Ba  Ba3  1  0.66998657  0.37577809  0.33213053  1
  Ba  Ba4  1  -0.00134826  0.62516856  0.66649628  1
  Ba  Ba5  1  0.33325163  0.37559724  0.66671389  1
  Ba  Ba6  1  0.00038591  0.37202395  -0.00035617  1
  Ba  Ba7  1  0.33183848  0.12527719  1.00393522  1
  Ba  Ba8  1  0.83522972  0.62609470  0.16394092  1
  Ba  Ba9  1  0.50237733  0.12439428  0.49874037  1
  Ba  Ba10  1  0.16691260  0.37443778  0.50043605  1
  Ba  Ba11  1  0.33166074  0.62487207  1.00447202  1
  Ba  Ba12  1  0.66702425  0.62437731  0.99615243  1
  Ba  Ba13  1  -0.00087467  0.87638930  0.33345530  1
  Ba  Ba14  1  0.66532393  0.12569121  0.99747461  1
  Ba  Ba15  1  0.33347364  0.87513806  0.66964026  1
  Ba  Ba16  1  0.00221445  0.62457328  0.33172796  1
  Sr  Sr17  1  0.83413185  0.12381934  0.16661127  1
  Sr  Sr18  1  0.00030329  0.37632813  0.33332714  1
  Sr  Sr19  1  0.49903619  0.87439292  0.83411567  1
  Sr  Sr20  1  0.66683412  0.62758041  0.66459683  1
  Sr  Sr21  1  0.83698479  0.87439687  0.16322379  1
  La  La22  1  0.16801457  0.12552124  0.83504209  1
  La  La23  1  0.16516121  0.87330597  0.49968903  1
  La  La24  1  0.33579809  0.87420626  0.00255505  1
  La  La25  1  0.16523419  0.37548790  0.83022275  1
  La  La26  1  0.67209722  0.87452011  0.32810284  1
  La  La27  1  0.33359887  0.12434110  0.66556245  1
  La  La28  1  -0.00330860  0.12307161  0.99946092  1
  La  La29  1  0.66939090  0.87453080  0.00079369  1
  Pr  Pr30  1  -0.00656010  0.87524759  0.67214885  1
  Pr  Pr31  1  -0.00300482  0.37477798  0.67379435  1
  Pr  Pr32  1  0.83689245  0.37603271  0.16471254  1
  Pr  Pr33  1  0.50091891  0.37593920  0.83358151  1
  Pr  Pr34  1  0.49596801  0.12398333  0.17333791  1
  Pr  Pr35  1  0.16078762  0.12521468  0.16826199  1
  Pr  Pr36  1  0.33571686  0.37553522  0.00409348  1
  Pr  Pr37  1  0.16747146  0.37660111  0.16806994  1
  Pr  Pr38  1  0.16902816  0.62383797  0.49939435  1
  Pr  Pr39  1  0.66043026  0.87656579  0.66624086  1
  Pr  Pr40  1  0.32522752  0.12666385  0.33036123  1
  Pr  Pr41  1  0.17042975  0.62464002  0.83870479  1
  Pr  Pr42  1  0.67075049  0.37577555  0.00388697  1
  Pr  Pr43  1  0.82306313  0.37533453  0.83148466  1
  Pr  Pr44  1  0.16479977  0.87294209  0.16465089  1
  Pr  Pr45  1  0.33585245  0.87186215  0.33972960  1
  Pr  Pr46  1  0.83694763  0.12565839  0.50224289  1
  Pr  Pr47  1  0.83719872  0.62386703  0.49868744  1
  Pr  Pr48  1  -0.00142048  0.12817696  0.33381514  1
  Pr  Pr49  1  0.66379027  0.37440478  0.66261707  1
  Pr  Pr50  1  0.49342425  0.12405142  0.83563693  1
  Pr  Pr51  1  0.50511986  0.87593571  0.49827545  1
  Pr  Pr52  1  0.83655853  0.37749524  0.49729824  1
  Pr  Pr53  1  0.00188768  0.12618039  0.66626334  1
  Pr  Pr54  1  0.83508264  0.62538603  0.83919405  1
  Pr  Pr55  1  0.33274387  0.62599070  0.66811593  1
  Pr  Pr56  1  0.33668888  0.37797056  0.34167526  1
  Pr  Pr57  1  0.83202479  0.12446095  0.83839768  1
  Pr  Pr58  1  0.00046997  0.62772546  0.99502594  1
  Pr  Pr59  1  0.82180865  0.87429770  0.83236177  1
  Pr  Pr60  1  0.49474499  0.62600349  0.83562632  1
  Pr  Pr61  1  0.50463159  0.37395368  0.16532281  1
  Pr  Pr62  1  0.50399600  0.87565896  0.16189343  1
  Pr  Pr63  1  0.16450769  0.87516517  0.83175144  1
  Pr  Pr64  1  0.50254016  0.62253275  0.50175028  1
  Pr  Pr65  1  0.66458063  0.12487744  0.32709364  1
  Pr  Pr66  1  0.16753375  0.12462338  0.50155834  1
  Pr  Pr67  1  0.33006488  0.62216153  0.32948926  1
  Pr  Pr68  1  0.82916930  0.87163966  0.49926336  1
  Pr  Pr69  1  0.50455847  0.37233422  0.49667535  1
  Pr  Pr70  1  0.66879129  0.62574458  0.32489372  1
  Pr  Pr71  1  0.49968243  0.62502880  0.17072990  1
  Mn  Mn72  1  -0.00002405  0.00211780  0.16813888  1
  Mn  Mn73  1  -0.00000310  0.00005099  0.50351971  1
  Mn  Mn74  1  -0.00327426  0.00050832  0.83221026  1
  Mn  Mn75  1  0.00150520  0.49755765  0.16586732  1
  Mn  Mn76  1  0.00065779  0.50006340  0.50106551  1
  Mn  Mn77  1  -0.00189607  0.49924160  0.83271260  1
  Mn  Mn78  1  0.33390999  -0.00095712  0.17052991  1
  Mn  Mn79  1  0.33471422  -0.00107478  0.50010849  1
  Mn  Mn80  1  0.33155980  0.00001686  0.83506681  1
  Mn  Mn81  1  0.33614940  0.49705406  0.17064313  1
  Mn  Mn82  1  0.33603604  0.50257661  0.50080882  1
  Mn  Mn83  1  0.33207044  0.49892676  0.83502225  1
  Mn  Mn84  1  0.66584601  0.00060895  0.16446970  1
  Mn  Mn85  1  0.66967310  -0.00230742  0.49657672  1
  Mn  Mn86  1  0.66277380  0.00026601  0.83095139  1
  Mn  Mn87  1  0.66733192  0.49985652  0.16541206  1
  Mn  Mn88  1  0.66866244  0.50302410  0.49917152  1
  Mn  Mn89  1  0.66460107  0.50001190  0.82932813  1
  Mn  Mn90  1  0.00012880  0.24949300  0.16888577  1
  Mn  Mn91  1  0.00027309  0.24971818  0.50107465  1
  Mn  Mn92  1  -0.00302118  0.24849963  0.83279194  1
  Mn  Mn93  1  0.00118273  0.75104320  0.16545983  1
  Mn  Mn94  1  0.00051323  0.75033120  0.50225603  1
  Mn  Mn95  1  -0.00190532  0.75198630  0.83204937  1
  Mn  Mn96  1  0.33405585  0.25132111  0.17008087  1
  Mn  Mn97  1  0.33525925  0.24893817  0.49979835  1
  Mn  Mn98  1  0.33215356  0.25093674  0.83521357  1
  Mn  Mn99  1  0.33653790  0.75207278  0.17138558  1
  Mn  Mn100  1  0.33595678  0.74933518  0.50126088  1
  Mn  Mn101  1  0.33162615  0.75053052  0.83446119  1
  Mn  Mn102  1  0.66671896  0.24968840  0.16503557  1
  Mn  Mn103  1  0.67048105  0.25005193  0.49781549  1
  Mn  Mn104  1  0.66370829  0.25092100  0.83113046  1
  Mn  Mn105  1  0.66654195  0.75037303  0.16455059  1
  Mn  Mn106  1  0.66731108  0.74839881  0.49648599  1
  Mn  Mn107  1  0.66366122  0.74921892  0.82909272  1
  Mn  Mn108  1  0.16724243  0.25046041  0.00115875  1
  Mn  Mn109  1  0.16724017  0.24911802  0.33402928  1
  Mn  Mn110  1  0.16466189  0.24897496  0.66695255  1
  Mn  Mn111  1  0.16657025  0.75123031  -0.00070433  1
  Mn  Mn112  1  0.16888313  0.75278924  0.33413554  1
  Mn  Mn113  1  0.16571960  0.74937617  0.66674272  1
  Mn  Mn114  1  0.49950738  0.25060108  0.00009900  1
  Mn  Mn115  1  0.50049670  0.25020440  0.33297708  1
  Mn  Mn116  1  0.49941431  0.25192410  0.66735907  1
  Mn  Mn117  1  0.49958302  0.75019957  -0.00079411  1
  Mn  Mn118  1  0.50186797  0.75064592  0.33404408  1
  Mn  Mn119  1  0.50009086  0.74731076  0.66591514  1
  Mn  Mn120  1  0.83284611  0.24919483  -0.00027526  1
  Mn  Mn121  1  0.83400494  0.24833013  0.33374012  1
  Mn  Mn122  1  0.83238284  0.25047519  0.66693343  1
  Mn  Mn123  1  0.83421943  0.75093027  -0.00152289  1
  Mn  Mn124  1  0.83385061  0.75211348  0.33226117  1
  Mn  Mn125  1  0.83018247  0.74989443  0.66627119  1
  Mn  Mn126  1  0.16776787  0.00103198  0.00071879  1
  Mn  Mn127  1  0.16808742  0.00022206  0.33447333  1
  Mn  Mn128  1  0.16383689  0.00062327  0.66603455  1
  Mn  Mn129  1  0.16594446  0.49778291  -0.00026476  1
  Mn  Mn130  1  0.16778423  0.49816885  0.33425887  1
  Mn  Mn131  1  0.16542314  0.50139927  0.66761469  1
  Mn  Mn132  1  0.49949439  -0.00004257  -0.00012184  1
  Mn  Mn133  1  0.50006933  -0.00301657  0.33174275  1
  Mn  Mn134  1  0.49834539  -0.00048984  0.66757403  1
  Mn  Mn135  1  0.49960178  0.49972075  -0.00037247  1
  Mn  Mn136  1  0.50212288  0.50127787  0.33516120  1
  Mn  Mn137  1  0.50094403  0.50144261  0.66661990  1
  Mn  Mn138  1  0.83220347  0.00101191  0.00032574  1
  Mn  Mn139  1  0.83283053  0.00022961  0.33444402  1
  Mn  Mn140  1  0.83258711  -0.00017985  0.66746460  1
  Mn  Mn141  1  0.83484944  0.49858765  -0.00207326  1
  Mn  Mn142  1  0.83544037  0.49914478  0.33236395  1
  Mn  Mn143  1  0.82999912  0.50053208  0.66602125  1
  O  O144  1  0.16309868  0.12695276  0.02383969  1
  O  O145  1  0.17484661  0.12333723  0.35798365  1
  O  O146  1  0.16809875  0.12428034  0.68982927  1
  O  O147  1  0.16029023  0.62386260  0.01012355  1
  O  O148  1  0.17797340  0.62786495  0.35279828  1
  O  O149  1  0.17429465  0.62613433  0.69305681  1
  O  O150  1  0.50096429  0.12674152  0.02712160  1
  O  O151  1  0.51373590  0.12285235  0.34142077  1
  O  O152  1  0.49910641  0.12894725  0.69069229  1
  O  O153  1  0.50063416  0.62286763  0.02562630  1
  O  O154  1  0.51073503  0.62817152  0.35872574  1
  O  O155  1  0.50450126  0.62324067  0.69229768  1
  O  O156  1  0.83533285  0.12623674  0.01298187  1
  O  O157  1  0.83275343  0.12352701  0.35986889  1
  O  O158  1  0.83787629  0.12402610  0.69545366  1
  O  O159  1  0.83930490  0.62361678  0.00399420  1
  O  O160  1  0.82759465  0.62842496  0.35326118  1
  O  O161  1  0.82914747  0.62339732  0.69506884  1
  O  O162  1  0.17197217  0.36923103  0.31394895  1
  O  O163  1  0.15464220  0.37252016  0.65796426  1
  O  O164  1  0.17122863  0.37306676  0.97537381  1
  O  O165  1  0.17475505  0.87974216  0.31015980  1
  O  O166  1  0.15739822  0.87717530  0.64337292  1
  O  O167  1  0.17048801  0.87666181  0.97636151  1
  O  O168  1  0.49065186  0.37617060  0.31126036  1
  O  O169  1  0.50026361  0.37954324  0.63988076  1
  O  O170  1  0.49210174  0.37551118  0.97725945  1
  O  O171  1  0.49181127  0.87220414  0.30556764  1
  O  O172  1  0.50109450  0.86936594  0.64201919  1
  O  O173  1  0.49322144  0.87524928  0.98403355  1
  O  O174  1  0.83658939  0.36946604  0.30915318  1
  O  O175  1  0.83166981  0.37559856  0.64058463  1
  O  O176  1  0.82682555  0.37350940  0.97729633  1
  O  O177  1  0.82856544  0.87780946  0.31278778  1
  O  O178  1  0.83205178  0.87749753  0.64252489  1
  O  O179  1  0.82700815  0.87658765  0.97862675  1
  O  O180  1  -0.00150416  0.36984446  0.18430049  1
  O  O181  1  -0.00393725  0.37369143  0.52784299  1
  O  O182  1  0.00982089  0.37236950  0.84310905  1
  O  O183  1  0.00602100  0.88141291  0.17628693  1
  O  O184  1  0.00869966  0.87810230  0.52721396  1
  O  O185  1  0.01200983  0.87808771  0.84576629  1
  O  O186  1  0.33970522  0.37263835  0.19818751  1
  O  O187  1  0.34405203  0.37715048  0.51053473  1
  O  O188  1  0.33475876  0.37435609  0.85752709  1
  O  O189  1  0.34139713  0.87684144  0.19680508  1
  O  O190  1  0.33969528  0.87282290  0.51512426  1
  O  O191  1  0.32896677  0.87598375  0.85579944  1
  O  O192  1  0.67108867  0.37461102  0.17642521  1
  O  O193  1  0.67309455  0.38114577  0.51987411  1
  O  O194  1  0.66540577  0.37509453  0.85899501  1
  O  O195  1  0.66333306  0.87545400  0.18403232  1
  O  O196  1  0.67246332  0.87143029  0.52315086  1
  O  O197  1  0.66822629  0.87534554  0.85454109  1
  O  O198  1  0.00784653  0.12672836  0.14445184  1
  O  O199  1  -0.00825409  0.12288703  0.47808370  1
  O  O200  1  -0.01503592  0.12387844  0.80776008  1
  O  O201  1  0.00305244  0.62036210  0.14305027  1
  O  O202  1  -0.00910674  0.62495716  0.48927863  1
  O  O203  1  -0.01288236  0.62560717  0.82138893  1
  O  O204  1  0.33574645  0.12539586  0.15667103  1
  O  O205  1  0.32725080  0.12250787  0.47630287  1
  O  O206  1  0.33261496  0.12666026  0.81258134  1
  O  O207  1  0.33937351  0.62409629  0.15915574  1
  O  O208  1  0.33261386  0.62775809  0.47327076  1
  O  O209  1  0.32668901  0.62367262  0.81429157  1
  O  O210  1  0.65341786  0.12465959  0.15506936  1
  O  O211  1  0.67382851  0.11919877  0.47279717  1
  O  O212  1  0.66412777  0.12639544  0.81900569  1
  O  O213  1  0.65792627  0.62482063  0.15437336  1
  O  O214  1  0.65999524  0.62724593  0.46852586  1
  O  O215  1  0.66561537  0.62321212  0.81283903  1
  O  O216  1  0.08185398  0.02540771  0.25709841  1
  O  O217  1  0.08435128  0.02871350  0.58256497  1
  O  O218  1  0.07836190  0.02508454  0.91209921  1
  O  O219  1  0.08785143  0.50035485  0.24790298  1
  O  O220  1  0.08924537  0.51826876  0.57785370  1
  O  O221  1  0.08091175  0.51987045  0.91247149  1
  O  O222  1  0.41071105  0.02264545  0.25849784  1
  O  O223  1  0.41128512  0.01781300  0.59030584  1
  O  O224  1  0.41614833  0.01494339  0.91971132  1
  O  O225  1  0.41938286  0.52282383  0.25550657  1
  O  O226  1  0.41628971  0.52795631  0.58563874  1
  O  O227  1  0.41674879  0.51611202  0.91631973  1
  O  O228  1  0.73955311  0.01745905  0.25397786  1
  O  O229  1  0.76194884  0.01514659  0.57493071  1
  O  O230  1  0.75372685  0.01104815  0.90632374  1
  O  O231  1  0.74584979  0.51410905  0.25385666  1
  O  O232  1  0.74953044  0.52467512  0.58133578  1
  O  O233  1  0.75587743  0.51026163  0.90492372  1
  O  O234  1  0.24449888  0.22923863  0.24560278  1
  O  O235  1  0.24814600  0.23043767  0.58186567  1
  O  O236  1  0.24342471  0.23567273  0.91203725  1
  O  O237  1  0.26098181  0.74114415  0.26056354  1
  O  O238  1  0.25386045  0.72840663  0.58574609  1
  O  O239  1  0.24578329  0.73797334  0.91410121  1
  O  O240  1  0.57472222  0.24103485  0.24162665  1
  O  O241  1  0.58515681  0.24946164  0.58029641  1
  O  O242  1  0.57418638  0.23884546  0.90772162  1
  O  O243  1  0.58029016  0.73299271  0.24901980  1
  O  O244  1  0.58066457  0.73298809  0.57352102  1
  O  O245  1  0.57922111  0.73607934  0.90703754  1
  O  O246  1  0.91845830  0.22721609  0.25595009  1
  O  O247  1  0.92018400  0.22868570  0.58997367  1
  O  O248  1  0.91669619  0.23019597  0.91734957  1
  O  O249  1  0.91636593  0.74477055  0.25071378  1
  O  O250  1  0.91363849  0.74314693  0.58689870  1
  O  O251  1  0.91808151  0.73723207  0.91683559  1
  O  O252  1  0.08949687  0.47932689  0.08664137  1
  O  O253  1  0.08678634  0.49456435  0.41738573  1
  O  O254  1  0.07749596  0.48640391  0.74889687  1
  O  O255  1  0.09643103  0.98955317  0.09180598  1
  O  O256  1  0.09294622  0.98930160  0.42473613  1
  O  O257  1  0.07436702  0.98800859  0.74236885  1
  O  O258  1  0.41877086  0.47634875  0.08996664  1
  O  O259  1  0.42207316  0.48692547  0.41956005  1
  O  O260  1  0.42103442  0.49037041  0.75690166  1
  O  O261  1  0.42284446  0.98302912  0.09357275  1
  O  O262  1  0.42449758  0.97853100  0.41855606  1
  O  O263  1  0.41641498  0.99410408  0.75673854  1
  O  O264  1  0.75192373  0.48170518  0.07878674  1
  O  O265  1  0.75852905  0.49035406  0.42409285  1
  O  O266  1  0.74558690  0.47338700  0.74534878  1
  O  O267  1  0.74847944  0.98488940  0.08120056  1
  O  O268  1  0.74906393  0.97445964  0.41525765  1
  O  O269  1  0.74503214  0.97762375  0.74445906  1
  O  O270  1  0.25836478  0.27595759  0.08572052  1
  O  O271  1  0.26010582  0.26260830  0.40703141  1
  O  O272  1  0.24248082  0.26250328  0.75437225  1
  O  O273  1  0.25378736  0.77387953  0.08801859  1
  O  O274  1  0.25124145  0.77200587  0.42098489  1
  O  O275  1  0.24022429  0.76678301  0.75704594  1
  O  O276  1  0.58493795  0.27564971  0.07656064  1
  O  O277  1  0.58345457  0.26439175  0.41504120  1
  O  O278  1  0.58280576  0.27713421  0.74751715  1
  O  O279  1  0.58411526  0.77153922  0.08110680  1
  O  O280  1  0.58487562  0.77879092  0.41266796  1
  O  O281  1  0.58445942  0.76977628  0.74350872  1
  O  O282  1  0.91200767  0.26146595  0.09023539  1
  O  O283  1  0.91645672  0.26688194  0.42292363  1
  O  O284  1  0.90978650  0.27535797  0.75343931  1
  O  O285  1  0.91733436  0.75762844  0.08084128  1
  O  O286  1  0.90964424  0.76482779  0.42518306  1
  O  O287  1  0.91111432  0.77443113  0.75603914  1
  O  O288  1  0.25459813  0.47509586  0.08635323  1
  O  O289  1  0.25844778  0.48828869  0.41390968  1
  O  O290  1  0.24437910  0.48500556  0.75587413  1
  O  O291  1  0.25904530  0.97487559  0.08572509  1
  O  O292  1  0.25595370  0.97901503  0.41227164  1
  O  O293  1  0.23834515  0.98566295  0.75453137  1
  O  O294  1  0.58384254  0.47636928  0.07965671  1
  O  O295  1  0.58052185  0.48192857  0.42097047  1
  O  O296  1  0.58377326  0.47312304  0.74614545  1
  O  O297  1  0.58646920  0.97635454  0.07727733  1
  O  O298  1  0.58677174  0.97523135  0.40798781  1
  O  O299  1  0.58354568  0.97989865  0.74526873  1
  O  O300  1  0.91386006  0.48189736  0.08629267  1
  O  O301  1  0.91764297  0.48148482  0.41930401  1
  O  O302  1  0.91136735  0.47577087  0.75201508  1
  O  O303  1  0.91764825  0.99729805  0.08515163  1
  O  O304  1  0.91075429  0.98323795  0.43203156  1
  O  O305  1  0.90907464  0.97347830  0.75581871  1
  O  O306  1  0.09424324  0.26518155  0.09288218  1
  O  O307  1  0.08363650  0.25306427  0.41608415  1
  O  O308  1  0.07339876  0.25698784  0.74444472  1
  O  O309  1  0.08956070  0.76527756  0.08357405  1
  O  O310  1  0.09072721  0.76288189  0.41973248  1
  O  O311  1  0.07745897  0.76885044  0.74497510  1
  O  O312  1  0.42173451  0.27223837  0.09064490  1
  O  O313  1  0.42282081  0.26698238  0.41884896  1
  O  O314  1  0.42182572  0.26500253  0.75933227  1
  O  O315  1  0.41822166  0.76939744  0.09053164  1
  O  O316  1  0.42144176  0.76855254  0.41855554  1
  O  O317  1  0.41386633  0.75187141  0.75226637  1
  O  O318  1  0.75047474  0.26791822  0.08111647  1
  O  O319  1  0.75783566  0.26527144  0.42128436  1
  O  O320  1  0.74545013  0.27378036  0.74483252  1
  O  O321  1  0.74831172  0.76584698  0.07709597  1
  O  O322  1  0.74826085  0.77071045  0.41404959  1
  O  O323  1  0.74465138  0.77382007  0.74332669  1
  O  O324  1  0.24475333  0.02187866  0.24680656  1
  O  O325  1  0.24537413  0.01813581  0.58279793  1
  O  O326  1  0.24265742  0.01590900  0.91227526  1
  O  O327  1  0.25745618  0.50740241  0.25536791  1
  O  O328  1  0.25312213  0.52239078  0.58300478  1
  O  O329  1  0.24473620  0.51087339  0.91323309  1
  O  O330  1  0.57330153  0.00885492  0.24047993  1
  O  O331  1  0.58488414  0.00040046  0.57693570  1
  O  O332  1  0.57617003  0.01362747  0.90833341  1
  O  O333  1  0.57916040  0.51674696  0.24936433  1
  O  O334  1  0.58205451  0.51838610  0.57916214  1
  O  O335  1  0.57634157  0.51251284  0.90635086  1
  O  O336  1  0.91792237  0.02135483  0.25683209  1
  O  O337  1  0.92313832  0.01882593  0.59501693  1
  O  O338  1  0.91561702  0.01881555  0.91675235  1
  O  O339  1  0.91628971  0.50400921  0.24741468  1
  O  O340  1  0.90948022  0.51192769  0.58006245  1
  O  O341  1  0.91820518  0.51301400  0.91677242  1
  O  O342  1  0.08299862  0.22649478  0.25428854  1
  O  O343  1  0.08393675  0.22449524  0.58131302  1
  O  O344  1  0.07831894  0.22594607  0.91204209  1
  O  O345  1  0.09079914  0.74759200  0.24814032  1
  O  O346  1  0.09414680  0.73164201  0.57608112  1
  O  O347  1  0.08227373  0.73031331  0.91014577  1
  O  O348  1  0.41219869  0.22742054  0.25717344  1
  O  O349  1  0.41169797  0.23232313  0.59141514  1
  O  O350  1  0.41625641  0.23441188  0.91865374  1
  O  O351  1  0.42031834  0.72438044  0.25569570  1
  O  O352  1  0.41760047  0.72176657  0.58377859  1
  O  O353  1  0.41666800  0.73458852  0.91478972  1
  O  O354  1  0.74641354  0.22833908  0.25360589  1
  O  O355  1  0.75885266  0.23327321  0.57907496  1
  O  O356  1  0.75453768  0.23932882  0.90588173  1
  O  O357  1  0.74296304  0.73911236  0.25447902  1
  O  O358  1  0.75241797  0.72821083  0.57275818  1
  O  O359  1  0.75603351  0.73952944  0.90415607  1
