# generated using pymatgen
data_Ba17Sr5La8Pr42Mn72O216
_symmetry_space_group_name_H-M   'P 1'
_cell_length_a   16.67386981
_cell_length_b   15.70223661
_cell_length_c   16.81822570
_cell_angle_alpha   90.01367339
_cell_angle_beta   89.99066539
_cell_angle_gamma   89.97011169
_symmetry_Int_Tables_number   1
_chemical_formula_structural   Ba17Sr5La8Pr42Mn72O216
_chemical_formula_sum   'Ba17 Sr5 La8 Pr42 Mn72 O216'
_cell_volume   4403.29743742
_cell_formula_units_Z   1
loop_
 _symmetry_equiv_pos_site_id
 _symmetry_equiv_pos_as_xyz
  1  'x, y, z'
loop_
 _atom_site_type_symbol
 _atom_site_label
 _atom_site_symmetry_multiplicity
 _atom_site_fract_x
 _atom_site_fract_y
 _atom_site_fract_z
 _atom_site_occupancy
  Ba  Ba0  1  0.50115369  0.87576588  0.16480263  1
  Ba  Ba1  1  0.33587082  0.37496177  0.66763581  1
  Ba  Ba2  1  0.83242603  0.62479256  0.16860951  1
  Ba  Ba3  1  0.16554716  0.87519124  0.83382158  1
  Ba  Ba4  1  0.66388206  0.12175717  0.66232029  1
  Ba  Ba5  1  -0.00018025  0.12643694  0.33231539  1
  Ba  Ba6  1  0.00295170  0.37494698  -0.00262927  1
  Ba  Ba7  1  0.16914928  0.62729626  0.83368653  1
  Ba  Ba8  1  0.66909980  0.37424521  -0.00146259  1
  Ba  Ba9  1  -0.00042125  0.87531511  0.00002963  1
  Ba  Ba10  1  0.83160133  0.62622392  0.83352617  1
  Ba  Ba11  1  0.83647007  0.37615129  0.83257811  1
  Ba  Ba12  1  0.49890167  0.62679305  0.83123812  1
  Ba  Ba13  1  0.16861325  0.37535838  0.50190537  1
  Ba  Ba14  1  0.33615060  0.37482100  0.00134360  1
  Ba  Ba15  1  0.16738212  0.12423069  0.17055471  1
  Ba  Ba16  1  0.16398687  0.12446587  0.50007249  1
  Sr  Sr17  1  0.33215491  0.87522550  0.66870396  1
  Sr  Sr18  1  0.50359670  0.37571181  0.49749055  1
  Sr  Sr19  1  0.33153433  0.62793021  0.66899445  1
  Sr  Sr20  1  0.66484484  0.87513306  0.66523515  1
  Sr  Sr21  1  0.33812314  0.37411490  0.34006767  1
  La  La22  1  -0.00253872  0.87591890  0.33246252  1
  La  La23  1  0.67033613  0.87050981  0.33286821  1
  La  La24  1  0.00176544  0.62253760  0.33195990  1
  La  La25  1  0.66150991  0.12263530  0.99445362  1
  La  La26  1  -0.00051171  0.62464691  0.99589271  1
  La  La27  1  0.17031700  0.37104744  0.16791827  1
  La  La28  1  0.66336815  0.12385655  0.33127267  1
  La  La29  1  0.66956590  0.37459325  0.66933804  1
  Pr  Pr30  1  0.17109504  0.62224389  0.50874365  1
  Pr  Pr31  1  0.32910890  0.12955822  0.33284620  1
  Pr  Pr32  1  0.66377909  0.62673783  0.99425730  1
  Pr  Pr33  1  0.83164936  0.87440829  0.82979514  1
  Pr  Pr34  1  0.33172759  0.12131001  1.00204396  1
  Pr  Pr35  1  0.50116489  0.87576116  0.49411392  1
  Pr  Pr36  1  -0.00234418  0.87573628  0.67203912  1
  Pr  Pr37  1  0.50426791  0.37545759  0.16514443  1
  Pr  Pr38  1  0.66898966  0.87117937  -0.00083242  1
  Pr  Pr39  1  0.84281523  0.37408074  0.15953487  1
  Pr  Pr40  1  0.16633223  0.87818964  0.16332153  1
  Pr  Pr41  1  0.32719063  0.12193595  0.66508854  1
  Pr  Pr42  1  0.16184618  0.87131323  0.50137968  1
  Pr  Pr43  1  0.16664171  0.12587743  0.83566062  1
  Pr  Pr44  1  0.33243883  0.62120152  0.33648106  1
  Pr  Pr45  1  0.83033502  0.12311363  0.50243477  1
  Pr  Pr46  1  0.49506726  0.12874554  0.16753428  1
  Pr  Pr47  1  0.65907852  0.62525212  0.32987858  1
  Pr  Pr48  1  0.82934960  0.12476808  0.83377199  1
  Pr  Pr49  1  0.33167425  0.87065747  0.00327675  1
  Pr  Pr50  1  0.33410436  0.62733855  0.99477829  1
  Pr  Pr51  1  0.17207461  0.37657829  0.82814262  1
  Pr  Pr52  1  -0.00247825  0.12557242  0.99982543  1
  Pr  Pr53  1  0.49957549  0.87539266  0.82886279  1
  Pr  Pr54  1  -0.00384584  0.12383638  0.66176049  1
  Pr  Pr55  1  0.83485671  0.87732516  0.16311890  1
  Pr  Pr56  1  0.83002573  0.87836160  0.49920966  1
  Pr  Pr57  1  0.00506629  0.37561774  0.33242785  1
  Pr  Pr58  1  0.49068018  0.12616609  0.50202797  1
  Pr  Pr59  1  0.83213517  0.12727132  0.16634895  1
  Pr  Pr60  1  0.83665663  0.37172672  0.50055431  1
  Pr  Pr61  1  0.50672021  0.37617598  0.82766362  1
  Pr  Pr62  1  0.00064065  0.62571481  0.66629666  1
  Pr  Pr63  1  0.66406286  0.62430127  0.66315104  1
  Pr  Pr64  1  0.49379466  0.62397299  0.50574110  1
  Pr  Pr65  1  0.33247428  0.87655237  0.33906165  1
  Pr  Pr66  1  0.16743336  0.62297796  0.16673091  1
  Pr  Pr67  1  0.00794967  0.37490825  0.67354297  1
  Pr  Pr68  1  0.49769705  0.62248341  0.16407125  1
  Pr  Pr69  1  0.67274045  0.37730983  0.33370239  1
  Pr  Pr70  1  0.83109120  0.62833032  0.50369333  1
  Pr  Pr71  1  0.49337956  0.12591666  0.83159767  1
  Mn  Mn72  1  -0.00070322  -0.00049613  0.16726933  1
  Mn  Mn73  1  -0.00210092  -0.00242012  0.50126114  1
  Mn  Mn74  1  -0.00282943  0.00185430  0.83202519  1
  Mn  Mn75  1  0.00232892  0.50154677  0.16661749  1
  Mn  Mn76  1  -0.00303923  0.49992231  0.49923411  1
  Mn  Mn77  1  0.00191602  0.50167018  0.83373652  1
  Mn  Mn78  1  0.33558664  -0.00149297  0.16985011  1
  Mn  Mn79  1  0.33208180  -0.00301997  0.50209844  1
  Mn  Mn80  1  0.33361101  0.00036000  0.83344124  1
  Mn  Mn81  1  0.33467113  0.50079362  0.16936561  1
  Mn  Mn82  1  0.33544201  0.49900856  0.50052321  1
  Mn  Mn83  1  0.33534683  0.50034350  0.83552509  1
  Mn  Mn84  1  0.66726214  0.00101440  0.16352823  1
  Mn  Mn85  1  0.66458075  -0.00168782  0.49573522  1
  Mn  Mn86  1  0.66428260  0.00004391  0.83127060  1
  Mn  Mn87  1  0.66634197  0.50063110  0.16721470  1
  Mn  Mn88  1  0.66807741  0.50034424  0.49800341  1
  Mn  Mn89  1  0.66695987  0.50157259  0.83110772  1
  Mn  Mn90  1  0.00101156  0.25022870  0.16608536  1
  Mn  Mn91  1  -0.00211396  0.25111815  0.50025962  1
  Mn  Mn92  1  0.00048166  0.24642265  0.83145754  1
  Mn  Mn93  1  0.00126060  0.74861533  0.16834582  1
  Mn  Mn94  1  -0.00176038  0.75031171  0.49886092  1
  Mn  Mn95  1  -0.00156526  0.75047622  0.83365655  1
  Mn  Mn96  1  0.33562532  0.25234989  0.16965571  1
  Mn  Mn97  1  0.33450194  0.24971888  0.50009417  1
  Mn  Mn98  1  0.33473255  0.24858766  0.83497794  1
  Mn  Mn99  1  0.33332262  0.74708718  0.16959639  1
  Mn  Mn100  1  0.33324873  0.75222185  0.50166695  1
  Mn  Mn101  1  0.33419706  0.75241549  0.83293736  1
  Mn  Mn102  1  0.66680369  0.24877650  0.16713340  1
  Mn  Mn103  1  0.66609854  0.25096105  0.49726490  1
  Mn  Mn104  1  0.66618936  0.24737544  0.83042780  1
  Mn  Mn105  1  0.66650594  0.75001130  0.16589551  1
  Mn  Mn106  1  0.66617823  0.75014281  0.49826994  1
  Mn  Mn107  1  0.66508090  0.75308357  0.83096753  1
  Mn  Mn108  1  0.16771266  0.24831047  -0.00019122  1
  Mn  Mn109  1  0.16837152  0.25185446  0.33469078  1
  Mn  Mn110  1  0.16627019  0.24754777  0.66969097  1
  Mn  Mn111  1  0.16761288  0.75070241  0.00424290  1
  Mn  Mn112  1  0.16754032  0.74897540  0.33422104  1
  Mn  Mn113  1  0.16537082  0.75040134  0.66546848  1
  Mn  Mn114  1  0.50007612  0.24848998  -0.00014190  1
  Mn  Mn115  1  0.50225992  0.24963442  0.33434683  1
  Mn  Mn116  1  0.50005307  0.24875720  0.66467027  1
  Mn  Mn117  1  0.50018452  0.75217917  -0.00105360  1
  Mn  Mn118  1  0.49847948  0.74862468  0.33252692  1
  Mn  Mn119  1  0.49919429  0.75218248  0.66422358  1
  Mn  Mn120  1  0.83280956  0.24808400  0.00068163  1
  Mn  Mn121  1  0.83163312  0.25197080  0.33216728  1
  Mn  Mn122  1  0.83404603  0.24967974  0.66443084  1
  Mn  Mn123  1  0.83237392  0.75022960  0.00091358  1
  Mn  Mn124  1  0.83387380  0.74918707  0.33546894  1
  Mn  Mn125  1  0.83167404  0.75078953  0.66609828  1
  Mn  Mn126  1  0.16676770  0.00154220  0.00102293  1
  Mn  Mn127  1  0.16787156  -0.00471911  0.33453646  1
  Mn  Mn128  1  0.16399865  -0.00099173  0.66750030  1
  Mn  Mn129  1  0.16909856  0.49882022  0.00232457  1
  Mn  Mn130  1  0.16829200  0.50286915  0.33551869  1
  Mn  Mn131  1  0.16777172  0.50173372  0.66828864  1
  Mn  Mn132  1  0.49904225  0.00065163  -0.00234789  1
  Mn  Mn133  1  0.50034787  -0.00022660  0.33190341  1
  Mn  Mn134  1  0.49740798  -0.00202077  0.66431307  1
  Mn  Mn135  1  0.50124138  0.49920916  0.00012794  1
  Mn  Mn136  1  0.50091469  0.50102909  0.33369683  1
  Mn  Mn137  1  0.50057290  0.50053534  0.66468631  1
  Mn  Mn138  1  0.83138928  0.00063447  -0.00054414  1
  Mn  Mn139  1  0.83197239  0.00060600  0.33157567  1
  Mn  Mn140  1  0.83159500  -0.00192650  0.66638792  1
  Mn  Mn141  1  0.83273937  0.50065472  0.00173762  1
  Mn  Mn142  1  0.83340806  0.49841951  0.33543317  1
  Mn  Mn143  1  0.83387061  0.50271459  0.66356148  1
  O  O144  1  0.16865737  0.12448709  0.01502092  1
  O  O145  1  0.17327663  0.12081908  0.34340007  1
  O  O146  1  0.16373634  0.12305554  0.68817911  1
  O  O147  1  0.17349913  0.62688100  0.02382917  1
  O  O148  1  0.16401035  0.62855699  0.36460227  1
  O  O149  1  0.16196398  0.62681736  0.67379415  1
  O  O150  1  0.50055359  0.12387035  0.02430226  1
  O  O151  1  0.50786098  0.12129131  0.35912842  1
  O  O152  1  0.49365292  0.12189179  0.68682926  1
  O  O153  1  0.50339163  0.62704794  0.02003606  1
  O  O154  1  0.50767884  0.62663767  0.36056206  1
  O  O155  1  0.50703327  0.62724860  0.67511492  1
  O  O156  1  0.82823083  0.12289736  0.02248820  1
  O  O157  1  0.82894236  0.12505955  0.35984045  1
  O  O158  1  0.83955809  0.12013665  0.68740053  1
  O  O159  1  0.82515525  0.62699804  0.01174701  1
  O  O160  1  0.83946128  0.62045659  0.36068826  1
  O  O161  1  0.82939192  0.62822063  0.67778719  1
  O  O162  1  0.16453442  0.38203000  0.31448965  1
  O  O163  1  0.15915275  0.37452866  0.66174272  1
  O  O164  1  0.16845586  0.36930562  0.97303206  1
  O  O165  1  0.17510072  0.86844814  0.30664977  1
  O  O166  1  0.15730048  0.87388308  0.64573381  1
  O  O167  1  0.17492345  0.87891196  0.99091710  1
  O  O168  1  0.50220818  0.37764475  0.30863063  1
  O  O169  1  0.50745687  0.37508832  0.64887948  1
  O  O170  1  0.50020438  0.36969628  0.97410932  1
  O  O171  1  0.49206064  0.87351882  0.31920125  1
  O  O172  1  0.49821483  0.87538138  0.63783763  1
  O  O173  1  0.49821439  0.87941852  0.97471353  1
  O  O174  1  0.82354563  0.37659341  0.30275001  1
  O  O175  1  0.83156050  0.37923459  0.64386255  1
  O  O176  1  0.83551691  0.37210598  0.99295974  1
  O  O177  1  0.83067361  0.87793571  0.30662936  1
  O  O178  1  0.83903249  0.87369041  0.64162264  1
  O  O179  1  0.82794492  0.87822124  0.97480521  1
  O  O180  1  -0.00523467  0.37729031  0.18530132  1
  O  O181  1  -0.00914516  0.37908046  0.52881992  1
  O  O182  1  0.00728948  0.37365020  0.83964833  1
  O  O183  1  -0.00433281  0.87274308  0.18629313  1
  O  O184  1  -0.00002782  0.87218465  0.52811427  1
  O  O185  1  -0.00737696  0.87746359  0.84426880  1
  O  O186  1  0.33939264  0.37889947  0.18969853  1
  O  O187  1  0.33950695  0.37511044  0.50838409  1
  O  O188  1  0.32773388  0.37183610  0.84515243  1
  O  O189  1  0.33109941  0.86953655  0.19546180  1
  O  O190  1  0.34442844  0.87466307  0.51961710  1
  O  O191  1  0.33964075  0.87959310  0.85901855  1
  O  O192  1  0.65694625  0.37523276  0.19179242  1
  O  O193  1  0.66727902  0.37985773  0.52509904  1
  O  O194  1  0.65850963  0.37186544  0.83882417  1
  O  O195  1  0.67209281  0.87806565  0.19045587  1
  O  O196  1  0.66437282  0.87372304  0.51631308  1
  O  O197  1  0.66334189  0.87874080  0.85597643  1
  O  O198  1  -0.00307956  0.12398135  0.14880888  1
  O  O199  1  -0.00915260  0.12132039  0.48727946  1
  O  O200  1  -0.00727199  0.12340090  0.80472105  1
  O  O201  1  0.00885973  0.62550027  0.14365941  1
  O  O202  1  -0.00746200  0.62667037  0.47186303  1
  O  O203  1  0.00002098  0.62621456  0.81347867  1
  O  O204  1  0.34025036  0.12546051  0.14743686  1
  O  O205  1  0.33731262  0.12020839  0.47703464  1
  O  O206  1  0.34035584  0.12334936  0.80789780  1
  O  O207  1  0.33290484  0.62487160  0.13891177  1
  O  O208  1  0.33011981  0.62859091  0.48130363  1
  O  O209  1  0.33476577  0.62730801  0.82166996  1
  O  O210  1  0.67452785  0.12235961  0.13846235  1
  O  O211  1  0.67397295  0.12106508  0.47448361  1
  O  O212  1  0.67033844  0.12268482  0.81846698  1
  O  O213  1  0.66162759  0.62440983  0.13958973  1
  O  O214  1  0.67523226  0.62599236  0.47119119  1
  O  O215  1  0.66640288  0.62982929  0.80881539  1
  O  O216  1  0.08380337  -0.00338760  0.25289409  1
  O  O217  1  0.07613848  0.01229815  0.58615417  1
  O  O218  1  0.07991900  0.02304403  0.91276901  1
  O  O219  1  0.08582035  0.52161342  0.25079120  1
  O  O220  1  0.07674594  0.52114803  0.58229953  1
  O  O221  1  0.08214274  0.51746244  0.92550704  1
  O  O222  1  0.41968847  0.02415617  0.25039860  1
  O  O223  1  0.41148342  0.02256805  0.58529424  1
  O  O224  1  0.41585407  0.02614598  0.91730873  1
  O  O225  1  0.41504067  0.52694042  0.25447507  1
  O  O226  1  0.41687738  0.51862589  0.58396739  1
  O  O227  1  0.41345002  0.51524501  0.92594545  1
  O  O228  1  0.74890995  0.02370376  0.24699385  1
  O  O229  1  0.75423910  0.00946243  0.57502124  1
  O  O230  1  0.74825227  0.01911027  0.91759013  1
  O  O231  1  0.73875157  0.51759787  0.26399622  1
  O  O232  1  0.74640567  0.52389751  0.58231246  1
  O  O233  1  0.74365013  0.51338530  0.92071839  1
  O  O234  1  0.25477540  0.24230428  0.25239259  1
  O  O235  1  0.24967751  0.23425137  0.58929998  1
  O  O236  1  0.24943427  0.22431382  0.91467703  1
  O  O237  1  0.25114286  0.71994006  0.25466656  1
  O  O238  1  0.24505276  0.73996870  0.57763337  1
  O  O239  1  0.25627238  0.74168914  0.92807235  1
  O  O240  1  0.57822956  0.22648339  0.24267414  1
  O  O241  1  0.57453251  0.23245419  0.56827923  1
  O  O242  1  0.57573402  0.22743560  0.91088075  1
  O  O243  1  0.58032652  0.73022266  0.24654053  1
  O  O244  1  0.58425886  0.72892645  0.57607262  1
  O  O245  1  0.58545756  0.73990486  0.91756775  1
  O  O246  1  0.90373198  0.23851838  0.24104513  1
  O  O247  1  0.90773613  0.23147014  0.57366815  1
  O  O248  1  0.91381615  0.22543347  0.91012492  1
  O  O249  1  0.92426725  0.73655332  0.26018494  1
  O  O250  1  0.91923405  0.72805876  0.58414305  1
  O  O251  1  0.91782599  0.73693552  0.92281197  1
  O  O252  1  0.09196727  0.48442906  0.09240623  1
  O  O253  1  0.07632226  0.48650577  0.41270423  1
  O  O254  1  0.08603371  0.48638539  0.75245221  1
  O  O255  1  0.08372994  0.98782983  0.08762297  1
  O  O256  1  0.08258071  0.97409882  0.41881142  1
  O  O257  1  0.07418403  0.98811217  0.74432510  1
  O  O258  1  0.42595727  0.48822546  0.09536327  1
  O  O259  1  0.42394812  0.49507468  0.41888116  1
  O  O260  1  0.42429690  0.48437258  0.75907036  1
  O  O261  1  0.41131059  0.98578750  0.07694894  1
  O  O262  1  0.41722525  0.98198485  0.41857040  1
  O  O263  1  0.41895918  0.98044476  0.75465597  1
  O  O264  1  0.75491067  0.48237419  0.09738770  1
  O  O265  1  0.75602149  0.47467686  0.42293227  1
  O  O266  1  0.74819514  0.48847140  0.74267517  1
  O  O267  1  0.75037830  0.97511641  0.08274656  1
  O  O268  1  0.74899429  0.97672263  0.41273732  1
  O  O269  1  0.75243627  0.98042147  0.75185160  1
  O  O270  1  0.25313317  0.26329288  0.08822315  1
  O  O271  1  0.25740800  0.25632364  0.41396889  1
  O  O272  1  0.25001745  0.25499192  0.75428180  1
  O  O273  1  0.25033783  0.77127130  0.09066565  1
  O  O274  1  0.24921683  0.77402506  0.41845822  1
  O  O275  1  0.25178602  0.76206054  0.74787842  1
  O  O276  1  0.58569042  0.25993466  0.08302555  1
  O  O277  1  0.59497216  0.26714414  0.40376319  1
  O  O278  1  0.58726258  0.26393469  0.74154012  1
  O  O279  1  0.58939608  0.76691989  0.07469758  1
  O  O280  1  0.58544431  0.76990842  0.41314400  1
  O  O281  1  0.58162403  0.77242972  0.74805594  1
  O  O282  1  0.92053822  0.25361096  0.07996133  1
  O  O283  1  0.91679756  0.27682863  0.40712825  1
  O  O284  1  0.92956425  0.26276422  0.73626363  1
  O  O285  1  0.91177446  0.76345222  0.08912846  1
  O  O286  1  0.91400036  0.77602465  0.42189020  1
  O  O287  1  0.91183521  0.76970708  0.74891863  1
  O  O288  1  0.24779522  0.48333521  0.09297190  1
  O  O289  1  0.25504835  0.49504589  0.41359093  1
  O  O290  1  0.24966716  0.48947238  0.75605933  1
  O  O291  1  0.25285697  0.98137252  0.09099267  1
  O  O292  1  0.24779446  0.97207110  0.42296486  1
  O  O293  1  0.25058860  0.99340519  0.75122346  1
  O  O294  1  0.58175215  0.48389662  0.08543676  1
  O  O295  1  0.59429527  0.48410547  0.40674450  1
  O  O296  1  0.58806991  0.48572095  0.74197758  1
  O  O297  1  0.59115928  0.98599096  0.07126623  1
  O  O298  1  0.58610777  0.97604318  0.40842150  1
  O  O299  1  0.57968942  0.98122967  0.74716526  1
  O  O300  1  0.91822081  0.49211184  0.08718114  1
  O  O301  1  0.91635150  0.47101273  0.41518088  1
  O  O302  1  0.92529652  0.49188825  0.73552853  1
  O  O303  1  0.91022477  0.98932704  0.08695590  1
  O  O304  1  0.91437555  0.97556732  0.41926391  1
  O  O305  1  0.91173950  0.97862939  0.75142173  1
  O  O306  1  0.09017740  0.26450190  0.08750291  1
  O  O307  1  0.07901590  0.26605784  0.41865252  1
  O  O308  1  0.09354070  0.26042948  0.76266056  1
  O  O309  1  0.09093935  0.76517903  0.09256304  1
  O  O310  1  0.08022469  0.77632061  0.41332961  1
  O  O311  1  0.07365022  0.76063478  0.73859260  1
  O  O312  1  0.42766369  0.26358237  0.09573416  1
  O  O313  1  0.42702443  0.25652615  0.42177460  1
  O  O314  1  0.42837889  0.26282287  0.76434239  1
  O  O315  1  0.41285612  0.76375837  0.08025165  1
  O  O316  1  0.41524168  0.76457998  0.41685944  1
  O  O317  1  0.41898682  0.77104110  0.75231318  1
  O  O318  1  0.75938921  0.26382653  0.09970551  1
  O  O319  1  0.75490971  0.27414078  0.41941549  1
  O  O320  1  0.75580542  0.25912561  0.74776649  1
  O  O321  1  0.75202606  0.77372167  0.08581896  1
  O  O322  1  0.75259422  0.77222025  0.42045082  1
  O  O323  1  0.74984596  0.77335616  0.75229347  1
  O  O324  1  0.26204906  0.00963003  0.26192523  1
  O  O325  1  0.25043893  0.01023341  0.58830582  1
  O  O326  1  0.25267268  0.02269682  0.91727959  1
  O  O327  1  0.25036979  0.52601834  0.25110856  1
  O  O328  1  0.24708939  0.51459116  0.58196851  1
  O  O329  1  0.25415554  0.51422986  0.92376964  1
  O  O330  1  0.58347535  0.02231539  0.24265497  1
  O  O331  1  0.57334775  0.01270281  0.56779002  1
  O  O332  1  0.57757810  0.02146185  0.91092220  1
  O  O333  1  0.57748801  0.52465427  0.24478552  1
  O  O334  1  0.58398388  0.52409964  0.57397633  1
  O  O335  1  0.58470315  0.51438440  0.91721892  1
  O  O336  1  0.91113218  0.01365587  0.24682435  1
  O  O337  1  0.91378890  0.01701625  0.58421559  1
  O  O338  1  0.91420473  0.02590355  0.91655962  1
  O  O339  1  0.92268246  0.51150110  0.25706003  1
  O  O340  1  0.91134163  0.52550064  0.57611386  1
  O  O341  1  0.92117886  0.51374230  0.91778694  1
  O  O342  1  0.08021390  0.25175581  0.25187779  1
  O  O343  1  0.07250315  0.23888718  0.59867549  1
  O  O344  1  0.07712173  0.22177710  0.91838980  1
  O  O345  1  0.08685730  0.72759783  0.25254197  1
  O  O346  1  0.08365772  0.72829277  0.57320565  1
  O  O347  1  0.08181721  0.73663900  0.92587661  1
  O  O348  1  0.41617272  0.22722396  0.25717519  1
  O  O349  1  0.41110157  0.22677468  0.58901419  1
  O  O350  1  0.41108915  0.22323086  0.92442074  1
  O  O351  1  0.41548063  0.72104014  0.25021413  1
  O  O352  1  0.41721446  0.73130487  0.58049170  1
  O  O353  1  0.41417836  0.74034469  0.92290878  1
  O  O354  1  0.74080651  0.22821547  0.25847370  1
  O  O355  1  0.74966752  0.23663039  0.57901246  1
  O  O356  1  0.74717873  0.22980247  0.91988846  1
  O  O357  1  0.74240809  0.73420841  0.25970518  1
  O  O358  1  0.74793535  0.73246187  0.58229731  1
  O  O359  1  0.74213710  0.74211757  0.92288343  1
