# generated using pymatgen
data_Ba17Sr5La8Pr42Mn72O216
_symmetry_space_group_name_H-M   'P 1'
_cell_length_a   16.68359058
_cell_length_b   15.70689726
_cell_length_c   16.82578656
_cell_angle_alpha   89.99635941
_cell_angle_beta   90.02645009
_cell_angle_gamma   90.01491294
_symmetry_Int_Tables_number   1
_chemical_formula_structural   Ba17Sr5La8Pr42Mn72O216
_chemical_formula_sum   'Ba17 Sr5 La8 Pr42 Mn72 O216'
_cell_volume   4409.15371910
_cell_formula_units_Z   1
loop_
 _symmetry_equiv_pos_site_id
 _symmetry_equiv_pos_as_xyz
  1  'x, y, z'
loop_
 _atom_site_type_symbol
 _atom_site_label
 _atom_site_symmetry_multiplicity
 _atom_site_fract_x
 _atom_site_fract_y
 _atom_site_fract_z
 _atom_site_occupancy
  Ba  Ba0  1  0.00340747  0.87384420  0.66920517  1
  Ba  Ba1  1  0.49640552  0.62436826  0.83260747  1
  Ba  Ba2  1  0.00081769  0.37251656  0.33712024  1
  Ba  Ba3  1  0.49696489  0.12331506  0.16412209  1
  Ba  Ba4  1  0.83160523  0.12542425  0.83578100  1
  Ba  Ba5  1  0.50344593  0.87734057  0.16357681  1
  Ba  Ba6  1  0.33717913  0.37327251  0.33324282  1
  Ba  Ba7  1  0.83802864  0.37633374  0.83469003  1
  Ba  Ba8  1  0.83693077  0.87405393  0.83604423  1
  Ba  Ba9  1  0.83159316  0.62524901  0.83648583  1
  Ba  Ba10  1  0.83409705  0.12637827  0.16971637  1
  Ba  Ba11  1  0.50081551  0.87306245  0.83050209  1
  Ba  Ba12  1  0.66529403  0.12590631  0.66503226  1
  Ba  Ba13  1  0.67003212  0.87625207  0.33084229  1
  Ba  Ba14  1  0.82835394  0.62379948  0.50102702  1
  Ba  Ba15  1  0.50033218  0.37657043  0.83025414  1
  Ba  Ba16  1  0.32972365  0.62611480  0.99783237  1
  Sr  Sr17  1  0.50588640  0.37209062  0.49507577  1
  Sr  Sr18  1  0.33110260  0.12692188  0.32814219  1
  Sr  Sr19  1  0.00438533  0.37666113  0.67001811  1
  Sr  Sr20  1  -0.00415445  0.12678776  0.33444217  1
  Sr  Sr21  1  0.66107999  0.62568899  0.99843641  1
  La  La22  1  0.17161522  0.37459371  0.49771986  1
  La  La23  1  -0.00491361  0.12590332  1.00029963  1
  La  La24  1  0.17288670  0.87519794  0.49663013  1
  La  La25  1  0.16243792  0.12470091  0.83445397  1
  La  La26  1  -0.01240384  0.62383876  0.33327737  1
  La  La27  1  0.65886196  0.62349999  0.66766925  1
  La  La28  1  0.83869175  0.87500092  0.16578856  1
  La  La29  1  0.16441214  0.12946611  0.50023516  1
  Pr  Pr30  1  0.00381206  0.87751129  0.00070724  1
  Pr  Pr31  1  0.67629661  0.87234987  0.00224283  1
  Pr  Pr32  1  -0.00324313  0.62455836  0.99930086  1
  Pr  Pr33  1  0.67480719  0.87258432  0.66807350  1
  Pr  Pr34  1  0.50569519  0.37218159  0.15991355  1
  Pr  Pr35  1  0.83764574  0.37309043  0.50193901  1
  Pr  Pr36  1  -0.00826531  0.12505154  0.66815783  1
  Pr  Pr37  1  0.34165177  0.87308255  -0.00023309  1
  Pr  Pr38  1  0.83264246  0.12658507  0.50285608  1
  Pr  Pr39  1  0.49195188  0.12447998  0.49564718  1
  Pr  Pr40  1  0.81891977  0.62254511  0.17453469  1
  Pr  Pr41  1  0.49112394  0.62439663  0.49933106  1
  Pr  Pr42  1  0.34497030  0.87810674  0.33412794  1
  Pr  Pr43  1  0.17186799  0.87567029  0.16585576  1
  Pr  Pr44  1  0.15636119  0.62333009  0.16954961  1
  Pr  Pr45  1  0.17339681  0.37354587  0.16633452  1
  Pr  Pr46  1  0.34214550  0.37686619  0.00278508  1
  Pr  Pr47  1  0.65894470  0.12264761  0.99255194  1
  Pr  Pr48  1  0.84600383  0.37434965  0.16538270  1
  Pr  Pr49  1  0.33352081  0.12537475  0.66455791  1
  Pr  Pr50  1  0.00139881  0.87990144  0.33915743  1
  Pr  Pr51  1  0.48619215  0.62705529  0.16675676  1
  Pr  Pr52  1  0.66151044  0.12522487  0.33048705  1
  Pr  Pr53  1  0.16324761  0.12607269  0.17332865  1
  Pr  Pr54  1  0.67405211  0.37736294  0.66872085  1
  Pr  Pr55  1  0.65169795  0.62499635  0.33052665  1
  Pr  Pr56  1  0.33756008  0.37372129  0.66558605  1
  Pr  Pr57  1  0.16212635  0.62584255  0.83669602  1
  Pr  Pr58  1  0.51112430  0.87747085  0.49463199  1
  Pr  Pr59  1  0.67820714  0.37769667  0.00066826  1
  Pr  Pr60  1  0.17119775  0.87350616  0.83015831  1
  Pr  Pr61  1  0.67108524  0.37299365  0.33335931  1
  Pr  Pr62  1  0.15872083  0.62194044  0.50282669  1
  Pr  Pr63  1  0.17153887  0.37697177  0.83206994  1
  Pr  Pr64  1  0.33761436  0.87553917  0.66675505  1
  Pr  Pr65  1  0.32155674  0.62466697  0.32789703  1
  Pr  Pr66  1  0.00587689  0.37191555  0.00293000  1
  Pr  Pr67  1  0.49631446  0.12595461  0.83443303  1
  Pr  Pr68  1  -0.01038949  0.62422107  0.66864209  1
  Pr  Pr69  1  0.33076739  0.62451482  0.66764827  1
  Pr  Pr70  1  0.84027164  0.87801205  0.50067428  1
  Pr  Pr71  1  0.32974508  0.12217433  0.99750496  1
  Mn  Mn72  1  0.00237054  -0.00156387  0.17081662  1
  Mn  Mn73  1  0.00221735  0.00184226  0.50169094  1
  Mn  Mn74  1  0.00321748  0.00065573  0.83551741  1
  Mn  Mn75  1  0.00072420  0.50017229  0.16731399  1
  Mn  Mn76  1  0.00021385  0.49908495  0.50333246  1
  Mn  Mn77  1  0.00333974  0.49986861  0.83558618  1
  Mn  Mn78  1  0.33037345  0.00003330  0.16488417  1
  Mn  Mn79  1  0.33272104  0.00051199  0.49855869  1
  Mn  Mn80  1  0.33130334  0.00091044  0.83057638  1
  Mn  Mn81  1  0.33164428  0.50003522  0.16624584  1
  Mn  Mn82  1  0.33358098  0.50136890  0.49788670  1
  Mn  Mn83  1  0.33104519  0.49837396  0.83236406  1
  Mn  Mn84  1  0.66948993  0.00199751  0.16456198  1
  Mn  Mn85  1  0.66842640  0.00153550  0.49890954  1
  Mn  Mn86  1  0.66496553  -0.00183357  0.83147192  1
  Mn  Mn87  1  0.66348209  0.49945148  0.16820730  1
  Mn  Mn88  1  0.66357595  0.49833093  0.49814195  1
  Mn  Mn89  1  0.66670408  0.50011527  0.83492314  1
  Mn  Mn90  1  0.00345470  0.24980728  0.16919604  1
  Mn  Mn91  1  0.00100918  0.24918622  0.50418123  1
  Mn  Mn92  1  0.00354436  0.25108244  0.83479209  1
  Mn  Mn93  1  -0.00049045  0.74951060  0.16882359  1
  Mn  Mn94  1  0.00153779  0.74973716  0.50098315  1
  Mn  Mn95  1  0.00294969  0.74896251  0.83559597  1
  Mn  Mn96  1  0.33305820  0.24994538  0.16458746  1
  Mn  Mn97  1  0.33420873  0.24826428  0.49890900  1
  Mn  Mn98  1  0.33112939  0.24881224  0.83214476  1
  Mn  Mn99  1  0.32906956  0.75088004  0.16647165  1
  Mn  Mn100  1  0.33251202  0.75055953  0.49736474  1
  Mn  Mn101  1  0.33097495  0.75113478  0.83145274  1
  Mn  Mn102  1  0.66723367  0.25067200  0.16637314  1
  Mn  Mn103  1  0.66672626  0.25130665  0.49768112  1
  Mn  Mn104  1  0.66524708  0.25170677  0.83176172  1
  Mn  Mn105  1  0.66600998  0.74816315  0.16573125  1
  Mn  Mn106  1  0.66556140  0.74917976  0.49938029  1
  Mn  Mn107  1  0.66635320  0.74992923  0.83490814  1
  Mn  Mn108  1  0.16846135  0.24883431  0.00094960  1
  Mn  Mn109  1  0.16713816  0.24914392  0.33449989  1
  Mn  Mn110  1  0.16752477  0.25016191  0.66836339  1
  Mn  Mn111  1  0.16520641  0.75217452  0.00061848  1
  Mn  Mn112  1  0.16403456  0.75078829  0.33346895  1
  Mn  Mn113  1  0.16848598  0.74780414  0.66604519  1
  Mn  Mn114  1  0.50030119  0.25008948  -0.00262522  1
  Mn  Mn115  1  0.50068282  0.25087202  0.33000258  1
  Mn  Mn116  1  0.49964113  0.24963100  0.66237399  1
  Mn  Mn117  1  0.50204143  0.74983810  -0.00050515  1
  Mn  Mn118  1  0.49789951  0.75000192  0.33408488  1
  Mn  Mn119  1  0.49807566  0.74986732  0.66018455  1
  Mn  Mn120  1  0.83378794  0.25067082  0.00300075  1
  Mn  Mn121  1  0.83186939  0.25087669  0.33576083  1
  Mn  Mn122  1  0.83479247  0.25085326  0.66705329  1
  Mn  Mn123  1  0.83621988  0.74841563  0.00601722  1
  Mn  Mn124  1  0.83163967  0.75014582  0.33400980  1
  Mn  Mn125  1  0.83155029  0.74866219  0.66674439  1
  Mn  Mn126  1  0.16670592  -0.00021120  0.00158575  1
  Mn  Mn127  1  0.16722322  -0.00020444  0.33277845  1
  Mn  Mn128  1  0.16793364  0.00141252  0.66620785  1
  Mn  Mn129  1  0.16683275  0.49919272  0.00042454  1
  Mn  Mn130  1  0.16442555  0.50027045  0.33505424  1
  Mn  Mn131  1  0.16783785  0.50059713  0.66768627  1
  Mn  Mn132  1  0.50023888  0.00012336  -0.00380336  1
  Mn  Mn133  1  0.50042732  0.00123304  0.33192191  1
  Mn  Mn134  1  0.49967103  0.00052438  0.66273804  1
  Mn  Mn135  1  0.50241469  0.49941300  0.00018290  1
  Mn  Mn136  1  0.49812902  0.49982297  0.33180324  1
  Mn  Mn137  1  0.49763208  0.49870018  0.65976260  1
  Mn  Mn138  1  0.83406194  -0.00003434  0.00329628  1
  Mn  Mn139  1  0.83405865  0.00082751  0.33525026  1
  Mn  Mn140  1  0.83356556  0.00044044  0.66697918  1
  Mn  Mn141  1  0.83647268  0.50056986  0.00540869  1
  Mn  Mn142  1  0.82901599  0.49867187  0.33521722  1
  Mn  Mn143  1  0.83270659  0.50032977  0.66730835  1
  O  O144  1  0.17667470  0.12295827  0.03055806  1
  O  O145  1  0.17230470  0.12190097  0.35412638  1
  O  O146  1  0.17875480  0.12945957  0.69290090  1
  O  O147  1  0.16404258  0.62673979  0.02684665  1
  O  O148  1  0.17352724  0.62753820  0.35673725  1
  O  O149  1  0.18077891  0.62523732  0.69422977  1
  O  O150  1  0.50660776  0.12590871  0.00755772  1
  O  O151  1  0.50441555  0.12423918  0.35058462  1
  O  O152  1  0.49598855  0.12393852  0.69028005  1
  O  O153  1  0.50390428  0.62219076  0.02216338  1
  O  O154  1  0.50118874  0.62511937  0.35469145  1
  O  O155  1  0.50473793  0.62497760  0.67429398  1
  O  O156  1  0.84079770  0.12514526  0.01191690  1
  O  O157  1  0.83028137  0.12720961  0.35866585  1
  O  O158  1  0.83799111  0.12598767  0.67566537  1
  O  O159  1  0.84763494  0.62313971  0.03081332  1
  O  O160  1  0.83468317  0.62374867  0.34334129  1
  O  O161  1  0.83577107  0.62364268  0.67617648  1
  O  O162  1  0.16533293  0.37555347  0.31371250  1
  O  O163  1  0.16490465  0.37432093  0.63978741  1
  O  O164  1  0.15713179  0.37262174  0.97525351  1
  O  O165  1  0.15396335  0.87448240  0.31006822  1
  O  O166  1  0.17006375  0.87057857  0.63913110  1
  O  O167  1  0.15432378  0.87772885  0.97318840  1
  O  O168  1  0.50553391  0.37760798  0.30572312  1
  O  O169  1  0.48576944  0.37526348  0.64230330  1
  O  O170  1  0.49134495  0.37329554  0.99010459  1
  O  O171  1  0.49558483  0.87622316  0.32220043  1
  O  O172  1  0.48804742  0.87505370  0.63629122  1
  O  O173  1  0.49217195  0.87775649  0.98960785  1
  O  O174  1  0.82545376  0.37671228  0.30876566  1
  O  O175  1  0.82965297  0.37633330  0.64667667  1
  O  O176  1  0.83171004  0.37601873  0.99328186  1
  O  O177  1  0.83958231  0.87227324  0.31154128  1
  O  O178  1  0.82790188  0.87412306  0.64592781  1
  O  O179  1  0.82753237  0.87431354  0.99543602  1
  O  O180  1  0.00468852  0.37537421  0.18074115  1
  O  O181  1  -0.00032278  0.37334236  0.51955114  1
  O  O182  1  0.01346570  0.37552466  0.85810126  1
  O  O183  1  0.00273208  0.86965575  0.19676244  1
  O  O184  1  0.00039523  0.87589844  0.51191751  1
  O  O185  1  0.01257100  0.87328245  0.85484805  1
  O  O186  1  0.33312094  0.37605609  0.17628673  1
  O  O187  1  0.32744293  0.37213653  0.52241389  1
  O  O188  1  0.32597234  0.36903240  0.85903932  1
  O  O189  1  0.32629370  0.87311349  0.18940550  1
  O  O190  1  0.32618538  0.87519333  0.52516179  1
  O  O191  1  0.32533043  0.87909870  0.85585686  1
  O  O192  1  0.65594396  0.37661131  0.19166258  1
  O  O193  1  0.65976791  0.37379187  0.52497699  1
  O  O194  1  0.66827670  0.37540144  0.85329838  1
  O  O195  1  0.67537237  0.87316352  0.17316424  1
  O  O196  1  0.65756553  0.87432817  0.52212372  1
  O  O197  1  0.66774742  0.87491496  0.85479848  1
  O  O198  1  0.00887893  0.12699977  0.14403367  1
  O  O199  1  0.00024973  0.12385363  0.48307101  1
  O  O200  1  0.00676549  0.12765159  0.81450482  1
  O  O201  1  0.00666492  0.62570078  0.14111618  1
  O  O202  1  0.00736096  0.62555592  0.47775090  1
  O  O203  1  0.01088807  0.62385435  0.81386348  1
  O  O204  1  0.32137260  0.12617094  0.14246042  1
  O  O205  1  0.33409043  0.12246388  0.47683274  1
  O  O206  1  0.32759552  0.12461245  0.80798829  1
  O  O207  1  0.32911994  0.62586181  0.15586314  1
  O  O208  1  0.33797893  0.63110431  0.46892685  1
  O  O209  1  0.32158926  0.62707710  0.81307358  1
  O  O210  1  0.66889437  0.12931360  0.13903649  1
  O  O211  1  0.68089535  0.12946824  0.47454696  1
  O  O212  1  0.65970933  0.12564444  0.82465494  1
  O  O213  1  0.67110850  0.62165622  0.14768369  1
  O  O214  1  0.66248081  0.62234015  0.47463206  1
  O  O215  1  0.66401129  0.62461015  0.81422479  1
  O  O216  1  0.08217285  0.02041768  0.25475172  1
  O  O217  1  0.08142980  0.02433270  0.59071605  1
  O  O218  1  0.08187006  0.02590907  0.92724369  1
  O  O219  1  0.07320324  0.52465540  0.25677695  1
  O  O220  1  0.08058732  0.52527152  0.59462654  1
  O  O221  1  0.07946889  0.52264882  0.92619471  1
  O  O222  1  0.40860172  0.00833617  0.25684294  1
  O  O223  1  0.41116273  0.02349473  0.58492415  1
  O  O224  1  0.41108035  0.02264294  0.91431431  1
  O  O225  1  0.40839026  0.52365460  0.25786583  1
  O  O226  1  0.40716526  0.52398799  0.58527951  1
  O  O227  1  0.40981178  0.50411828  0.92210599  1
  O  O228  1  0.74675047  0.01750826  0.25982544  1
  O  O229  1  0.75146978  0.00813824  0.58071658  1
  O  O230  1  0.74042159  0.01084955  0.92940589  1
  O  O231  1  0.73362967  0.51715685  0.26179072  1
  O  O232  1  0.73354414  0.51085141  0.59046681  1
  O  O233  1  0.74850016  0.50964089  0.93438394  1
  O  O234  1  0.24335750  0.23852111  0.23957713  1
  O  O235  1  0.24819851  0.22970074  0.58304643  1
  O  O236  1  0.24585585  0.22622016  0.91446069  1
  O  O237  1  0.23467152  0.73392852  0.24040962  1
  O  O238  1  0.24471440  0.72633653  0.57324282  1
  O  O239  1  0.23713604  0.74143927  0.90557883  1
  O  O240  1  0.58330515  0.23375032  0.24594587  1
  O  O241  1  0.57547015  0.22972839  0.56703420  1
  O  O242  1  0.57573312  0.23499707  0.90916233  1
  O  O243  1  0.57341077  0.72844896  0.24041920  1
  O  O244  1  0.57014043  0.73509984  0.56779148  1
  O  O245  1  0.58186506  0.74133020  0.91403759  1
  O  O246  1  0.91464059  0.24401846  0.25224724  1
  O  O247  1  0.91739098  0.23120542  0.58347656  1
  O  O248  1  0.92371140  0.24328497  0.92118239  1
  O  O249  1  0.90842376  0.72791528  0.23786332  1
  O  O250  1  0.91593093  0.74022247  0.58064198  1
  O  O251  1  0.92105057  0.73867229  0.92389948  1
  O  O252  1  0.09401051  0.48207421  0.09265836  1
  O  O253  1  0.09330613  0.48719685  0.43084086  1
  O  O254  1  0.09610685  0.48558401  0.76042457  1
  O  O255  1  0.08886411  0.97740569  0.08867648  1
  O  O256  1  0.09032881  0.98369854  0.42251531  1
  O  O257  1  0.09499260  0.98973773  0.76100941  1
  O  O258  1  0.42641488  0.48761071  0.09305516  1
  O  O259  1  0.42851559  0.48837665  0.42304217  1
  O  O260  1  0.41191760  0.49096444  0.74286285  1
  O  O261  1  0.41107569  0.99311929  0.07557297  1
  O  O262  1  0.42165150  0.98193654  0.42482172  1
  O  O263  1  0.41396274  0.98715780  0.74370677  1
  O  O264  1  0.76023885  0.48183136  0.10117705  1
  O  O265  1  0.75299586  0.47325904  0.42744577  1
  O  O266  1  0.74855281  0.48794504  0.74997753  1
  O  O267  1  0.75842659  0.98439435  0.09032732  1
  O  O268  1  0.76094764  0.98210179  0.42580243  1
  O  O269  1  0.74888127  0.98571367  0.74867492  1
  O  O270  1  0.25379367  0.27531070  0.07558097  1
  O  O271  1  0.24907799  0.26186684  0.42118435  1
  O  O272  1  0.25223599  0.27639382  0.74627487  1
  O  O273  1  0.25247575  0.77719131  0.07348233  1
  O  O274  1  0.25914265  0.77411362  0.40660827  1
  O  O275  1  0.25524166  0.77525658  0.74176276  1
  O  O276  1  0.59027458  0.27100214  0.07687590  1
  O  O277  1  0.59388405  0.26339626  0.40589113  1
  O  O278  1  0.58607131  0.26951169  0.73491548  1
  O  O279  1  0.59669830  0.76337601  0.07486519  1
  O  O280  1  0.58725578  0.76031837  0.41096785  1
  O  O281  1  0.58759633  0.76435452  0.73013310  1
  O  O282  1  0.92392534  0.26734914  0.08257504  1
  O  O283  1  0.91050183  0.26201092  0.42543308  1
  O  O284  1  0.92613526  0.25953448  0.74550019  1
  O  O285  1  0.92799870  0.77566249  0.08091959  1
  O  O286  1  0.92624859  0.76504579  0.40607021  1
  O  O287  1  0.92547161  0.75229679  0.75022976  1
  O  O288  1  0.25458452  0.47665660  0.07366943  1
  O  O289  1  0.25413751  0.48983113  0.41583826  1
  O  O290  1  0.25459137  0.47334455  0.74197960  1
  O  O291  1  0.25170373  0.97155528  0.07557182  1
  O  O292  1  0.25526909  0.97488873  0.40838548  1
  O  O293  1  0.25365255  0.97668326  0.74374533  1
  O  O294  1  0.59147048  0.47492892  0.07905804  1
  O  O295  1  0.59468933  0.48535336  0.40018182  1
  O  O296  1  0.58738954  0.48564209  0.72955117  1
  O  O297  1  0.59447110  0.98982234  0.06705831  1
  O  O298  1  0.58603575  0.99435919  0.41501778  1
  O  O299  1  0.58724521  0.97936281  0.73523295  1
  O  O300  1  0.92797354  0.47698767  0.07917529  1
  O  O301  1  0.91695628  0.48901314  0.41628283  1
  O  O302  1  0.92835599  0.49263400  0.74817249  1
  O  O303  1  0.92448763  0.98009126  0.08528121  1
  O  O304  1  0.92037090  0.98124118  0.41615429  1
  O  O305  1  0.92151330  0.99622975  0.74588986  1
  O  O306  1  0.09141338  0.26976374  0.08714134  1
  O  O307  1  0.08991595  0.25967059  0.42992966  1
  O  O308  1  0.09377266  0.26570653  0.75979734  1
  O  O309  1  0.08970575  0.77109745  0.09336677  1
  O  O310  1  0.09359663  0.76675331  0.42622230  1
  O  O311  1  0.09701945  0.76068834  0.76174135  1
  O  O312  1  0.41784332  0.26410215  0.08255779  1
  O  O313  1  0.42517102  0.25736067  0.42143888  1
  O  O314  1  0.41116121  0.25985697  0.74616642  1
  O  O315  1  0.41809221  0.75791570  0.08721744  1
  O  O316  1  0.42190057  0.77481242  0.42643817  1
  O  O317  1  0.41215605  0.76001077  0.74227485  1
  O  O318  1  0.75547651  0.27622567  0.09572258  1
  O  O319  1  0.75237920  0.27861286  0.42039616  1
  O  O320  1  0.74986766  0.26440698  0.74637438  1
  O  O321  1  0.76519343  0.75729496  0.09949882  1
  O  O322  1  0.75950490  0.77015144  0.43157127  1
  O  O323  1  0.74859091  0.76296354  0.75099975  1
  O  O324  1  0.23975039  0.01300399  0.24097117  1
  O  O325  1  0.24626495  0.02116103  0.57593409  1
  O  O326  1  0.24513673  0.02079313  0.91527283  1
  O  O327  1  0.23810206  0.51510890  0.24143015  1
  O  O328  1  0.24420438  0.52165638  0.57928550  1
  O  O329  1  0.23671122  0.51071028  0.90641770  1
  O  O330  1  0.58660444  0.01438635  0.24716107  1
  O  O331  1  0.57283944  0.01704156  0.57077461  1
  O  O332  1  0.57429798  0.01652324  0.90593711  1
  O  O333  1  0.56994176  0.52502916  0.23784899  1
  O  O334  1  0.57093313  0.51707224  0.56706066  1
  O  O335  1  0.58234144  0.50713015  0.91699343  1
  O  O336  1  0.91864381  0.00829527  0.25510608  1
  O  O337  1  0.91399655  0.01662463  0.57886703  1
  O  O338  1  0.92152168  0.00528529  0.92417933  1
  O  O339  1  0.90760295  0.51463749  0.23878093  1
  O  O340  1  0.91784187  0.51088546  0.58405491  1
  O  O341  1  0.92140271  0.51268382  0.92100691  1
  O  O342  1  0.08301747  0.23091148  0.25146731  1
  O  O343  1  0.08182015  0.22544144  0.59288596  1
  O  O344  1  0.08340271  0.22432554  0.92570776  1
  O  O345  1  0.07181149  0.72302180  0.25834101  1
  O  O346  1  0.08140993  0.72249622  0.59328273  1
  O  O347  1  0.07883791  0.72700184  0.92595986  1
  O  O348  1  0.41230498  0.23943792  0.24870927  1
  O  O349  1  0.41207944  0.22505207  0.58444180  1
  O  O350  1  0.40981999  0.22639437  0.91644363  1
  O  O351  1  0.40459416  0.73390853  0.26166564  1
  O  O352  1  0.40688483  0.72631798  0.58485834  1
  O  O353  1  0.40815321  0.74593476  0.91716804  1
  O  O354  1  0.74041625  0.23580493  0.26113687  1
  O  O355  1  0.75505279  0.24217889  0.57551297  1
  O  O356  1  0.74192198  0.24050069  0.93283813  1
  O  O357  1  0.73870545  0.72863627  0.25892893  1
  O  O358  1  0.73279152  0.73697084  0.59264132  1
  O  O359  1  0.74862603  0.73942227  0.93426914  1
