# generated using pymatgen
data_Ba17Sr5La8Pr42Mn72O216
_symmetry_space_group_name_H-M   'P 1'
_cell_length_a   16.67445455
_cell_length_b   15.69641952
_cell_length_c   16.82257805
_cell_angle_alpha   89.99069587
_cell_angle_beta   90.01329362
_cell_angle_gamma   89.99909771
_symmetry_Int_Tables_number   1
_chemical_formula_structural   Ba17Sr5La8Pr42Mn72O216
_chemical_formula_sum   'Ba17 Sr5 La8 Pr42 Mn72 O216'
_cell_volume   4402.96028628
_cell_formula_units_Z   1
loop_
 _symmetry_equiv_pos_site_id
 _symmetry_equiv_pos_as_xyz
  1  'x, y, z'
loop_
 _atom_site_type_symbol
 _atom_site_label
 _atom_site_symmetry_multiplicity
 _atom_site_fract_x
 _atom_site_fract_y
 _atom_site_fract_z
 _atom_site_occupancy
  Ba  Ba0  1  0.16514360  0.87485348  0.83510829  1
  Ba  Ba1  1  0.33577629  0.37499749  0.66537364  1
  Ba  Ba2  1  0.83215718  0.87605927  0.16449164  1
  Ba  Ba3  1  0.49886037  0.87296820  0.49863837  1
  Ba  Ba4  1  0.16626747  0.12579320  0.50251283  1
  Ba  Ba5  1  0.50061205  0.37758029  0.49735767  1
  Ba  Ba6  1  0.33274240  0.12751598  1.00047166  1
  Ba  Ba7  1  -0.00074663  0.87562400  0.67099579  1
  Ba  Ba8  1  0.83115413  0.12545131  0.16725751  1
  Ba  Ba9  1  0.16688029  0.62429505  0.16908640  1
  Ba  Ba10  1  0.83651736  0.37612202  0.49871582  1
  Ba  Ba11  1  0.17009358  0.37707950  0.17013927  1
  Ba  Ba12  1  -0.00091225  0.87402083  0.00199765  1
  Ba  Ba13  1  0.50106285  0.87596651  0.83081202  1
  Ba  Ba14  1  0.66406113  0.12530481  0.32938383  1
  Ba  Ba15  1  0.49881608  0.62622557  0.49917071  1
  Ba  Ba16  1  0.83376419  0.37396157  0.16596533  1
  Sr  Sr17  1  0.16502726  0.62332024  0.83956784  1
  Sr  Sr18  1  -0.00062911  0.62235288  1.00132032  1
  Sr  Sr19  1  0.33506303  0.37419593  0.00055307  1
  Sr  Sr20  1  0.16588867  0.12621833  0.83659913  1
  Sr  Sr21  1  0.16978891  0.37170039  0.49959756  1
  La  La22  1  0.83355301  0.62630602  0.16510479  1
  La  La23  1  0.66798477  0.87230812  0.66518939  1
  La  La24  1  0.83273412  0.62519402  0.50212724  1
  La  La25  1  0.66871302  0.37577263  -0.00179952  1
  La  La26  1  0.32931405  0.87320735  0.33554346  1
  La  La27  1  0.50175293  0.37263225  0.82666227  1
  La  La28  1  0.16666541  0.12581490  0.17113689  1
  La  La29  1  0.16513070  0.62172772  0.50387405  1
  Pr  Pr30  1  0.00188235  0.12132454  0.66606893  1
  Pr  Pr31  1  0.66843431  0.12419973  0.99694682  1
  Pr  Pr32  1  0.67430189  0.37331539  0.33473902  1
  Pr  Pr33  1  0.66143039  0.62173006  0.33034985  1
  Pr  Pr34  1  0.49639421  0.12655719  0.16619706  1
  Pr  Pr35  1  0.33165501  0.37744549  0.34112403  1
  Pr  Pr36  1  0.83493212  0.12316309  0.83532487  1
  Pr  Pr37  1  0.32815574  0.87600951  0.00154753  1
  Pr  Pr38  1  0.49681619  0.12497325  0.50060894  1
  Pr  Pr39  1  0.16379334  0.87638367  0.50266870  1
  Pr  Pr40  1  0.00663005  0.37612462  0.00310168  1
  Pr  Pr41  1  -0.00141392  0.12954646  0.33285554  1
  Pr  Pr42  1  0.83513524  0.62663448  0.83544141  1
  Pr  Pr43  1  0.00816635  0.37507234  0.33892365  1
  Pr  Pr44  1  -0.00228707  0.12717653  1.00183732  1
  Pr  Pr45  1  0.33087559  0.12289306  0.66789097  1
  Pr  Pr46  1  0.66763242  0.62576674  0.99535252  1
  Pr  Pr47  1  0.33643848  0.62394304  0.33258569  1
  Pr  Pr48  1  0.49819703  0.62481773  0.16658722  1
  Pr  Pr49  1  0.16304710  0.87493989  0.16193253  1
  Pr  Pr50  1  -0.00166921  0.87387063  0.33614858  1
  Pr  Pr51  1  0.83444245  0.87404394  0.83194421  1
  Pr  Pr52  1  0.32785197  0.62800599  0.66855195  1
  Pr  Pr53  1  0.66636475  0.87389795  0.00057348  1
  Pr  Pr54  1  0.84059708  0.37691625  0.82792490  1
  Pr  Pr55  1  0.49856500  0.12652428  0.83402204  1
  Pr  Pr56  1  0.00755229  0.37315249  0.66916280  1
  Pr  Pr57  1  0.33276995  0.12641065  0.33240495  1
  Pr  Pr58  1  0.66540110  0.62671341  0.66184688  1
  Pr  Pr59  1  0.66403826  0.12327483  0.65936106  1
  Pr  Pr60  1  -0.00337970  0.62120334  0.33068706  1
  Pr  Pr61  1  0.00170840  0.62734414  0.66887830  1
  Pr  Pr62  1  0.33252465  0.87603307  0.67186608  1
  Pr  Pr63  1  0.67012068  0.37857216  0.66688223  1
  Pr  Pr64  1  0.49638146  0.62508919  0.83329488  1
  Pr  Pr65  1  0.17463436  0.37512373  0.83528286  1
  Pr  Pr66  1  0.49986406  0.87753485  0.16038421  1
  Pr  Pr67  1  0.83158446  0.12522143  0.50227568  1
  Pr  Pr68  1  0.32754948  0.62157489  0.99691857  1
  Pr  Pr69  1  0.66930185  0.87614536  0.33247939  1
  Pr  Pr70  1  0.83340691  0.87402946  0.49583806  1
  Pr  Pr71  1  0.50042019  0.37437681  0.16433100  1
  Mn  Mn72  1  0.00130479  0.00233107  0.16931783  1
  Mn  Mn73  1  -0.00197595  -0.00096608  0.50084325  1
  Mn  Mn74  1  -0.00043563  0.00296516  0.83503907  1
  Mn  Mn75  1  -0.00089195  0.49953064  0.16727146  1
  Mn  Mn76  1  0.00204332  0.50139264  0.50171310  1
  Mn  Mn77  1  0.00066663  0.49894377  0.83486547  1
  Mn  Mn78  1  0.33338147  -0.00036541  0.16919106  1
  Mn  Mn79  1  0.33247894  -0.00162266  0.50079447  1
  Mn  Mn80  1  0.33325440  0.00100601  0.83462199  1
  Mn  Mn81  1  0.33562007  0.50008677  0.16567531  1
  Mn  Mn82  1  0.33154640  0.50212159  0.50125968  1
  Mn  Mn83  1  0.33470018  0.49959537  0.83455220  1
  Mn  Mn84  1  0.66341298  -0.00074876  0.16417159  1
  Mn  Mn85  1  0.66639308  -0.00024112  0.49755147  1
  Mn  Mn86  1  0.66860815  0.00052392  0.82932429  1
  Mn  Mn87  1  0.66507826  0.50046173  0.16323669  1
  Mn  Mn88  1  0.66764636  0.50037855  0.49816682  1
  Mn  Mn89  1  0.66803030  0.50080254  0.83206689  1
  Mn  Mn90  1  0.00118112  0.25197301  0.16752265  1
  Mn  Mn91  1  -0.00046999  0.24915116  0.50253006  1
  Mn  Mn92  1  0.00001798  0.25082100  0.83471464  1
  Mn  Mn93  1  -0.00082458  0.74748520  0.16943623  1
  Mn  Mn94  1  0.00032281  0.74967908  0.50077785  1
  Mn  Mn95  1  0.00003615  0.74790587  0.83571344  1
  Mn  Mn96  1  0.33372998  0.25117076  0.16851913  1
  Mn  Mn97  1  0.33419259  0.24840130  0.50033678  1
  Mn  Mn98  1  0.33439929  0.25053272  0.83402094  1
  Mn  Mn99  1  0.33474817  0.75113755  0.16706481  1
  Mn  Mn100  1  0.32943483  0.75020674  0.50153220  1
  Mn  Mn101  1  0.33379114  0.74895401  0.83523783  1
  Mn  Mn102  1  0.66326811  0.25242652  0.16370557  1
  Mn  Mn103  1  0.66645147  0.24969289  0.49810809  1
  Mn  Mn104  1  0.66954455  0.24914637  0.82993903  1
  Mn  Mn105  1  0.66426197  0.74759605  0.16422323  1
  Mn  Mn106  1  0.66756214  0.75057424  0.49738631  1
  Mn  Mn107  1  0.66798521  0.74933223  0.83106532  1
  Mn  Mn108  1  0.16657473  0.25060295  0.00179991  1
  Mn  Mn109  1  0.16803054  0.24866633  0.33609672  1
  Mn  Mn110  1  0.16737066  0.25120467  0.67008193  1
  Mn  Mn111  1  0.16605800  0.74929601  0.00204245  1
  Mn  Mn112  1  0.16512764  0.75156819  0.33618899  1
  Mn  Mn113  1  0.16616619  0.74748566  0.66904841  1
  Mn  Mn114  1  0.50225531  0.25170444  -0.00250217  1
  Mn  Mn115  1  0.49821753  0.25025619  0.33096411  1
  Mn  Mn116  1  0.50290045  0.24877807  0.66564197  1
  Mn  Mn117  1  0.49896035  0.74907813  -0.00051960  1
  Mn  Mn118  1  0.49990132  0.75010096  0.32867114  1
  Mn  Mn119  1  0.49975990  0.74967782  0.66714913  1
  Mn  Mn120  1  0.83261876  0.25056123  -0.00398921  1
  Mn  Mn121  1  0.83475521  0.25066080  0.33409941  1
  Mn  Mn122  1  0.83306476  0.24991055  0.66740747  1
  Mn  Mn123  1  0.83246906  0.74777317  -0.00070469  1
  Mn  Mn124  1  0.83243637  0.74838328  0.33350090  1
  Mn  Mn125  1  0.83402173  0.74859655  0.66709779  1
  Mn  Mn126  1  0.16612363  0.00192841  0.00237923  1
  Mn  Mn127  1  0.16515457  -0.00167836  0.33408958  1
  Mn  Mn128  1  0.16707696  0.00124369  0.66923727  1
  Mn  Mn129  1  0.16684963  0.49940863  0.00065815  1
  Mn  Mn130  1  0.16733421  0.50117715  0.33899373  1
  Mn  Mn131  1  0.16638313  0.49940422  0.67043435  1
  Mn  Mn132  1  0.50131189  -0.00006747  -0.00229767  1
  Mn  Mn133  1  0.49807187  -0.00163458  0.33068203  1
  Mn  Mn134  1  0.50016052  0.00066609  0.66531398  1
  Mn  Mn135  1  0.50074079  0.50043604  -0.00203573  1
  Mn  Mn136  1  0.49897805  0.50027291  0.32868963  1
  Mn  Mn137  1  0.50245519  0.50101828  0.66747583  1
  Mn  Mn138  1  0.83248843  0.00189590  -0.00177970  1
  Mn  Mn139  1  0.83418467  -0.00088170  0.33437695  1
  Mn  Mn140  1  0.83170020  0.00108127  0.66736696  1
  Mn  Mn141  1  0.83290796  0.49890676  -0.00257987  1
  Mn  Mn142  1  0.83285988  0.50133886  0.33268321  1
  Mn  Mn143  1  0.83587694  0.50026611  0.66674601  1
  O  O144  1  0.16141287  0.12683771  0.02419051  1
  O  O145  1  0.16919735  0.12168569  0.34741696  1
  O  O146  1  0.16856773  0.12894660  0.68483217  1
  O  O147  1  0.17586397  0.62366604  0.00962833  1
  O  O148  1  0.16661259  0.62819788  0.35919299  1
  O  O149  1  0.16812938  0.62216630  0.68935043  1
  O  O150  1  0.51137073  0.12289210  0.02295076  1
  O  O151  1  0.49667547  0.12124313  0.35694481  1
  O  O152  1  0.51150976  0.12469569  0.68940479  1
  O  O153  1  0.50570656  0.62466377  0.02504476  1
  O  O154  1  0.50248140  0.62571293  0.34420124  1
  O  O155  1  0.51214608  0.62425836  0.68732842  1
  O  O156  1  0.83084675  0.12707334  0.01106779  1
  O  O157  1  0.84040021  0.12275666  0.35603936  1
  O  O158  1  0.82551051  0.12736436  0.69335008  1
  O  O159  1  0.82621556  0.62193015  0.02052204  1
  O  O160  1  0.83282803  0.62591919  0.35765331  1
  O  O161  1  0.83332431  0.62254595  0.69297816  1
  O  O162  1  0.16576477  0.37413340  0.32702791  1
  O  O163  1  0.15885271  0.37594434  0.64878026  1
  O  O164  1  0.15838506  0.37437340  0.98037751  1
  O  O165  1  0.16339797  0.87536168  0.30633435  1
  O  O166  1  0.17266013  0.87212924  0.64748472  1
  O  O167  1  0.16971213  0.87616203  0.99388597  1
  O  O168  1  0.48755925  0.37822475  0.30862306  1
  O  O169  1  0.50539977  0.37468777  0.65545950  1
  O  O170  1  0.50496039  0.37988132  0.96866315  1
  O  O171  1  0.49756691  0.87289835  0.30524575  1
  O  O172  1  0.49122222  0.87652757  0.65545409  1
  O  O173  1  0.49945143  0.87411219  0.98408789  1
  O  O174  1  0.82982478  0.37832488  0.32296742  1
  O  O175  1  0.83432770  0.37560197  0.65203463  1
  O  O176  1  0.82650796  0.37387732  0.97114378  1
  O  O177  1  0.83581735  0.87197644  0.32047324  1
  O  O178  1  0.82998816  0.87472865  0.63955614  1
  O  O179  1  0.82544715  0.87602684  0.97669929  1
  O  O180  1  -0.00041477  0.37606653  0.19163603  1
  O  O181  1  0.00196080  0.37720151  0.52530190  1
  O  O182  1  -0.00946672  0.37231248  0.86031981  1
  O  O183  1  0.00638619  0.87507251  0.19013404  1
  O  O184  1  -0.00551853  0.87342924  0.51694570  1
  O  O185  1  -0.00925533  0.87631816  0.84485003  1
  O  O186  1  0.34382455  0.37285840  0.19471037  1
  O  O187  1  0.33372964  0.37565218  0.50703182  1
  O  O188  1  0.34293731  0.37554805  0.84847814  1
  O  O189  1  0.34192688  0.87547404  0.19328662  1
  O  O190  1  0.32754883  0.87350405  0.52779852  1
  O  O191  1  0.33729982  0.87370051  0.85405582  1
  O  O192  1  0.65743859  0.37887721  0.19054711  1
  O  O193  1  0.66809794  0.37357126  0.52117430  1
  O  O194  1  0.66283691  0.37455046  0.85699450  1
  O  O195  1  0.65897389  0.86861148  0.18881386  1
  O  O196  1  0.67527194  0.87587494  0.52092180  1
  O  O197  1  0.67352695  0.87299025  0.85830222  1
  O  O198  1  0.00698932  0.12822904  0.14776697  1
  O  O199  1  -0.00637786  0.12152605  0.47738494  1
  O  O200  1  -0.00576295  0.13188820  0.80875157  1
  O  O201  1  -0.00511640  0.62214339  0.15367989  1
  O  O202  1  0.00541927  0.62778601  0.47388969  1
  O  O203  1  -0.00611189  0.62071681  0.81220980  1
  O  O204  1  0.32977123  0.12323962  0.15564994  1
  O  O205  1  0.33854281  0.12160069  0.47698394  1
  O  O206  1  0.33429103  0.12720378  0.81428039  1
  O  O207  1  0.34048037  0.62918281  0.13973306  1
  O  O208  1  0.32299205  0.62844157  0.47672918  1
  O  O209  1  0.33063439  0.62357006  0.81493125  1
  O  O210  1  0.65531689  0.12920138  0.14267712  1
  O  O211  1  0.66616338  0.12332902  0.48567433  1
  O  O212  1  0.67288038  0.12687246  0.80152360  1
  O  O213  1  0.66323616  0.62393111  0.13796422  1
  O  O214  1  0.67232467  0.62712430  0.47608422  1
  O  O215  1  0.67274461  0.62509914  0.80413302  1
  O  O216  1  0.08391332  0.02304316  0.25240937  1
  O  O217  1  0.08000432  0.01166451  0.58576590  1
  O  O218  1  0.07784295  0.02084589  0.92158945  1
  O  O219  1  0.07668730  0.51155693  0.26535357  1
  O  O220  1  0.07793488  0.52326484  0.59147988  1
  O  O221  1  0.07835060  0.50880090  0.91837751  1
  O  O222  1  0.41450422  0.02339047  0.25091242  1
  O  O223  1  0.41957474  0.02487472  0.58313132  1
  O  O224  1  0.42443854  0.01847769  0.91151634  1
  O  O225  1  0.41690864  0.52548896  0.24618912  1
  O  O226  1  0.40972166  0.51943178  0.58940300  1
  O  O227  1  0.41586421  0.52648111  0.92075475  1
  O  O228  1  0.74591166  0.00321198  0.25146347  1
  O  O229  1  0.75001167  0.02147754  0.58440842  1
  O  O230  1  0.75130286  0.02177965  0.90919735  1
  O  O231  1  0.74386396  0.52194676  0.24898873  1
  O  O232  1  0.75203985  0.52116094  0.58759020  1
  O  O233  1  0.74603424  0.52163817  0.91640471  1
  O  O234  1  0.25043342  0.23256386  0.25150284  1
  O  O235  1  0.25564602  0.23653389  0.58701818  1
  O  O236  1  0.24399605  0.24673195  0.91451760  1
  O  O237  1  0.25890980  0.73676682  0.25889005  1
  O  O238  1  0.24577298  0.72672049  0.58400105  1
  O  O239  1  0.25790224  0.73988143  0.92416552  1
  O  O240  1  0.56986381  0.23927021  0.23656536  1
  O  O241  1  0.58007936  0.22819868  0.57781392  1
  O  O242  1  0.58651718  0.22520675  0.90845167  1
  O  O243  1  0.58367303  0.72490113  0.24424047  1
  O  O244  1  0.58951919  0.74056747  0.58497268  1
  O  O245  1  0.58635254  0.72778275  0.91446703  1
  O  O246  1  0.92183772  0.23615202  0.25306482  1
  O  O247  1  0.91136097  0.22407340  0.58329939  1
  O  O248  1  0.91246869  0.22960637  0.90862845  1
  O  O249  1  0.91499570  0.72860992  0.25307808  1
  O  O250  1  0.91842004  0.72469636  0.58543841  1
  O  O251  1  0.91250155  0.73147207  0.91618042  1
  O  O252  1  0.08192320  0.48776524  0.08183862  1
  O  O253  1  0.08754100  0.48387892  0.42605685  1
  O  O254  1  0.08479424  0.47611783  0.75557957  1
  O  O255  1  0.09018053  0.98904052  0.09452758  1
  O  O256  1  0.08061195  0.97628824  0.41400214  1
  O  O257  1  0.07998556  0.99978293  0.75126550  1
  O  O258  1  0.42493185  0.48040179  0.08389848  1
  O  O259  1  0.41066568  0.49373197  0.40718622  1
  O  O260  1  0.42803933  0.49439288  0.76032201  1
  O  O261  1  0.41724490  0.98296085  0.08446539  1
  O  O262  1  0.40895560  0.98185713  0.41119786  1
  O  O263  1  0.41220955  0.99534401  0.74284173  1
  O  O264  1  0.74644069  0.48486192  0.07847171  1
  O  O265  1  0.74794395  0.48896367  0.41256657  1
  O  O266  1  0.75384114  0.47769041  0.75388185  1
  O  O267  1  0.74115271  0.98929119  0.07227186  1
  O  O268  1  0.75250626  0.97989882  0.41802024  1
  O  O269  1  0.75049552  0.97302113  0.74806847  1
  O  O270  1  0.25462477  0.26281702  0.08497005  1
  O  O271  1  0.25578374  0.26065508  0.41222930  1
  O  O272  1  0.24889889  0.26640916  0.75441543  1
  O  O273  1  0.25195098  0.77350413  0.09044419  1
  O  O274  1  0.24376773  0.77670989  0.42226826  1
  O  O275  1  0.25739530  0.76273842  0.74436597  1
  O  O276  1  0.58457434  0.27754447  0.07666451  1
  O  O277  1  0.58755123  0.26935261  0.40323091  1
  O  O278  1  0.59295185  0.27025222  0.74403827  1
  O  O279  1  0.58001063  0.77071749  0.08322509  1
  O  O280  1  0.58845276  0.76475428  0.40355900  1
  O  O281  1  0.59181312  0.76397870  0.74525246  1
  O  O282  1  0.92118184  0.26364495  0.07054964  1
  O  O283  1  0.92572162  0.26374162  0.41259184  1
  O  O284  1  0.92334673  0.27166523  0.74746945  1
  O  O285  1  0.91180271  0.75269916  0.08722322  1
  O  O286  1  0.91654658  0.76565377  0.42000976  1
  O  O287  1  0.90848482  0.75982462  0.75645032  1
  O  O288  1  0.25829727  0.48993230  0.08098897  1
  O  O289  1  0.25063195  0.48633020  0.41925480  1
  O  O290  1  0.24909682  0.48411562  0.75460564  1
  O  O291  1  0.25291632  0.97820199  0.08955945  1
  O  O292  1  0.24369349  0.97492355  0.41975771  1
  O  O293  1  0.25478701  0.98680043  0.74801622  1
  O  O294  1  0.58504892  0.47746968  0.07726138  1
  O  O295  1  0.58844875  0.48659703  0.40113011  1
  O  O296  1  0.59134551  0.47977046  0.74854606  1
  O  O297  1  0.58381267  0.97554392  0.07770051  1
  O  O298  1  0.58724111  0.97957848  0.40524334  1
  O  O299  1  0.59181274  0.98518863  0.73991109  1
  O  O300  1  0.91970373  0.48371183  0.07053463  1
  O  O301  1  0.92874659  0.48949886  0.40863731  1
  O  O302  1  0.92317677  0.47909980  0.74440788  1
  O  O303  1  0.91999140  0.99701749  0.08466951  1
  O  O304  1  0.91352900  0.97835291  0.42138004  1
  O  O305  1  0.90761089  0.99174210  0.75723807  1
  O  O306  1  0.08100130  0.26672908  0.08312711  1
  O  O307  1  0.08325900  0.26296055  0.41868497  1
  O  O308  1  0.08492268  0.27508744  0.76151416  1
  O  O309  1  0.08674796  0.76045254  0.09319574  1
  O  O310  1  0.08247915  0.77642023  0.42139828  1
  O  O311  1  0.08010241  0.75116165  0.74809991  1
  O  O312  1  0.42347872  0.26369743  0.09179677  1
  O  O313  1  0.41560023  0.25927088  0.41368376  1
  O  O314  1  0.42751412  0.25523379  0.75353551  1
  O  O315  1  0.41319872  0.77384438  0.08200660  1
  O  O316  1  0.40757833  0.76149163  0.40828955  1
  O  O317  1  0.41599118  0.75249289  0.75116006  1
  O  O318  1  0.74341994  0.26279009  0.07452774  1
  O  O319  1  0.75003292  0.25994426  0.41761399  1
  O  O320  1  0.75426530  0.27706187  0.75249194  1
  O  O321  1  0.73989396  0.76254457  0.07405842  1
  O  O322  1  0.75118619  0.77161641  0.41607200  1
  O  O323  1  0.75097748  0.77276210  0.74852124  1
  O  O324  1  0.25068254  0.01409662  0.25432016  1
  O  O325  1  0.25722346  0.01360143  0.59031184  1
  O  O326  1  0.25131633  0.00739080  0.92024424  1
  O  O327  1  0.25593739  0.51286847  0.26083128  1
  O  O328  1  0.24649884  0.52046152  0.58613895  1
  O  O329  1  0.25095485  0.50594267  0.91687948  1
  O  O330  1  0.57175040  0.01235868  0.23711450  1
  O  O331  1  0.58095094  0.01685768  0.57823586  1
  O  O332  1  0.58837780  0.02217319  0.91195276  1
  O  O333  1  0.57945322  0.52095584  0.24082375  1
  O  O334  1  0.59054865  0.51377885  0.58590188  1
  O  O335  1  0.58220868  0.52642564  0.91172001  1
  O  O336  1  0.92514482  0.01314367  0.26074239  1
  O  O337  1  0.91309781  0.02538825  0.58729776  1
  O  O338  1  0.91713111  0.02291529  0.91772221  1
  O  O339  1  0.90929420  0.52180177  0.24698460  1
  O  O340  1  0.91678572  0.52633030  0.57966477  1
  O  O341  1  0.90710319  0.51499287  0.90665357  1
  O  O342  1  0.08433065  0.23258557  0.25518645  1
  O  O343  1  0.07186936  0.23514125  0.59633821  1
  O  O344  1  0.07235128  0.23356267  0.92169508  1
  O  O345  1  0.07561910  0.73475183  0.26188045  1
  O  O346  1  0.08352988  0.72897112  0.58281329  1
  O  O347  1  0.08087449  0.73581689  0.91696073  1
  O  O348  1  0.41383233  0.22438575  0.25357484  1
  O  O349  1  0.41723408  0.22464470  0.58496521  1
  O  O350  1  0.42405330  0.23547495  0.91359241  1
  O  O351  1  0.41920097  0.72731256  0.24495147  1
  O  O352  1  0.40756651  0.73334079  0.58936789  1
  O  O353  1  0.41841338  0.72348459  0.91813185  1
  O  O354  1  0.74350759  0.24705232  0.24956936  1
  O  O355  1  0.74710602  0.23021005  0.58752400  1
  O  O356  1  0.74797509  0.22769318  0.91302916  1
  O  O357  1  0.74639727  0.72674344  0.24731336  1
  O  O358  1  0.75376576  0.72757083  0.58449206  1
  O  O359  1  0.75039597  0.72677122  0.91195298  1
