# generated using pymatgen
data_Ba17Sr5La8Pr42Mn72O216
_symmetry_space_group_name_H-M   'P 1'
_cell_length_a   16.67421751
_cell_length_b   15.69772388
_cell_length_c   16.82225054
_cell_angle_alpha   89.99192944
_cell_angle_beta   89.99533893
_cell_angle_gamma   89.96930022
_symmetry_Int_Tables_number   1
_chemical_formula_structural   Ba17Sr5La8Pr42Mn72O216
_chemical_formula_sum   'Ba17 Sr5 La8 Pr42 Mn72 O216'
_cell_volume   4403.17733526
_cell_formula_units_Z   1
loop_
 _symmetry_equiv_pos_site_id
 _symmetry_equiv_pos_as_xyz
  1  'x, y, z'
loop_
 _atom_site_type_symbol
 _atom_site_label
 _atom_site_symmetry_multiplicity
 _atom_site_fract_x
 _atom_site_fract_y
 _atom_site_fract_z
 _atom_site_occupancy
  Ba  Ba0  1  -0.00085263  0.62509431  1.00118581  1
  Ba  Ba1  1  0.83186866  0.12468732  0.16417492  1
  Ba  Ba2  1  0.49933221  0.37469082  0.49916691  1
  Ba  Ba3  1  0.83421382  0.87777282  0.16617745  1
  Ba  Ba4  1  0.66387590  0.62465825  0.32964698  1
  Ba  Ba5  1  0.33315563  0.12497910  0.33238873  1
  Ba  Ba6  1  0.83675778  0.87604538  0.49762348  1
  Ba  Ba7  1  0.83590919  0.37433821  0.49839568  1
  Ba  Ba8  1  0.33381932  0.87458603  0.33433420  1
  Ba  Ba9  1  0.83431013  0.12583263  0.83289616  1
  Ba  Ba10  1  0.83284915  0.37590848  0.83019206  1
  Ba  Ba11  1  0.66262440  0.62517688  0.99929770  1
  Ba  Ba12  1  0.66653469  0.37542445  0.66482176  1
  Ba  Ba13  1  0.16632497  0.62524455  0.50171827  1
  Ba  Ba14  1  0.00376310  0.12466475  0.66873005  1
  Ba  Ba15  1  0.16433056  0.62369661  0.17117988  1
  Ba  Ba16  1  0.33408572  0.12459088  0.99970783  1
  Sr  Sr17  1  0.33755280  0.87452720  0.00562212  1
  Sr  Sr18  1  -0.00085174  0.37387257  0.33555020  1
  Sr  Sr19  1  0.32955702  0.62365293  0.33373597  1
  Sr  Sr20  1  0.49757008  0.62380330  0.83402676  1
  Sr  Sr21  1  0.16633633  0.37491400  0.83589983  1
  La  La22  1  0.82621273  0.62285747  0.83460436  1
  La  La23  1  0.33565553  0.87128148  0.66847000  1
  La  La24  1  0.50237226  0.12504622  0.83368364  1
  La  La25  1  0.49878260  0.37793839  0.82688971  1
  La  La26  1  0.50180226  0.87318099  0.83387159  1
  La  La27  1  0.83556569  0.12603993  0.50199680  1
  La  La28  1  0.17165559  0.87498407  0.83873380  1
  La  La29  1  0.16760745  0.87693161  0.49978671  1
  Pr  Pr30  1  -0.00697662  0.62352238  0.32866435  1
  Pr  Pr31  1  0.17295246  0.87425298  0.16578674  1
  Pr  Pr32  1  0.33577540  0.12721074  0.66510096  1
  Pr  Pr33  1  0.16654563  0.12764369  0.84075220  1
  Pr  Pr34  1  0.83298465  0.37778329  0.16428877  1
  Pr  Pr35  1  0.00427815  0.87834258  0.00679930  1
  Pr  Pr36  1  0.16596282  0.12542060  0.17135508  1
  Pr  Pr37  1  0.00793396  0.87558986  0.66845185  1
  Pr  Pr38  1  0.67512569  0.87415497  0.66897633  1
  Pr  Pr39  1  0.16422476  0.37256377  0.50030639  1
  Pr  Pr40  1  0.00261053  0.87537134  0.33326903  1
  Pr  Pr41  1  0.66881664  0.87629899  0.00146823  1
  Pr  Pr42  1  0.66816890  0.12238728  0.99548459  1
  Pr  Pr43  1  0.49968300  0.12139720  0.16656171  1
  Pr  Pr44  1  -0.00189252  0.12596588  0.33548492  1
  Pr  Pr45  1  0.82915016  0.62506889  0.49789602  1
  Pr  Pr46  1  0.67173626  0.87575658  0.33307822  1
  Pr  Pr47  1  0.66619741  0.12694106  0.33185395  1
  Pr  Pr48  1  0.17036823  0.37537067  0.16827862  1
  Pr  Pr49  1  0.17091810  0.12372510  0.50424802  1
  Pr  Pr50  1  0.32847305  0.37811738  0.33784030  1
  Pr  Pr51  1  0.32893641  0.37918092  0.67100674  1
  Pr  Pr52  1  0.66985692  0.37341068  0.33890712  1
  Pr  Pr53  1  0.66848728  0.37375554  -0.00274055  1
  Pr  Pr54  1  0.66188975  0.62220755  0.66168332  1
  Pr  Pr55  1  0.66969657  0.12711304  0.66263610  1
  Pr  Pr56  1  0.33221693  0.62564474  0.99855123  1
  Pr  Pr57  1  0.82733881  0.62636055  0.16902003  1
  Pr  Pr58  1  -0.00197903  0.37245939  0.00368801  1
  Pr  Pr59  1  0.49363323  0.62646349  0.49965826  1
  Pr  Pr60  1  -0.00484327  0.62429223  0.66390782  1
  Pr  Pr61  1  0.49082863  0.62702411  0.16951456  1
  Pr  Pr62  1  0.50016487  0.37485364  0.16512960  1
  Pr  Pr63  1  0.33282609  0.62317098  0.66684496  1
  Pr  Pr64  1  0.50477423  0.87380847  0.49457007  1
  Pr  Pr65  1  0.50079396  0.87420523  0.16382053  1
  Pr  Pr66  1  -0.00163469  0.12449471  0.99570272  1
  Pr  Pr67  1  0.33347838  0.37605188  0.00040516  1
  Pr  Pr68  1  0.84236686  0.87133067  0.83095361  1
  Pr  Pr69  1  0.16784284  0.62273422  0.84075818  1
  Pr  Pr70  1  0.00176383  0.37551451  0.67134754  1
  Pr  Pr71  1  0.49966126  0.12237204  0.50154113  1
  Mn  Mn72  1  0.00254283  0.00297759  0.16755873  1
  Mn  Mn73  1  0.00292248  0.00051722  0.50010872  1
  Mn  Mn74  1  0.00322970  -0.00181358  0.83607935  1
  Mn  Mn75  1  -0.00236950  0.49740480  0.16878256  1
  Mn  Mn76  1  -0.00007687  0.50077920  0.49972916  1
  Mn  Mn77  1  0.00236532  0.50108385  0.83248530  1
  Mn  Mn78  1  0.33398491  0.00016945  0.16606317  1
  Mn  Mn79  1  0.33530220  0.00038905  0.50298724  1
  Mn  Mn80  1  0.33486420  -0.00229732  0.83295964  1
  Mn  Mn81  1  0.33312677  0.49747704  0.16835996  1
  Mn  Mn82  1  0.33201778  0.50002770  0.50160208  1
  Mn  Mn83  1  0.33264375  0.50091597  0.83494030  1
  Mn  Mn84  1  0.66465585  0.00129371  0.16540119  1
  Mn  Mn85  1  0.66589497  -0.00048115  0.49915889  1
  Mn  Mn86  1  0.66688775  -0.00275561  0.83193486  1
  Mn  Mn87  1  0.66336691  0.49714186  0.16538789  1
  Mn  Mn88  1  0.66529365  0.50080880  0.49650730  1
  Mn  Mn89  1  0.66331310  0.50171418  0.83162440  1
  Mn  Mn90  1  -0.00057270  0.25076378  0.16841587  1
  Mn  Mn91  1  0.00291686  0.24904006  0.50055463  1
  Mn  Mn92  1  0.00290103  0.25188948  0.83528609  1
  Mn  Mn93  1  -0.00121376  0.75089686  0.16775673  1
  Mn  Mn94  1  0.00049974  0.74931648  0.49935977  1
  Mn  Mn95  1  0.00355550  0.74992867  0.83280390  1
  Mn  Mn96  1  0.33420091  0.25044624  0.16701385  1
  Mn  Mn97  1  0.33384658  0.25008624  0.50080777  1
  Mn  Mn98  1  0.33315546  0.24957206  0.83190871  1
  Mn  Mn99  1  0.33270431  0.75022442  0.16736556  1
  Mn  Mn100  1  0.33350555  0.74948998  0.50261483  1
  Mn  Mn101  1  0.33463551  0.75114646  0.83581436  1
  Mn  Mn102  1  0.66372308  0.25126395  0.16599796  1
  Mn  Mn103  1  0.66597335  0.24845266  0.49691867  1
  Mn  Mn104  1  0.66441718  0.24839583  0.83207382  1
  Mn  Mn105  1  0.66451954  0.75133696  0.16454234  1
  Mn  Mn106  1  0.66576101  0.74978187  0.49948169  1
  Mn  Mn107  1  0.66580334  0.75180173  0.83202067  1
  Mn  Mn108  1  0.16679716  0.25290945  0.00309706  1
  Mn  Mn109  1  0.16437948  0.25009984  0.33516912  1
  Mn  Mn110  1  0.16909870  0.25060161  0.66943910  1
  Mn  Mn111  1  0.16807098  0.74937097  0.00172640  1
  Mn  Mn112  1  0.16417265  0.75060526  0.33468030  1
  Mn  Mn113  1  0.16728548  0.75042204  0.67121109  1
  Mn  Mn114  1  0.50077396  0.25115449  -0.00263773  1
  Mn  Mn115  1  0.49952692  0.24950644  0.33022835  1
  Mn  Mn116  1  0.49837345  0.24866141  0.66665013  1
  Mn  Mn117  1  0.49911014  0.74954605  -0.00116923  1
  Mn  Mn118  1  0.49955654  0.75019754  0.33206641  1
  Mn  Mn119  1  0.50086187  0.75083207  0.66535661  1
  Mn  Mn120  1  0.83290612  0.25154027  0.00047357  1
  Mn  Mn121  1  0.83335236  0.24759900  0.33166533  1
  Mn  Mn122  1  0.83497719  0.24871019  0.66566202  1
  Mn  Mn123  1  0.83344759  0.75021543  -0.00193152  1
  Mn  Mn124  1  0.83326029  0.75149856  0.33228061  1
  Mn  Mn125  1  0.83539820  0.75115990  0.66633326  1
  Mn  Mn126  1  0.16781683  0.00055934  0.00288492  1
  Mn  Mn127  1  0.16465867  0.00070891  0.33432586  1
  Mn  Mn128  1  0.17135753  -0.00087271  0.66995497  1
  Mn  Mn129  1  0.16656163  0.49798976  0.00181625  1
  Mn  Mn130  1  0.16288919  0.49853523  0.33600915  1
  Mn  Mn131  1  0.16545960  0.50071225  0.67092629  1
  Mn  Mn132  1  0.50064206  0.00031273  -0.00154200  1
  Mn  Mn133  1  0.50205294  -0.00033301  0.33258584  1
  Mn  Mn134  1  0.50126190  -0.00280681  0.66592926  1
  Mn  Mn135  1  0.49897477  0.49785905  -0.00154208  1
  Mn  Mn136  1  0.49747915  0.49948426  0.33046997  1
  Mn  Mn137  1  0.49820354  0.50207741  0.66616521  1
  Mn  Mn138  1  0.83389773  -0.00032799  -0.00255740  1
  Mn  Mn139  1  0.83376330  0.00146205  0.33350789  1
  Mn  Mn140  1  0.83554396  -0.00085443  0.66608445  1
  Mn  Mn141  1  0.83236396  0.50012421  -0.00072112  1
  Mn  Mn142  1  0.83286761  0.49865019  0.33134052  1
  Mn  Mn143  1  0.83434480  0.50295689  0.66536601  1
  O  O144  1  0.16029325  0.12910083  0.02680701  1
  O  O145  1  0.15909028  0.12577089  0.36002873  1
  O  O146  1  0.17634352  0.12281926  0.69695853  1
  O  O147  1  0.17421798  0.62213030  0.01451185  1
  O  O148  1  0.15908198  0.62279262  0.34476167  1
  O  O149  1  0.16746690  0.62698854  0.69631826  1
  O  O150  1  0.50883807  0.12716023  0.02344956  1
  O  O151  1  0.50628248  0.12322357  0.35738334  1
  O  O152  1  0.50054864  0.11922373  0.69083074  1
  O  O153  1  0.49356024  0.62005120  0.02594846  1
  O  O154  1  0.49706865  0.62563869  0.35463927  1
  O  O155  1  0.50274388  0.62857464  0.68546600  1
  O  O156  1  0.83161916  0.12687815  0.00848637  1
  O  O157  1  0.82788821  0.12368720  0.35391049  1
  O  O158  1  0.82738448  0.12029139  0.67626899  1
  O  O159  1  0.83146266  0.62373039  0.02459667  1
  O  O160  1  0.83800993  0.62680199  0.35152967  1
  O  O161  1  0.84214323  0.63080184  0.69129427  1
  O  O162  1  0.16941503  0.37257515  0.31334991  1
  O  O163  1  0.16932970  0.37626800  0.64358932  1
  O  O164  1  0.16847207  0.37536359  0.98304503  1
  O  O165  1  0.15693637  0.87880302  0.31040550  1
  O  O166  1  0.16700274  0.87461438  0.64368952  1
  O  O167  1  0.16110863  0.87444414  0.98169617  1
  O  O168  1  0.49865638  0.37368383  0.30850771  1
  O  O169  1  0.48999161  0.37718064  0.65700334  1
  O  O170  1  0.49674316  0.37322392  0.97030085  1
  O  O171  1  0.50623545  0.87590590  0.30926669  1
  O  O172  1  0.49591955  0.87446163  0.63676860  1
  O  O173  1  0.50118184  0.87711082  0.97735103  1
  O  O174  1  0.82941746  0.37115094  0.31127449  1
  O  O175  1  0.84129597  0.37694157  0.65558378  1
  O  O176  1  0.83536418  0.37545129  0.98690651  1
  O  O177  1  0.83501940  0.87755414  0.32324767  1
  O  O178  1  0.83269794  0.87464854  0.65202258  1
  O  O179  1  0.83427127  0.87491089  0.97654271  1
  O  O180  1  -0.01248354  0.37293659  0.18834683  1
  O  O181  1  0.00512625  0.37491042  0.52681502  1
  O  O182  1  0.00193899  0.37602661  0.85759827  1
  O  O183  1  0.00580638  0.87848023  0.18917324  1
  O  O184  1  0.00409878  0.87482159  0.52456747  1
  O  O185  1  0.00016870  0.87285016  0.86182161  1
  O  O186  1  0.33682802  0.37299107  0.19368667  1
  O  O187  1  0.32800541  0.37407539  0.52643366  1
  O  O188  1  0.34194992  0.37576108  0.85557919  1
  O  O189  1  0.33544728  0.87613452  0.17676946  1
  O  O190  1  0.33557178  0.87533679  0.52419261  1
  O  O191  1  0.33686452  0.87338984  0.85715963  1
  O  O192  1  0.65671257  0.37204622  0.19548747  1
  O  O193  1  0.66698268  0.37307263  0.50689154  1
  O  O194  1  0.65777960  0.37187261  0.84998173  1
  O  O195  1  0.65530636  0.87787587  0.18953697  1
  O  O196  1  0.65923358  0.87407858  0.52576630  1
  O  O197  1  0.65973100  0.87559576  0.85746256  1
  O  O198  1  0.01112425  0.12804845  0.13932777  1
  O  O199  1  0.01533416  0.12373707  0.48010646  1
  O  O200  1  0.01194712  0.12473827  0.82568768  1
  O  O201  1  -0.00495212  0.62413680  0.15758012  1
  O  O202  1  -0.00149860  0.62647484  0.47479257  1
  O  O203  1  0.01335032  0.62795050  0.80670363  1
  O  O204  1  0.32992969  0.12661032  0.15518082  1
  O  O205  1  0.33213568  0.12524235  0.48790721  1
  O  O206  1  0.32984939  0.12244183  0.80871715  1
  O  O207  1  0.33809320  0.62224642  0.14273757  1
  O  O208  1  0.33880397  0.62512376  0.48328254  1
  O  O209  1  0.32720169  0.62792799  0.81025064  1
  O  O210  1  0.65740109  0.12753269  0.13738259  1
  O  O211  1  0.65806384  0.12313179  0.47628704  1
  O  O212  1  0.65901571  0.11918569  0.80798770  1
  O  O213  1  0.67228531  0.62388174  0.15428916  1
  O  O214  1  0.66736858  0.62736757  0.48666207  1
  O  O215  1  0.66854759  0.63218813  0.80811155  1
  O  O216  1  0.08132348  0.02694587  0.25234712  1
  O  O217  1  0.09391685  0.01225097  0.57984711  1
  O  O218  1  0.08248809  0.01807085  0.92458009  1
  O  O219  1  0.07247669  0.50623090  0.25915145  1
  O  O220  1  0.07554252  0.51608647  0.59441517  1
  O  O221  1  0.08726742  0.51400111  0.91294205  1
  O  O222  1  0.42305966  0.01201191  0.24585213  1
  O  O223  1  0.41797719  0.02256064  0.58769783  1
  O  O224  1  0.42370560  0.01540888  0.91006563  1
  O  O225  1  0.41492038  0.51903013  0.24758854  1
  O  O226  1  0.41709016  0.52238161  0.58324905  1
  O  O227  1  0.41111649  0.51929852  0.92152792  1
  O  O228  1  0.74211835  0.01215405  0.25393163  1
  O  O229  1  0.74324336  0.01817814  0.58270265  1
  O  O230  1  0.74255418  0.01128292  0.91840461  1
  O  O231  1  0.75213858  0.50710129  0.24286065  1
  O  O232  1  0.75100173  0.52410528  0.58409974  1
  O  O233  1  0.74847919  0.51118322  0.91478007  1
  O  O234  1  0.24167405  0.23839027  0.24760184  1
  O  O235  1  0.25368728  0.22875603  0.58927783  1
  O  O236  1  0.24907194  0.23632875  0.91248778  1
  O  O237  1  0.24501738  0.74583969  0.24827303  1
  O  O238  1  0.25400094  0.73588021  0.59535672  1
  O  O239  1  0.24967528  0.73121407  0.91572053  1
  O  O240  1  0.58156463  0.22439479  0.24641698  1
  O  O241  1  0.58425630  0.22818818  0.58508862  1
  O  O242  1  0.58619791  0.22702481  0.91942367  1
  O  O243  1  0.57152473  0.73630467  0.23670580  1
  O  O244  1  0.57590740  0.72976054  0.57596074  1
  O  O245  1  0.57481454  0.74019408  0.90645283  1
  O  O246  1  0.92061177  0.22921772  0.25372245  1
  O  O247  1  0.91715506  0.23259787  0.57747364  1
  O  O248  1  0.92618699  0.23975202  0.92447923  1
  O  O249  1  0.90867443  0.73163816  0.24290820  1
  O  O250  1  0.91154905  0.72714755  0.57412160  1
  O  O251  1  0.91086560  0.73351756  0.90042776  1
  O  O252  1  0.08269888  0.47622517  0.08897443  1
  O  O253  1  0.08740845  0.47867752  0.42554320  1
  O  O254  1  0.08439473  0.47678040  0.75077728  1
  O  O255  1  0.08920061  0.97882455  0.08935008  1
  O  O256  1  0.08226065  0.97594367  0.41606382  1
  O  O257  1  0.08859357  0.97721552  0.75464987  1
  O  O258  1  0.41746743  0.47307794  0.08309484  1
  O  O259  1  0.41088412  0.48421237  0.40959718  1
  O  O260  1  0.41067094  0.48859220  0.74791365  1
  O  O261  1  0.42344014  0.98881225  0.08407322  1
  O  O262  1  0.42623975  0.98728003  0.42564270  1
  O  O263  1  0.42109457  0.97594641  0.74717521  1
  O  O264  1  0.74599798  0.47432112  0.08499245  1
  O  O265  1  0.74973727  0.48865386  0.41078598  1
  O  O266  1  0.75040977  0.50109631  0.74614410  1
  O  O267  1  0.74352629  0.98771591  0.07821020  1
  O  O268  1  0.74533860  0.98769503  0.41480344  1
  O  O269  1  0.75126077  0.97549539  0.75428874  1
  O  O270  1  0.25052229  0.27439261  0.08507418  1
  O  O271  1  0.24721062  0.26970845  0.42098123  1
  O  O272  1  0.25141032  0.27275059  0.74967580  1
  O  O273  1  0.25210956  0.76620501  0.08243385  1
  O  O274  1  0.24914575  0.76474631  0.42447040  1
  O  O275  1  0.25322075  0.77361981  0.75444131  1
  O  O276  1  0.58289109  0.27797028  0.08162593  1
  O  O277  1  0.58700155  0.26294711  0.40717323  1
  O  O278  1  0.57147054  0.26046664  0.75731263  1
  O  O279  1  0.58486478  0.77225577  0.07700052  1
  O  O280  1  0.58850063  0.77254328  0.41079388  1
  O  O281  1  0.59012657  0.77389188  0.73931082  1
  O  O282  1  0.91632368  0.26794602  0.08552038  1
  O  O283  1  0.92032514  0.24940406  0.41594997  1
  O  O284  1  0.92409298  0.26170610  0.74860159  1
  O  O285  1  0.92500006  0.76855508  0.07548489  1
  O  O286  1  0.92814853  0.76293560  0.40453448  1
  O  O287  1  0.92752923  0.77271944  0.74263909  1
  O  O288  1  0.25290565  0.47500518  0.08598693  1
  O  O289  1  0.24779309  0.47840935  0.42104258  1
  O  O290  1  0.24997239  0.48216600  0.75360651  1
  O  O291  1  0.24903930  0.98384717  0.08300868  1
  O  O292  1  0.24342105  0.98810932  0.42474369  1
  O  O293  1  0.25393241  0.97236059  0.74896016  1
  O  O294  1  0.58358118  0.47313904  0.07775057  1
  O  O295  1  0.58462889  0.48457410  0.40512554  1
  O  O296  1  0.57746353  0.49010979  0.74973458  1
  O  O297  1  0.58291469  0.97768281  0.08122807  1
  O  O298  1  0.58706199  0.97542112  0.41361485  1
  O  O299  1  0.58616212  0.97330251  0.74517824  1
  O  O300  1  0.91750652  0.47895965  0.08191114  1
  O  O301  1  0.92123970  0.49092411  0.40882853  1
  O  O302  1  0.92735061  0.49188630  0.73934282  1
  O  O303  1  0.92724753  0.99060272  0.07763652  1
  O  O304  1  0.92436951  0.99614149  0.41210043  1
  O  O305  1  0.92377515  0.97764182  0.75136273  1
  O  O306  1  0.08222261  0.27816598  0.08873416  1
  O  O307  1  0.08450497  0.27135036  0.41905171  1
  O  O308  1  0.08483066  0.26879556  0.74900306  1
  O  O309  1  0.08651176  0.77068675  0.08904581  1
  O  O310  1  0.08700895  0.77383396  0.42452955  1
  O  O311  1  0.08856471  0.77892576  0.75448993  1
  O  O312  1  0.41612475  0.27205875  0.07565561  1
  O  O313  1  0.41111434  0.26564349  0.40729809  1
  O  O314  1  0.40770547  0.26282648  0.74160614  1
  O  O315  1  0.42407614  0.76393319  0.09000343  1
  O  O316  1  0.42807808  0.76402768  0.42728728  1
  O  O317  1  0.42135715  0.77031688  0.75247949  1
  O  O318  1  0.74713617  0.27469828  0.08701674  1
  O  O319  1  0.74685513  0.25816510  0.41082927  1
  O  O320  1  0.74257150  0.25218556  0.74595882  1
  O  O321  1  0.74533591  0.76820829  0.08104184  1
  O  O322  1  0.75068864  0.76202922  0.41706309  1
  O  O323  1  0.75527406  0.77308780  0.75545306  1
  O  O324  1  0.24078119  0.01103395  0.24601135  1
  O  O325  1  0.25354321  0.01976066  0.58957543  1
  O  O326  1  0.24059049  0.01419823  0.91145726  1
  O  O327  1  0.24913484  0.50336656  0.25386635  1
  O  O328  1  0.25461459  0.51579309  0.59522125  1
  O  O329  1  0.25349918  0.51768787  0.91839124  1
  O  O330  1  0.58326506  0.02503146  0.24744256  1
  O  O331  1  0.58041675  0.02135977  0.58066973  1
  O  O332  1  0.58384119  0.01967315  0.91587507  1
  O  O333  1  0.57135165  0.51401625  0.23623185  1
  O  O334  1  0.58076435  0.51966445  0.58141083  1
  O  O335  1  0.57618996  0.50913072  0.91249798  1
  O  O336  1  0.92227364  0.01651944  0.25283790  1
  O  O337  1  0.91675368  0.01629109  0.57586226  1
  O  O338  1  0.92193288  0.01107658  0.91782889  1
  O  O339  1  0.90867286  0.51954942  0.24394070  1
  O  O340  1  0.91232783  0.52535722  0.57716417  1
  O  O341  1  0.91343739  0.51950364  0.90565251  1
  O  O342  1  0.08210713  0.22955619  0.25073332  1
  O  O343  1  0.09484264  0.23587456  0.57896692  1
  O  O344  1  0.08543069  0.23314084  0.92143019  1
  O  O345  1  0.06809849  0.74054834  0.26161858  1
  O  O346  1  0.07384932  0.73670419  0.59489479  1
  O  O347  1  0.08892083  0.73578912  0.91350091  1
  O  O348  1  0.42545578  0.23374342  0.23873420  1
  O  O349  1  0.42139283  0.22675842  0.57985250  1
  O  O350  1  0.42370602  0.23260847  0.90507742  1
  O  O351  1  0.41189955  0.73186814  0.25204182  1
  O  O352  1  0.41363962  0.72773890  0.58955019  1
  O  O353  1  0.41126171  0.72956613  0.92269384  1
  O  O354  1  0.74176302  0.23420561  0.25186628  1
  O  O355  1  0.74908895  0.22800467  0.57710026  1
  O  O356  1  0.74292176  0.23989345  0.92252283  1
  O  O357  1  0.74746181  0.74402393  0.24834231  1
  O  O358  1  0.74326696  0.73131136  0.59057032  1
  O  O359  1  0.74998658  0.73867922  0.91272936  1
