# generated using pymatgen
data_Ba17Sr5La8Pr42Mn72O216
_symmetry_space_group_name_H-M   'P 1'
_cell_length_a   16.67825241
_cell_length_b   15.70711351
_cell_length_c   16.82231725
_cell_angle_alpha   89.99648803
_cell_angle_beta   89.93253528
_cell_angle_gamma   90.01327206
_symmetry_Int_Tables_number   1
_chemical_formula_structural   Ba17Sr5La8Pr42Mn72O216
_chemical_formula_sum   'Ba17 Sr5 La8 Pr42 Mn72 O216'
_cell_volume   4406.89222769
_cell_formula_units_Z   1
loop_
 _symmetry_equiv_pos_site_id
 _symmetry_equiv_pos_as_xyz
  1  'x, y, z'
loop_
 _atom_site_type_symbol
 _atom_site_label
 _atom_site_symmetry_multiplicity
 _atom_site_fract_x
 _atom_site_fract_y
 _atom_site_fract_z
 _atom_site_occupancy
  Ba  Ba0  1  0.16335345  0.62327915  0.83532849  1
  Ba  Ba1  1  0.82858543  0.62435597  0.16476035  1
  Ba  Ba2  1  0.83188093  0.37407026  0.83110358  1
  Ba  Ba3  1  0.33364269  0.87476213  0.66774773  1
  Ba  Ba4  1  0.17082052  0.12333292  0.16859555  1
  Ba  Ba5  1  0.33762963  0.12656156  0.33213579  1
  Ba  Ba6  1  0.83218846  0.87582791  0.83164960  1
  Ba  Ba7  1  0.16841054  0.37566915  0.83537837  1
  Ba  Ba8  1  0.49985178  0.62506240  0.83537822  1
  Ba  Ba9  1  0.00193479  0.87504005  0.00046617  1
  Ba  Ba10  1  0.33267043  0.37556128  0.66668087  1
  Ba  Ba11  1  -0.00100780  0.37683583  0.33265465  1
  Ba  Ba12  1  0.66321408  0.87601837  -0.00164598  1
  Ba  Ba13  1  -0.00176232  0.87352400  0.33237833  1
  Ba  Ba14  1  0.16773740  0.87306895  0.83311778  1
  Ba  Ba15  1  0.50116589  0.12457699  0.83301998  1
  Ba  Ba16  1  0.16756040  0.12600193  0.49822645  1
  Sr  Sr17  1  0.50363900  0.12574036  0.17067703  1
  Sr  Sr18  1  0.49838018  0.87587865  0.83214750  1
  Sr  Sr19  1  0.33354538  0.37347742  0.33479401  1
  Sr  Sr20  1  0.33558781  0.37639359  -0.00067245  1
  Sr  Sr21  1  0.17311763  0.87797785  0.16346035  1
  La  La22  1  0.84282761  0.12523570  0.49653418  1
  La  La23  1  0.50405017  0.12674487  0.50564634  1
  La  La24  1  0.66999839  0.12498448  0.99911031  1
  La  La25  1  0.33202270  0.12442606  0.66778765  1
  La  La26  1  0.49767420  0.87350823  0.49994020  1
  La  La27  1  0.32787371  0.62583368  0.66983005  1
  La  La28  1  0.82989890  0.37274160  0.15949325  1
  La  La29  1  0.16904364  0.87538755  0.49729627  1
  Pr  Pr30  1  0.00046579  0.87527019  0.67276806  1
  Pr  Pr31  1  0.66435306  0.87310740  0.33153791  1
  Pr  Pr32  1  0.65651064  0.37352725  -0.00051133  1
  Pr  Pr33  1  -0.00733077  0.62600522  0.33036683  1
  Pr  Pr34  1  0.00744243  0.12428348  0.32702046  1
  Pr  Pr35  1  0.83914357  0.12375234  0.83455880  1
  Pr  Pr36  1  0.67238546  0.62755892  0.66592161  1
  Pr  Pr37  1  0.32865100  0.62484687  0.99525718  1
  Pr  Pr38  1  0.49766401  0.87763717  0.16496563  1
  Pr  Pr39  1  0.83120909  0.62609466  0.83721205  1
  Pr  Pr40  1  0.66704839  0.62485393  0.99508605  1
  Pr  Pr41  1  0.66201223  0.62337065  0.33056480  1
  Pr  Pr42  1  -0.00862473  0.62711438  0.99813333  1
  Pr  Pr43  1  0.17347884  0.37543054  0.49560594  1
  Pr  Pr44  1  0.83058774  0.87533863  0.49731601  1
  Pr  Pr45  1  0.33061714  0.87855895  0.33461682  1
  Pr  Pr46  1  0.00075837  0.37361543  0.66879496  1
  Pr  Pr47  1  0.66277663  0.37724044  0.33388987  1
  Pr  Pr48  1  0.84071190  0.12255133  0.16643581  1
  Pr  Pr49  1  0.83188408  0.87504257  0.15628249  1
  Pr  Pr50  1  0.49604550  0.62451587  0.16773448  1
  Pr  Pr51  1  -0.00285926  0.62393716  0.67092020  1
  Pr  Pr52  1  0.83505004  0.62509038  0.49647063  1
  Pr  Pr53  1  0.00546435  0.12561369  0.66772745  1
  Pr  Pr54  1  0.66038355  0.37439363  0.66938191  1
  Pr  Pr55  1  0.33692720  0.87276942  -0.00107209  1
  Pr  Pr56  1  0.67217779  0.12711425  0.32926102  1
  Pr  Pr57  1  0.49914401  0.62309183  0.50881011  1
  Pr  Pr58  1  0.67918748  0.12342154  0.66408596  1
  Pr  Pr59  1  0.17279977  0.12542111  0.83479789  1
  Pr  Pr60  1  0.15533382  0.62305891  0.50330922  1
  Pr  Pr61  1  0.32398782  0.62468036  0.33086012  1
  Pr  Pr62  1  0.17773539  0.37042744  0.16459133  1
  Pr  Pr63  1  0.00421540  0.38050692  0.00772509  1
  Pr  Pr64  1  0.49437358  0.37574123  0.49827312  1
  Pr  Pr65  1  0.15765444  0.62584828  0.16818201  1
  Pr  Pr66  1  0.83007751  0.37451082  0.49489306  1
  Pr  Pr67  1  0.49525747  0.37348395  0.16967454  1
  Pr  Pr68  1  0.33517360  0.12489924  1.00037072  1
  Pr  Pr69  1  0.49589572  0.37381298  0.83130969  1
  Pr  Pr70  1  0.66099859  0.87552566  0.67380510  1
  Pr  Pr71  1  0.01006871  0.12324504  0.99947454  1
  Mn  Mn72  1  0.00030335  -0.00095568  0.16649573  1
  Mn  Mn73  1  0.00013087  -0.00097575  0.50087406  1
  Mn  Mn74  1  0.00177978  0.00168910  0.83239764  1
  Mn  Mn75  1  -0.00092751  0.50062816  0.16851131  1
  Mn  Mn76  1  -0.00293449  0.49931428  0.50167938  1
  Mn  Mn77  1  -0.00262993  0.49761804  0.83470391  1
  Mn  Mn78  1  0.33758975  -0.00129121  0.16711364  1
  Mn  Mn79  1  0.33614092  -0.00086742  0.49987454  1
  Mn  Mn80  1  0.33483513  0.00077467  0.83385595  1
  Mn  Mn81  1  0.33330328  0.50229401  0.16698084  1
  Mn  Mn82  1  0.33306626  0.50279156  0.49714583  1
  Mn  Mn83  1  0.33358758  0.49966768  0.83495078  1
  Mn  Mn84  1  0.66644897  0.00159969  0.16823565  1
  Mn  Mn85  1  0.66773566  -0.00106318  0.49859982  1
  Mn  Mn86  1  0.66685080  0.00244191  0.83105694  1
  Mn  Mn87  1  0.66256390  0.49845402  0.16563875  1
  Mn  Mn88  1  0.66795099  0.50069333  0.50055164  1
  Mn  Mn89  1  0.66598474  0.49811952  0.83239887  1
  Mn  Mn90  1  -0.00115942  0.25059478  0.16735327  1
  Mn  Mn91  1  -0.00028757  0.25180500  0.49991848  1
  Mn  Mn92  1  0.00118068  0.25029195  0.83491730  1
  Mn  Mn93  1  -0.00115421  0.74980795  0.16657189  1
  Mn  Mn94  1  -0.00243680  0.74957459  0.50230382  1
  Mn  Mn95  1  -0.00151350  0.74948280  0.83293757  1
  Mn  Mn96  1  0.33750887  0.25138337  0.16676911  1
  Mn  Mn97  1  0.33571665  0.25060332  0.49973532  1
  Mn  Mn98  1  0.33482306  0.24984033  0.83425381  1
  Mn  Mn99  1  0.33353376  0.74721591  0.16656804  1
  Mn  Mn100  1  0.33318905  0.74798691  0.49675564  1
  Mn  Mn101  1  0.33397654  0.74913194  0.83375235  1
  Mn  Mn102  1  0.66657291  0.25142112  0.16622509  1
  Mn  Mn103  1  0.66812200  0.25021264  0.49926616  1
  Mn  Mn104  1  0.66784265  0.24936223  0.83234140  1
  Mn  Mn105  1  0.66254061  0.74844839  0.16717201  1
  Mn  Mn106  1  0.66730064  0.75046480  0.49923408  1
  Mn  Mn107  1  0.66516991  0.75038524  0.83147385  1
  Mn  Mn108  1  0.16812880  0.25004359  0.00048151  1
  Mn  Mn109  1  0.16759413  0.25317347  0.33230690  1
  Mn  Mn110  1  0.16583915  0.25070711  0.66686213  1
  Mn  Mn111  1  0.16799844  0.75029895  0.00401244  1
  Mn  Mn112  1  0.16587242  0.74886787  0.33374353  1
  Mn  Mn113  1  0.16419704  0.74717628  0.66400688  1
  Mn  Mn114  1  0.49856810  0.24924056  0.00333276  1
  Mn  Mn115  1  0.50311478  0.25138037  0.33608842  1
  Mn  Mn116  1  0.50191514  0.25014616  0.66624743  1
  Mn  Mn117  1  0.49976462  0.74957446  0.00304595  1
  Mn  Mn118  1  0.49890712  0.74755019  0.33448967  1
  Mn  Mn119  1  0.50011097  0.74778527  0.66738339  1
  Mn  Mn120  1  0.83436781  0.24928610  -0.00104690  1
  Mn  Mn121  1  0.83203185  0.25034856  0.33061647  1
  Mn  Mn122  1  0.83477260  0.25065159  0.66250581  1
  Mn  Mn123  1  0.83074022  0.75031404  -0.00043931  1
  Mn  Mn124  1  0.82932386  0.75157688  0.33173878  1
  Mn  Mn125  1  0.83391782  0.74839888  0.66331383  1
  Mn  Mn126  1  0.17018235  -0.00005870  0.00059208  1
  Mn  Mn127  1  0.16714146  -0.00265125  0.33224474  1
  Mn  Mn128  1  0.16614392  0.00050663  0.66632107  1
  Mn  Mn129  1  0.16739485  0.49917901  0.00558376  1
  Mn  Mn130  1  0.16572677  0.50169333  0.33393153  1
  Mn  Mn131  1  0.16428990  0.50071307  0.66522703  1
  Mn  Mn132  1  0.49939092  0.00139362  0.00306784  1
  Mn  Mn133  1  0.50353493  -0.00189971  0.33436571  1
  Mn  Mn134  1  0.50179882  0.00095379  0.66561523  1
  Mn  Mn135  1  0.49940911  0.49909471  0.00303399  1
  Mn  Mn136  1  0.49789160  0.50293042  0.33623321  1
  Mn  Mn137  1  0.50020590  0.50106435  0.66787195  1
  Mn  Mn138  1  0.83328607  0.00282842  0.00047469  1
  Mn  Mn139  1  0.83130630  -0.00075785  0.33167306  1
  Mn  Mn140  1  0.83592025  0.00119909  0.66220432  1
  Mn  Mn141  1  0.83251115  0.49770838  -0.00263231  1
  Mn  Mn142  1  0.82952803  0.49918945  0.33157542  1
  Mn  Mn143  1  0.83255077  0.50029364  0.66340369  1
  O  O144  1  0.16638567  0.12650063  0.01251797  1
  O  O145  1  0.15746507  0.12454158  0.34028096  1
  O  O146  1  0.15802864  0.12710072  0.68664420  1
  O  O147  1  0.17551462  0.62336283  0.02532844  1
  O  O148  1  0.16733479  0.62546500  0.35961097  1
  O  O149  1  0.16097128  0.62329517  0.67555919  1
  O  O150  1  0.49021046  0.12627751  0.02304251  1
  O  O151  1  0.51114220  0.12750326  0.35967987  1
  O  O152  1  0.48727755  0.12638504  0.66982552  1
  O  O153  1  0.50294577  0.62344129  0.02509606  1
  O  O154  1  0.50606669  0.62581954  0.36567269  1
  O  O155  1  0.49871009  0.62400374  0.67664547  1
  O  O156  1  0.82320874  0.12838916  0.02246358  1
  O  O157  1  0.82376945  0.12352359  0.35562072  1
  O  O158  1  0.82789749  0.12721183  0.68856333  1
  O  O159  1  0.82493869  0.62316142  0.00761067  1
  O  O160  1  0.82688940  0.62398331  0.35329579  1
  O  O161  1  0.82756209  0.62242938  0.69290423  1
  O  O162  1  0.16959816  0.38176392  0.31001755  1
  O  O163  1  0.16003902  0.37752580  0.64092099  1
  O  O164  1  0.15946489  0.37357420  0.99205382  1
  O  O165  1  0.17482886  0.87014211  0.31700556  1
  O  O166  1  0.15960000  0.87113751  0.64292590  1
  O  O167  1  0.17479020  0.87651452  0.99048195  1
  O  O168  1  0.50704362  0.37935726  0.31328309  1
  O  O169  1  0.51084929  0.37719771  0.64321007  1
  O  O170  1  0.50519668  0.37466784  0.97494229  1
  O  O171  1  0.50685446  0.86739460  0.30671503  1
  O  O172  1  0.51193049  0.87275756  0.64670148  1
  O  O173  1  0.49490604  0.87494346  0.98331888  1
  O  O174  1  0.82720744  0.37588483  0.30523676  1
  O  O175  1  0.83898800  0.37606175  0.63632882  1
  O  O176  1  0.84800255  0.37213037  0.98847251  1
  O  O177  1  0.82563548  0.87764100  0.30258060  1
  O  O178  1  0.84376309  0.87495425  0.63953322  1
  O  O179  1  0.83399356  0.87620096  0.99356699  1
  O  O180  1  -0.01436402  0.37575143  0.17357214  1
  O  O181  1  -0.01198834  0.37636484  0.52571796  1
  O  O182  1  -0.00217022  0.37198538  0.86159791  1
  O  O183  1  -0.01431964  0.87401518  0.17463061  1
  O  O184  1  -0.01031082  0.86932186  0.52771688  1
  O  O185  1  -0.00196653  0.87604754  0.84028922  1
  O  O186  1  0.33418647  0.38048968  0.18658723  1
  O  O187  1  0.32876289  0.37858787  0.50979481  1
  O  O188  1  0.34013446  0.37356302  0.84795350  1
  O  O189  1  0.33955837  0.86731688  0.19226102  1
  O  O190  1  0.32718193  0.87175109  0.51006106  1
  O  O191  1  0.33580904  0.87622398  0.85231134  1
  O  O192  1  0.66804782  0.37483404  0.19074830  1
  O  O193  1  0.67601477  0.37996312  0.52845200  1
  O  O194  1  0.66087991  0.37288125  0.85501451  1
  O  O195  1  0.66644563  0.87596167  0.18839510  1
  O  O196  1  0.67421107  0.87648835  0.52989593  1
  O  O197  1  0.66180767  0.87765364  0.83834750  1
  O  O198  1  -0.00333839  0.12591856  0.14793426  1
  O  O199  1  -0.00378470  0.12993982  0.46978066  1
  O  O200  1  0.00357043  0.12689091  0.81097428  1
  O  O201  1  0.00749175  0.62415468  0.14446284  1
  O  O202  1  0.00225892  0.62441461  0.47262856  1
  O  O203  1  -0.00777957  0.62353570  0.81531959  1
  O  O204  1  0.34162737  0.12689064  0.14641468  1
  O  O205  1  0.34811165  0.12423630  0.49373662  1
  O  O206  1  0.33184987  0.12584670  0.81407914  1
  O  O207  1  0.34069530  0.62480149  0.13765622  1
  O  O208  1  0.34594613  0.62576582  0.47341985  1
  O  O209  1  0.33479328  0.62380291  0.81759535  1
  O  O210  1  0.66382226  0.13010621  0.14420558  1
  O  O211  1  0.66146765  0.12030279  0.47091797  1
  O  O212  1  0.67559429  0.12737506  0.80863525  1
  O  O213  1  0.65644530  0.61963640  0.13831279  1
  O  O214  1  0.66764178  0.62346647  0.47186867  1
  O  O215  1  0.67406828  0.62273240  0.81139974  1
  O  O216  1  0.07886799  0.00722949  0.25230328  1
  O  O217  1  0.08159360  0.01184040  0.58693024  1
  O  O218  1  0.08659535  0.01986990  0.91366863  1
  O  O219  1  0.07832081  0.52487168  0.25921873  1
  O  O220  1  0.07503176  0.51876259  0.58686474  1
  O  O221  1  0.07302008  0.51249159  0.93800788  1
  O  O222  1  0.42824416  0.00695878  0.24421305  1
  O  O223  1  0.42929933  0.00211308  0.57341856  1
  O  O224  1  0.41104464  0.01408259  0.92471771  1
  O  O225  1  0.41082872  0.52503065  0.25601650  1
  O  O226  1  0.41577896  0.51654865  0.58338058  1
  O  O227  1  0.41367188  0.51325057  0.92889218  1
  O  O228  1  0.75423586  0.02460225  0.24538175  1
  O  O229  1  0.75887420  0.02208499  0.57089714  1
  O  O230  1  0.75522951  0.02077448  0.91017649  1
  O  O231  1  0.73619357  0.51454884  0.25472969  1
  O  O232  1  0.75257365  0.52731581  0.57840567  1
  O  O233  1  0.74975854  0.51478679  0.91195868  1
  O  O234  1  0.25380390  0.24767683  0.24820468  1
  O  O235  1  0.25601541  0.23609112  0.58944484  1
  O  O236  1  0.25287819  0.23026037  0.91796247  1
  O  O237  1  0.24670149  0.72316809  0.24244425  1
  O  O238  1  0.24431280  0.72783337  0.57340203  1
  O  O239  1  0.25100158  0.73653404  0.92087691  1
  O  O240  1  0.59680389  0.23912878  0.26397098  1
  O  O241  1  0.59446366  0.23054265  0.59284036  1
  O  O242  1  0.59148805  0.23479862  0.93359034  1
  O  O243  1  0.57784292  0.72219675  0.25169158  1
  O  O244  1  0.58517841  0.72858405  0.58102566  1
  O  O245  1  0.58641028  0.73337854  0.92601437  1
  O  O246  1  0.91949579  0.22561856  0.25613020  1
  O  O247  1  0.92087553  0.22560800  0.58604541  1
  O  O248  1  0.92119481  0.22149801  0.92113602  1
  O  O249  1  0.91549420  0.73325327  0.25435328  1
  O  O250  1  0.91519292  0.71886001  0.58276478  1
  O  O251  1  0.91247739  0.73060093  0.91430575  1
  O  O252  1  0.09197091  0.48091663  0.09868043  1
  O  O253  1  0.09099485  0.48355053  0.42986717  1
  O  O254  1  0.07617948  0.48436224  0.74999428  1
  O  O255  1  0.08299913  0.99441415  0.08214022  1
  O  O256  1  0.08381155  0.98120918  0.42321978  1
  O  O257  1  0.07775445  0.98663532  0.74334869  1
  O  O258  1  0.42493727  0.48380858  0.09410238  1
  O  O259  1  0.42265115  0.48253613  0.42194612  1
  O  O260  1  0.42219286  0.48549139  0.75579259  1
  O  O261  1  0.41520384  0.97486702  0.08268679  1
  O  O262  1  0.41703492  0.97720231  0.40974372  1
  O  O263  1  0.41650932  0.99215543  0.74945336  1
  O  O264  1  0.75040295  0.47725091  0.07803213  1
  O  O265  1  0.74837463  0.47674320  0.41643901  1
  O  O266  1  0.74238698  0.48262523  0.73655136  1
  O  O267  1  0.74837445  0.98956622  0.08752999  1
  O  O268  1  0.74280601  0.97524443  0.40938975  1
  O  O269  1  0.74584270  0.98631777  0.73129971  1
  O  O270  1  0.24954155  0.26488343  0.08420339  1
  O  O271  1  0.24782121  0.26395493  0.41974104  1
  O  O272  1  0.24718081  0.25140266  0.75216916  1
  O  O273  1  0.26016447  0.76639915  0.07929267  1
  O  O274  1  0.25790584  0.76246897  0.40619750  1
  O  O275  1  0.25138776  0.75022676  0.74050144  1
  O  O276  1  0.57822918  0.27376551  0.09263382  1
  O  O277  1  0.57951981  0.27644080  0.42805221  1
  O  O278  1  0.57897112  0.26965857  0.75491640  1
  O  O279  1  0.57693102  0.76542101  0.09277728  1
  O  O280  1  0.58583977  0.77239419  0.41665380  1
  O  O281  1  0.58617782  0.75906798  0.74520428  1
  O  O282  1  0.90717961  0.25790048  0.09104424  1
  O  O283  1  0.90500211  0.26593950  0.42427244  1
  O  O284  1  0.91802991  0.26178683  0.74748002  1
  O  O285  1  0.91512409  0.75338082  0.08178508  1
  O  O286  1  0.90984554  0.76106866  0.42392575  1
  O  O287  1  0.91817200  0.76005709  0.74080972  1
  O  O288  1  0.25246185  0.48017521  0.08500055  1
  O  O289  1  0.25362721  0.48921739  0.41060824  1
  O  O290  1  0.25132458  0.49812185  0.74192853  1
  O  O291  1  0.25857172  0.98798619  0.07887996  1
  O  O292  1  0.24968328  0.98485570  0.41817489  1
  O  O293  1  0.24625112  0.99966079  0.75184645  1
  O  O294  1  0.58241013  0.47153955  0.08528660  1
  O  O295  1  0.58573410  0.47827086  0.42003760  1
  O  O296  1  0.58167483  0.47871401  0.75397113  1
  O  O297  1  0.57588211  0.98828987  0.09598902  1
  O  O298  1  0.57992368  0.97110511  0.42546407  1
  O  O299  1  0.58381978  0.99224809  0.74683753  1
  O  O300  1  0.92247049  0.49324364  0.07509249  1
  O  O301  1  0.91034379  0.48906459  0.42340248  1
  O  O302  1  0.91716835  0.48423177  0.73861773  1
  O  O303  1  0.90913459  0.99501318  0.09169143  1
  O  O304  1  0.90449092  0.98432961  0.42336578  1
  O  O305  1  0.91655527  0.99468105  0.74700635  1
  O  O306  1  0.07664177  0.26582144  0.08109413  1
  O  O307  1  0.08534000  0.27224258  0.42412376  1
  O  O308  1  0.07753076  0.26769488  0.74583282  1
  O  O309  1  0.09342627  0.75846557  0.09460618  1
  O  O310  1  0.08993157  0.76539481  0.42968990  1
  O  O311  1  0.07794717  0.75946410  0.74447011  1
  O  O312  1  0.41750520  0.27438106  0.08392090  1
  O  O313  1  0.41997643  0.26846537  0.41528258  1
  O  O314  1  0.42016228  0.26342422  0.75052572  1
  O  O315  1  0.42021887  0.76983202  0.09033139  1
  O  O316  1  0.42052190  0.77401549  0.41570957  1
  O  O317  1  0.42021705  0.75878017  0.75092855  1
  O  O318  1  0.74205189  0.27327537  0.07418799  1
  O  O319  1  0.74165021  0.27080231  0.40495917  1
  O  O320  1  0.74274606  0.26683429  0.73047940  1
  O  O321  1  0.75048454  0.76193406  0.08797402  1
  O  O322  1  0.74911427  0.77487976  0.41659343  1
  O  O323  1  0.74583164  0.76460996  0.73615548  1
  O  O324  1  0.25825869  0.00206436  0.25099159  1
  O  O325  1  0.25576863  0.01470943  0.59062697  1
  O  O326  1  0.25176300  0.02264397  0.91662898  1
  O  O327  1  0.24516446  0.52602928  0.24370837  1
  O  O328  1  0.24643227  0.52171021  0.57326524  1
  O  O329  1  0.25080255  0.51093460  0.92217711  1
  O  O330  1  0.59629140  0.01452226  0.26356935  1
  O  O331  1  0.59347970  0.02216142  0.58640787  1
  O  O332  1  0.58723965  0.01902389  0.92920635  1
  O  O333  1  0.57440475  0.52221292  0.25068793  1
  O  O334  1  0.58804925  0.52223426  0.58421454  1
  O  O335  1  0.58982424  0.51392135  0.92697254  1
  O  O336  1  0.91808374  0.02357978  0.25572696  1
  O  O337  1  0.92156362  0.02634655  0.58556870  1
  O  O338  1  0.92170757  0.02543290  0.91874926  1
  O  O339  1  0.91646640  0.51725464  0.25317157  1
  O  O340  1  0.91431983  0.52855677  0.58215165  1
  O  O341  1  0.91172794  0.52158797  0.91316648  1
  O  O342  1  0.08059635  0.24339321  0.25015718  1
  O  O343  1  0.07847037  0.23834198  0.58739863  1
  O  O344  1  0.08617141  0.22828996  0.91516182  1
  O  O345  1  0.07834077  0.72747385  0.25825869  1
  O  O346  1  0.07625204  0.72684041  0.58523358  1
  O  O347  1  0.07713313  0.73365787  0.92829186  1
  O  O348  1  0.42925505  0.24453982  0.24594483  1
  O  O349  1  0.42908041  0.24771004  0.57507530  1
  O  O350  1  0.41501928  0.23691460  0.92155446  1
  O  O351  1  0.41260282  0.72167139  0.25476433  1
  O  O352  1  0.41706693  0.73307440  0.58194902  1
  O  O353  1  0.41116742  0.73642229  0.93036760  1
  O  O354  1  0.75852336  0.23120905  0.23727671  1
  O  O355  1  0.75847515  0.22792055  0.56934976  1
  O  O356  1  0.75766619  0.23097787  0.90959710  1
  O  O357  1  0.73579409  0.73416715  0.25659436  1
  O  O358  1  0.75317385  0.72620866  0.57792409  1
  O  O359  1  0.74892356  0.73298700  0.91291231  1
