# generated using pymatgen
data_Ba17Sr5La8Pr42Mn72O216
_symmetry_space_group_name_H-M   'P 1'
_cell_length_a   16.67744460
_cell_length_b   15.70180965
_cell_length_c   16.82224719
_cell_angle_alpha   90.01872532
_cell_angle_beta   89.96659281
_cell_angle_gamma   90.02269937
_symmetry_Int_Tables_number   1
_chemical_formula_structural   Ba17Sr5La8Pr42Mn72O216
_chemical_formula_sum   'Ba17 Sr5 La8 Pr42 Mn72 O216'
_cell_volume   4405.17427199
_cell_formula_units_Z   1
loop_
 _symmetry_equiv_pos_site_id
 _symmetry_equiv_pos_as_xyz
  1  'x, y, z'
loop_
 _atom_site_type_symbol
 _atom_site_label
 _atom_site_symmetry_multiplicity
 _atom_site_fract_x
 _atom_site_fract_y
 _atom_site_fract_z
 _atom_site_occupancy
  Ba  Ba0  1  0.33347094  0.12365043  0.66265671  1
  Ba  Ba1  1  0.16837053  0.37454234  0.16757037  1
  Ba  Ba2  1  0.49812884  0.12459462  0.50001820  1
  Ba  Ba3  1  0.16831070  0.37469311  0.83230130  1
  Ba  Ba4  1  0.16861479  0.12619725  0.83273317  1
  Ba  Ba5  1  0.33380988  0.37540662  0.33142078  1
  Ba  Ba6  1  0.00217511  0.87720516  0.00088224  1
  Ba  Ba7  1  0.83650139  0.87698137  0.50320210  1
  Ba  Ba8  1  0.83444730  0.12368962  0.50337394  1
  Ba  Ba9  1  -0.00444106  0.62626780  1.00010492  1
  Ba  Ba10  1  0.33311568  0.62724993  0.66146884  1
  Ba  Ba11  1  0.66887065  0.37520132  0.66965630  1
  Ba  Ba12  1  0.00309572  0.37616317  0.66601522  1
  Ba  Ba13  1  0.50455081  0.87490729  0.83252208  1
  Ba  Ba14  1  0.82636218  0.62553877  0.16737825  1
  Ba  Ba15  1  -0.00391652  0.62465503  0.66769957  1
  Ba  Ba16  1  0.33565533  0.12456047  0.99792668  1
  Sr  Sr17  1  0.00458677  0.37482999  0.33584178  1
  Sr  Sr18  1  0.66096763  0.62602539  1.00078863  1
  Sr  Sr19  1  0.16858959  0.12653461  0.50126148  1
  Sr  Sr20  1  0.49506361  0.62325655  0.49933334  1
  Sr  Sr21  1  0.00134272  0.12679101  0.99855609  1
  La  La22  1  0.67196878  0.37558727  0.00378119  1
  La  La23  1  0.66690264  0.12259023  1.00171531  1
  La  La24  1  0.49522623  0.12337364  0.17223553  1
  La  La25  1  0.33679405  0.87556946  0.66375082  1
  La  La26  1  0.49995415  0.37514477  0.83145826  1
  La  La27  1  0.33742271  0.37067948  0.00213823  1
  La  La28  1  0.50037128  0.12497590  0.83311806  1
  La  La29  1  0.33868667  0.87402511  0.33261261  1
  Pr  Pr30  1  0.83367080  0.12883745  0.83577058  1
  Pr  Pr31  1  -0.01283321  0.62408698  0.32942620  1
  Pr  Pr32  1  0.00420067  0.87449520  0.33578726  1
  Pr  Pr33  1  0.50873448  0.87318277  0.16132701  1
  Pr  Pr34  1  0.32720773  0.12458485  0.32890452  1
  Pr  Pr35  1  0.50341059  0.87356194  0.50251673  1
  Pr  Pr36  1  -0.00432195  0.12633159  0.33339954  1
  Pr  Pr37  1  0.33426998  0.37385922  0.66060662  1
  Pr  Pr38  1  0.31947788  0.62493080  0.32904234  1
  Pr  Pr39  1  0.49537301  0.62347375  0.83354713  1
  Pr  Pr40  1  0.66933337  0.37709135  0.34250193  1
  Pr  Pr41  1  0.83609195  0.87468587  0.16654254  1
  Pr  Pr42  1  0.83914475  0.87352795  0.83246929  1
  Pr  Pr43  1  0.33978207  0.87780825  -0.00145801  1
  Pr  Pr44  1  0.00986404  0.37326003  0.00244202  1
  Pr  Pr45  1  0.49051526  0.62543180  0.16833491  1
  Pr  Pr46  1  0.82532804  0.62372679  0.50337924  1
  Pr  Pr47  1  0.00117856  0.88047117  0.67080296  1
  Pr  Pr48  1  0.17104535  0.37306034  0.49670353  1
  Pr  Pr49  1  0.66636235  0.12344288  0.66504316  1
  Pr  Pr50  1  0.15882208  0.62189697  0.49876617  1
  Pr  Pr51  1  0.84236367  0.37432535  0.16671089  1
  Pr  Pr52  1  0.67274042  0.87215444  0.00141051  1
  Pr  Pr53  1  0.17096397  0.87280472  0.49762224  1
  Pr  Pr54  1  0.00790923  0.13019969  0.66396960  1
  Pr  Pr55  1  0.66517130  0.12019533  0.33252713  1
  Pr  Pr56  1  0.65287319  0.62696783  0.33073200  1
  Pr  Pr57  1  0.32750673  0.62448282  0.99266627  1
  Pr  Pr58  1  0.83317895  0.12310779  0.17268192  1
  Pr  Pr59  1  0.15967276  0.12564976  0.16665588  1
  Pr  Pr60  1  0.15643540  0.62379093  0.83313682  1
  Pr  Pr61  1  0.66974687  0.87279355  0.33752460  1
  Pr  Pr62  1  0.66005031  0.62601015  0.66840065  1
  Pr  Pr63  1  0.17231536  0.87388256  0.15766553  1
  Pr  Pr64  1  0.50457121  0.37580256  0.16427955  1
  Pr  Pr65  1  0.82465767  0.62182690  0.84240797  1
  Pr  Pr66  1  0.84453046  0.37444359  0.49990510  1
  Pr  Pr67  1  0.67279123  0.87784475  0.67012622  1
  Pr  Pr68  1  0.84096304  0.37607584  0.83360159  1
  Pr  Pr69  1  0.16942085  0.87629255  0.83081512  1
  Pr  Pr70  1  0.15060134  0.62390959  0.16779215  1
  Pr  Pr71  1  0.49997113  0.37332303  0.50221484  1
  Mn  Mn72  1  -0.00005805  0.00132962  0.16860848  1
  Mn  Mn73  1  0.00398431  -0.00093983  0.50051969  1
  Mn  Mn74  1  0.00030677  0.00153891  0.83483185  1
  Mn  Mn75  1  -0.00309534  0.49822162  0.16811582  1
  Mn  Mn76  1  -0.00038426  0.50066656  0.49694459  1
  Mn  Mn77  1  -0.00155827  0.50056555  0.83483181  1
  Mn  Mn78  1  0.33270569  -0.00180652  0.16696691  1
  Mn  Mn79  1  0.33278485  -0.00405515  0.49600230  1
  Mn  Mn80  1  0.33529532  -0.00209346  0.83185151  1
  Mn  Mn81  1  0.33323195  0.50212297  0.16270390  1
  Mn  Mn82  1  0.33365828  0.50188675  0.49642266  1
  Mn  Mn83  1  0.33379868  0.50107257  0.83106215  1
  Mn  Mn84  1  0.66684458  -0.00043471  0.16678369  1
  Mn  Mn85  1  0.66595015  -0.00045683  0.50061572  1
  Mn  Mn86  1  0.67055118  0.00202423  0.83474928  1
  Mn  Mn87  1  0.66432599  0.49873684  0.17037929  1
  Mn  Mn88  1  0.66566651  0.50140342  0.50108446  1
  Mn  Mn89  1  0.66511827  0.49970789  0.83762934  1
  Mn  Mn90  1  -0.00077219  0.24852121  0.16643174  1
  Mn  Mn91  1  0.00263788  0.24893970  0.49863086  1
  Mn  Mn92  1  -0.00040615  0.24833836  0.83458019  1
  Mn  Mn93  1  -0.00269132  0.75177124  0.16919444  1
  Mn  Mn94  1  0.00033493  0.75039090  0.49922682  1
  Mn  Mn95  1  -0.00076934  0.75178942  0.83244685  1
  Mn  Mn96  1  0.33461957  0.24922661  0.16563164  1
  Mn  Mn97  1  0.33338262  0.24997659  0.49672863  1
  Mn  Mn98  1  0.33665069  0.25205251  0.83187372  1
  Mn  Mn99  1  0.33132422  0.74932198  0.16423785  1
  Mn  Mn100  1  0.33365621  0.75054738  0.49542627  1
  Mn  Mn101  1  0.33312122  0.74948710  0.83062665  1
  Mn  Mn102  1  0.66703580  0.25028094  0.17043462  1
  Mn  Mn103  1  0.66682324  0.25052635  0.50156754  1
  Mn  Mn104  1  0.66742815  0.24897539  0.83754838  1
  Mn  Mn105  1  0.66430999  0.74933352  0.16802311  1
  Mn  Mn106  1  0.66544174  0.74860545  0.50091747  1
  Mn  Mn107  1  0.66752463  0.75011674  0.83461703  1
  Mn  Mn108  1  0.16832890  0.24938594  0.00048120  1
  Mn  Mn109  1  0.16538820  0.24714104  0.33438522  1
  Mn  Mn110  1  0.16949620  0.25030674  0.66390241  1
  Mn  Mn111  1  0.16913844  0.74977232  -0.00241366  1
  Mn  Mn112  1  0.16397143  0.75190417  0.32884957  1
  Mn  Mn113  1  0.16528044  0.75064834  0.66332592  1
  Mn  Mn114  1  0.50488916  0.24958264  0.00003326  1
  Mn  Mn115  1  0.50066945  0.24961436  0.33288675  1
  Mn  Mn116  1  0.50134082  0.25133749  0.66751559  1
  Mn  Mn117  1  0.50045693  0.74892700  0.00034014  1
  Mn  Mn118  1  0.49660138  0.75072321  0.33214956  1
  Mn  Mn119  1  0.50294342  0.75096981  0.66479405  1
  Mn  Mn120  1  0.83383903  0.24901813  0.00298455  1
  Mn  Mn121  1  0.83135826  0.24999287  0.33473581  1
  Mn  Mn122  1  0.83358849  0.25048147  0.66913451  1
  Mn  Mn123  1  0.83078201  0.75116024  0.00060598  1
  Mn  Mn124  1  0.83080896  0.75124318  0.33610660  1
  Mn  Mn125  1  0.83252807  0.74872183  0.66910206  1
  Mn  Mn126  1  0.16868387  -0.00036974  -0.00140696  1
  Mn  Mn127  1  0.16581383  -0.00101284  0.33059312  1
  Mn  Mn128  1  0.16680643  -0.00155260  0.66263711  1
  Mn  Mn129  1  0.16800441  0.50105020  -0.00043592  1
  Mn  Mn130  1  0.16372726  0.50089867  0.33303808  1
  Mn  Mn131  1  0.16817461  0.50219145  0.66441052  1
  Mn  Mn132  1  0.50334925  -0.00123190  0.00103540  1
  Mn  Mn133  1  0.49867242  -0.00279847  0.33323745  1
  Mn  Mn134  1  0.50299686  -0.00186657  0.66603219  1
  Mn  Mn135  1  0.50170299  0.50115288  0.00012837  1
  Mn  Mn136  1  0.49805204  0.50091775  0.33249708  1
  Mn  Mn137  1  0.50041100  0.50066549  0.66621684  1
  Mn  Mn138  1  0.83368416  0.00214507  0.00191231  1
  Mn  Mn139  1  0.83300994  0.00002923  0.33420424  1
  Mn  Mn140  1  0.83516232  0.00107104  0.67126949  1
  Mn  Mn141  1  0.83094544  0.49747906  0.00177683  1
  Mn  Mn142  1  0.82998243  0.49842672  0.33571662  1
  Mn  Mn143  1  0.83130783  0.50161161  0.66972157  1
  O  O144  1  0.16709072  0.12211594  0.01995389  1
  O  O145  1  0.16854102  0.11977703  0.35294251  1
  O  O146  1  0.16328565  0.12259083  0.67466719  1
  O  O147  1  0.17499285  0.62678682  0.02264332  1
  O  O148  1  0.16597733  0.62987140  0.35381000  1
  O  O149  1  0.16901136  0.62919447  0.68863634  1
  O  O150  1  0.50717709  0.12077701  0.02825628  1
  O  O151  1  0.49586010  0.12046987  0.34453266  1
  O  O152  1  0.50180639  0.12413270  0.68657388  1
  O  O153  1  0.49805475  0.62598660  0.02586813  1
  O  O154  1  0.50241305  0.62815735  0.35062729  1
  O  O155  1  0.50254168  0.62712514  0.68739577  1
  O  O156  1  0.82822808  0.12600097  0.03098393  1
  O  O157  1  0.83248995  0.12475593  0.34710544  1
  O  O158  1  0.82720211  0.12410039  0.69185361  1
  O  O159  1  0.82894853  0.62302714  0.00944028  1
  O  O160  1  0.83716652  0.62484762  0.35768228  1
  O  O161  1  0.82475232  0.62694720  0.69576747  1
  O  O162  1  0.16493076  0.37534904  0.32400309  1
  O  O163  1  0.17508365  0.37762135  0.64338626  1
  O  O164  1  0.16303351  0.37714764  0.99279739  1
  O  O165  1  0.16139784  0.87528739  0.29901511  1
  O  O166  1  0.15812453  0.87316778  0.64023524  1
  O  O167  1  0.17296730  0.87239120  0.97904672  1
  O  O168  1  0.50849693  0.37616080  0.30824038  1
  O  O169  1  0.50420558  0.37647893  0.64896721  1
  O  O170  1  0.50250798  0.37940815  0.97607307  1
  O  O171  1  0.49950900  0.87403641  0.30401161  1
  O  O172  1  0.51803143  0.87377769  0.64827203  1
  O  O173  1  0.50135792  0.87342184  0.98884445  1
  O  O174  1  0.82184839  0.37193457  0.30993168  1
  O  O175  1  0.83413872  0.37649509  0.64451522  1
  O  O176  1  0.82545742  0.37107078  0.97745962  1
  O  O177  1  0.82724716  0.87785744  0.31126757  1
  O  O178  1  0.83261337  0.87365863  0.65723549  1
  O  O179  1  0.82584325  0.87973647  0.97770648  1
  O  O180  1  -0.00419193  0.37177960  0.18460892  1
  O  O181  1  -0.00602229  0.37526414  0.50865992  1
  O  O182  1  -0.00809974  0.37377222  0.85665153  1
  O  O183  1  0.00068611  0.87795193  0.19084053  1
  O  O184  1  0.00594114  0.87311602  0.52589577  1
  O  O185  1  -0.00227575  0.87644616  0.84517665  1
  O  O186  1  0.33990168  0.37659585  0.17493800  1
  O  O187  1  0.32177417  0.37934095  0.51263847  1
  O  O188  1  0.34134668  0.38030498  0.85694832  1
  O  O189  1  0.32197015  0.87257774  0.19115296  1
  O  O190  1  0.32056900  0.87175388  0.51452253  1
  O  O191  1  0.32672590  0.86985502  0.85464117  1
  O  O192  1  0.65800620  0.37110266  0.19827553  1
  O  O193  1  0.65179601  0.37791132  0.51101050  1
  O  O194  1  0.65525011  0.37180508  0.86042553  1
  O  O195  1  0.66178454  0.87580921  0.19387704  1
  O  O196  1  0.65745837  0.87167375  0.52351637  1
  O  O197  1  0.67133802  0.87819188  0.85848963  1
  O  O198  1  -0.00424484  0.12391136  0.14794422  1
  O  O199  1  0.00604746  0.12405072  0.47631267  1
  O  O200  1  -0.00724810  0.12290173  0.81009976  1
  O  O201  1  -0.00141303  0.62620894  0.15942018  1
  O  O202  1  0.00655584  0.62659550  0.47174427  1
  O  O203  1  0.00269610  0.62777509  0.82586134  1
  O  O204  1  0.34233577  0.12221809  0.15501729  1
  O  O205  1  0.33385481  0.11845247  0.47507798  1
  O  O206  1  0.34452429  0.12476020  0.82118481  1
  O  O207  1  0.34052783  0.62794731  0.13740160  1
  O  O208  1  0.34128483  0.62884505  0.47407275  1
  O  O209  1  0.34559539  0.62622286  0.81780976  1
  O  O210  1  0.67016758  0.12544133  0.14359812  1
  O  O211  1  0.66754516  0.12585986  0.47684484  1
  O  O212  1  0.67590715  0.12528885  0.80934400  1
  O  O213  1  0.65906447  0.62675344  0.15127787  1
  O  O214  1  0.67632451  0.62486556  0.47370572  1
  O  O215  1  0.67770622  0.62666917  0.81414950  1
  O  O216  1  0.07743235  0.02521747  0.25573867  1
  O  O217  1  0.07959335  0.01790772  0.58627097  1
  O  O218  1  0.08134511  0.00992706  0.91735683  1
  O  O219  1  0.07436032  0.51937000  0.25960787  1
  O  O220  1  0.08257021  0.51384339  0.58145248  1
  O  O221  1  0.08180354  0.50964508  0.92074207  1
  O  O222  1  0.40757338  0.01240800  0.25776757  1
  O  O223  1  0.41751066  -0.00905392  0.57990513  1
  O  O224  1  0.42327196  0.00766492  0.91691621  1
  O  O225  1  0.40676348  0.52452064  0.25524401  1
  O  O226  1  0.41254758  0.49963559  0.58485563  1
  O  O227  1  0.41296870  0.52025143  0.92393025  1
  O  O228  1  0.74713789  0.01982372  0.24743901  1
  O  O229  1  0.74596094  0.00986534  0.59579877  1
  O  O230  1  0.74998423  0.02495010  0.92063773  1
  O  O231  1  0.73255549  0.51481730  0.27046626  1
  O  O232  1  0.74389499  0.52339836  0.59175300  1
  O  O233  1  0.73900627  0.50974487  0.92907897  1
  O  O234  1  0.24656383  0.22737217  0.24925411  1
  O  O235  1  0.25079738  0.24368075  0.57845581  1
  O  O236  1  0.25744168  0.24890794  0.91733822  1
  O  O237  1  0.23841358  0.72595989  0.23561370  1
  O  O238  1  0.24198298  0.73562090  0.56728803  1
  O  O239  1  0.24617622  0.72556819  0.90765781  1
  O  O240  1  0.58196245  0.22255355  0.24788250  1
  O  O241  1  0.58731038  0.23335483  0.59012273  1
  O  O242  1  0.58746431  0.22259740  0.92081031  1
  O  O243  1  0.56889395  0.73361464  0.24054599  1
  O  O244  1  0.58125958  0.72578268  0.57760518  1
  O  O245  1  0.57657681  0.72944314  0.90640533  1
  O  O246  1  0.91162440  0.23141178  0.24587959  1
  O  O247  1  0.92491990  0.23340246  0.58670297  1
  O  O248  1  0.91025351  0.23079664  0.91626861  1
  O  O249  1  0.90975500  0.74277002  0.25212894  1
  O  O250  1  0.90574621  0.73039320  0.57535769  1
  O  O251  1  0.90476727  0.74183070  0.90523395  1
  O  O252  1  0.08544524  0.49390927  0.08802496  1
  O  O253  1  0.09289135  0.48615750  0.42554346  1
  O  O254  1  0.08966272  0.49711219  0.75434963  1
  O  O255  1  0.09357959  0.98830889  0.09487852  1
  O  O256  1  0.09100467  0.97245203  0.41544897  1
  O  O257  1  0.08495225  0.98120942  0.74860612  1
  O  O258  1  0.43040269  0.48300418  0.08979495  1
  O  O259  1  0.42965231  0.48156449  0.42463709  1
  O  O260  1  0.42300370  0.48220903  0.75562009  1
  O  O261  1  0.41989801  0.97624769  0.09294827  1
  O  O262  1  0.41981376  0.97150369  0.41820486  1
  O  O263  1  0.41638253  0.98178267  0.74351320  1
  O  O264  1  0.75613861  0.47551566  0.09606982  1
  O  O265  1  0.76066694  0.47769460  0.43159995  1
  O  O266  1  0.75606789  0.48233122  0.76848262  1
  O  O267  1  0.74907977  0.97624398  0.08526952  1
  O  O268  1  0.74297000  0.98603543  0.41177515  1
  O  O269  1  0.75528049  0.97888732  0.75773672  1
  O  O270  1  0.25649968  0.25917653  0.08178378  1
  O  O271  1  0.24827357  0.25763962  0.41591524  1
  O  O272  1  0.25685340  0.26431082  0.74316090  1
  O  O273  1  0.26132066  0.77160017  0.07244081  1
  O  O274  1  0.25522572  0.76682382  0.39888861  1
  O  O275  1  0.24978563  0.77428241  0.74268328  1
  O  O276  1  0.58907899  0.27244331  0.08529464  1
  O  O277  1  0.58522701  0.26536809  0.41194463  1
  O  O278  1  0.57785665  0.25711445  0.76111639  1
  O  O279  1  0.59039068  0.77047112  0.07844191  1
  O  O280  1  0.58726027  0.76778388  0.40808555  1
  O  O281  1  0.59785503  0.75971544  0.73950493  1
  O  O282  1  0.91862278  0.27306856  0.07919037  1
  O  O283  1  0.91559042  0.26383386  0.41446437  1
  O  O284  1  0.91265269  0.26252969  0.75614885  1
  O  O285  1  0.91459116  0.76803220  0.08754613  1
  O  O286  1  0.92790797  0.76654404  0.40948716  1
  O  O287  1  0.92207078  0.77022643  0.74354632  1
  O  O288  1  0.26544704  0.48860997  0.06679686  1
  O  O289  1  0.25457975  0.49933609  0.40806429  1
  O  O290  1  0.26071892  0.48530107  0.73836665  1
  O  O291  1  0.25683128  0.97759614  0.07979909  1
  O  O292  1  0.25485010  0.97747820  0.40373060  1
  O  O293  1  0.24914341  0.97653995  0.74371174  1
  O  O294  1  0.59023321  0.47719063  0.07760711  1
  O  O295  1  0.59333176  0.49196701  0.40448269  1
  O  O296  1  0.58528112  0.49659180  0.75232246  1
  O  O297  1  0.58905111  0.97764285  0.08220890  1
  O  O298  1  0.58198206  0.97733340  0.41139609  1
  O  O299  1  0.59539697  0.99126056  0.74570214  1
  O  O300  1  0.91981452  0.47518714  0.07601038  1
  O  O301  1  0.92123489  0.48523550  0.40741291  1
  O  O302  1  0.91493386  0.48769590  0.75036064  1
  O  O303  1  0.91044429  0.98479405  0.09150082  1
  O  O304  1  0.92786663  0.98601833  0.41175347  1
  O  O305  1  0.91669726  0.98097964  0.75341257  1
  O  O306  1  0.08133949  0.25792281  0.08463119  1
  O  O307  1  0.08512972  0.26551108  0.41819212  1
  O  O308  1  0.08214191  0.25320968  0.74603906  1
  O  O309  1  0.09405489  0.76094176  0.09451421  1
  O  O310  1  0.09101208  0.77540162  0.41649499  1
  O  O311  1  0.08576247  0.77070797  0.75120476  1
  O  O312  1  0.42478311  0.26861710  0.08177290  1
  O  O313  1  0.42286517  0.26783008  0.41960128  1
  O  O314  1  0.41681711  0.27469562  0.74633438  1
  O  O315  1  0.42270025  0.77231860  0.09494286  1
  O  O316  1  0.42270135  0.77617938  0.41887307  1
  O  O317  1  0.41768832  0.76647255  0.74636196  1
  O  O318  1  0.75412011  0.27298011  0.09385960  1
  O  O319  1  0.75188641  0.27348520  0.42196612  1
  O  O320  1  0.75425493  0.26762733  0.76615442  1
  O  O321  1  0.75165995  0.77477099  0.09176780  1
  O  O322  1  0.75039583  0.76687393  0.42028666  1
  O  O323  1  0.75616873  0.77209501  0.75990621  1
  O  O324  1  0.24296675  0.02256570  0.24172922  1
  O  O325  1  0.24589155  0.00416824  0.57413979  1
  O  O326  1  0.25111364  0.00305694  0.91372220  1
  O  O327  1  0.23998544  0.52445074  0.24084698  1
  O  O328  1  0.24134417  0.51768884  0.56905649  1
  O  O329  1  0.24527744  0.52409767  0.90586631  1
  O  O330  1  0.58101516  0.01957255  0.24670614  1
  O  O331  1  0.58694988  0.01661326  0.58588166  1
  O  O332  1  0.58770448  0.02294665  0.91329795  1
  O  O333  1  0.56876746  0.51960777  0.23999964  1
  O  O334  1  0.58151413  0.52115738  0.57934391  1
  O  O335  1  0.57403552  0.52324480  0.91060537  1
  O  O336  1  0.91518498  0.01912598  0.25025404  1
  O  O337  1  0.92170537  0.01318116  0.59598225  1
  O  O338  1  0.91134010  0.01984110  0.91720002  1
  O  O339  1  0.90650341  0.50738510  0.24727167  1
  O  O340  1  0.90670467  0.51531855  0.56770160  1
  O  O341  1  0.90249688  0.50954167  0.90945130  1
  O  O342  1  0.08019242  0.22563989  0.25267158  1
  O  O343  1  0.08629954  0.23886050  0.58094318  1
  O  O344  1  0.07738298  0.24228470  0.92026847  1
  O  O345  1  0.07307599  0.73017508  0.25888491  1
  O  O346  1  0.08387430  0.73041316  0.57794292  1
  O  O347  1  0.08668440  0.73951144  0.91361522  1
  O  O348  1  0.41609399  0.23294291  0.25127608  1
  O  O349  1  0.41792071  0.25459386  0.58041439  1
  O  O350  1  0.42809895  0.24085230  0.90751216  1
  O  O351  1  0.40296485  0.73084198  0.25691254  1
  O  O352  1  0.41896920  0.75560484  0.58298345  1
  O  O353  1  0.41168359  0.73517189  0.92599580  1
  O  O354  1  0.74440080  0.22480885  0.25542581  1
  O  O355  1  0.74787038  0.23605111  0.59126589  1
  O  O356  1  0.74724420  0.22810474  0.92621969  1
  O  O357  1  0.73309510  0.73763848  0.26124403  1
  O  O358  1  0.74315732  0.73112315  0.59307665  1
  O  O359  1  0.74073345  0.73765204  0.92422705  1
