# generated using pymatgen
data_Ba17Sr5La8Pr42Mn72O216
_symmetry_space_group_name_H-M   'P 1'
_cell_length_a   16.67535182
_cell_length_b   15.70389876
_cell_length_c   16.82078667
_cell_angle_alpha   90.00559645
_cell_angle_beta   90.00922860
_cell_angle_gamma   89.97823875
_symmetry_Int_Tables_number   1
_chemical_formula_structural   Ba17Sr5La8Pr42Mn72O216
_chemical_formula_sum   'Ba17 Sr5 La8 Pr42 Mn72 O216'
_cell_volume   4404.82598835
_cell_formula_units_Z   1
loop_
 _symmetry_equiv_pos_site_id
 _symmetry_equiv_pos_as_xyz
  1  'x, y, z'
loop_
 _atom_site_type_symbol
 _atom_site_label
 _atom_site_symmetry_multiplicity
 _atom_site_fract_x
 _atom_site_fract_y
 _atom_site_fract_z
 _atom_site_occupancy
  Ba  Ba0  1  0.00306935  0.37631721  0.33283580  1
  Ba  Ba1  1  0.66949433  0.87467827  0.66495981  1
  Ba  Ba2  1  0.66954824  0.37485320  0.66979497  1
  Ba  Ba3  1  0.49889749  0.12383135  0.16907238  1
  Ba  Ba4  1  0.16290202  0.62563949  0.83246866  1
  Ba  Ba5  1  0.33227081  0.12367067  0.66678759  1
  Ba  Ba6  1  0.50164591  0.37400573  0.83642940  1
  Ba  Ba7  1  0.83457427  0.87657856  0.83025938  1
  Ba  Ba8  1  0.49961084  0.12471050  0.83542611  1
  Ba  Ba9  1  0.49918437  0.62474706  0.83325751  1
  Ba  Ba10  1  0.16864844  0.37414893  0.49710666  1
  Ba  Ba11  1  -0.00012490  0.12667473  0.99815052  1
  Ba  Ba12  1  0.33001594  0.62538029  0.66658246  1
  Ba  Ba13  1  0.83384775  0.87333594  0.16452220  1
  Ba  Ba14  1  0.66784523  0.37507679  0.00293346  1
  Ba  Ba15  1  0.66565236  0.62441874  0.66668807  1
  Ba  Ba16  1  0.49914034  0.87490069  0.16908512  1
  Sr  Sr17  1  -0.00381228  0.62563802  0.66589743  1
  Sr  Sr18  1  0.83219884  0.87155635  0.49498165  1
  Sr  Sr19  1  0.00654254  0.37667577  0.00171104  1
  Sr  Sr20  1  0.33793985  0.37711425  -0.00083572  1
  Sr  Sr21  1  0.50020871  0.37507821  0.50500346  1
  La  La22  1  0.00030965  0.87347651  0.66629392  1
  La  La23  1  0.16948716  0.37354277  0.83181445  1
  La  La24  1  0.82835488  0.62172347  0.16490860  1
  La  La25  1  0.83107258  0.12630402  0.49892213  1
  La  La26  1  0.17226862  0.87500553  0.49768828  1
  La  La27  1  0.16859535  0.87593774  0.16524341  1
  La  La28  1  0.17391349  0.37564773  0.16385697  1
  La  La29  1  0.00316814  0.87543045  0.33677436  1
  Pr  Pr30  1  -0.01149449  0.62417486  0.99347925  1
  Pr  Pr31  1  0.34066264  0.37355668  0.33625688  1
  Pr  Pr32  1  0.33720258  0.37526450  0.67237871  1
  Pr  Pr33  1  -0.00365774  0.12457788  0.66649423  1
  Pr  Pr34  1  0.66787856  0.12088010  1.00126078  1
  Pr  Pr35  1  0.50169914  0.87130954  0.49995578  1
  Pr  Pr36  1  0.16687293  0.12614866  0.83662822  1
  Pr  Pr37  1  0.00617937  0.37677402  0.66700404  1
  Pr  Pr38  1  0.82710225  0.12467863  0.83394793  1
  Pr  Pr39  1  0.33112282  0.62729641  0.99214174  1
  Pr  Pr40  1  0.66562131  0.12328134  0.33191576  1
  Pr  Pr41  1  0.82758009  0.62535716  0.82994263  1
  Pr  Pr42  1  0.66634207  0.37142692  0.33752084  1
  Pr  Pr43  1  0.83083464  0.12979080  0.16881446  1
  Pr  Pr44  1  0.16645841  0.87728157  0.83063894  1
  Pr  Pr45  1  0.83322884  0.37932599  0.49820411  1
  Pr  Pr46  1  0.33543407  0.87438329  0.66888414  1
  Pr  Pr47  1  0.15731743  0.12700697  0.50109025  1
  Pr  Pr48  1  0.16190233  0.62412325  0.16655289  1
  Pr  Pr49  1  0.66431257  0.12533691  0.66800743  1
  Pr  Pr50  1  0.50237669  0.87458201  0.83301628  1
  Pr  Pr51  1  0.84428877  0.37612340  0.15982133  1
  Pr  Pr52  1  0.66501554  0.87836210  0.33977910  1
  Pr  Pr53  1  0.66511524  0.62930856  0.99532217  1
  Pr  Pr54  1  0.00167170  0.87254061  0.00265036  1
  Pr  Pr55  1  0.66274777  0.62646834  0.33522605  1
  Pr  Pr56  1  0.33427465  0.12362826  0.99461305  1
  Pr  Pr57  1  -0.00679915  0.62380061  0.33377660  1
  Pr  Pr58  1  0.66081580  0.87464451  0.00302063  1
  Pr  Pr59  1  0.83059622  0.62330508  0.50378922  1
  Pr  Pr60  1  0.84060302  0.37350127  0.83099822  1
  Pr  Pr61  1  0.49517515  0.62377118  0.51084279  1
  Pr  Pr62  1  0.34243365  0.87573720  0.33426980  1
  Pr  Pr63  1  0.15467643  0.62273630  0.50906428  1
  Pr  Pr64  1  0.50015104  0.12422912  0.50646226  1
  Pr  Pr65  1  0.16341196  0.12688908  0.16652614  1
  Pr  Pr66  1  -0.00379957  0.12763324  0.32644555  1
  Pr  Pr67  1  0.32853560  0.12595492  0.33040667  1
  Pr  Pr68  1  0.49637890  0.62233681  0.16761135  1
  Pr  Pr69  1  0.32904291  0.62463540  0.33407530  1
  Pr  Pr70  1  0.50296951  0.37387675  0.16254977  1
  Pr  Pr71  1  0.33458861  0.87324421  -0.00093831  1
  Mn  Mn72  1  -0.00018521  -0.00032495  0.16686825  1
  Mn  Mn73  1  -0.00180432  -0.00001310  0.49786069  1
  Mn  Mn74  1  0.00132159  0.00044479  0.83174931  1
  Mn  Mn75  1  0.00267763  0.50244868  0.16452631  1
  Mn  Mn76  1  -0.00180054  0.49937989  0.49965572  1
  Mn  Mn77  1  -0.00042027  0.49948486  0.83375603  1
  Mn  Mn78  1  0.33048904  -0.00022839  0.16517152  1
  Mn  Mn79  1  0.33353588  0.00048677  0.49836116  1
  Mn  Mn80  1  0.33204880  -0.00192125  0.83345769  1
  Mn  Mn81  1  0.33296305  0.50240338  0.16724070  1
  Mn  Mn82  1  0.33372598  0.49851780  0.49852592  1
  Mn  Mn83  1  0.33148672  0.50018879  0.83494560  1
  Mn  Mn84  1  0.66807722  -0.00104730  0.16816984  1
  Mn  Mn85  1  0.66754883  0.00187348  0.49980471  1
  Mn  Mn86  1  0.66708823  0.00009810  0.83457306  1
  Mn  Mn87  1  0.66564589  0.50187656  0.16998766  1
  Mn  Mn88  1  0.66507338  0.49734021  0.49830564  1
  Mn  Mn89  1  0.66841300  0.49976141  0.83598271  1
  Mn  Mn90  1  0.00204894  0.25096314  0.16478581  1
  Mn  Mn91  1  -0.00238502  0.24829107  0.49854384  1
  Mn  Mn92  1  0.00147501  0.25077600  0.83143283  1
  Mn  Mn93  1  0.00073523  0.74776442  0.16711838  1
  Mn  Mn94  1  -0.00112110  0.75224629  0.49887975  1
  Mn  Mn95  1  -0.00103235  0.74994740  0.83299750  1
  Mn  Mn96  1  0.33267848  0.24973437  0.16617647  1
  Mn  Mn97  1  0.33523790  0.24911800  0.49890687  1
  Mn  Mn98  1  0.33253957  0.24984892  0.83471263  1
  Mn  Mn99  1  0.33072380  0.74853581  0.16609230  1
  Mn  Mn100  1  0.33169805  0.75089632  0.49801358  1
  Mn  Mn101  1  0.33140419  0.75234742  0.83366732  1
  Mn  Mn102  1  0.66777553  0.25057492  0.17049665  1
  Mn  Mn103  1  0.66610227  0.25044706  0.50026570  1
  Mn  Mn104  1  0.66913963  0.24948028  0.83597155  1
  Mn  Mn105  1  0.66561282  0.74748974  0.16723278  1
  Mn  Mn106  1  0.66704925  0.74964683  0.49771153  1
  Mn  Mn107  1  0.66714172  0.75048659  0.83427549  1
  Mn  Mn108  1  0.16945838  0.25169343  0.00028196  1
  Mn  Mn109  1  0.16827839  0.24927554  0.33231778  1
  Mn  Mn110  1  0.16612630  0.24855173  0.66596117  1
  Mn  Mn111  1  0.16459980  0.75077057  0.00119851  1
  Mn  Mn112  1  0.16761912  0.74820422  0.33436338  1
  Mn  Mn113  1  0.16422854  0.75153851  0.66444173  1
  Mn  Mn114  1  0.49960300  0.24976052  0.00386623  1
  Mn  Mn115  1  0.49957590  0.25057321  0.33649943  1
  Mn  Mn116  1  0.50025002  0.24880876  0.66713329  1
  Mn  Mn117  1  0.49861514  0.75083735  0.00196595  1
  Mn  Mn118  1  0.49967236  0.74662422  0.33559865  1
  Mn  Mn119  1  0.49901072  0.75186454  0.66633228  1
  Mn  Mn120  1  0.83484031  0.24955082  -0.00032018  1
  Mn  Mn121  1  0.83258918  0.25166304  0.33324614  1
  Mn  Mn122  1  0.83639371  0.24871966  0.66585819  1
  Mn  Mn123  1  0.83258307  0.75127250  -0.00193656  1
  Mn  Mn124  1  0.83208657  0.74849695  0.33160151  1
  Mn  Mn125  1  0.83524805  0.75044024  0.66329302  1
  Mn  Mn126  1  0.16668849  -0.00144884  -0.00068614  1
  Mn  Mn127  1  0.16754254  -0.00075133  0.33246775  1
  Mn  Mn128  1  0.16463174  0.00079111  0.66440925  1
  Mn  Mn129  1  0.16758045  0.50034455  0.00113563  1
  Mn  Mn130  1  0.16861475  0.50396912  0.33372520  1
  Mn  Mn131  1  0.16590955  0.49897839  0.66547440  1
  Mn  Mn132  1  0.49889196  0.00005425  0.00159059  1
  Mn  Mn133  1  0.49932084  0.00033051  0.33835788  1
  Mn  Mn134  1  0.50051542  -0.00110443  0.66702089  1
  Mn  Mn135  1  0.49926082  0.50028220  0.00434646  1
  Mn  Mn136  1  0.49929436  0.50169206  0.33540791  1
  Mn  Mn137  1  0.49908074  0.49890769  0.66712270  1
  Mn  Mn138  1  0.83409226  -0.00044652  -0.00043695  1
  Mn  Mn139  1  0.83351471  -0.00034715  0.33218919  1
  Mn  Mn140  1  0.83516726  0.00183416  0.66372620  1
  Mn  Mn141  1  0.83326365  0.49850019  -0.00106306  1
  Mn  Mn142  1  0.83056912  0.50068453  0.33191871  1
  Mn  Mn143  1  0.83662053  0.49887031  0.66603310  1
  O  O144  1  0.17494710  0.12214341  0.02357536  1
  O  O145  1  0.17519623  0.11859824  0.35850825  1
  O  O146  1  0.15816889  0.12276063  0.69195465  1
  O  O147  1  0.17493659  0.62670748  0.02339452  1
  O  O148  1  0.17854951  0.62923260  0.36535058  1
  O  O149  1  0.16135729  0.62512299  0.67319445  1
  O  O150  1  0.49079944  0.12273564  0.01197925  1
  O  O151  1  0.49972717  0.12188162  0.36088978  1
  O  O152  1  0.50593584  0.12136697  0.67698967  1
  O  O153  1  0.49499777  0.62679968  0.02278459  1
  O  O154  1  0.49965634  0.62492114  0.36616787  1
  O  O155  1  0.49810086  0.62835461  0.67083711  1
  O  O156  1  0.82716100  0.12390252  0.02575636  1
  O  O157  1  0.84028665  0.12410891  0.35422542  1
  O  O158  1  0.84154394  0.12662231  0.69039612  1
  O  O159  1  0.83410221  0.62424062  0.02071852  1
  O  O160  1  0.83686603  0.62283801  0.35947880  1
  O  O161  1  0.83952455  0.62130158  0.68411480  1
  O  O162  1  0.17335857  0.38003702  0.30905123  1
  O  O163  1  0.16725714  0.37312401  0.65273421  1
  O  O164  1  0.16528685  0.37724151  0.97853472  1
  O  O165  1  0.15885178  0.87322889  0.30763001  1
  O  O166  1  0.16672067  0.87866987  0.64059870  1
  O  O167  1  0.15846497  0.87522356  0.97510565  1
  O  O168  1  0.49670714  0.38141266  0.30557712  1
  O  O169  1  0.49230152  0.37232340  0.65579782  1
  O  O170  1  0.49867753  0.37631713  0.99698777  1
  O  O171  1  0.50115390  0.87241383  0.32260729  1
  O  O172  1  0.49626705  0.87662975  0.64478858  1
  O  O173  1  0.50588665  0.87573181  0.98077734  1
  O  O174  1  0.82260332  0.37884505  0.30334450  1
  O  O175  1  0.84081750  0.37139627  0.64126895  1
  O  O176  1  0.83644102  0.37517273  0.97698583  1
  O  O177  1  0.82704925  0.87556809  0.32025755  1
  O  O178  1  0.84131069  0.88043958  0.64604503  1
  O  O179  1  0.83807681  0.87580550  0.98618330  1
  O  O180  1  -0.00214378  0.37609559  0.17748686  1
  O  O181  1  -0.00775540  0.36996200  0.52145971  1
  O  O182  1  -0.00527284  0.37515890  0.85322270  1
  O  O183  1  0.00454339  0.87175132  0.19302399  1
  O  O184  1  0.00082774  0.87791124  0.52068575  1
  O  O185  1  0.00333024  0.87626287  0.85927739  1
  O  O186  1  0.33117205  0.37848069  0.19433059  1
  O  O187  1  0.33234849  0.37044979  0.52540419  1
  O  O188  1  0.32370769  0.37348532  0.84701330  1
  O  O189  1  0.32467558  0.87001845  0.19320464  1
  O  O190  1  0.32686958  0.87806650  0.52425164  1
  O  O191  1  0.32173841  0.87594119  0.85477993  1
  O  O192  1  0.65835626  0.37807839  0.19420418  1
  O  O193  1  0.67471978  0.37271097  0.51356435  1
  O  O194  1  0.67889194  0.37319442  0.84583070  1
  O  O195  1  0.66701526  0.86969729  0.19410099  1
  O  O196  1  0.66791660  0.87770481  0.50744784  1
  O  O197  1  0.66244054  0.87560520  0.85715826  1
  O  O198  1  0.00217565  0.12711907  0.15545442  1
  O  O199  1  0.00039792  0.12198002  0.47085243  1
  O  O200  1  0.01098450  0.12553933  0.80916317  1
  O  O201  1  0.00834989  0.62585592  0.13823616  1
  O  O202  1  0.00136186  0.62951170  0.47834678  1
  O  O203  1  -0.00566987  0.62361225  0.81556359  1
  O  O204  1  0.32458140  0.12601814  0.13935937  1
  O  O205  1  0.34365332  0.12261856  0.47252337  1
  O  O206  1  0.32776343  0.12169632  0.82477361  1
  O  O207  1  0.33498269  0.62691310  0.13810573  1
  O  O208  1  0.34292328  0.62711576  0.47729414  1
  O  O209  1  0.33260515  0.62962567  0.82764283  1
  O  O210  1  0.67519766  0.12664688  0.14638980  1
  O  O211  1  0.66402269  0.12697946  0.47447916  1
  O  O212  1  0.67326703  0.12456688  0.81425070  1
  O  O213  1  0.66724886  0.62453066  0.14000645  1
  O  O214  1  0.66564173  0.62209971  0.47884640  1
  O  O215  1  0.67251574  0.62575714  0.82615096  1
  O  O216  1  0.08232304  0.02203829  0.25577027  1
  O  O217  1  0.07689451  0.02302097  0.58410692  1
  O  O218  1  0.09061693  0.01636000  0.91035506  1
  O  O219  1  0.08228068  0.52694666  0.25691242  1
  O  O220  1  0.07714266  0.50955138  0.58751746  1
  O  O221  1  0.07314254  0.51577241  0.92841127  1
  O  O222  1  0.40934465  0.01198478  0.26082870  1
  O  O223  1  0.42112349  0.01075817  0.57787610  1
  O  O224  1  0.41225132  0.00214605  0.91970689  1
  O  O225  1  0.41182978  0.52763830  0.25644883  1
  O  O226  1  0.41452695  0.50969881  0.57994740  1
  O  O227  1  0.41099964  0.51184408  0.92917580  1
  O  O228  1  0.75431649  0.02426957  0.24835917  1
  O  O229  1  0.75081083  0.02567155  0.58016529  1
  O  O230  1  0.75092884  0.02073222  0.91702738  1
  O  O231  1  0.74405822  0.52789911  0.25515361  1
  O  O232  1  0.75452282  0.51114747  0.57735193  1
  O  O233  1  0.74727320  0.52165227  0.92436295  1
  O  O234  1  0.24433123  0.22733840  0.24242014  1
  O  O235  1  0.24306557  0.22742823  0.57221907  1
  O  O236  1  0.24826587  0.22926616  0.91628143  1
  O  O237  1  0.24541863  0.72477046  0.24579559  1
  O  O238  1  0.23995964  0.73725518  0.56697303  1
  O  O239  1  0.24912466  0.74138689  0.92132898  1
  O  O240  1  0.58709185  0.23529845  0.25823486  1
  O  O241  1  0.58424947  0.23045522  0.58045199  1
  O  O242  1  0.58800536  0.23528135  0.92403878  1
  O  O243  1  0.58004750  0.72235356  0.25147407  1
  O  O244  1  0.57719350  0.74143287  0.57253109  1
  O  O245  1  0.58709631  0.73902074  0.92489208  1
  O  O246  1  0.91333246  0.23512841  0.24646085  1
  O  O247  1  0.91400360  0.22333779  0.57862162  1
  O  O248  1  0.90972081  0.23367261  0.90060712  1
  O  O249  1  0.91433742  0.72413340  0.24455932  1
  O  O250  1  0.91174497  0.73392981  0.57187430  1
  O  O251  1  0.91039563  0.72862030  0.90985868  1
  O  O252  1  0.09655299  0.48563504  0.09380545  1
  O  O253  1  0.08598919  0.49841013  0.41914866  1
  O  O254  1  0.08631804  0.47835182  0.75567108  1
  O  O255  1  0.08544782  0.97978300  0.08415948  1
  O  O256  1  0.08855481  0.98021157  0.41923702  1
  O  O257  1  0.08465456  0.97453422  0.75040150  1
  O  O258  1  0.42355393  0.48630525  0.09825979  1
  O  O259  1  0.41973923  0.47836497  0.41743798  1
  O  O260  1  0.41206839  0.48729250  0.74822521  1
  O  O261  1  0.40856038  0.98384756  0.07960983  1
  O  O262  1  0.41760922  0.97413578  0.42082346  1
  O  O263  1  0.41421982  0.97575275  0.75145686  1
  O  O264  1  0.76172303  0.48470686  0.09536670  1
  O  O265  1  0.75045656  0.47979099  0.41509833  1
  O  O266  1  0.76558828  0.48906762  0.75841101  1
  O  O267  1  0.74326852  0.98368640  0.07613931  1
  O  O268  1  0.74394658  0.99245661  0.40889142  1
  O  O269  1  0.75071570  0.99775211  0.74639271  1
  O  O270  1  0.25308354  0.27248448  0.08275082  1
  O  O271  1  0.26159186  0.26147060  0.40383926  1
  O  O272  1  0.24926633  0.26427038  0.74960233  1
  O  O273  1  0.24835427  0.77325945  0.08112014  1
  O  O274  1  0.25700662  0.77531008  0.40646625  1
  O  O275  1  0.25126941  0.77205042  0.74439104  1
  O  O276  1  0.58403421  0.25993160  0.09206504  1
  O  O277  1  0.58699741  0.26893503  0.41560229  1
  O  O278  1  0.59137690  0.25201089  0.74865918  1
  O  O279  1  0.58517088  0.76306264  0.08360393  1
  O  O280  1  0.58580614  0.76854231  0.41292507  1
  O  O281  1  0.57949079  0.76591488  0.75729709  1
  O  O282  1  0.91933957  0.26549447  0.08064907  1
  O  O283  1  0.91136941  0.26665427  0.41850099  1
  O  O284  1  0.92653663  0.26877749  0.73884422  1
  O  O285  1  0.92468900  0.76002843  0.07066663  1
  O  O286  1  0.92641701  0.76559161  0.40751312  1
  O  O287  1  0.92651016  0.76514290  0.74045455  1
  O  O288  1  0.25463175  0.48215755  0.08374026  1
  O  O289  1  0.26231147  0.48663454  0.40318333  1
  O  O290  1  0.25035200  0.48252955  0.74444145  1
  O  O291  1  0.24762831  0.97267349  0.07883988  1
  O  O292  1  0.25559227  0.97528779  0.40565070  1
  O  O293  1  0.24970299  0.97960273  0.74672477  1
  O  O294  1  0.58012461  0.49001794  0.09372720  1
  O  O295  1  0.58940297  0.48088771  0.40702746  1
  O  O296  1  0.58642412  0.49401452  0.75263195  1
  O  O297  1  0.58484875  0.98838240  0.08407933  1
  O  O298  1  0.57948683  0.98146350  0.42300912  1
  O  O299  1  0.57870057  0.98355405  0.75838550  1
  O  O300  1  0.92105812  0.48874006  0.07567293  1
  O  O301  1  0.91170756  0.48503656  0.41696843  1
  O  O302  1  0.92390188  0.47569244  0.74330366  1
  O  O303  1  0.92179428  0.98553077  0.07686825  1
  O  O304  1  0.92034222  0.98074258  0.41128616  1
  O  O305  1  0.92782768  0.98990152  0.73938031  1
  O  O306  1  0.09243167  0.26295452  0.08977184  1
  O  O307  1  0.08545238  0.25256430  0.41790894  1
  O  O308  1  0.08499353  0.27246652  0.75128984  1
  O  O309  1  0.08861335  0.77207825  0.09058469  1
  O  O310  1  0.08942280  0.77000190  0.42218017  1
  O  O311  1  0.08687250  0.77300254  0.75693832  1
  O  O312  1  0.41965946  0.26720445  0.09450766  1
  O  O313  1  0.41952781  0.27181676  0.41832884  1
  O  O314  1  0.41119097  0.26138212  0.74807869  1
  O  O315  1  0.40994345  0.76751090  0.08027301  1
  O  O316  1  0.41840592  0.77237941  0.41999947  1
  O  O317  1  0.41542497  0.77560553  0.75279191  1
  O  O318  1  0.75918465  0.26800506  0.09992867  1
  O  O319  1  0.75204356  0.26756313  0.41837187  1
  O  O320  1  0.76591695  0.25962367  0.75978168  1
  O  O321  1  0.74550879  0.76172712  0.07665308  1
  O  O322  1  0.74508301  0.75955598  0.41015568  1
  O  O323  1  0.75423203  0.75449137  0.75092499  1
  O  O324  1  0.24383418  0.02118539  0.24396709  1
  O  O325  1  0.24088574  0.01850015  0.56903004  1
  O  O326  1  0.24888706  0.01713767  0.91773710  1
  O  O327  1  0.24579128  0.52797318  0.24378225  1
  O  O328  1  0.24233534  0.51649319  0.57074750  1
  O  O329  1  0.24818456  0.51446695  0.91985108  1
  O  O330  1  0.59135368  0.01211049  0.26273155  1
  O  O331  1  0.58877406  0.01993941  0.58424100  1
  O  O332  1  0.59016390  0.01258494  0.92628247  1
  O  O333  1  0.57757917  0.52921637  0.25211426  1
  O  O334  1  0.57744371  0.50914543  0.57385425  1
  O  O335  1  0.58453300  0.51462355  0.92772605  1
  O  O336  1  0.91617261  0.01965953  0.24982484  1
  O  O337  1  0.91447637  0.02553581  0.57756018  1
  O  O338  1  0.91301656  0.01929318  0.90713077  1
  O  O339  1  0.91254694  0.52110848  0.24551335  1
  O  O340  1  0.91163677  0.51653556  0.57658784  1
  O  O341  1  0.90774012  0.51922234  0.90794462  1
  O  O342  1  0.08235145  0.23012820  0.25296110  1
  O  O343  1  0.07662805  0.22843386  0.58568070  1
  O  O344  1  0.08954087  0.23828178  0.91125441  1
  O  O345  1  0.08103150  0.72214064  0.26033279  1
  O  O346  1  0.07650439  0.73904410  0.58497722  1
  O  O347  1  0.07166200  0.73478117  0.93025205  1
  O  O348  1  0.40579076  0.23452543  0.25932408  1
  O  O349  1  0.41944731  0.23334214  0.57747838  1
  O  O350  1  0.40886319  0.23985145  0.92458040  1
  O  O351  1  0.41358459  0.72762735  0.25416524  1
  O  O352  1  0.41321029  0.74461505  0.57985716  1
  O  O353  1  0.41206389  0.74691667  0.92126521  1
  O  O354  1  0.74711875  0.22625776  0.25696358  1
  O  O355  1  0.74839164  0.22540881  0.58757955  1
  O  O356  1  0.74790886  0.22555173  0.92334113  1
  O  O357  1  0.74743761  0.72237078  0.24749413  1
  O  O358  1  0.75270130  0.73567302  0.57438402  1
  O  O359  1  0.74975267  0.73276050  0.91829421  1
