# generated using pymatgen
data_Ba17Sr5La8Pr42Mn72O216
_symmetry_space_group_name_H-M   'P 1'
_cell_length_a   16.67500648
_cell_length_b   15.70334491
_cell_length_c   16.81814667
_cell_angle_alpha   89.99636084
_cell_angle_beta   90.04697861
_cell_angle_gamma   89.99550709
_symmetry_Int_Tables_number   1
_chemical_formula_structural   Ba17Sr5La8Pr42Mn72O216
_chemical_formula_sum   'Ba17 Sr5 La8 Pr42 Mn72 O216'
_cell_volume   4403.88701893
_cell_formula_units_Z   1
loop_
 _symmetry_equiv_pos_site_id
 _symmetry_equiv_pos_as_xyz
  1  'x, y, z'
loop_
 _atom_site_type_symbol
 _atom_site_label
 _atom_site_symmetry_multiplicity
 _atom_site_fract_x
 _atom_site_fract_y
 _atom_site_fract_z
 _atom_site_occupancy
  Ba  Ba0  1  0.66547885  0.37464083  0.66940696  1
  Ba  Ba1  1  0.16816063  0.62557153  0.83344079  1
  Ba  Ba2  1  0.16551757  0.37534408  0.83317447  1
  Ba  Ba3  1  0.49868729  0.37680632  0.49738711  1
  Ba  Ba4  1  0.83478939  0.12327789  0.83823349  1
  Ba  Ba5  1  0.33453115  0.12411827  0.32693791  1
  Ba  Ba6  1  0.33291491  0.62739408  0.66266269  1
  Ba  Ba7  1  0.83252759  0.12218678  0.50333587  1
  Ba  Ba8  1  0.00130964  0.37407791  0.66874921  1
  Ba  Ba9  1  0.16934661  0.12411712  0.49505564  1
  Ba  Ba10  1  -0.00112674  0.37782091  0.33483505  1
  Ba  Ba11  1  0.66697946  0.37414456  0.00321919  1
  Ba  Ba12  1  0.33483250  0.12380463  0.99671932  1
  Ba  Ba13  1  0.16524310  0.87415496  0.83238089  1
  Ba  Ba14  1  0.50168356  0.37291091  0.82977414  1
  Ba  Ba15  1  0.66874528  0.87601154  0.00708424  1
  Ba  Ba16  1  0.83495846  0.62642443  0.83758645  1
  Sr  Sr17  1  0.83335257  0.62563628  0.50840827  1
  Sr  Sr18  1  -0.00073422  0.62614178  0.99845399  1
  Sr  Sr19  1  0.00009884  0.87739195  0.66849045  1
  Sr  Sr20  1  0.66619235  0.12587436  0.33827318  1
  Sr  Sr21  1  0.83271249  0.87391036  0.16925470  1
  La  La22  1  0.33127019  0.37387610  0.66556518  1
  La  La23  1  0.00181874  0.62662960  0.67016908  1
  La  La24  1  -0.00106069  0.12556364  0.33014128  1
  La  La25  1  0.16565888  0.37694924  0.49732285  1
  La  La26  1  0.83115219  0.37515145  0.50137770  1
  La  La27  1  0.50209994  0.62531951  0.50124379  1
  La  La28  1  0.67388443  0.62566383  0.99864721  1
  La  La29  1  0.50710585  0.12640878  0.83016633  1
  Pr  Pr30  1  0.33026620  0.87455615  -0.00381150  1
  Pr  Pr31  1  0.33727684  0.62603857  0.98718281  1
  Pr  Pr32  1  0.49397784  0.87299198  0.49472614  1
  Pr  Pr33  1  0.16720892  0.62510348  0.16376727  1
  Pr  Pr34  1  0.16698716  0.12487765  0.82913070  1
  Pr  Pr35  1  -0.00159804  0.87176413  0.00071672  1
  Pr  Pr36  1  -0.00697372  0.62473391  0.33238643  1
  Pr  Pr37  1  0.83605733  0.87239288  0.50218563  1
  Pr  Pr38  1  0.83949760  0.87262282  0.83706711  1
  Pr  Pr39  1  0.50378687  0.12441133  0.50003650  1
  Pr  Pr40  1  0.66762937  0.12413577  1.00436017  1
  Pr  Pr41  1  0.66479286  0.37328795  0.34236317  1
  Pr  Pr42  1  0.16311162  0.37044954  0.15915946  1
  Pr  Pr43  1  0.51073603  0.12488874  0.17044553  1
  Pr  Pr44  1  0.83001498  0.37535152  0.17020837  1
  Pr  Pr45  1  0.32542821  0.87630241  0.32875682  1
  Pr  Pr46  1  0.67065435  0.12960742  0.66568967  1
  Pr  Pr47  1  0.82959257  0.12261817  0.17698470  1
  Pr  Pr48  1  0.66720932  0.62193619  0.66764991  1
  Pr  Pr49  1  0.50844928  0.62636273  0.16395237  1
  Pr  Pr50  1  0.00376184  0.12356679  1.00228064  1
  Pr  Pr51  1  0.49598394  0.87702923  0.82785030  1
  Pr  Pr52  1  0.16256984  0.62379657  0.50243598  1
  Pr  Pr53  1  0.66613669  0.87689741  0.34010011  1
  Pr  Pr54  1  0.00349024  0.12340281  0.66515783  1
  Pr  Pr55  1  0.49537742  0.87743118  0.16023532  1
  Pr  Pr56  1  0.16915469  0.12415117  0.17251313  1
  Pr  Pr57  1  0.16181215  0.87833475  0.15968546  1
  Pr  Pr58  1  0.49161021  0.37357368  0.16104311  1
  Pr  Pr59  1  0.83376168  0.37778772  0.83245816  1
  Pr  Pr60  1  0.33247507  0.37580595  -0.00427310  1
  Pr  Pr61  1  -0.00224068  0.37764003  0.00091091  1
  Pr  Pr62  1  -0.00218266  0.87342530  0.33608780  1
  Pr  Pr63  1  0.16356012  0.87186175  0.49603440  1
  Pr  Pr64  1  0.33691542  0.62529730  0.32574151  1
  Pr  Pr65  1  0.32562969  0.87478367  0.66272912  1
  Pr  Pr66  1  0.33496998  0.12527232  0.65859126  1
  Pr  Pr67  1  0.66725742  0.62401568  0.33730781  1
  Pr  Pr68  1  0.83106905  0.62732793  0.17004424  1
  Pr  Pr69  1  0.32607021  0.37421192  0.33156571  1
  Pr  Pr70  1  0.66897973  0.87754124  0.67553473  1
  Pr  Pr71  1  0.50623173  0.62221376  0.83344159  1
  Mn  Mn72  1  -0.00269163  -0.00183470  0.16701505  1
  Mn  Mn73  1  0.00041318  -0.00167080  0.50089709  1
  Mn  Mn74  1  0.00093441  0.00138177  0.83452183  1
  Mn  Mn75  1  0.00001527  0.50253259  0.16752427  1
  Mn  Mn76  1  -0.00161064  0.50156293  0.50116989  1
  Mn  Mn77  1  0.00064716  0.50072441  0.83651505  1
  Mn  Mn78  1  0.33396916  -0.00200692  0.16184906  1
  Mn  Mn79  1  0.33467738  -0.00230966  0.49515573  1
  Mn  Mn80  1  0.33405726  -0.00025016  0.82704105  1
  Mn  Mn81  1  0.33206751  0.50315842  0.16161784  1
  Mn  Mn82  1  0.33189474  0.50099676  0.49379052  1
  Mn  Mn83  1  0.33564149  0.49953769  0.82980729  1
  Mn  Mn84  1  0.66723137  -0.00088844  0.17308204  1
  Mn  Mn85  1  0.66453178  -0.00254260  0.50631297  1
  Mn  Mn86  1  0.66746694  -0.00115144  0.83834647  1
  Mn  Mn87  1  0.66617273  0.50121098  0.17111118  1
  Mn  Mn88  1  0.66718870  0.50213528  0.50116486  1
  Mn  Mn89  1  0.66852893  0.50105866  0.83553663  1
  Mn  Mn90  1  -0.00238398  0.25095890  0.16581596  1
  Mn  Mn91  1  0.00013226  0.24909485  0.50065831  1
  Mn  Mn92  1  0.00027646  0.24703004  0.83597102  1
  Mn  Mn93  1  -0.00067724  0.74707505  0.16860441  1
  Mn  Mn94  1  -0.00128529  0.75024520  0.50062591  1
  Mn  Mn95  1  0.00057738  0.75102705  0.83444477  1
  Mn  Mn96  1  0.33266915  0.25082217  0.16253602  1
  Mn  Mn97  1  0.33466917  0.25044875  0.49554082  1
  Mn  Mn98  1  0.33337611  0.24756028  0.82866761  1
  Mn  Mn99  1  0.33304193  0.74851403  0.16050304  1
  Mn  Mn100  1  0.33184447  0.75086817  0.49247238  1
  Mn  Mn101  1  0.33662419  0.75188451  0.82893620  1
  Mn  Mn102  1  0.66683832  0.25132517  0.17295388  1
  Mn  Mn103  1  0.66613721  0.24850134  0.50146157  1
  Mn  Mn104  1  0.67021277  0.24725159  0.83679851  1
  Mn  Mn105  1  0.66636404  0.74945669  0.17124106  1
  Mn  Mn106  1  0.66563141  0.75255153  0.50528847  1
  Mn  Mn107  1  0.66614477  0.75358486  0.83681989  1
  Mn  Mn108  1  0.16578618  0.24750114  -0.00141320  1
  Mn  Mn109  1  0.16405510  0.25175418  0.33012021  1
  Mn  Mn110  1  0.16836108  0.24827773  0.66435683  1
  Mn  Mn111  1  0.16758005  0.75042156  0.00134606  1
  Mn  Mn112  1  0.16503822  0.74750744  0.33019148  1
  Mn  Mn113  1  0.16445380  0.75044060  0.66299741  1
  Mn  Mn114  1  0.50022243  0.24884709  -0.00013449  1
  Mn  Mn115  1  0.49991323  0.25026760  0.33029883  1
  Mn  Mn116  1  0.49812811  0.24749500  0.66424158  1
  Mn  Mn117  1  0.50016102  0.75077340  -0.00247383  1
  Mn  Mn118  1  0.49987362  0.75046552  0.32966781  1
  Mn  Mn119  1  0.50203182  0.75246955  0.66356795  1
  Mn  Mn120  1  0.83611722  0.24908615  0.00658396  1
  Mn  Mn121  1  0.83221923  0.24994881  0.33634145  1
  Mn  Mn122  1  0.83541236  0.24917148  0.67028916  1
  Mn  Mn123  1  0.83539481  0.75178082  0.00521291  1
  Mn  Mn124  1  0.83127189  0.75045150  0.33763481  1
  Mn  Mn125  1  0.83290257  0.75157881  0.66930876  1
  Mn  Mn126  1  0.16624137  0.00081249  -0.00098702  1
  Mn  Mn127  1  0.16329704  -0.00344066  0.32893363  1
  Mn  Mn128  1  0.16779619  -0.00001359  0.66396164  1
  Mn  Mn129  1  0.16721925  0.50018852  0.00127936  1
  Mn  Mn130  1  0.16664428  0.50447602  0.33123302  1
  Mn  Mn131  1  0.16628974  0.50162869  0.66392222  1
  Mn  Mn132  1  0.50075348  0.00087426  -0.00251560  1
  Mn  Mn133  1  0.50091615  -0.00258767  0.33100623  1
  Mn  Mn134  1  0.50004100  -0.00263779  0.66219842  1
  Mn  Mn135  1  0.49958582  0.50017598  0.00017711  1
  Mn  Mn136  1  0.49940563  0.50281132  0.32886393  1
  Mn  Mn137  1  0.49870357  0.50238300  0.66545031  1
  Mn  Mn138  1  0.83638365  0.00099958  0.00787864  1
  Mn  Mn139  1  0.83233129  -0.00312328  0.33727672  1
  Mn  Mn140  1  0.83407020  -0.00201009  0.67113683  1
  Mn  Mn141  1  0.83526167  0.49786308  0.00423570  1
  Mn  Mn142  1  0.83106065  0.50265908  0.33707551  1
  Mn  Mn143  1  0.83442382  0.50169122  0.66894799  1
  O  O144  1  0.16572377  0.12252782  0.02762354  1
  O  O145  1  0.16486410  0.12008554  0.33708585  1
  O  O146  1  0.17843891  0.12275404  0.68293041  1
  O  O147  1  0.18255460  0.62618070  0.01937749  1
  O  O148  1  0.17912198  0.62743195  0.35940539  1
  O  O149  1  0.16425061  0.62717851  0.67231325  1
  O  O150  1  0.50523417  0.12635091  0.02645845  1
  O  O151  1  0.49884969  0.11811327  0.35559720  1
  O  O152  1  0.48575922  0.11639715  0.68512960  1
  O  O153  1  0.49124073  0.62645727  0.02207625  1
  O  O154  1  0.49327749  0.62763655  0.35777362  1
  O  O155  1  0.50184314  0.63157372  0.68859920  1
  O  O156  1  0.84689413  0.12585538  0.03337996  1
  O  O157  1  0.84283722  0.12090248  0.34584885  1
  O  O158  1  0.83339502  0.12104697  0.68099321  1
  O  O159  1  0.83398137  0.62410706  0.02432698  1
  O  O160  1  0.83574336  0.62819445  0.35914905  1
  O  O161  1  0.83116948  0.62854051  0.68093055  1
  O  O162  1  0.16910398  0.38318012  0.30451335  1
  O  O163  1  0.17027034  0.37549404  0.64209487  1
  O  O164  1  0.15331496  0.37280608  0.99222336  1
  O  O165  1  0.15603736  0.86967984  0.30368648  1
  O  O166  1  0.16690807  0.87509986  0.64082763  1
  O  O167  1  0.15545228  0.87702275  0.99063457  1
  O  O168  1  0.50847148  0.38203302  0.30453873  1
  O  O169  1  0.49426860  0.37223858  0.65453056  1
  O  O170  1  0.49408434  0.37406095  0.98694321  1
  O  O171  1  0.50955379  0.87262327  0.30276774  1
  O  O172  1  0.51372639  0.87620253  0.63657819  1
  O  O173  1  0.49772954  0.87406156  0.97414766  1
  O  O174  1  0.82215227  0.37888728  0.31366613  1
  O  O175  1  0.83410278  0.37681130  0.64665841  1
  O  O176  1  0.83470961  0.37128900  0.97856488  1
  O  O177  1  0.82790167  0.87242164  0.31653484  1
  O  O178  1  0.82748924  0.87448033  0.64535839  1
  O  O179  1  0.83594314  0.87822561  0.98288733  1
  O  O180  1  0.01503212  0.37851835  0.17897704  1
  O  O181  1  0.00567619  0.37842297  0.51111266  1
  O  O182  1  -0.00114362  0.37001425  0.85615552  1
  O  O183  1  0.01166361  0.86996876  0.19274559  1
  O  O184  1  0.00649987  0.87376251  0.51852718  1
  O  O185  1  -0.00145333  0.87839930  0.85550149  1
  O  O186  1  0.34067856  0.38181545  0.18956404  1
  O  O187  1  0.32961272  0.37770948  0.51805698  1
  O  O188  1  0.33670102  0.37208398  0.85015989  1
  O  O189  1  0.34443396  0.87103512  0.18695848  1
  O  O190  1  0.33567932  0.87330065  0.51798880  1
  O  O191  1  0.34240713  0.87563279  0.85212129  1
  O  O192  1  0.67307056  0.37862531  0.19741124  1
  O  O193  1  0.67032981  0.37537870  0.50982426  1
  O  O194  1  0.67315837  0.37349786  0.84587869  1
  O  O195  1  0.66307967  0.87197548  0.19447131  1
  O  O196  1  0.65704062  0.87416554  0.53168613  1
  O  O197  1  0.65272071  0.87636924  0.85230841  1
  O  O198  1  -0.01470574  0.12503202  0.14706441  1
  O  O199  1  -0.00129203  0.11943778  0.47450751  1
  O  O200  1  -0.00190119  0.12319869  0.81146397  1
  O  O201  1  -0.01630412  0.62490083  0.14781562  1
  O  O202  1  0.00146853  0.62791766  0.47499906  1
  O  O203  1  -0.00212033  0.62900847  0.81798453  1
  O  O204  1  0.31996548  0.12141155  0.15398201  1
  O  O205  1  0.34215258  0.12011853  0.48307048  1
  O  O206  1  0.32458229  0.12194952  0.80436476  1
  O  O207  1  0.32174152  0.62589152  0.13150837  1
  O  O208  1  0.33021132  0.62849270  0.46977768  1
  O  O209  1  0.33839370  0.62876656  0.82300486  1
  O  O210  1  0.66398106  0.12660497  0.14918930  1
  O  O211  1  0.66220128  0.12115600  0.48562672  1
  O  O212  1  0.66529530  0.11980272  0.81107173  1
  O  O213  1  0.66401885  0.62410478  0.14255506  1
  O  O214  1  0.66615899  0.63001912  0.47932155  1
  O  O215  1  0.66482826  0.63154843  0.81391880  1
  O  O216  1  0.08106867  0.02161433  0.24462141  1
  O  O217  1  0.08346164  0.01716588  0.58431476  1
  O  O218  1  0.08674092  0.02613675  0.91577165  1
  O  O219  1  0.08237005  0.53060463  0.25346372  1
  O  O220  1  0.08140007  0.52137158  0.58132305  1
  O  O221  1  0.08362893  0.51170758  0.92392804  1
  O  O222  1  0.42560707  0.01210540  0.23473366  1
  O  O223  1  0.42945710  0.00941793  0.57151511  1
  O  O224  1  0.42583023  0.01513801  0.89772845  1
  O  O225  1  0.41933441  0.52825647  0.23639610  1
  O  O226  1  0.41943384  0.51868656  0.56859119  1
  O  O227  1  0.42348082  0.51950276  0.91185815  1
  O  O228  1  0.74953133  0.01572719  0.25673666  1
  O  O229  1  0.74236486  0.00948382  0.59765691  1
  O  O230  1  0.75088067  0.01797398  0.93343952  1
  O  O231  1  0.74913593  0.52886833  0.25435040  1
  O  O232  1  0.74827563  0.51709305  0.58659887  1
  O  O233  1  0.74824423  0.51346304  0.92576569  1
  O  O234  1  0.24417616  0.24606247  0.24088311  1
  O  O235  1  0.25911472  0.23854306  0.58555412  1
  O  O236  1  0.24846893  0.23605916  0.91048745  1
  O  O237  1  0.25226421  0.73103967  0.24696855  1
  O  O238  1  0.24348917  0.74147202  0.56812916  1
  O  O239  1  0.26050360  0.74568973  0.92659136  1
  O  O240  1  0.58534886  0.23087851  0.25377749  1
  O  O241  1  0.58266621  0.22642848  0.58473836  1
  O  O242  1  0.58808373  0.22765010  0.92154302  1
  O  O243  1  0.58596725  0.72251506  0.25547045  1
  O  O244  1  0.58585629  0.72294573  0.58619704  1
  O  O245  1  0.58547127  0.72446986  0.92116182  1
  O  O246  1  0.91437426  0.23935202  0.25018520  1
  O  O247  1  0.92197844  0.23445784  0.59207827  1
  O  O248  1  0.92742393  0.23589689  0.93265613  1
  O  O249  1  0.91648575  0.73262473  0.25307059  1
  O  O250  1  0.91750701  0.73924265  0.58250713  1
  O  O251  1  0.91909684  0.74852185  0.92212447  1
  O  O252  1  0.08932553  0.49841061  0.08987706  1
  O  O253  1  0.08908066  0.49439892  0.42014748  1
  O  O254  1  0.08123052  0.49921531  0.74710318  1
  O  O255  1  0.08019767  0.98656204  0.08385799  1
  O  O256  1  0.07984786  0.97703965  0.41055738  1
  O  O257  1  0.08262677  0.99845300  0.74639960  1
  O  O258  1  0.40879560  0.48072423  0.07476952  1
  O  O259  1  0.40678221  0.48589485  0.39754940  1
  O  O260  1  0.41322281  0.48895126  0.74136775  1
  O  O261  1  0.41384674  0.97837956  0.07226248  1
  O  O262  1  0.41269250  0.97051472  0.40427491  1
  O  O263  1  0.41401849  0.97241114  0.73364577  1
  O  O264  1  0.75579138  0.48734626  0.09563958  1
  O  O265  1  0.74741230  0.48331479  0.41571379  1
  O  O266  1  0.75396407  0.48911620  0.75590433  1
  O  O267  1  0.75481496  0.99631825  0.09642471  1
  O  O268  1  0.74760168  0.97465420  0.42634478  1
  O  O269  1  0.75085666  0.97451906  0.76011733  1
  O  O270  1  0.24947762  0.27335844  0.08011229  1
  O  O271  1  0.24766435  0.27165307  0.41425863  1
  O  O272  1  0.25128863  0.26631442  0.74469550  1
  O  O273  1  0.24769886  0.77906214  0.08661564  1
  O  O274  1  0.24669525  0.77873508  0.40898351  1
  O  O275  1  0.25338602  0.76558061  0.74065935  1
  O  O276  1  0.57822378  0.26542199  0.09703243  1
  O  O277  1  0.58388989  0.26069883  0.41455898  1
  O  O278  1  0.57832920  0.24405774  0.74672304  1
  O  O279  1  0.57215794  0.76229109  0.09196363  1
  O  O280  1  0.58280826  0.77100198  0.42144866  1
  O  O281  1  0.58118638  0.77065780  0.75055466  1
  O  O282  1  0.91626980  0.28142729  0.08866369  1
  O  O283  1  0.90883529  0.26712459  0.42305169  1
  O  O284  1  0.91253264  0.26638480  0.76173467  1
  O  O285  1  0.92172515  0.77177693  0.08474736  1
  O  O286  1  0.91695701  0.77316458  0.41807724  1
  O  O287  1  0.91345612  0.76974586  0.75362888  1
  O  O288  1  0.24766527  0.47140087  0.08631161  1
  O  O289  1  0.24888643  0.47644410  0.41123402  1
  O  O290  1  0.25274742  0.48658783  0.74097099  1
  O  O291  1  0.24987251  0.97538150  0.08132925  1
  O  O292  1  0.24446595  0.97422143  0.41311431  1
  O  O293  1  0.25271500  0.98031428  0.74345729  1
  O  O294  1  0.57345689  0.48740835  0.09481303  1
  O  O295  1  0.58691538  0.49333534  0.41250306  1
  O  O296  1  0.58466952  0.50171983  0.75370878  1
  O  O297  1  0.57804329  0.98784065  0.09587624  1
  O  O298  1  0.57915657  0.97607186  0.42129544  1
  O  O299  1  0.57448795  0.98320563  0.74845374  1
  O  O300  1  0.91604922  0.47382507  0.08772327  1
  O  O301  1  0.90961113  0.48688034  0.42508687  1
  O  O302  1  0.91247317  0.48596139  0.75724222  1
  O  O303  1  0.92028299  0.97240933  0.08638377  1
  O  O304  1  0.91480841  0.97290447  0.41996991  1
  O  O305  1  0.91297745  0.97894382  0.75701554  1
  O  O306  1  0.07899540  0.25737564  0.08203374  1
  O  O307  1  0.08497257  0.26054445  0.41418360  1
  O  O308  1  0.08509837  0.24551129  0.74965557  1
  O  O309  1  0.08768531  0.75695707  0.09139070  1
  O  O310  1  0.08141250  0.76804315  0.41489035  1
  O  O311  1  0.07742282  0.75809132  0.74360554  1
  O  O312  1  0.41039469  0.26963600  0.07687956  1
  O  O313  1  0.41014016  0.26983324  0.40198156  1
  O  O314  1  0.40677703  0.25691991  0.73537212  1
  O  O315  1  0.41009740  0.77097353  0.07156794  1
  O  O316  1  0.41137554  0.77426170  0.40341057  1
  O  O317  1  0.41806382  0.77818612  0.73846302  1
  O  O318  1  0.75665395  0.26230673  0.09699059  1
  O  O319  1  0.74812747  0.26666672  0.41741727  1
  O  O320  1  0.75453092  0.26135578  0.75795985  1
  O  O321  1  0.75469945  0.75643082  0.09444493  1
  O  O322  1  0.74696439  0.77648269  0.42521628  1
  O  O323  1  0.74917696  0.77590970  0.75810285  1
  O  O324  1  0.24472695  -0.00161253  0.24351858  1
  O  O325  1  0.26044249  0.00844987  0.58611891  1
  O  O326  1  0.24900306  0.00938099  0.91303889  1
  O  O327  1  0.25246888  0.52616976  0.24724675  1
  O  O328  1  0.24266411  0.51324061  0.56999740  1
  O  O329  1  0.26016502  0.50528309  0.92508313  1
  O  O330  1  0.58646428  0.01988082  0.25559737  1
  O  O331  1  0.58434847  0.02860112  0.58963230  1
  O  O332  1  0.58653461  0.02527944  0.92207889  1
  O  O333  1  0.58584983  0.52917184  0.25342228  1
  O  O334  1  0.58398868  0.52206107  0.58446698  1
  O  O335  1  0.58605624  0.52256713  0.92265785  1
  O  O336  1  0.91950681  0.01011160  0.25290563  1
  O  O337  1  0.92185788  0.00844384  0.59012058  1
  O  O338  1  0.92617611  0.01162433  0.92930356  1
  O  O339  1  0.91302361  0.51753696  0.25390763  1
  O  O340  1  0.91971236  0.51955929  0.58951434  1
  O  O341  1  0.92026542  0.50364578  0.92606511  1
  O  O342  1  0.08039254  0.22787143  0.24448691  1
  O  O343  1  0.08394626  0.23156616  0.58615527  1
  O  O344  1  0.08616050  0.22134133  0.91556631  1
  O  O345  1  0.08184601  0.71768208  0.25252286  1
  O  O346  1  0.08165403  0.72964475  0.57831892  1
  O  O347  1  0.08344572  0.73976230  0.92380984  1
  O  O348  1  0.42507348  0.23746354  0.23521518  1
  O  O349  1  0.42244739  0.22957088  0.57478778  1
  O  O350  1  0.42218987  0.23008878  0.90254431  1
  O  O351  1  0.41807585  0.72441391  0.23669178  1
  O  O352  1  0.42527412  0.73975100  0.56866702  1
  O  O353  1  0.42689937  0.73329155  0.90799107  1
  O  O354  1  0.75104566  0.23028359  0.25325686  1
  O  O355  1  0.74697548  0.23775961  0.58950039  1
  O  O356  1  0.75019437  0.22808380  0.93369556  1
  O  O357  1  0.74814273  0.72630005  0.25778672  1
  O  O358  1  0.74394808  0.73653897  0.59115103  1
  O  O359  1  0.74837875  0.74005268  0.92596381  1
