# generated using pymatgen
data_Ba17Sr5La8Pr42Mn72O216
_symmetry_space_group_name_H-M   'P 1'
_cell_length_a   16.68046613
_cell_length_b   15.69828895
_cell_length_c   16.82322390
_cell_angle_alpha   89.99392230
_cell_angle_beta   90.00717729
_cell_angle_gamma   89.99127671
_symmetry_Int_Tables_number   1
_chemical_formula_structural   Ba17Sr5La8Pr42Mn72O216
_chemical_formula_sum   'Ba17 Sr5 La8 Pr42 Mn72 O216'
_cell_volume   4405.24143360
_cell_formula_units_Z   1
loop_
 _symmetry_equiv_pos_site_id
 _symmetry_equiv_pos_as_xyz
  1  'x, y, z'
loop_
 _atom_site_type_symbol
 _atom_site_label
 _atom_site_symmetry_multiplicity
 _atom_site_fract_x
 _atom_site_fract_y
 _atom_site_fract_z
 _atom_site_occupancy
  Ba  Ba0  1  0.50376021  0.62393924  0.83142312  1
  Ba  Ba1  1  0.16513368  0.12539224  0.50199096  1
  Ba  Ba2  1  0.66693712  0.87532699  0.00142704  1
  Ba  Ba3  1  0.16743087  0.12533944  0.83585283  1
  Ba  Ba4  1  0.16386903  0.37654736  0.50044838  1
  Ba  Ba5  1  0.33542891  0.62516893  0.66736008  1
  Ba  Ba6  1  0.82784502  0.37452742  0.49658975  1
  Ba  Ba7  1  0.33469710  0.87506985  0.66861931  1
  Ba  Ba8  1  -0.00090137  0.12353364  0.33284344  1
  Ba  Ba9  1  0.66935755  0.12706910  0.99700314  1
  Ba  Ba10  1  0.33414990  0.87336075  0.33038187  1
  Ba  Ba11  1  -0.00560638  0.37475491  0.33459307  1
  Ba  Ba12  1  -0.00165161  0.87376723  0.33600015  1
  Ba  Ba13  1  0.33627782  0.62551902  0.33333034  1
  Ba  Ba14  1  0.83840854  0.62538881  0.83434441  1
  Ba  Ba15  1  0.50119722  0.87344774  0.83661528  1
  Ba  Ba16  1  0.33383826  0.12412334  0.66584662  1
  Sr  Sr17  1  0.17436439  0.62711078  0.83554940  1
  Sr  Sr18  1  0.83471587  0.12535398  0.83390299  1
  Sr  Sr19  1  0.83092139  0.37223313  0.16553853  1
  Sr  Sr20  1  0.33124518  0.87522526  0.00210184  1
  Sr  Sr21  1  0.66547681  0.37467694  -0.00106594  1
  La  La22  1  0.83338830  0.87840919  0.83177324  1
  La  La23  1  0.16083001  0.37882943  0.83083554  1
  La  La24  1  0.15808661  0.37811988  0.16891684  1
  La  La25  1  0.66676015  0.87442082  0.67230246  1
  La  La26  1  0.66946964  0.12314939  0.66666033  1
  La  La27  1  0.82857197  0.37221015  0.83044309  1
  La  La28  1  0.32763436  0.37593487  -0.00093043  1
  La  La29  1  0.49545746  0.37532248  0.16321373  1
  Pr  Pr30  1  0.01208195  0.62362827  0.99525170  1
  Pr  Pr31  1  -0.00462979  0.37212381  0.66833936  1
  Pr  Pr32  1  0.49288706  0.87523193  0.50047825  1
  Pr  Pr33  1  0.17010820  0.87300632  0.83328364  1
  Pr  Pr34  1  -0.00124009  0.12607827  0.66309764  1
  Pr  Pr35  1  0.67078331  0.62794832  0.66406521  1
  Pr  Pr36  1  0.17148426  0.62652532  0.16918081  1
  Pr  Pr37  1  0.33807779  0.12472924  0.99605854  1
  Pr  Pr38  1  0.16298220  0.87246640  0.16682953  1
  Pr  Pr39  1  0.50923700  0.62702842  0.16682314  1
  Pr  Pr40  1  0.83599984  0.62536705  0.16590579  1
  Pr  Pr41  1  -0.00337677  0.37541468  0.00239299  1
  Pr  Pr42  1  0.49835364  0.37157047  0.82997397  1
  Pr  Pr43  1  0.50132741  0.12124529  0.50128012  1
  Pr  Pr44  1  0.00208428  0.87218866  0.00214895  1
  Pr  Pr45  1  0.67018752  0.62300881  0.33292318  1
  Pr  Pr46  1  0.84056894  0.62507268  0.50415333  1
  Pr  Pr47  1  0.00494065  0.62266801  0.66823839  1
  Pr  Pr48  1  0.82897958  0.87639501  0.49629738  1
  Pr  Pr49  1  0.83595016  0.87954010  0.16315153  1
  Pr  Pr50  1  0.82967603  0.12611934  0.16546391  1
  Pr  Pr51  1  0.66184017  0.87733646  0.33344633  1
  Pr  Pr52  1  0.17497031  0.87529522  0.49974491  1
  Pr  Pr53  1  0.50751822  0.12334772  0.16721761  1
  Pr  Pr54  1  0.16938209  0.12327843  0.17350530  1
  Pr  Pr55  1  0.67068178  0.12829969  0.32973849  1
  Pr  Pr56  1  0.50288802  0.62913433  0.50503415  1
  Pr  Pr57  1  0.83818263  0.12537519  0.49972041  1
  Pr  Pr58  1  0.16411226  0.62957078  0.50225139  1
  Pr  Pr59  1  0.00215620  0.62105160  0.33352595  1
  Pr  Pr60  1  0.49988122  0.12050829  0.83514323  1
  Pr  Pr61  1  0.00217652  0.87579655  0.67090095  1
  Pr  Pr62  1  0.49211423  0.37495988  0.49499751  1
  Pr  Pr63  1  0.49120803  0.87380291  0.15795229  1
  Pr  Pr64  1  0.66163418  0.37677916  0.66724985  1
  Pr  Pr65  1  0.66024034  0.37407915  0.33588700  1
  Pr  Pr66  1  0.67518533  0.62143946  0.99516228  1
  Pr  Pr67  1  -0.00179206  0.12614396  0.99759772  1
  Pr  Pr68  1  0.32382534  0.37374814  0.66885807  1
  Pr  Pr69  1  0.34247814  0.62533177  0.99392155  1
  Pr  Pr70  1  0.33467304  0.12694501  0.33164762  1
  Pr  Pr71  1  0.32409957  0.37606993  0.33617697  1
  Mn  Mn72  1  0.00121145  -0.00082708  0.16393686  1
  Mn  Mn73  1  -0.00180928  -0.00250066  0.50403393  1
  Mn  Mn74  1  0.00094218  -0.00027604  0.83493154  1
  Mn  Mn75  1  -0.00335383  0.50198249  0.16455367  1
  Mn  Mn76  1  -0.00143390  0.50219860  0.50049306  1
  Mn  Mn77  1  0.00110264  0.50012245  0.83500704  1
  Mn  Mn78  1  0.33275989  0.00280310  0.16491317  1
  Mn  Mn79  1  0.33376339  0.00023408  0.49833232  1
  Mn  Mn80  1  0.33311543  0.00009209  0.83564295  1
  Mn  Mn81  1  0.33259751  0.49893946  0.16519930  1
  Mn  Mn82  1  0.33465590  0.50096872  0.49955778  1
  Mn  Mn83  1  0.33494941  0.49878327  0.83438984  1
  Mn  Mn84  1  0.66689718  0.00026285  0.16859283  1
  Mn  Mn85  1  0.66521379  -0.00084618  0.49969992  1
  Mn  Mn86  1  0.66910176  0.00039796  0.83260916  1
  Mn  Mn87  1  0.66751327  0.49899544  0.16514032  1
  Mn  Mn88  1  0.66461193  0.50065154  0.49844178  1
  Mn  Mn89  1  0.66741880  0.49807994  0.83329331  1
  Mn  Mn90  1  -0.00026420  0.25016131  0.16396312  1
  Mn  Mn91  1  -0.00246150  0.25022452  0.50053706  1
  Mn  Mn92  1  -0.00098593  0.24945323  0.83520372  1
  Mn  Mn93  1  -0.00123329  0.74786915  0.16700248  1
  Mn  Mn94  1  -0.00144876  0.75188865  0.50349372  1
  Mn  Mn95  1  0.00298002  0.75053029  0.83565839  1
  Mn  Mn96  1  0.33197511  0.25137687  0.16550676  1
  Mn  Mn97  1  0.33403618  0.25072109  0.49934074  1
  Mn  Mn98  1  0.33340924  0.25015906  0.83445166  1
  Mn  Mn99  1  0.33330636  0.74817900  0.16353125  1
  Mn  Mn100  1  0.33477937  0.74888108  0.49936011  1
  Mn  Mn101  1  0.33474079  0.74957434  0.83564354  1
  Mn  Mn102  1  0.66649876  0.25219460  0.16591061  1
  Mn  Mn103  1  0.66284321  0.24757837  0.49880924  1
  Mn  Mn104  1  0.66588135  0.25082484  0.83135576  1
  Mn  Mn105  1  0.66859208  0.74935043  0.16778752  1
  Mn  Mn106  1  0.66633040  0.75305509  0.49863671  1
  Mn  Mn107  1  0.67047604  0.74872897  0.83359195  1
  Mn  Mn108  1  0.16576628  0.25090370  0.00414496  1
  Mn  Mn109  1  0.16609562  0.24853213  0.33326307  1
  Mn  Mn110  1  0.16406257  0.25132432  0.66894678  1
  Mn  Mn111  1  0.16973335  0.75030393  0.00088272  1
  Mn  Mn112  1  0.16556255  0.75005855  0.33465688  1
  Mn  Mn113  1  0.16526661  0.74923832  0.66893359  1
  Mn  Mn114  1  0.49949065  0.25165653  -0.00120811  1
  Mn  Mn115  1  0.49814157  0.24980024  0.33141608  1
  Mn  Mn116  1  0.50155914  0.25097246  0.66331814  1
  Mn  Mn117  1  0.50128489  0.74862047  0.00203743  1
  Mn  Mn118  1  0.50332397  0.75025977  0.33257663  1
  Mn  Mn119  1  0.50320637  0.74961774  0.66662796  1
  Mn  Mn120  1  0.83439955  0.25091183  -0.00214758  1
  Mn  Mn121  1  0.83032384  0.24948824  0.33162372  1
  Mn  Mn122  1  0.83132326  0.24919902  0.66558317  1
  Mn  Mn123  1  0.83622216  0.74986561  0.00139349  1
  Mn  Mn124  1  0.83051286  0.74927074  0.33362245  1
  Mn  Mn125  1  0.83537411  0.75056003  0.66548586  1
  Mn  Mn126  1  0.16663065  -0.00004734  0.00409467  1
  Mn  Mn127  1  0.16760893  -0.00095648  0.33397838  1
  Mn  Mn128  1  0.16437045  -0.00187154  0.66878933  1
  Mn  Mn129  1  0.16769603  0.49897389  0.00004876  1
  Mn  Mn130  1  0.16540610  0.50265571  0.33380674  1
  Mn  Mn131  1  0.16528655  0.50146416  0.66741819  1
  Mn  Mn132  1  0.49896279  0.00107688  0.00164339  1
  Mn  Mn133  1  0.50021050  0.00074022  0.33295227  1
  Mn  Mn134  1  0.50299194  0.00151504  0.66734252  1
  Mn  Mn135  1  0.50104344  0.49729220  0.00025223  1
  Mn  Mn136  1  0.50074808  0.50058120  0.33129443  1
  Mn  Mn137  1  0.50197701  0.49721845  0.66328320  1
  Mn  Mn138  1  0.83661991  -0.00011756  -0.00227732  1
  Mn  Mn139  1  0.83049052  -0.00134480  0.33221665  1
  Mn  Mn140  1  0.83415490  -0.00001868  0.66500011  1
  Mn  Mn141  1  0.83478635  0.49840442  0.00080626  1
  Mn  Mn142  1  0.82940536  0.50251113  0.33256815  1
  Mn  Mn143  1  0.83286401  0.49992239  0.66621704  1
  O  O144  1  0.16353688  0.12767743  0.02960629  1
  O  O145  1  0.17126980  0.12455936  0.34185383  1
  O  O146  1  0.15500561  0.12521054  0.67740454  1
  O  O147  1  0.16333632  0.62390278  0.02605179  1
  O  O148  1  0.15828149  0.62831729  0.35542930  1
  O  O149  1  0.15705175  0.62448951  0.68748357  1
  O  O150  1  0.49410479  0.12887629  0.02231864  1
  O  O151  1  0.49472398  0.12850284  0.35877210  1
  O  O152  1  0.50474417  0.13017649  0.69044337  1
  O  O153  1  0.49591987  0.62048843  0.02277033  1
  O  O154  1  0.50931593  0.62606702  0.35965418  1
  O  O155  1  0.50583175  0.62155306  0.67258439  1
  O  O156  1  0.84203385  0.12363199  0.02156314  1
  O  O157  1  0.82245399  0.12087534  0.35501434  1
  O  O158  1  0.83269827  0.12443072  0.68604045  1
  O  O159  1  0.82761055  0.62454115  0.02153684  1
  O  O160  1  0.82192437  0.62910517  0.36121364  1
  O  O161  1  0.82655356  0.62505868  0.67921261  1
  O  O162  1  0.17172787  0.37521651  0.31489036  1
  O  O163  1  0.16796384  0.37812546  0.65794821  1
  O  O164  1  0.16403525  0.37540397  0.97447069  1
  O  O165  1  0.16588392  0.87239871  0.31218863  1
  O  O166  1  0.15830917  0.87157783  0.64457468  1
  O  O167  1  0.16288949  0.87309821  0.97705047  1
  O  O168  1  0.50801837  0.37343427  0.30514169  1
  O  O169  1  0.51253253  0.37291429  0.63640786  1
  O  O170  1  0.49955411  0.37385039  0.97641209  1
  O  O171  1  0.50873873  0.87363669  0.30321818  1
  O  O172  1  0.51272376  0.87631685  0.64623133  1
  O  O173  1  0.49672486  0.87615596  0.99810363  1
  O  O174  1  0.82434748  0.37870439  0.31671710  1
  O  O175  1  0.83752968  0.37539309  0.65275132  1
  O  O176  1  0.84482415  0.37489496  0.97608034  1
  O  O177  1  0.82717041  0.87230440  0.30637572  1
  O  O178  1  0.83470194  0.87483774  0.63893147  1
  O  O179  1  0.84334302  0.87473410  0.97734848  1
  O  O180  1  0.00163991  0.37926156  0.17906135  1
  O  O181  1  -0.00487859  0.37930020  0.52084134  1
  O  O182  1  0.00137668  0.37604954  0.85872625  1
  O  O183  1  -0.00117710  0.87125867  0.18120415  1
  O  O184  1  -0.01370255  0.87311455  0.52688126  1
  O  O185  1  -0.00125052  0.87510058  0.85919690  1
  O  O186  1  0.34093260  0.37423193  0.19447046  1
  O  O187  1  0.34010821  0.37625607  0.52178603  1
  O  O188  1  0.33782845  0.37349843  0.85431716  1
  O  O189  1  0.34355402  0.87614784  0.17500128  1
  O  O190  1  0.33404627  0.87383425  0.50915249  1
  O  O191  1  0.32540143  0.87553712  0.85030592  1
  O  O192  1  0.66349571  0.37575747  0.19212827  1
  O  O193  1  0.66018605  0.36967298  0.52356949  1
  O  O194  1  0.66577431  0.37480958  0.84859697  1
  O  O195  1  0.67238621  0.87524359  0.18981591  1
  O  O196  1  0.67247548  0.87676349  0.52935063  1
  O  O197  1  0.67329942  0.87385691  0.84113152  1
  O  O198  1  0.00794675  0.12285953  0.14123069  1
  O  O199  1  -0.00448802  0.12159804  0.49330821  1
  O  O200  1  -0.00049621  0.12303921  0.80730487  1
  O  O201  1  -0.00787105  0.62615380  0.13781946  1
  O  O202  1  -0.00023482  0.62948317  0.47903345  1
  O  O203  1  0.00502882  0.62616309  0.81152224  1
  O  O204  1  0.32086884  0.13024071  0.13788070  1
  O  O205  1  0.34154488  0.12589685  0.47858209  1
  O  O206  1  0.33861156  0.12774132  0.82310165  1
  O  O207  1  0.32304573  0.62129630  0.13915513  1
  O  O208  1  0.34170131  0.62420500  0.49131333  1
  O  O209  1  0.33304695  0.62164871  0.82672323  1
  O  O210  1  0.66550254  0.12557765  0.15338967  1
  O  O211  1  0.65731285  0.12108674  0.47095568  1
  O  O212  1  0.66421546  0.12779573  0.81230470  1
  O  O213  1  0.66177837  0.62389205  0.13836495  1
  O  O214  1  0.65721060  0.63141148  0.47438672  1
  O  O215  1  0.67081406  0.62160707  0.81170488  1
  O  O216  1  0.09013328  0.00949948  0.24286951  1
  O  O217  1  0.07026046  0.00627379  0.59826766  1
  O  O218  1  0.07918425  0.01557018  0.92656002  1
  O  O219  1  0.08336018  0.52305830  0.24222353  1
  O  O220  1  0.08343882  0.52322297  0.58054338  1
  O  O221  1  0.09294174  0.51680007  0.90984314  1
  O  O222  1  0.41918955  0.02620330  0.24337475  1
  O  O223  1  0.42517762  0.00981109  0.57671899  1
  O  O224  1  0.41812114  0.01926562  0.91807077  1
  O  O225  1  0.42952547  0.51813898  0.23868871  1
  O  O226  1  0.43213697  0.50903043  0.56936416  1
  O  O227  1  0.42121886  0.50937017  0.91658303  1
  O  O228  1  0.74850846  0.02084465  0.25012598  1
  O  O229  1  0.75045188  0.02274886  0.57721916  1
  O  O230  1  0.75635883  0.00793888  0.91255794  1
  O  O231  1  0.75423889  0.52545045  0.24234945  1
  O  O232  1  0.75276566  0.52110571  0.57256331  1
  O  O233  1  0.75659306  0.50787048  0.91576685  1
  O  O234  1  0.25627529  0.23212019  0.25277511  1
  O  O235  1  0.25364841  0.24732122  0.58871863  1
  O  O236  1  0.25590944  0.23815074  0.93352108  1
  O  O237  1  0.24777532  0.73683723  0.24270905  1
  O  O238  1  0.24194765  0.73741608  0.58023431  1
  O  O239  1  0.25569795  0.73239257  0.92758077  1
  O  O240  1  0.58409964  0.22821141  0.25647944  1
  O  O241  1  0.58856331  0.22250092  0.58647826  1
  O  O242  1  0.57968857  0.23737478  0.90823605  1
  O  O243  1  0.59144779  0.72718009  0.25625552  1
  O  O244  1  0.58863234  0.73128215  0.58238181  1
  O  O245  1  0.58993952  0.73304171  0.92877526  1
  O  O246  1  0.91315776  0.23355764  0.23893359  1
  O  O247  1  0.91436540  0.23071649  0.58670814  1
  O  O248  1  0.91929492  0.23000419  0.91642056  1
  O  O249  1  0.91618888  0.72425766  0.25448415  1
  O  O250  1  0.91960983  0.72509937  0.58853794  1
  O  O251  1  0.92967397  0.73358890  0.92794575  1
  O  O252  1  0.07675351  0.48443787  0.07348276  1
  O  O253  1  0.07694566  0.49694288  0.41384722  1
  O  O254  1  0.07411357  0.47959583  0.74396813  1
  O  O255  1  0.08333952  0.97352481  0.08385332  1
  O  O256  1  0.08480997  0.98090503  0.42994539  1
  O  O257  1  0.08490240  0.97362773  0.75708536  1
  O  O258  1  0.40923412  0.47879914  0.07619950  1
  O  O259  1  0.41359390  0.47627808  0.40477578  1
  O  O260  1  0.41545836  0.47440134  0.73944266  1
  O  O261  1  0.41293301  0.99501663  0.08202544  1
  O  O262  1  0.42149386  0.98572324  0.41558939  1
  O  O263  1  0.42430976  0.99498709  0.75084898  1
  O  O264  1  0.74211199  0.48540485  0.07843162  1
  O  O265  1  0.73356120  0.48801601  0.40332368  1
  O  O266  1  0.74409400  0.47987150  0.74193127  1
  O  O267  1  0.75970264  0.98845289  0.08947582  1
  O  O268  1  0.74289188  0.97557275  0.41569506  1
  O  O269  1  0.75419545  0.98167094  0.74426990  1
  O  O270  1  0.24378120  0.27967979  0.09230441  1
  O  O271  1  0.25382285  0.26170443  0.41269051  1
  O  O272  1  0.24715490  0.26981410  0.75560635  1
  O  O273  1  0.24321466  0.76970360  0.08783117  1
  O  O274  1  0.24633771  0.75845713  0.42226350  1
  O  O275  1  0.24317512  0.76193009  0.75689688  1
  O  O276  1  0.57590890  0.26565971  0.08921064  1
  O  O277  1  0.57423037  0.26988317  0.42152664  1
  O  O278  1  0.58063769  0.27334085  0.74754445  1
  O  O279  1  0.57506317  0.76276774  0.09773070  1
  O  O280  1  0.58263825  0.78010817  0.42045793  1
  O  O281  1  0.59253416  0.75702033  0.74208613  1
  O  O282  1  0.92221431  0.26324237  0.07634484  1
  O  O283  1  0.90759815  0.25172358  0.41783936  1
  O  O284  1  0.91647053  0.26991546  0.75238944  1
  O  O285  1  0.91430586  0.77102351  0.08823801  1
  O  O286  1  0.90560283  0.76259663  0.42567700  1
  O  O287  1  0.91766217  0.77131070  0.75158863  1
  O  O288  1  0.24140149  0.47410146  0.08773122  1
  O  O289  1  0.25229679  0.49036862  0.41571383  1
  O  O290  1  0.24685288  0.48190636  0.75575163  1
  O  O291  1  0.24062055  0.98088691  0.09455543  1
  O  O292  1  0.24791921  0.98727947  0.41914446  1
  O  O293  1  0.24398049  0.98657217  0.75632331  1
  O  O294  1  0.57257355  0.48283580  0.09380519  1
  O  O295  1  0.57566334  0.47769181  0.42187825  1
  O  O296  1  0.57750186  0.47628118  0.75185500  1
  O  O297  1  0.57561640  0.98976822  0.09577225  1
  O  O298  1  0.58116476  0.97413475  0.42295227  1
  O  O299  1  0.59161753  0.99169389  0.74286241  1
  O  O300  1  0.90918541  0.48422846  0.08953472  1
  O  O301  1  0.90899021  0.50167907  0.42083570  1
  O  O302  1  0.91403999  0.48071469  0.75766529  1
  O  O303  1  0.92237253  0.97938709  0.07707259  1
  O  O304  1  0.90700921  0.98664099  0.42207212  1
  O  O305  1  0.91912937  0.97693101  0.74743642  1
  O  O306  1  0.08225273  0.27541229  0.08186830  1
  O  O307  1  0.08102833  0.25679669  0.41561266  1
  O  O308  1  0.08000338  0.27304727  0.75459209  1
  O  O309  1  0.08267477  0.76680861  0.08171935  1
  O  O310  1  0.08579059  0.76688383  0.42971290  1
  O  O311  1  0.08206014  0.77406126  0.75143069  1
  O  O312  1  0.40844270  0.27106748  0.07820930  1
  O  O313  1  0.41144501  0.27524274  0.40443588  1
  O  O314  1  0.41719665  0.27626680  0.73901450  1
  O  O315  1  0.41382512  0.75521603  0.08166162  1
  O  O316  1  0.42427294  0.76242888  0.41714843  1
  O  O317  1  0.42098805  0.75687021  0.74758259  1
  O  O318  1  0.75376564  0.26274140  0.08060961  1
  O  O319  1  0.73258195  0.26151982  0.40721019  1
  O  O320  1  0.74391356  0.26850243  0.74164669  1
  O  O321  1  0.75523220  0.76402217  0.09033628  1
  O  O322  1  0.74342818  0.77626996  0.41282927  1
  O  O323  1  0.75510942  0.76949036  0.74457315  1
  O  O324  1  0.25775210  0.02047935  0.25119599  1
  O  O325  1  0.24512400  0.00238832  0.58291340  1
  O  O326  1  0.25418415  0.01555770  0.93127304  1
  O  O327  1  0.24706458  0.51379937  0.24629952  1
  O  O328  1  0.24787976  0.51317562  0.58396480  1
  O  O329  1  0.25810554  0.51208686  0.93077431  1
  O  O330  1  0.58625252  0.02235099  0.25833162  1
  O  O331  1  0.58620305  0.02320422  0.58336611  1
  O  O332  1  0.57783993  0.01466335  0.91567561  1
  O  O333  1  0.59134887  0.52199563  0.25615629  1
  O  O334  1  0.59489628  0.51899778  0.59013649  1
  O  O335  1  0.59313568  0.51415385  0.92823889  1
  O  O336  1  0.91015960  0.01365194  0.23653582  1
  O  O337  1  0.91267878  0.02142806  0.58387291  1
  O  O338  1  0.91915627  0.01989237  0.91505496  1
  O  O339  1  0.91667048  0.52621674  0.25563632  1
  O  O340  1  0.92209906  0.52193039  0.58961720  1
  O  O341  1  0.93225423  0.51628520  0.92935750  1
  O  O342  1  0.09118623  0.23914900  0.24083154  1
  O  O343  1  0.07304163  0.24554132  0.59462055  1
  O  O344  1  0.07861030  0.23497599  0.92439774  1
  O  O345  1  0.08130286  0.72618908  0.24744785  1
  O  O346  1  0.07976173  0.72891040  0.58844068  1
  O  O347  1  0.09043587  0.73258473  0.91759993  1
  O  O348  1  0.41995877  0.22451329  0.24168334  1
  O  O349  1  0.42936670  0.23640149  0.57049197  1
  O  O350  1  0.42202528  0.23126381  0.91217925  1
  O  O351  1  0.42684098  0.73386250  0.24036750  1
  O  O352  1  0.42661068  0.74405720  0.57663584  1
  O  O353  1  0.41836948  0.73760267  0.92089290  1
  O  O354  1  0.75139295  0.22996435  0.24644926  1
  O  O355  1  0.75002850  0.22523525  0.57447987  1
  O  O356  1  0.75634362  0.24450837  0.90847570  1
  O  O357  1  0.75144844  0.72366773  0.24805023  1
  O  O358  1  0.75221287  0.73014305  0.57592836  1
  O  O359  1  0.75291391  0.73688383  0.92069952  1
