# generated using pymatgen
data_Ba17Sr5La8Pr42Mn72O216
_symmetry_space_group_name_H-M   'P 1'
_cell_length_a   16.67016981
_cell_length_b   15.70253572
_cell_length_c   16.81532173
_cell_angle_alpha   89.98176774
_cell_angle_beta   90.06257860
_cell_angle_gamma   89.99177901
_symmetry_Int_Tables_number   1
_chemical_formula_structural   Ba17Sr5La8Pr42Mn72O216
_chemical_formula_sum   'Ba17 Sr5 La8 Pr42 Mn72 O216'
_cell_volume   4401.64192357
_cell_formula_units_Z   1
loop_
 _symmetry_equiv_pos_site_id
 _symmetry_equiv_pos_as_xyz
  1  'x, y, z'
loop_
 _atom_site_type_symbol
 _atom_site_label
 _atom_site_symmetry_multiplicity
 _atom_site_fract_x
 _atom_site_fract_y
 _atom_site_fract_z
 _atom_site_occupancy
  Ba  Ba0  1  0.83177600  0.37434676  0.83183490  1
  Ba  Ba1  1  0.49954544  0.87334197  0.49683769  1
  Ba  Ba2  1  0.66580413  0.87580155  0.33310599  1
  Ba  Ba3  1  0.50036209  0.37554716  0.49823831  1
  Ba  Ba4  1  0.49873180  0.37498222  0.16531611  1
  Ba  Ba5  1  0.16715749  0.12661531  0.50047595  1
  Ba  Ba6  1  0.33069167  0.12696620  0.99789944  1
  Ba  Ba7  1  0.66747802  0.12442082  0.99747934  1
  Ba  Ba8  1  0.16272733  0.87334273  0.83597282  1
  Ba  Ba9  1  0.33250161  0.12606506  0.66492746  1
  Ba  Ba10  1  0.66990913  0.62611909  0.33291852  1
  Ba  Ba11  1  0.32776995  0.87534593  0.00160362  1
  Ba  Ba12  1  0.66754617  0.62559727  0.99949622  1
  Ba  Ba13  1  0.33282823  0.87330540  0.33418805  1
  Ba  Ba14  1  0.66709532  0.37489796  0.66598593  1
  Ba  Ba15  1  0.50260750  0.62257382  0.16525878  1
  Ba  Ba16  1  0.00079619  0.87648273  0.33440547  1
  Sr  Sr17  1  0.00727615  0.12369145  0.33278122  1
  Sr  Sr18  1  0.16023868  0.37416990  0.16519866  1
  Sr  Sr19  1  0.50545841  0.62692147  0.49770704  1
  Sr  Sr20  1  -0.00173152  0.87525439  0.67007852  1
  Sr  Sr21  1  0.83818390  0.62806577  0.50016016  1
  La  La22  1  0.67343074  0.62418113  0.66012361  1
  La  La23  1  0.49509731  0.87780883  0.83080284  1
  La  La24  1  0.66656930  0.12623984  0.32870872  1
  La  La25  1  0.00280889  0.12753253  1.00267510  1
  La  La26  1  0.00045695  0.37466750  0.66907131  1
  La  La27  1  0.83850221  0.11966801  0.50001978  1
  La  La28  1  0.16928490  0.62698559  0.50062608  1
  La  La29  1  0.83750107  0.62264507  0.83428451  1
  Pr  Pr30  1  0.50037266  0.12057156  0.49957897  1
  Pr  Pr31  1  0.17208471  0.62472230  0.83683917  1
  Pr  Pr32  1  0.16639058  0.87793164  0.50063211  1
  Pr  Pr33  1  0.34456581  0.62403523  0.33279782  1
  Pr  Pr34  1  0.17510035  0.12522073  0.17366484  1
  Pr  Pr35  1  -0.00322161  0.37360705  0.33792545  1
  Pr  Pr36  1  0.66400071  0.87315223  0.66424986  1
  Pr  Pr37  1  0.83816648  0.12442932  0.17308982  1
  Pr  Pr38  1  0.16743337  0.12395781  0.83502963  1
  Pr  Pr39  1  0.16027041  0.87807122  0.16220767  1
  Pr  Pr40  1  0.66122281  0.37802786  0.33711108  1
  Pr  Pr41  1  0.65699324  0.87622942  0.00338456  1
  Pr  Pr42  1  -0.00915056  0.37662887  0.00534902  1
  Pr  Pr43  1  0.16568581  0.37453086  0.83465318  1
  Pr  Pr44  1  0.83836684  0.62591297  0.17384655  1
  Pr  Pr45  1  -0.00792192  0.87293185  0.00817874  1
  Pr  Pr46  1  0.32684225  0.37495523  0.00423439  1
  Pr  Pr47  1  0.50493157  0.12491919  0.83366953  1
  Pr  Pr48  1  0.49671346  0.86952004  0.16475234  1
  Pr  Pr49  1  0.66169179  0.37440276  -0.00231501  1
  Pr  Pr50  1  0.33863224  0.62132907  0.99706805  1
  Pr  Pr51  1  0.82248112  0.87692993  0.16597125  1
  Pr  Pr52  1  0.17478860  0.62499989  0.17122336  1
  Pr  Pr53  1  0.83074465  0.87240024  0.49797597  1
  Pr  Pr54  1  0.49861072  0.37113177  0.82737024  1
  Pr  Pr55  1  0.33804418  0.12773845  0.33239252  1
  Pr  Pr56  1  0.16516303  0.37366153  0.49791915  1
  Pr  Pr57  1  0.50687029  0.62492247  0.83548184  1
  Pr  Pr58  1  0.33021691  0.87595469  0.66982731  1
  Pr  Pr59  1  0.84002015  0.12768215  0.83555028  1
  Pr  Pr60  1  0.82740900  0.87565918  0.83297327  1
  Pr  Pr61  1  0.82896731  0.37627064  0.49835159  1
  Pr  Pr62  1  0.00377479  0.62602929  0.66723712  1
  Pr  Pr63  1  0.00486246  0.62246566  1.00111591  1
  Pr  Pr64  1  0.82605684  0.37372746  0.16531375  1
  Pr  Pr65  1  0.33325458  0.37592760  0.66653232  1
  Pr  Pr66  1  0.00321696  0.12330006  0.66662602  1
  Pr  Pr67  1  0.33798786  0.62614480  0.66428536  1
  Pr  Pr68  1  0.49790628  0.12195294  0.16591547  1
  Pr  Pr69  1  0.00580883  0.62610841  0.33227171  1
  Pr  Pr70  1  0.66986214  0.12689475  0.66324143  1
  Pr  Pr71  1  0.32882688  0.37955573  0.33473947  1
  Mn  Mn72  1  -0.00098296  0.00116029  0.16691831  1
  Mn  Mn73  1  0.00165857  -0.00089055  0.50322526  1
  Mn  Mn74  1  -0.00158189  0.00018590  0.83588800  1
  Mn  Mn75  1  -0.00084658  0.49876876  0.16919896  1
  Mn  Mn76  1  0.00008608  0.50064908  0.50137356  1
  Mn  Mn77  1  0.00170098  0.50039730  0.83490093  1
  Mn  Mn78  1  0.33223836  0.00038024  0.16819334  1
  Mn  Mn79  1  0.33315090  -0.00044760  0.50015460  1
  Mn  Mn80  1  0.33150414  0.00080481  0.83227433  1
  Mn  Mn81  1  0.33053807  0.49817973  0.16615236  1
  Mn  Mn82  1  0.33293518  0.50150172  0.50057305  1
  Mn  Mn83  1  0.33369619  0.49886992  0.83244292  1
  Mn  Mn84  1  0.66574274  0.00196968  0.16448008  1
  Mn  Mn85  1  0.66994265  0.00275059  0.49887156  1
  Mn  Mn86  1  0.66737743  -0.00182280  0.83082741  1
  Mn  Mn87  1  0.66886724  0.49759964  0.16602424  1
  Mn  Mn88  1  0.66912777  0.50121670  0.49966413  1
  Mn  Mn89  1  0.66652951  0.50134565  0.83100034  1
  Mn  Mn90  1  -0.00052320  0.25095154  0.16904818  1
  Mn  Mn91  1  -0.00123078  0.24973972  0.50236501  1
  Mn  Mn92  1  0.00179678  0.25073351  0.83496971  1
  Mn  Mn93  1  -0.00124434  0.74828974  0.16723972  1
  Mn  Mn94  1  0.00197064  0.75002851  0.50280313  1
  Mn  Mn95  1  -0.00158352  0.74956745  0.83598521  1
  Mn  Mn96  1  0.33183864  0.25218079  0.16601684  1
  Mn  Mn97  1  0.33335125  0.25280916  0.49819465  1
  Mn  Mn98  1  0.33165051  0.25195517  0.83252836  1
  Mn  Mn99  1  0.33105742  0.74889647  0.16756654  1
  Mn  Mn100  1  0.33325257  0.74698742  0.50145771  1
  Mn  Mn101  1  0.33302002  0.74820799  0.83208789  1
  Mn  Mn102  1  0.66669331  0.24889420  0.16510444  1
  Mn  Mn103  1  0.67012604  0.24793968  0.49614299  1
  Mn  Mn104  1  0.66672719  0.24782921  0.83094970  1
  Mn  Mn105  1  0.66794352  0.75048389  0.16445698  1
  Mn  Mn106  1  0.66941075  0.74862635  0.50046705  1
  Mn  Mn107  1  0.66691068  0.75252093  0.83090101  1
  Mn  Mn108  1  0.16237626  0.25217885  0.00151921  1
  Mn  Mn109  1  0.16675148  0.25227407  0.33215564  1
  Mn  Mn110  1  0.16644351  0.25404903  0.66803247  1
  Mn  Mn111  1  0.16314111  0.74661670  0.00262678  1
  Mn  Mn112  1  0.16759735  0.74903242  0.33476311  1
  Mn  Mn113  1  0.16629263  0.74722610  0.66800701  1
  Mn  Mn114  1  0.49810561  0.25055008  -0.00353059  1
  Mn  Mn115  1  0.49958487  0.24988615  0.33095132  1
  Mn  Mn116  1  0.50014019  0.24886128  0.66381855  1
  Mn  Mn117  1  0.49741238  0.74958912  -0.00279212  1
  Mn  Mn118  1  0.50111790  0.74955624  0.33222348  1
  Mn  Mn119  1  0.50030938  0.75018495  0.66708262  1
  Mn  Mn120  1  0.83273064  0.24958149  0.00186949  1
  Mn  Mn121  1  0.83567850  0.24959624  0.33347076  1
  Mn  Mn122  1  0.83574236  0.24706044  0.66570676  1
  Mn  Mn123  1  0.83323335  0.74958519  0.00041763  1
  Mn  Mn124  1  0.83710807  0.75039160  0.33501889  1
  Mn  Mn125  1  0.83532871  0.75253852  0.66803795  1
  Mn  Mn126  1  0.16135720  0.00202096  0.00129461  1
  Mn  Mn127  1  0.16862170  0.00033625  0.33391604  1
  Mn  Mn128  1  0.16518676  -0.00155282  0.66823091  1
  Mn  Mn129  1  0.16444323  0.49949573  0.00168294  1
  Mn  Mn130  1  0.16539009  0.49964744  0.33367777  1
  Mn  Mn131  1  0.16735369  0.50024247  0.66771611  1
  Mn  Mn132  1  0.49730180  0.00104700  -0.00135642  1
  Mn  Mn133  1  0.49960372  0.00273018  0.33262071  1
  Mn  Mn134  1  0.50036826  -0.00031015  0.66555646  1
  Mn  Mn135  1  0.49905142  0.49835843  -0.00489119  1
  Mn  Mn136  1  0.50081169  0.49931011  0.33235260  1
  Mn  Mn137  1  0.50020596  0.50160971  0.66687834  1
  Mn  Mn138  1  0.83396362  0.00102518  -0.00080887  1
  Mn  Mn139  1  0.83573776  0.00022806  0.33488529  1
  Mn  Mn140  1  0.83420839  -0.00089182  0.66861036  1
  Mn  Mn141  1  0.83219976  0.50011398  0.00310751  1
  Mn  Mn142  1  0.83703512  0.49867733  0.33315866  1
  Mn  Mn143  1  0.83691082  0.50111603  0.66542270  1
  O  O144  1  0.15881867  0.13104218  0.02709067  1
  O  O145  1  0.17142079  0.12832057  0.34379725  1
  O  O146  1  0.16164415  0.13197657  0.69087823  1
  O  O147  1  0.16590363  0.62166836  0.02629931  1
  O  O148  1  0.15843861  0.62210591  0.35771973  1
  O  O149  1  0.16701217  0.62158645  0.69428525  1
  O  O150  1  0.49929434  0.12639190  0.02065635  1
  O  O151  1  0.49503022  0.12883502  0.35441259  1
  O  O152  1  0.50862143  0.12208884  0.68953084  1
  O  O153  1  0.49418455  0.62312222  0.00843010  1
  O  O154  1  0.49469619  0.62151290  0.34271760  1
  O  O155  1  0.49987871  0.62640059  0.69300294  1
  O  O156  1  0.83855984  0.12480530  0.02835136  1
  O  O157  1  0.82910403  0.12631582  0.35526642  1
  O  O158  1  0.83638831  0.12116973  0.69229485  1
  O  O159  1  0.83735825  0.62130616  0.02959737  1
  O  O160  1  0.84096391  0.62313182  0.34895413  1
  O  O161  1  0.83541963  0.63112159  0.68975515  1
  O  O162  1  0.16553249  0.37707178  0.31250690  1
  O  O163  1  0.16215711  0.37954113  0.64182201  1
  O  O164  1  0.16216457  0.37735946  0.97751207  1
  O  O165  1  0.16780334  0.87170210  0.30715087  1
  O  O166  1  0.16815522  0.86659316  0.64517929  1
  O  O167  1  0.15423916  0.86997672  0.99543380  1
  O  O168  1  0.50488966  0.37269362  0.32329200  1
  O  O169  1  0.49197567  0.37699951  0.65416603  1
  O  O170  1  0.49717367  0.37517658  0.97227390  1
  O  O171  1  0.49924379  0.88085375  0.31137195  1
  O  O172  1  0.49254167  0.87482261  0.65191351  1
  O  O173  1  0.50053723  0.87552962  0.97911418  1
  O  O174  1  0.84423795  0.37220573  0.30819958  1
  O  O175  1  0.84220273  0.37002835  0.64406858  1
  O  O176  1  0.83813366  0.37539039  0.98714372  1
  O  O177  1  0.83636695  0.87623084  0.31196565  1
  O  O178  1  0.83261853  0.87708166  0.64159397  1
  O  O179  1  0.84243079  0.87852724  0.97488235  1
  O  O180  1  -0.00091215  0.37501599  0.19424465  1
  O  O181  1  0.00139710  0.37675653  0.52599811  1
  O  O182  1  0.00945706  0.37733277  0.86174430  1
  O  O183  1  0.01190369  0.87411644  0.17603263  1
  O  O184  1  0.00986954  0.87428672  0.52174227  1
  O  O185  1  -0.00511724  0.87638897  0.86291042  1
  O  O186  1  0.32845602  0.37462479  0.18974513  1
  O  O187  1  0.33122573  0.37934113  0.52205008  1
  O  O188  1  0.33946735  0.37926971  0.86103811  1
  O  O189  1  0.33063831  0.87517634  0.17681473  1
  O  O190  1  0.33092124  0.86769563  0.52455472  1
  O  O191  1  0.34121229  0.87485993  0.84371157  1
  O  O192  1  0.67457782  0.36905083  0.19249527  1
  O  O193  1  0.67278728  0.37199045  0.50899890  1
  O  O194  1  0.66311425  0.37139674  0.85153619  1
  O  O195  1  0.66869952  0.87828629  0.17534176  1
  O  O196  1  0.67492946  0.87699701  0.52059659  1
  O  O197  1  0.67587570  0.87574489  0.85995019  1
  O  O198  1  -0.00707095  0.12643785  0.14555880  1
  O  O199  1  -0.00461478  0.12519291  0.48303590  1
  O  O200  1  -0.00598692  0.12476844  0.81076580  1
  O  O201  1  -0.01090151  0.62251700  0.14441119  1
  O  O202  1  0.00194069  0.62189394  0.47513256  1
  O  O203  1  -0.00753454  0.62325323  0.81211639  1
  O  O204  1  0.32952060  0.12755135  0.15378239  1
  O  O205  1  0.33483959  0.13058525  0.47850918  1
  O  O206  1  0.31879908  0.12743032  0.82117533  1
  O  O207  1  0.32586184  0.62269759  0.14256105  1
  O  O208  1  0.32283680  0.62212452  0.47615474  1
  O  O209  1  0.32458222  0.61885010  0.80748344  1
  O  O210  1  0.66900189  0.12495017  0.15208906  1
  O  O211  1  0.67783569  0.12644733  0.47374899  1
  O  O212  1  0.65819354  0.12034951  0.80808237  1
  O  O213  1  0.67740121  0.62675483  0.15611388  1
  O  O214  1  0.67180765  0.62544642  0.49414067  1
  O  O215  1  0.65833564  0.63248385  0.80765936  1
  O  O216  1  0.09200051  0.01618174  0.23940747  1
  O  O217  1  0.08128098  0.01512952  0.58835671  1
  O  O218  1  0.08341951  0.02560640  0.91401186  1
  O  O219  1  0.08744643  0.52321469  0.24461193  1
  O  O220  1  0.08622777  0.52248468  0.58070146  1
  O  O221  1  0.08861959  0.52547352  0.91285488  1
  O  O222  1  0.41876659  0.02322890  0.24860143  1
  O  O223  1  0.42421664  0.01730859  0.57711804  1
  O  O224  1  0.42123791  0.01622142  0.90721536  1
  O  O225  1  0.41295123  0.50882280  0.25108467  1
  O  O226  1  0.41680256  0.52219592  0.58509260  1
  O  O227  1  0.41803494  0.52410544  0.90621859  1
  O  O228  1  0.75385952  0.01644081  0.24367062  1
  O  O229  1  0.75382379  0.02356524  0.58480358  1
  O  O230  1  0.76239973  0.01794504  0.90397310  1
  O  O231  1  0.76824743  0.50808387  0.24004576  1
  O  O232  1  0.75855756  0.51009340  0.57913949  1
  O  O233  1  0.75582619  0.51558455  0.91090711  1
  O  O234  1  0.25605382  0.23463633  0.25426178  1
  O  O235  1  0.24965434  0.25060110  0.58424052  1
  O  O236  1  0.24285271  0.24551305  0.91172018  1
  O  O237  1  0.25436589  0.72257054  0.25845998  1
  O  O238  1  0.25340142  0.72464986  0.58872355  1
  O  O239  1  0.25145198  0.72763527  0.92229610  1
  O  O240  1  0.58338572  0.22760094  0.24638337  1
  O  O241  1  0.58934144  0.22512562  0.57895079  1
  O  O242  1  0.58089670  0.23586303  0.91040420  1
  O  O243  1  0.58452926  0.74840704  0.24423613  1
  O  O244  1  0.59165765  0.73963143  0.59326476  1
  O  O245  1  0.58079831  0.74179787  0.91109714  1
  O  O246  1  0.91977513  0.22845088  0.25462704  1
  O  O247  1  0.91647343  0.22513739  0.58487273  1
  O  O248  1  0.91994667  0.23279165  0.92099195  1
  O  O249  1  0.92616125  0.72918475  0.25699664  1
  O  O250  1  0.92680403  0.73419734  0.59477280  1
  O  O251  1  0.92401896  0.72839371  0.93011620  1
  O  O252  1  0.06900422  0.48416422  0.07701342  1
  O  O253  1  0.07814877  0.47676192  0.41396293  1
  O  O254  1  0.08459790  0.48096415  0.74934150  1
  O  O255  1  0.06982285  0.98875804  0.07405989  1
  O  O256  1  0.08697364  0.98729380  0.41929721  1
  O  O257  1  0.07680372  0.99262239  0.75000023  1
  O  O258  1  0.40629359  0.48612491  0.06757067  1
  O  O259  1  0.40658068  0.48876162  0.40943267  1
  O  O260  1  0.40941898  0.48095265  0.74833139  1
  O  O261  1  0.41823534  0.98860328  0.09029087  1
  O  O262  1  0.41482366  0.99790527  0.41412025  1
  O  O263  1  0.41546643  0.98658053  0.74609410  1
  O  O264  1  0.74437734  0.47417789  0.07765518  1
  O  O265  1  0.75175403  0.47726082  0.40801217  1
  O  O266  1  0.74802035  0.50004194  0.74654564  1
  O  O267  1  0.74657120  0.97859416  0.07284421  1
  O  O268  1  0.75571386  0.98499074  0.42260880  1
  O  O269  1  0.74474188  0.97693805  0.74324107  1
  O  O270  1  0.24379363  0.26952671  0.08364040  1
  O  O271  1  0.24700456  0.27623576  0.41778992  1
  O  O272  1  0.24950798  0.27977989  0.75007669  1
  O  O273  1  0.23310500  0.76052945  0.09789032  1
  O  O274  1  0.24132778  0.76387943  0.42992508  1
  O  O275  1  0.25235294  0.76277883  0.74788275  1
  O  O276  1  0.58498822  0.26777893  0.07554398  1
  O  O277  1  0.59090367  0.25663701  0.40807126  1
  O  O278  1  0.57638431  0.26212312  0.75254340  1
  O  O279  1  0.58042654  0.76958757  0.08205049  1
  O  O280  1  0.58415324  0.75377127  0.41963600  1
  O  O281  1  0.58152666  0.77770611  0.75278707  1
  O  O282  1  0.91231940  0.27023460  0.09159866  1
  O  O283  1  0.91432984  0.27242915  0.42107364  1
  O  O284  1  0.92504963  0.26303486  0.74634469  1
  O  O285  1  0.90684933  0.77251063  0.09701695  1
  O  O286  1  0.91359483  0.76558818  0.42944823  1
  O  O287  1  0.90602772  0.76818604  0.76216604  1
  O  O288  1  0.24382662  0.47991062  0.08466689  1
  O  O289  1  0.24281039  0.47807432  0.42136433  1
  O  O290  1  0.24946342  0.47326115  0.75629875  1
  O  O291  1  0.23484002  0.99132915  0.09489537  1
  O  O292  1  0.24553783  0.98268739  0.42314829  1
  O  O293  1  0.25018905  0.98379589  0.74763829  1
  O  O294  1  0.58369821  0.48252184  0.07455124  1
  O  O295  1  0.58591224  0.49117618  0.41464077  1
  O  O296  1  0.57293722  0.48682060  0.75704722  1
  O  O297  1  0.57858912  0.98122968  0.08501264  1
  O  O298  1  0.58380181  1.00160325  0.41616705  1
  O  O299  1  0.58219231  0.97406988  0.74811492  1
  O  O300  1  0.90932956  0.47767087  0.09529687  1
  O  O301  1  0.91411995  0.47479792  0.42227476  1
  O  O302  1  0.92180437  0.48611363  0.74932003  1
  O  O303  1  0.90898063  0.97851538  0.09057966  1
  O  O304  1  0.91268562  0.98526864  0.43083524  1
  O  O305  1  0.90752113  0.98229477  0.76129493  1
  O  O306  1  0.07127958  0.27039453  0.07561550  1
  O  O307  1  0.08125858  0.27106231  0.41691955  1
  O  O308  1  0.08761551  0.27363084  0.75522437  1
  O  O309  1  0.06728367  0.75519321  0.07305372  1
  O  O310  1  0.08438994  0.76162022  0.41881427  1
  O  O311  1  0.07571583  0.75589319  0.74516940  1
  O  O312  1  0.40700457  0.26827514  0.07470886  1
  O  O313  1  0.40572776  0.26560170  0.40385725  1
  O  O314  1  0.41005313  0.26885660  0.74708032  1
  O  O315  1  0.41491759  0.76108238  0.08309245  1
  O  O316  1  0.41186592  0.74998817  0.41574994  1
  O  O317  1  0.41540732  0.76336261  0.74698688  1
  O  O318  1  0.74641083  0.27178142  0.08005449  1
  O  O319  1  0.75243028  0.27381429  0.41092878  1
  O  O320  1  0.74929698  0.24993439  0.74554465  1
  O  O321  1  0.74444449  0.77478314  0.07196375  1
  O  O322  1  0.75512916  0.76390567  0.41913684  1
  O  O323  1  0.74380533  0.77366160  0.74251203  1
  O  O324  1  0.25586007  0.02029886  0.25537856  1
  O  O325  1  0.25160472  0.00064243  0.58514118  1
  O  O326  1  0.24193094  0.01115746  0.91719935  1
  O  O327  1  0.25148455  0.52198187  0.25854675  1
  O  O328  1  0.25390330  0.51994570  0.59003131  1
  O  O329  1  0.25604490  0.51861260  0.91768816  1
  O  O330  1  0.58159313  0.02377813  0.24931826  1
  O  O331  1  0.58951235  0.02091577  0.58377628  1
  O  O332  1  0.58188955  0.00953207  0.91017401  1
  O  O333  1  0.59139094  0.50185259  0.25101682  1
  O  O334  1  0.58748233  0.51756468  0.59166532  1
  O  O335  1  0.58185690  0.51149354  0.91266443  1
  O  O336  1  0.91966283  0.01862029  0.25094554  1
  O  O337  1  0.92009550  0.01874228  0.59214321  1
  O  O338  1  0.92186371  0.02554384  0.92437801  1
  O  O339  1  0.92923276  0.51828344  0.26107496  1
  O  O340  1  0.92544411  0.51991343  0.58833950  1
  O  O341  1  0.92178357  0.51706838  0.92705504  1
  O  O342  1  0.08884311  0.23286455  0.24244857  1
  O  O343  1  0.07655647  0.23907846  0.59352600  1
  O  O344  1  0.08458168  0.22552804  0.91447016  1
  O  O345  1  0.08860931  0.72670521  0.24159108  1
  O  O346  1  0.08815313  0.72310035  0.58177607  1
  O  O347  1  0.08805113  0.72279576  0.91326528  1
  O  O348  1  0.42064231  0.22902657  0.24348708  1
  O  O349  1  0.42486602  0.23381728  0.57381387  1
  O  O350  1  0.42230255  0.23384023  0.90420141  1
  O  O351  1  0.41477374  0.73911039  0.24710661  1
  O  O352  1  0.41690367  0.72679119  0.58412778  1
  O  O353  1  0.41535791  0.72700051  0.91130091  1
  O  O354  1  0.75601355  0.22951828  0.24765478  1
  O  O355  1  0.75487256  0.22867260  0.57932439  1
  O  O356  1  0.75547920  0.23260696  0.90993639  1
  O  O357  1  0.76320210  0.74364400  0.23713536  1
  O  O358  1  0.75633260  0.73697157  0.58400510  1
  O  O359  1  0.76062642  0.73320628  0.90160924  1
