# generated using pymatgen
data_Ba17Sr5La8Pr42Mn72O216
_symmetry_space_group_name_H-M   'P 1'
_cell_length_a   16.67520349
_cell_length_b   15.70174616
_cell_length_c   16.82096758
_cell_angle_alpha   90.01300911
_cell_angle_beta   90.00291668
_cell_angle_gamma   90.01137897
_symmetry_Int_Tables_number   1
_chemical_formula_structural   Ba17Sr5La8Pr42Mn72O216
_chemical_formula_sum   'Ba17 Sr5 La8 Pr42 Mn72 O216'
_cell_volume   4404.23058027
_cell_formula_units_Z   1
loop_
 _symmetry_equiv_pos_site_id
 _symmetry_equiv_pos_as_xyz
  1  'x, y, z'
loop_
 _atom_site_type_symbol
 _atom_site_label
 _atom_site_symmetry_multiplicity
 _atom_site_fract_x
 _atom_site_fract_y
 _atom_site_fract_z
 _atom_site_occupancy
  Ba  Ba0  1  0.16399928  0.12525032  0.50122986  1
  Ba  Ba1  1  -0.00223253  0.62308997  1.00097642  1
  Ba  Ba2  1  0.33261058  0.87466791  0.66348864  1
  Ba  Ba3  1  0.50104958  0.87545367  0.16768142  1
  Ba  Ba4  1  0.32988828  0.12328568  0.99942307  1
  Ba  Ba5  1  0.83204700  0.87492683  0.49903655  1
  Ba  Ba6  1  0.50378207  0.37472342  0.83113606  1
  Ba  Ba7  1  0.50329947  0.37418486  0.49993306  1
  Ba  Ba8  1  0.83125710  0.62533485  0.49916837  1
  Ba  Ba9  1  0.50021725  0.62405768  0.83263686  1
  Ba  Ba10  1  0.16438644  0.12432818  0.83616481  1
  Ba  Ba11  1  0.83447998  0.87508742  0.83138478  1
  Ba  Ba12  1  0.83761203  0.37611833  0.50085326  1
  Ba  Ba13  1  0.33351738  0.62509247  0.66412623  1
  Ba  Ba14  1  0.33170899  0.62347730  0.33116838  1
  Ba  Ba15  1  0.16615841  0.87648140  0.49854546  1
  Ba  Ba16  1  0.33123146  0.12445045  0.66607843  1
  Sr  Sr17  1  0.84208510  0.37567316  0.83220539  1
  Sr  Sr18  1  0.00233703  0.87558257  0.33734677  1
  Sr  Sr19  1  0.00786103  0.37528720  0.00088779  1
  Sr  Sr20  1  0.66986241  0.87375245  0.66723230  1
  Sr  Sr21  1  0.32679530  0.12468005  0.33159522  1
  La  La22  1  0.66537586  0.12469799  0.66813186  1
  La  La23  1  0.82642686  0.12752967  0.16618311  1
  La  La24  1  0.49105396  0.12336108  0.16945280  1
  La  La25  1  0.67153775  0.37355509  0.33663353  1
  La  La26  1  -0.00691396  0.62939774  0.33339084  1
  La  La27  1  0.33878363  0.37286478  -0.00292314  1
  La  La28  1  0.49911783  0.62684805  0.16786333  1
  La  La29  1  0.34041004  0.37232527  0.33397734  1
  Pr  Pr30  1  0.83884269  0.87491992  0.16334800  1
  Pr  Pr31  1  0.66330023  0.87510771  0.34038945  1
  Pr  Pr32  1  0.33821441  0.87582439  -0.00242809  1
  Pr  Pr33  1  0.15858801  0.12785665  0.17247132  1
  Pr  Pr34  1  0.33224419  0.62663508  0.99526447  1
  Pr  Pr35  1  0.65788725  0.12340210  0.99705981  1
  Pr  Pr36  1  0.50067973  0.62644113  0.50605208  1
  Pr  Pr37  1  0.17784559  0.37691611  0.16312503  1
  Pr  Pr38  1  0.66570771  0.62618641  0.66722249  1
  Pr  Pr39  1  0.33964393  0.37275206  0.66877555  1
  Pr  Pr40  1  0.49545456  0.87592560  0.49732970  1
  Pr  Pr41  1  -0.00518532  0.12466842  0.66557800  1
  Pr  Pr42  1  -0.00555354  0.62613191  0.66657354  1
  Pr  Pr43  1  0.66496339  0.62323538  0.33614849  1
  Pr  Pr44  1  0.17014194  0.37698061  0.83426965  1
  Pr  Pr45  1  0.16007570  0.62761584  0.50302239  1
  Pr  Pr46  1  0.00759235  0.37620434  0.66928781  1
  Pr  Pr47  1  0.67068906  0.87148008  0.00392560  1
  Pr  Pr48  1  0.17579734  0.37490246  0.50004709  1
  Pr  Pr49  1  0.49169161  0.12272264  0.83479994  1
  Pr  Pr50  1  0.84290913  0.37511053  0.16194302  1
  Pr  Pr51  1  0.00213107  0.87378620  0.66709888  1
  Pr  Pr52  1  0.67060626  0.37764196  0.00234328  1
  Pr  Pr53  1  0.67737166  0.37808352  0.67220265  1
  Pr  Pr54  1  0.15493173  0.62286415  0.17207170  1
  Pr  Pr55  1  -0.00796364  0.12115551  0.33495442  1
  Pr  Pr56  1  0.16795449  0.87444058  0.83104832  1
  Pr  Pr57  1  0.17415676  0.87283133  0.16854800  1
  Pr  Pr58  1  0.82941705  0.12638778  0.50181576  1
  Pr  Pr59  1  0.49493634  0.12404627  0.50102972  1
  Pr  Pr60  1  -0.00726216  0.12725528  0.99537979  1
  Pr  Pr61  1  0.82642073  0.12607000  0.83575504  1
  Pr  Pr62  1  0.66502363  0.62647440  0.99850371  1
  Pr  Pr63  1  0.16600908  0.62795445  0.83607526  1
  Pr  Pr64  1  0.50134720  0.87688202  0.82942104  1
  Pr  Pr65  1  0.50248474  0.37371993  0.16270236  1
  Pr  Pr66  1  0.00952650  0.37526361  0.33682138  1
  Pr  Pr67  1  0.82705469  0.62318474  0.17078916  1
  Pr  Pr68  1  0.66121123  0.12543618  0.33433546  1
  Pr  Pr69  1  0.82679528  0.62499311  0.83464398  1
  Pr  Pr70  1  0.33321191  0.87705129  0.33921274  1
  Pr  Pr71  1  0.00719021  0.87572285  0.00357353  1
  Mn  Mn72  1  -0.00047056  0.00020103  0.16607647  1
  Mn  Mn73  1  -0.00324067  0.00106125  0.49914045  1
  Mn  Mn74  1  -0.00121527  -0.00004646  0.83465471  1
  Mn  Mn75  1  -0.00089107  0.49851474  0.16815666  1
  Mn  Mn76  1  0.00244052  0.49952418  0.50049828  1
  Mn  Mn77  1  0.00132357  0.50025230  0.83317269  1
  Mn  Mn78  1  0.32988528  -0.00157603  0.16709630  1
  Mn  Mn79  1  0.33241856  0.00138082  0.49795757  1
  Mn  Mn80  1  0.33222346  -0.00200799  0.83353233  1
  Mn  Mn81  1  0.33507127  0.50032520  0.16364528  1
  Mn  Mn82  1  0.33440160  0.50011777  0.49810062  1
  Mn  Mn83  1  0.33273737  0.50133715  0.83218467  1
  Mn  Mn84  1  0.66814331  0.00081547  0.16733646  1
  Mn  Mn85  1  0.66478812  0.00117469  0.50071043  1
  Mn  Mn86  1  0.66566712  0.00055147  0.83382986  1
  Mn  Mn87  1  0.66615842  0.49880082  0.16831600  1
  Mn  Mn88  1  0.66744728  0.49907739  0.50089513  1
  Mn  Mn89  1  0.67037392  0.49916038  0.83547619  1
  Mn  Mn90  1  -0.00027737  0.24987115  0.16646616  1
  Mn  Mn91  1  0.00008016  0.25154227  0.50043008  1
  Mn  Mn92  1  0.00008808  0.25182155  0.83369228  1
  Mn  Mn93  1  -0.00153687  0.75227706  0.16766698  1
  Mn  Mn94  1  -0.00099265  0.74996497  0.49895560  1
  Mn  Mn95  1  -0.00017119  0.74868363  0.83458093  1
  Mn  Mn96  1  0.33240288  0.24940084  0.16669907  1
  Mn  Mn97  1  0.33448381  0.25075476  0.49868782  1
  Mn  Mn98  1  0.33246972  0.25136123  0.83323964  1
  Mn  Mn99  1  0.33272587  0.74943167  0.16453417  1
  Mn  Mn100  1  0.33286660  0.74879588  0.49659785  1
  Mn  Mn101  1  0.33360593  0.74926350  0.83335616  1
  Mn  Mn102  1  0.66595126  0.24925232  0.16689119  1
  Mn  Mn103  1  0.66786658  0.24882659  0.50138730  1
  Mn  Mn104  1  0.66856657  0.24976615  0.83437854  1
  Mn  Mn105  1  0.66811985  0.75029220  0.16912771  1
  Mn  Mn106  1  0.66461534  0.75105349  0.50146050  1
  Mn  Mn107  1  0.66625055  0.75087854  0.83448859  1
  Mn  Mn108  1  0.16548533  0.25130805  0.00241843  1
  Mn  Mn109  1  0.16486351  0.25106675  0.33255059  1
  Mn  Mn110  1  0.16494958  0.25185909  0.66699895  1
  Mn  Mn111  1  0.16769983  0.75045184  0.00171657  1
  Mn  Mn112  1  0.16504920  0.74879787  0.33267676  1
  Mn  Mn113  1  0.16423024  0.74880346  0.66848407  1
  Mn  Mn114  1  0.50189988  0.24998071  -0.00057240  1
  Mn  Mn115  1  0.50047538  0.24907069  0.33059504  1
  Mn  Mn116  1  0.50353417  0.24908726  0.66592336  1
  Mn  Mn117  1  0.50082800  0.75009463  0.00033339  1
  Mn  Mn118  1  0.50014543  0.74868602  0.33411235  1
  Mn  Mn119  1  0.50285142  0.75252456  0.66615898  1
  Mn  Mn120  1  0.83263844  0.25188307  -0.00035203  1
  Mn  Mn121  1  0.83330843  0.24953066  0.33225564  1
  Mn  Mn122  1  0.83557813  0.24957558  0.66933851  1
  Mn  Mn123  1  0.83396064  0.74975759  0.00095343  1
  Mn  Mn124  1  0.83065882  0.75081347  0.33028259  1
  Mn  Mn125  1  0.83360256  0.75063744  0.66751913  1
  Mn  Mn126  1  0.16493695  -0.00272067  0.00327424  1
  Mn  Mn127  1  0.16362235  0.00218513  0.33144353  1
  Mn  Mn128  1  0.16364550  -0.00036669  0.66849980  1
  Mn  Mn129  1  0.16855682  0.50103587  0.00103507  1
  Mn  Mn130  1  0.16584815  0.49891975  0.33372942  1
  Mn  Mn131  1  0.16582977  0.50063985  0.66610812  1
  Mn  Mn132  1  0.50104253  -0.00143680  -0.00058632  1
  Mn  Mn133  1  0.49839571  0.00130744  0.33299862  1
  Mn  Mn134  1  0.50309258  -0.00046195  0.66616575  1
  Mn  Mn135  1  0.50106530  0.49860538  0.00171318  1
  Mn  Mn136  1  0.50229890  0.50020463  0.33105966  1
  Mn  Mn137  1  0.50266788  0.49948402  0.66504363  1
  Mn  Mn138  1  0.83315193  0.00010991  0.00037482  1
  Mn  Mn139  1  0.83011233  0.00111786  0.33112091  1
  Mn  Mn140  1  0.83410868  0.00082652  0.66687033  1
  Mn  Mn141  1  0.83400325  0.49887782  -0.00028172  1
  Mn  Mn142  1  0.83372953  0.49865391  0.33087093  1
  Mn  Mn143  1  0.83591825  0.49984221  0.66917881  1
  O  O144  1  0.16207979  0.12100520  0.02726488  1
  O  O145  1  0.16572529  0.12930304  0.34260484  1
  O  O146  1  0.15850943  0.12708890  0.67882932  1
  O  O147  1  0.17787477  0.62654419  0.02964555  1
  O  O148  1  0.16300965  0.62048377  0.35640795  1
  O  O149  1  0.16141052  0.62319140  0.69275397  1
  O  O150  1  0.50623405  0.12436782  0.02481047  1
  O  O151  1  0.50545597  0.12476935  0.35566562  1
  O  O152  1  0.50787926  0.12431395  0.69192652  1
  O  O153  1  0.50193041  0.62216760  0.02385534  1
  O  O154  1  0.50772021  0.62533812  0.35990076  1
  O  O155  1  0.50823865  0.62607653  0.67601852  1
  O  O156  1  0.83918824  0.12623067  0.02368113  1
  O  O157  1  0.83772052  0.12668321  0.35630628  1
  O  O158  1  0.84181029  0.12629272  0.69208871  1
  O  O159  1  0.82638640  0.62597128  0.02784641  1
  O  O160  1  0.83701270  0.62415847  0.34102398  1
  O  O161  1  0.83782300  0.62380437  0.68945749  1
  O  O162  1  0.15753024  0.37530295  0.30593047  1
  O  O163  1  0.15632898  0.37919683  0.64230490  1
  O  O164  1  0.16587460  0.37998053  0.98045832  1
  O  O165  1  0.16770900  0.87503049  0.31272568  1
  O  O166  1  0.15680197  0.87185397  0.65680977  1
  O  O167  1  0.15557166  0.87184791  0.97652441  1
  O  O168  1  0.50323735  0.37351487  0.30594913  1
  O  O169  1  0.50096057  0.37331718  0.65648497  1
  O  O170  1  0.50442274  0.37412803  0.98763039  1
  O  O171  1  0.50357779  0.87583467  0.32213333  1
  O  O172  1  0.50794523  0.87741829  0.64270760  1
  O  O173  1  0.50421069  0.87598684  0.97654061  1
  O  O174  1  0.82724554  0.37190827  0.30690729  1
  O  O175  1  0.82692560  0.37371863  0.65713989  1
  O  O176  1  0.82179958  0.37231679  0.98015815  1
  O  O177  1  0.82140095  0.87725419  0.30722898  1
  O  O178  1  0.83643512  0.87646755  0.65594447  1
  O  O179  1  0.82756535  0.87526957  0.98683865  1
  O  O180  1  -0.00690356  0.37265721  0.19310885  1
  O  O181  1  0.00571056  0.37702407  0.52329406  1
  O  O182  1  0.00246019  0.37577961  0.85318049  1
  O  O183  1  -0.00826580  0.87719179  0.18865724  1
  O  O184  1  -0.00222620  0.87624716  0.51941460  1
  O  O185  1  0.00276159  0.87147390  0.86058117  1
  O  O186  1  0.33324057  0.37596498  0.18980438  1
  O  O187  1  0.32988009  0.37744817  0.52141379  1
  O  O188  1  0.32821678  0.37977620  0.85275245  1
  O  O189  1  0.32683605  0.87427387  0.19440155  1
  O  O190  1  0.33830107  0.87579471  0.50408663  1
  O  O191  1  0.33554629  0.87256591  0.85269505  1
  O  O192  1  0.65609344  0.37635316  0.19528875  1
  O  O193  1  0.66865719  0.37151943  0.52628037  1
  O  O194  1  0.67162722  0.37329394  0.85777924  1
  O  O195  1  0.67275875  0.88012023  0.19629477  1
  O  O196  1  0.65875727  0.87772423  0.51692363  1
  O  O197  1  0.66148395  0.87802833  0.86050134  1
  O  O198  1  0.00610233  0.12502280  0.13821177  1
  O  O199  1  -0.00653307  0.12705669  0.47913854  1
  O  O200  1  -0.00361272  0.12819908  0.81143623  1
  O  O201  1  0.00140508  0.62570128  0.15750648  1
  O  O202  1  0.00674452  0.62154618  0.47762746  1
  O  O203  1  0.00840382  0.62442128  0.81030686  1
  O  O204  1  0.32924274  0.12454924  0.15558266  1
  O  O205  1  0.34050557  0.12578094  0.48309240  1
  O  O206  1  0.33905880  0.12296932  0.82518205  1
  O  O207  1  0.33919853  0.62254174  0.13961454  1
  O  O208  1  0.33669286  0.62293841  0.48754481  1
  O  O209  1  0.32716266  0.62423616  0.82178881  1
  O  O210  1  0.67074888  0.12332827  0.13861978  1
  O  O211  1  0.67114699  0.12501684  0.47711139  1
  O  O212  1  0.66811128  0.12546159  0.81346984  1
  O  O213  1  0.67193192  0.61930290  0.14043468  1
  O  O214  1  0.65917352  0.62609866  0.48001764  1
  O  O215  1  0.67221855  0.62327252  0.81434671  1
  O  O216  1  0.07446474  0.02299667  0.25239496  1
  O  O217  1  0.06964538  0.01080755  0.59400133  1
  O  O218  1  0.07033846  0.01382512  0.93289550  1
  O  O219  1  0.07327900  0.51756687  0.26318097  1
  O  O220  1  0.07894916  0.52479000  0.58977355  1
  O  O221  1  0.08716727  0.51587471  0.91526592  1
  O  O222  1  0.41368909  0.01521370  0.25115267  1
  O  O223  1  0.42505199  0.01165822  0.57654171  1
  O  O224  1  0.41988632  0.00737624  0.91358973  1
  O  O225  1  0.42253170  0.51328554  0.24267847  1
  O  O226  1  0.42108423  0.51118028  0.57852814  1
  O  O227  1  0.41092649  0.51208496  0.92795087  1
  O  O228  1  0.74579458  0.02967690  0.25142748  1
  O  O229  1  0.75004018  0.02166298  0.58386057  1
  O  O230  1  0.74365945  0.02191378  0.92280768  1
  O  O231  1  0.74289361  0.51923906  0.25249025  1
  O  O232  1  0.74285204  0.51396525  0.59738002  1
  O  O233  1  0.74765842  0.52356457  0.92395927  1
  O  O234  1  0.23647929  0.24153137  0.24016151  1
  O  O235  1  0.24463026  0.24980788  0.58130907  1
  O  O236  1  0.24493123  0.24826043  0.91427223  1
  O  O237  1  0.23761803  0.73204448  0.23756175  1
  O  O238  1  0.24248410  0.73514542  0.57723833  1
  O  O239  1  0.24864016  0.73303396  0.91937520  1
  O  O240  1  0.57581521  0.22470473  0.23945917  1
  O  O241  1  0.58081243  0.22468309  0.57723339  1
  O  O242  1  0.57898819  0.22603668  0.91172926  1
  O  O243  1  0.58609566  0.72878311  0.25473108  1
  O  O244  1  0.58608951  0.72984176  0.58462809  1
  O  O245  1  0.58704969  0.73471793  0.92262512  1
  O  O246  1  0.90730056  0.22841700  0.23899784  1
  O  O247  1  0.90962264  0.23022961  0.57709308  1
  O  O248  1  0.90884458  0.23087192  0.90903835  1
  O  O249  1  0.90714330  0.73644882  0.23871812  1
  O  O250  1  0.91905373  0.73634799  0.58656808  1
  O  O251  1  0.90982814  0.72975923  0.90940401  1
  O  O252  1  0.09370932  0.48695410  0.09557124  1
  O  O253  1  0.09292264  0.47794069  0.42503755  1
  O  O254  1  0.08916530  0.47832806  0.75397836  1
  O  O255  1  0.08912551  0.97343642  0.09328735  1
  O  O256  1  0.07910332  0.99512323  0.41432862  1
  O  O257  1  0.08482898  0.97878927  0.76085625  1
  O  O258  1  0.42223999  0.47553924  0.08549274  1
  O  O259  1  0.41753457  0.48300701  0.40690997  1
  O  O260  1  0.41558870  0.48699406  0.74451920  1
  O  O261  1  0.41608999  0.98511890  0.07882459  1
  O  O262  1  0.41801888  0.98393395  0.41505522  1
  O  O263  1  0.42459205  0.98662278  0.75367770  1
  O  O264  1  0.75048048  0.47376454  0.09254730  1
  O  O265  1  0.75106665  0.48821563  0.41447384  1
  O  O266  1  0.75854700  0.48656062  0.75936251  1
  O  O267  1  0.75670658  0.98110966  0.09099614  1
  O  O268  1  0.74027395  0.98786547  0.41076124  1
  O  O269  1  0.75108380  0.99679663  0.75121231  1
  O  O270  1  0.25663851  0.27291522  0.07901770  1
  O  O271  1  0.25374744  0.27219004  0.40918543  1
  O  O272  1  0.25163404  0.27448725  0.74498236  1
  O  O273  1  0.25304683  0.77781702  0.07673974  1
  O  O274  1  0.25434398  0.76283418  0.40533719  1
  O  O275  1  0.24346687  0.76157250  0.75731628  1
  O  O276  1  0.59282857  0.26883963  0.07579158  1
  O  O277  1  0.59228650  0.26198839  0.40203337  1
  O  O278  1  0.59879777  0.26363126  0.73959441  1
  O  O279  1  0.59222726  0.76277807  0.08194524  1
  O  O280  1  0.57849496  0.76997854  0.42165126  1
  O  O281  1  0.58441926  0.76920299  0.75327329  1
  O  O282  1  0.92197656  0.26853274  0.07781659  1
  O  O283  1  0.92842547  0.26539043  0.40293431  1
  O  O284  1  0.92956059  0.26751146  0.73897255  1
  O  O285  1  0.92150281  0.77180639  0.07817084  1
  O  O286  1  0.91726552  0.75906659  0.40598849  1
  O  O287  1  0.92475869  0.76029402  0.74437632  1
  O  O288  1  0.25912748  0.47674861  0.07537111  1
  O  O289  1  0.25375103  0.47446488  0.40723150  1
  O  O290  1  0.25066009  0.47546276  0.74199814  1
  O  O291  1  0.25184836  0.97132602  0.07900913  1
  O  O292  1  0.25551205  0.99052665  0.40371475  1
  O  O293  1  0.24770346  0.98541101  0.75457642  1
  O  O294  1  0.58635499  0.47857206  0.08575076  1
  O  O295  1  0.59164306  0.48382356  0.40562527  1
  O  O296  1  0.59700029  0.48827311  0.74173591  1
  O  O297  1  0.59554965  0.98294680  0.07396709  1
  O  O298  1  0.58039898  0.98510191  0.41827969  1
  O  O299  1  0.58478302  0.98076145  0.75175722  1
  O  O300  1  0.91778509  0.47922164  0.07798413  1
  O  O301  1  0.92938422  0.48612745  0.40363577  1
  O  O302  1  0.92862940  0.48627616  0.74104226  1
  O  O303  1  0.92471268  0.98094608  0.07638055  1
  O  O304  1  0.91655544  0.98995489  0.40889026  1
  O  O305  1  0.92767364  0.98646772  0.73867360  1
  O  O306  1  0.09317409  0.26956441  0.09846291  1
  O  O307  1  0.09048845  0.27295761  0.42250511  1
  O  O308  1  0.09034363  0.27398838  0.75810256  1
  O  O309  1  0.08728548  0.76891023  0.09015743  1
  O  O310  1  0.08440988  0.75616972  0.41688030  1
  O  O311  1  0.08238896  0.76949252  0.75422636  1
  O  O312  1  0.42476652  0.26571167  0.08811660  1
  O  O313  1  0.41852173  0.26395632  0.41096634  1
  O  O314  1  0.41628553  0.26084375  0.74737846  1
  O  O315  1  0.41494923  0.76509558  0.07809794  1
  O  O316  1  0.41670746  0.76781965  0.41143776  1
  O  O317  1  0.42324936  0.76602378  0.75225820  1
  O  O318  1  0.75588995  0.27019569  0.09413901  1
  O  O319  1  0.75455135  0.26091928  0.41960559  1
  O  O320  1  0.75939242  0.26025795  0.75957770  1
  O  O321  1  0.75479271  0.77157122  0.08928190  1
  O  O322  1  0.73954163  0.76107159  0.40953519  1
  O  O323  1  0.75037427  0.75472850  0.75137992  1
  O  O324  1  0.23518963  0.01274894  0.23879325  1
  O  O325  1  0.24940511  0.00615869  0.57991653  1
  O  O326  1  0.24519033  -0.00228024  0.91842682  1
  O  O327  1  0.23700194  0.51359028  0.23700688  1
  O  O328  1  0.23674024  0.51324584  0.57373744  1
  O  O329  1  0.24544302  0.52150310  0.91462291  1
  O  O330  1  0.58107376  0.02323716  0.24729943  1
  O  O331  1  0.58447387  0.02671034  0.58266317  1
  O  O332  1  0.57809232  0.02400454  0.91223989  1
  O  O333  1  0.58233695  0.52765369  0.24625463  1
  O  O334  1  0.58201690  0.51896912  0.57955721  1
  O  O335  1  0.58922645  0.51258577  0.92449467  1
  O  O336  1  0.91065474  0.02323168  0.23981580  1
  O  O337  1  0.91065493  0.02363140  0.57798153  1
  O  O338  1  0.91007223  0.02226899  0.91011525  1
  O  O339  1  0.90532841  0.51298883  0.23844084  1
  O  O340  1  0.91873226  0.51360177  0.58357718  1
  O  O341  1  0.91031878  0.51700288  0.90345696  1
  O  O342  1  0.06947369  0.23006827  0.25925001  1
  O  O343  1  0.07045663  0.23882421  0.59592229  1
  O  O344  1  0.07186018  0.23570333  0.92922109  1
  O  O345  1  0.07725411  0.73233380  0.25476719  1
  O  O346  1  0.08002934  0.72820280  0.58880292  1
  O  O347  1  0.08782996  0.73135827  0.91610406  1
  O  O348  1  0.41356215  0.23389316  0.25096490  1
  O  O349  1  0.42081698  0.23681589  0.58050551  1
  O  O350  1  0.41806676  0.24064177  0.91837196  1
  O  O351  1  0.42232331  0.73365409  0.24582430  1
  O  O352  1  0.42521878  0.74233085  0.57435332  1
  O  O353  1  0.41113731  0.73727514  0.92153373  1
  O  O354  1  0.74019528  0.22892420  0.25725760  1
  O  O355  1  0.74805935  0.22690958  0.59299708  1
  O  O356  1  0.74298383  0.22540578  0.92609580  1
  O  O357  1  0.74659871  0.72476164  0.25036300  1
  O  O358  1  0.74516956  0.73649754  0.58826313  1
  O  O359  1  0.74680558  0.73026685  0.92225812  1
