# generated using pymatgen
data_Ba17Sr5La8Pr42Mn72O216
_symmetry_space_group_name_H-M   'P 1'
_cell_length_a   16.68242396
_cell_length_b   15.71303092
_cell_length_c   16.82848620
_cell_angle_alpha   89.99485128
_cell_angle_beta   89.99647295
_cell_angle_gamma   90.01682421
_symmetry_Int_Tables_number   1
_chemical_formula_structural   Ba17Sr5La8Pr42Mn72O216
_chemical_formula_sum   'Ba17 Sr5 La8 Pr42 Mn72 O216'
_cell_volume   4411.27516438
_cell_formula_units_Z   1
loop_
 _symmetry_equiv_pos_site_id
 _symmetry_equiv_pos_as_xyz
  1  'x, y, z'
loop_
 _atom_site_type_symbol
 _atom_site_label
 _atom_site_symmetry_multiplicity
 _atom_site_fract_x
 _atom_site_fract_y
 _atom_site_fract_z
 _atom_site_occupancy
  Ba  Ba0  1  0.83572388  0.87349949  0.16953760  1
  Ba  Ba1  1  0.33352142  0.12764549  0.33185856  1
  Ba  Ba2  1  0.16439315  0.62277212  0.16742666  1
  Ba  Ba3  1  0.33442724  0.87440213  -0.00001442  1
  Ba  Ba4  1  -0.00006107  0.12661188  0.33407005  1
  Ba  Ba5  1  0.82935701  0.62294911  0.16645436  1
  Ba  Ba6  1  0.66645645  0.12725899  0.66468074  1
  Ba  Ba7  1  0.00287143  0.87353567  0.33594070  1
  Ba  Ba8  1  0.49827858  0.12658746  0.16526658  1
  Ba  Ba9  1  0.00294022  0.87559929  0.66653080  1
  Ba  Ba10  1  0.16357406  0.62488374  0.83539176  1
  Ba  Ba11  1  0.83327533  0.12658561  0.16821564  1
  Ba  Ba12  1  0.83233428  0.12684893  0.50126859  1
  Ba  Ba13  1  0.83121741  0.12728145  0.83248258  1
  Ba  Ba14  1  0.66610621  0.12618853  0.33166655  1
  Ba  Ba15  1  0.66753651  0.87382138  0.33311511  1
  Ba  Ba16  1  0.33868754  0.87328944  0.66833246  1
  Sr  Sr17  1  0.83847484  0.37710444  0.83106004  1
  Sr  Sr18  1  0.50803139  0.37678408  0.82788657  1
  Sr  Sr19  1  -0.00431700  0.12597841  0.66270217  1
  Sr  Sr20  1  0.32640903  0.62579816  0.66748835  1
  Sr  Sr21  1  0.82829338  0.62279530  0.83749299  1
  La  La22  1  0.49047925  0.62357631  0.83355662  1
  La  La23  1  0.33202011  0.12546328  0.66152316  1
  La  La24  1  0.17193267  0.37367393  0.82936988  1
  La  La25  1  0.50453323  0.87879336  0.16466918  1
  La  La26  1  0.33824789  0.37560088  0.33161443  1
  La  La27  1  0.00312965  0.37172069  0.67149834  1
  La  La28  1  -0.00743167  0.12521252  1.00017970  1
  La  La29  1  0.66259508  0.12345165  0.99600759  1
  Pr  Pr30  1  0.50658621  0.37746074  0.49740607  1
  Pr  Pr31  1  0.83926726  0.37246781  0.50161472  1
  Pr  Pr32  1  0.00204087  0.37606266  -0.00119325  1
  Pr  Pr33  1  0.65720984  0.62697983  0.99530334  1
  Pr  Pr34  1  0.16064723  0.12300297  0.50364704  1
  Pr  Pr35  1  0.16947470  0.87824084  0.16767740  1
  Pr  Pr36  1  0.50523971  0.37151847  0.16195679  1
  Pr  Pr37  1  -0.01179958  0.62534649  0.99551895  1
  Pr  Pr38  1  0.67602448  0.87297718  0.66555855  1
  Pr  Pr39  1  0.00519160  0.87441423  0.00490023  1
  Pr  Pr40  1  -0.01003953  0.62560403  0.33204193  1
  Pr  Pr41  1  0.15884812  0.12033142  0.83193252  1
  Pr  Pr42  1  0.67458449  0.37428152  0.33116598  1
  Pr  Pr43  1  -0.00789327  0.62415869  0.66950119  1
  Pr  Pr44  1  0.17725966  0.87594932  0.49877043  1
  Pr  Pr45  1  0.17031389  0.36935391  0.16493102  1
  Pr  Pr46  1  0.32443869  0.12604373  0.99735336  1
  Pr  Pr47  1  0.84141734  0.87368558  0.83293398  1
  Pr  Pr48  1  0.82526336  0.63010869  0.50287511  1
  Pr  Pr49  1  0.67379494  0.87377179  0.00363605  1
  Pr  Pr50  1  0.65898525  0.62041078  0.66682442  1
  Pr  Pr51  1  0.32227071  0.62486141  0.99466935  1
  Pr  Pr52  1  0.17569445  0.87329759  0.82992884  1
  Pr  Pr53  1  0.15830798  0.62628076  0.50821663  1
  Pr  Pr54  1  0.33784893  0.87488227  0.33494451  1
  Pr  Pr55  1  0.34116775  0.37790261  0.67213908  1
  Pr  Pr56  1  0.67595942  0.37596966  -0.00215209  1
  Pr  Pr57  1  0.84102087  0.37280499  0.16656728  1
  Pr  Pr58  1  0.51092409  0.87367448  0.82861275  1
  Pr  Pr59  1  0.49464198  0.12501777  0.83603965  1
  Pr  Pr60  1  0.67918227  0.37640358  0.67012815  1
  Pr  Pr61  1  0.17464003  0.37280578  0.50067125  1
  Pr  Pr62  1  0.50442291  0.87443488  0.49721752  1
  Pr  Pr63  1  0.83921078  0.88234911  0.49534308  1
  Pr  Pr64  1  0.32743754  0.62234384  0.33276874  1
  Pr  Pr65  1  0.49926985  0.12360972  0.50099671  1
  Pr  Pr66  1  0.65823764  0.62275422  0.32819169  1
  Pr  Pr67  1  0.49187350  0.62524821  0.16500115  1
  Pr  Pr68  1  0.33893117  0.37992269  0.00026745  1
  Pr  Pr69  1  0.49016209  0.62739578  0.50161111  1
  Pr  Pr70  1  0.16682845  0.12235161  0.17080479  1
  Pr  Pr71  1  0.00240424  0.37857011  0.33491111  1
  Mn  Mn72  1  0.00146535  -0.00140141  0.16681094  1
  Mn  Mn73  1  0.00158923  0.00008174  0.50250528  1
  Mn  Mn74  1  -0.00019419  0.00023528  0.83555930  1
  Mn  Mn75  1  0.00163285  0.50013831  0.16756700  1
  Mn  Mn76  1  -0.00001197  0.50036394  0.50231108  1
  Mn  Mn77  1  0.00018781  0.49865970  0.83405462  1
  Mn  Mn78  1  0.33415280  -0.00121363  0.16632375  1
  Mn  Mn79  1  0.33550696  0.00080692  0.49964545  1
  Mn  Mn80  1  0.33476018  0.00176645  0.83220791  1
  Mn  Mn81  1  0.33311893  0.49981982  0.16644287  1
  Mn  Mn82  1  0.33283999  0.49893613  0.50119372  1
  Mn  Mn83  1  0.33362923  0.49808199  0.83404362  1
  Mn  Mn84  1  0.66731172  -0.00040861  0.16460457  1
  Mn  Mn85  1  0.66525587  -0.00034950  0.50133440  1
  Mn  Mn86  1  0.66586337  -0.00191825  0.83225414  1
  Mn  Mn87  1  0.66395857  0.49993875  0.16455765  1
  Mn  Mn88  1  0.66601941  0.50092955  0.49847369  1
  Mn  Mn89  1  0.66643899  0.50056088  0.83226228  1
  Mn  Mn90  1  0.00332261  0.25273928  0.16622604  1
  Mn  Mn91  1  0.00232763  0.25412846  0.50249799  1
  Mn  Mn92  1  0.00180620  0.24919807  0.83403425  1
  Mn  Mn93  1  0.00129413  0.74814565  0.16695322  1
  Mn  Mn94  1  -0.00003145  0.74710240  0.50144417  1
  Mn  Mn95  1  -0.00092531  0.75055498  0.83582289  1
  Mn  Mn96  1  0.33349649  0.25226246  0.16338981  1
  Mn  Mn97  1  0.33592315  0.25181192  0.50118626  1
  Mn  Mn98  1  0.33410641  0.24924696  0.83204862  1
  Mn  Mn99  1  0.33279506  0.74807684  0.16794486  1
  Mn  Mn100  1  0.33239621  0.74896117  0.49966482  1
  Mn  Mn101  1  0.33423113  0.74979169  0.83385383  1
  Mn  Mn102  1  0.66679209  0.25428413  0.16422438  1
  Mn  Mn103  1  0.66475217  0.25504010  0.50020821  1
  Mn  Mn104  1  0.66453983  0.25208308  0.83177866  1
  Mn  Mn105  1  0.66433923  0.74651119  0.16383096  1
  Mn  Mn106  1  0.66492895  0.74646438  0.50129081  1
  Mn  Mn107  1  0.66682639  0.74853186  0.83280090  1
  Mn  Mn108  1  0.16593152  0.24971878  -0.00278641  1
  Mn  Mn109  1  0.16750298  0.25269450  0.33356831  1
  Mn  Mn110  1  0.16946869  0.25058949  0.66581955  1
  Mn  Mn111  1  0.16452106  0.75056301  0.00183423  1
  Mn  Mn112  1  0.16835140  0.74737519  0.33693283  1
  Mn  Mn113  1  0.16570688  0.74888748  0.66805334  1
  Mn  Mn114  1  0.49949366  0.25268159  -0.00500154  1
  Mn  Mn115  1  0.50119204  0.25480535  0.33220113  1
  Mn  Mn116  1  0.50050495  0.25257663  0.66621035  1
  Mn  Mn117  1  0.49866035  0.74926885  -0.00149725  1
  Mn  Mn118  1  0.49743565  0.74600997  0.33261271  1
  Mn  Mn119  1  0.50201487  0.74792443  0.66570883  1
  Mn  Mn120  1  0.83247871  0.25267074  -0.00023356  1
  Mn  Mn121  1  0.83494278  0.25377089  0.33301602  1
  Mn  Mn122  1  0.83557788  0.25155976  0.66744905  1
  Mn  Mn123  1  0.83187820  0.74840003  -0.00198970  1
  Mn  Mn124  1  0.83116769  0.74831047  0.33770085  1
  Mn  Mn125  1  0.83260507  0.74715241  0.66903051  1
  Mn  Mn126  1  0.16477902  0.00191754  0.00042925  1
  Mn  Mn127  1  0.16938425  -0.00022837  0.33406335  1
  Mn  Mn128  1  0.16784079  0.00017225  0.66746958  1
  Mn  Mn129  1  0.16445518  0.49708863  0.00032408  1
  Mn  Mn130  1  0.16678501  0.49870199  0.33790824  1
  Mn  Mn131  1  0.16607190  0.49995073  0.66657817  1
  Mn  Mn132  1  0.49916567  -0.00014636  -0.00345465  1
  Mn  Mn133  1  0.49979776  -0.00045702  0.33249442  1
  Mn  Mn134  1  0.50308463  -0.00063225  0.66721223  1
  Mn  Mn135  1  0.49949951  0.49848498  -0.00181763  1
  Mn  Mn136  1  0.49965173  0.50019508  0.33141122  1
  Mn  Mn137  1  0.49943610  0.50069849  0.66440589  1
  Mn  Mn138  1  0.83223568  0.00027538  -0.00092953  1
  Mn  Mn139  1  0.83411316  0.00055656  0.33357745  1
  Mn  Mn140  1  0.83448850  -0.00216466  0.66708690  1
  Mn  Mn141  1  0.83207997  0.49797062  -0.00061181  1
  Mn  Mn142  1  0.83177397  0.49958186  0.33637550  1
  Mn  Mn143  1  0.83417948  0.50341928  0.66750879  1
  O  O144  1  0.17186296  0.12819387  0.02822715  1
  O  O145  1  0.16812325  0.13071168  0.35795709  1
  O  O146  1  0.17234277  0.12842643  0.68725893  1
  O  O147  1  0.17305812  0.62141319  0.01072798  1
  O  O148  1  0.17739177  0.62063264  0.36529225  1
  O  O149  1  0.16333438  0.62295669  0.67865949  1
  O  O150  1  0.51073132  0.12862547  0.00829960  1
  O  O151  1  0.50005884  0.13401980  0.35615461  1
  O  O152  1  0.49756823  0.13060840  0.69050286  1
  O  O153  1  0.50602680  0.62240538  0.02224662  1
  O  O154  1  0.50081774  0.62166555  0.35882780  1
  O  O155  1  0.50667454  0.62403097  0.68986269  1
  O  O156  1  0.83415853  0.13023090  0.01026517  1
  O  O157  1  0.83240315  0.13277800  0.34137043  1
  O  O158  1  0.83482199  0.12561013  0.67439357  1
  O  O159  1  0.83949037  0.62150848  0.01015240  1
  O  O160  1  0.83059122  0.62009540  0.35853142  1
  O  O161  1  0.83569234  0.62476652  0.68992172  1
  O  O162  1  0.16284981  0.37625052  0.30940539  1
  O  O163  1  0.16677124  0.37537096  0.64443660  1
  O  O164  1  0.15869296  0.37063511  0.97096415  1
  O  O165  1  0.17346282  0.87044341  0.31204115  1
  O  O166  1  0.16913226  0.87309775  0.64473793  1
  O  O167  1  0.15648903  0.88104729  0.97297967  1
  O  O168  1  0.49630921  0.38121493  0.30653181  1
  O  O169  1  0.49078095  0.37890208  0.64010954  1
  O  O170  1  0.48803518  0.37657919  0.97463672  1
  O  O171  1  0.49187303  0.86438349  0.30997287  1
  O  O172  1  0.50670645  0.86765708  0.64102670  1
  O  O173  1  0.50149537  0.87075775  0.97219925  1
  O  O174  1  0.83486678  0.37969340  0.31258840  1
  O  O175  1  0.83426310  0.38265201  0.64649716  1
  O  O176  1  0.82858832  0.37537465  0.97885358  1
  O  O177  1  0.83526723  0.87038352  0.33363978  1
  O  O178  1  0.82782615  0.86633574  0.64275383  1
  O  O179  1  0.82602439  0.87239800  0.97705769  1
  O  O180  1  0.00489829  0.37885147  0.19020359  1
  O  O181  1  -0.00628042  0.38083371  0.52845234  1
  O  O182  1  0.00815455  0.37328780  0.85372289  1
  O  O183  1  0.00817881  0.87161786  0.17721182  1
  O  O184  1  -0.00870487  0.87044276  0.50905918  1
  O  O185  1  -0.00483427  0.87675008  0.85956888  1
  O  O186  1  0.32966916  0.37814000  0.18649222  1
  O  O187  1  0.33119280  0.37483538  0.52968522  1
  O  O188  1  0.32876017  0.37046683  0.85658459  1
  O  O189  1  0.33070558  0.86837852  0.18982580  1
  O  O190  1  0.33097577  0.87492408  0.51351913  1
  O  O191  1  0.33030765  0.87724580  0.84362567  1
  O  O192  1  0.65516042  0.38051535  0.18699474  1
  O  O193  1  0.65453809  0.38175333  0.52691322  1
  O  O194  1  0.66482941  0.37880867  0.85298205  1
  O  O195  1  0.65748128  0.86696170  0.17184233  1
  O  O196  1  0.65400960  0.86806319  0.52199070  1
  O  O197  1  0.65882495  0.87034155  0.85923671  1
  O  O198  1  0.00950335  0.12743810  0.14406002  1
  O  O199  1  0.01060639  0.12923009  0.49235201  1
  O  O200  1  0.00601912  0.12495755  0.81366083  1
  O  O201  1  0.00054176  0.62231082  0.14123044  1
  O  O202  1  0.01144950  0.62044726  0.47456606  1
  O  O203  1  -0.00194381  0.62348712  0.81442939  1
  O  O204  1  0.32747004  0.12979659  0.14131707  1
  O  O205  1  0.34244013  0.12782432  0.48667799  1
  O  O206  1  0.33904751  0.12743087  0.80639119  1
  O  O207  1  0.33869095  0.62230834  0.13830170  1
  O  O208  1  0.33640584  0.62284914  0.47475151  1
  O  O209  1  0.33653207  0.62343942  0.81977858  1
  O  O210  1  0.66654617  0.13258529  0.14238482  1
  O  O211  1  0.66012043  0.13113934  0.48999281  1
  O  O212  1  0.65742505  0.12545307  0.82226882  1
  O  O213  1  0.65901503  0.62088327  0.13998280  1
  O  O214  1  0.67551802  0.62155666  0.47066443  1
  O  O215  1  0.66633482  0.62467026  0.80985482  1
  O  O216  1  0.08916159  0.01186305  0.24580461  1
  O  O217  1  0.08530547  0.01570560  0.58787851  1
  O  O218  1  0.07759422  0.02655590  0.92580888  1
  O  O219  1  0.07587481  0.51662269  0.26913851  1
  O  O220  1  0.07212756  0.51890790  0.59271578  1
  O  O221  1  0.07097183  0.51253728  0.92999745  1
  O  O222  1  0.41373872  0.00302793  0.25390236  1
  O  O223  1  0.41364856  0.01887527  0.58809166  1
  O  O224  1  0.40844098  0.02482716  0.92296810  1
  O  O225  1  0.41175521  0.52235521  0.25453222  1
  O  O226  1  0.41166804  0.52156340  0.58599800  1
  O  O227  1  0.40935513  0.51967833  0.92749844  1
  O  O228  1  0.74868393  0.00375418  0.24925987  1
  O  O229  1  0.74419156  -0.00282769  0.58727797  1
  O  O230  1  0.73651419  0.01087344  0.92238294  1
  O  O231  1  0.73610033  0.51169744  0.26375936  1
  O  O232  1  0.74204153  0.52054764  0.58929048  1
  O  O233  1  0.73759005  0.51459459  0.92901977  1
  O  O234  1  0.24567178  0.23974237  0.23677622  1
  O  O235  1  0.24783375  0.22974218  0.57764344  1
  O  O236  1  0.24339503  0.22472767  0.91008458  1
  O  O237  1  0.25180343  0.72899434  0.25572517  1
  O  O238  1  0.24258566  0.73335062  0.57223095  1
  O  O239  1  0.24576731  0.74320095  0.91872659  1
  O  O240  1  0.58117926  0.24775787  0.24474814  1
  O  O241  1  0.56834348  0.24050673  0.56986161  1
  O  O242  1  0.57214531  0.23949880  0.90445018  1
  O  O243  1  0.57463347  0.72526855  0.24459622  1
  O  O244  1  0.57959828  0.71945832  0.57839017  1
  O  O245  1  0.57343955  0.72643093  0.90545798  1
  O  O246  1  0.92081116  0.25206696  0.24951792  1
  O  O247  1  0.92029028  0.24745413  0.58553348  1
  O  O248  1  0.92122031  0.24269590  0.92282570  1
  O  O249  1  0.91582272  0.73314960  0.25241772  1
  O  O250  1  0.91196108  0.72402545  0.58076813  1
  O  O251  1  0.90707506  0.73606094  0.90893728  1
  O  O252  1  0.09029352  0.47463487  0.08754584  1
  O  O253  1  0.09083720  0.47449705  0.42909727  1
  O  O254  1  0.09139534  0.47832795  0.75546906  1
  O  O255  1  0.08806421  0.98080527  0.08524665  1
  O  O256  1  0.09619207  0.98721514  0.42797308  1
  O  O257  1  0.09299032  0.98530309  0.76636146  1
  O  O258  1  0.42400992  0.47966527  0.08860747  1
  O  O259  1  0.42297180  0.47889856  0.41900388  1
  O  O260  1  0.42083033  0.48491882  0.75415046  1
  O  O261  1  0.42410567  0.98513343  0.08827610  1
  O  O262  1  0.42086668  0.97902447  0.42203861  1
  O  O263  1  0.43425988  0.98629685  0.75965143  1
  O  O264  1  0.75504320  0.47579581  0.09106303  1
  O  O265  1  0.75597511  0.47329601  0.42679843  1
  O  O266  1  0.75397818  0.48438762  0.75339615  1
  O  O267  1  0.74902891  0.98788937  0.07956624  1
  O  O268  1  0.75198992  0.98712047  0.42620313  1
  O  O269  1  0.75432052  0.97492520  0.75667758  1
  O  O270  1  0.25347470  0.27618431  0.07242398  1
  O  O271  1  0.25584067  0.27530212  0.41550913  1
  O  O272  1  0.25755874  0.27158772  0.74251725  1
  O  O273  1  0.24986715  0.76376444  0.08765442  1
  O  O274  1  0.25716366  0.77080125  0.41191931  1
  O  O275  1  0.25158343  0.76013881  0.74974954  1
  O  O276  1  0.58695462  0.27480898  0.07240032  1
  O  O277  1  0.58749109  0.27953934  0.41142178  1
  O  O278  1  0.59035917  0.27475496  0.73587687  1
  O  O279  1  0.58801394  0.76375691  0.06772657  1
  O  O280  1  0.57952286  0.75777212  0.41827421  1
  O  O281  1  0.59400048  0.76809033  0.74221221  1
  O  O282  1  0.92061218  0.27265527  0.08413069  1
  O  O283  1  0.91917488  0.27436875  0.41801890  1
  O  O284  1  0.92391917  0.26800953  0.74924162  1
  O  O285  1  0.92457936  0.76162362  0.06844814  1
  O  O286  1  0.91894432  0.74734432  0.41909227  1
  O  O287  1  0.91917531  0.76354035  0.75005728  1
  O  O288  1  0.25288906  0.47732064  0.07928155  1
  O  O289  1  0.25599043  0.47289166  0.41433424  1
  O  O290  1  0.25539006  0.47992172  0.74417369  1
  O  O291  1  0.24696445  0.98509778  0.08408918  1
  O  O292  1  0.25679167  0.98032145  0.41213706  1
  O  O293  1  0.25156650  0.99086646  0.74925426  1
  O  O294  1  0.58671630  0.47598955  0.07088657  1
  O  O295  1  0.59080310  0.48115971  0.40480708  1
  O  O296  1  0.59241874  0.48460420  0.73435506  1
  O  O297  1  0.58791913  0.98304465  0.07050322  1
  O  O298  1  0.57862483  0.98710467  0.41941356  1
  O  O299  1  0.59392728  0.97388380  0.74197180  1
  O  O300  1  0.91998391  0.47696860  0.07718444  1
  O  O301  1  0.92402032  0.48018528  0.41509914  1
  O  O302  1  0.92929657  0.48480938  0.74004079  1
  O  O303  1  0.92617415  0.98932819  0.07613955  1
  O  O304  1  0.91729240  0.99435966  0.42092180  1
  O  O305  1  0.91586117  0.98391528  0.75494507  1
  O  O306  1  0.08509469  0.27451727  0.08074582  1
  O  O307  1  0.08356222  0.27752969  0.42041307  1
  O  O308  1  0.09214933  0.26745902  0.75331802  1
  O  O309  1  0.09138177  0.77103749  0.08884351  1
  O  O310  1  0.09884237  0.76300177  0.43299074  1
  O  O311  1  0.09004704  0.76857385  0.76522705  1
  O  O312  1  0.41919247  0.27238018  0.08347988  1
  O  O313  1  0.42151048  0.27679861  0.42271086  1
  O  O314  1  0.42144943  0.27181064  0.75141240  1
  O  O315  1  0.42890560  0.76277036  0.09419888  1
  O  O316  1  0.41917630  0.76734224  0.41986769  1
  O  O317  1  0.43111566  0.76047069  0.76041225  1
  O  O318  1  0.75371944  0.27763046  0.08762794  1
  O  O319  1  0.75182298  0.27667448  0.42007593  1
  O  O320  1  0.75282734  0.26840206  0.75250517  1
  O  O321  1  0.75097550  0.75847667  0.08047519  1
  O  O322  1  0.75885695  0.76386443  0.43564366  1
  O  O323  1  0.75484254  0.77308795  0.75902639  1
  O  O324  1  0.24512919  0.01321696  0.24380607  1
  O  O325  1  0.24748128  0.01947957  0.57470398  1
  O  O326  1  0.24229017  0.02349455  0.91471936  1
  O  O327  1  0.25112944  0.51206383  0.25518293  1
  O  O328  1  0.23802725  0.51408897  0.57537120  1
  O  O329  1  0.24891336  0.50467008  0.91885763  1
  O  O330  1  0.57906596  0.00308523  0.24304681  1
  O  O331  1  0.57243957  0.01378092  0.57562178  1
  O  O332  1  0.57024679  0.01170742  0.90226865  1
  O  O333  1  0.57352540  0.52358454  0.24209263  1
  O  O334  1  0.57554521  0.52488269  0.57005568  1
  O  O335  1  0.57515579  0.52072919  0.90865279  1
  O  O336  1  0.92013638  0.00593512  0.24722869  1
  O  O337  1  0.91644028  0.00439187  0.58332636  1
  O  O338  1  0.91537625  0.01124555  0.91735565  1
  O  O339  1  0.91498528  0.51330860  0.25327455  1
  O  O340  1  0.91011330  0.52670694  0.57567338  1
  O  O341  1  0.91195295  0.51000461  0.91226131  1
  O  O342  1  0.08964540  0.23733378  0.24120634  1
  O  O343  1  0.08891025  0.23998156  0.58265458  1
  O  O344  1  0.08270049  0.22367422  0.91924383  1
  O  O345  1  0.07931755  0.72728028  0.26695551  1
  O  O346  1  0.07368719  0.72782868  0.59154407  1
  O  O347  1  0.06728365  0.73607527  0.93171969  1
  O  O348  1  0.41449773  0.24980880  0.25154122  1
  O  O349  1  0.41169553  0.23204240  0.58990639  1
  O  O350  1  0.40806577  0.22643078  0.92177030  1
  O  O351  1  0.41106300  0.72107549  0.25499750  1
  O  O352  1  0.41436041  0.73025416  0.58319141  1
  O  O353  1  0.40998720  0.72572715  0.92624533  1
  O  O354  1  0.74895309  0.25586207  0.24984642  1
  O  O355  1  0.74668553  0.25653414  0.58354499  1
  O  O356  1  0.73590448  0.24013743  0.92724989  1
  O  O357  1  0.74077968  0.73140216  0.26247374  1
  O  O358  1  0.74029077  0.72604944  0.59383946  1
  O  O359  1  0.73718330  0.73210047  0.92405830  1
