# generated using pymatgen
data_Ba17Sr5La8Pr42Mn72O216
_symmetry_space_group_name_H-M   'P 1'
_cell_length_a   16.67766179
_cell_length_b   15.70041065
_cell_length_c   16.82855314
_cell_angle_alpha   89.99986093
_cell_angle_beta   90.02020344
_cell_angle_gamma   89.99768903
_symmetry_Int_Tables_number   1
_chemical_formula_structural   Ba17Sr5La8Pr42Mn72O216
_chemical_formula_sum   'Ba17 Sr5 La8 Pr42 Mn72 O216'
_cell_volume   4406.49138344
_cell_formula_units_Z   1
loop_
 _symmetry_equiv_pos_site_id
 _symmetry_equiv_pos_as_xyz
  1  'x, y, z'
loop_
 _atom_site_type_symbol
 _atom_site_label
 _atom_site_symmetry_multiplicity
 _atom_site_fract_x
 _atom_site_fract_y
 _atom_site_fract_z
 _atom_site_occupancy
  Ba  Ba0  1  0.33489070  0.12455197  0.33447792  1
  Ba  Ba1  1  0.83308408  0.37484011  0.83243846  1
  Ba  Ba2  1  0.00051044  0.87354701  0.66885376  1
  Ba  Ba3  1  0.32999270  0.62518894  0.99876446  1
  Ba  Ba4  1  0.16836404  0.37718579  0.49785745  1
  Ba  Ba5  1  0.66510841  0.62589160  0.33226687  1
  Ba  Ba6  1  0.00034469  0.37256585  0.33326255  1
  Ba  Ba7  1  0.66610822  0.62514700  1.00175564  1
  Ba  Ba8  1  0.50069930  0.12129058  0.50408861  1
  Ba  Ba9  1  0.83139274  0.62506582  0.49577655  1
  Ba  Ba10  1  -0.00059690  0.12276211  0.66746157  1
  Ba  Ba11  1  0.49749122  0.12654822  0.83436113  1
  Ba  Ba12  1  0.66630920  0.87553142  0.00011139  1
  Ba  Ba13  1  0.33267293  0.87370441  -0.00068428  1
  Ba  Ba14  1  0.66800229  0.37507184  0.66648961  1
  Ba  Ba15  1  0.16628216  0.62516807  0.49831659  1
  Ba  Ba16  1  0.33672106  0.37339933  0.33490599  1
  Sr  Sr17  1  0.50125802  0.87677373  0.50087563  1
  Sr  Sr18  1  -0.00513362  0.62449674  1.00186742  1
  Sr  Sr19  1  0.83218708  0.12529990  0.83229126  1
  Sr  Sr20  1  0.83657892  0.37461806  0.49941021  1
  Sr  Sr21  1  0.67032000  0.37204862  -0.00098940  1
  La  La22  1  0.16166889  0.12308114  0.83224862  1
  La  La23  1  0.17082646  0.87751339  0.16364594  1
  La  La24  1  0.66594327  0.62237692  0.66365931  1
  La  La25  1  0.00345930  0.37379130  0.00349813  1
  La  La26  1  0.83491595  0.87620884  0.49854397  1
  La  La27  1  0.16555613  0.12362038  0.16671430  1
  La  La28  1  0.16071014  0.62827317  0.16948176  1
  La  La29  1  -0.00463444  0.12622225  0.99428250  1
  Pr  Pr30  1  0.83437064  0.87162650  0.16220882  1
  Pr  Pr31  1  0.49388512  0.62942800  0.16990951  1
  Pr  Pr32  1  0.50548932  0.37934702  0.83290676  1
  Pr  Pr33  1  0.50860003  0.37455229  0.16779192  1
  Pr  Pr34  1  0.16665656  0.87821793  0.49836025  1
  Pr  Pr35  1  0.50515525  0.37295253  0.49550820  1
  Pr  Pr36  1  0.33519410  0.87544293  0.66827485  1
  Pr  Pr37  1  0.82645077  0.87403654  0.83009407  1
  Pr  Pr38  1  0.33933145  0.37473775  0.66510273  1
  Pr  Pr39  1  0.33099503  0.62637463  0.66510041  1
  Pr  Pr40  1  0.83069733  0.12541788  0.16642217  1
  Pr  Pr41  1  0.33615224  0.87490074  0.33575369  1
  Pr  Pr42  1  0.82449662  0.62483719  0.17086923  1
  Pr  Pr43  1  0.00184031  0.87267288  0.33792118  1
  Pr  Pr44  1  0.66516706  0.87427169  0.33603339  1
  Pr  Pr45  1  0.16996786  0.37797408  0.82900285  1
  Pr  Pr46  1  0.83629411  0.12824910  0.50432450  1
  Pr  Pr47  1  0.17646902  0.37428461  0.16371533  1
  Pr  Pr48  1  0.50299183  0.12153029  0.17000246  1
  Pr  Pr49  1  0.50051538  0.87537588  0.16512109  1
  Pr  Pr50  1  0.17107892  0.87332111  0.83079558  1
  Pr  Pr51  1  0.66174763  0.87615965  0.67022587  1
  Pr  Pr52  1  0.16776177  0.13170273  0.50165849  1
  Pr  Pr53  1  0.83145941  0.62580678  0.83331380  1
  Pr  Pr54  1  0.32864247  0.12445967  0.99600990  1
  Pr  Pr55  1  0.15449111  0.62727343  0.83683404  1
  Pr  Pr56  1  -0.00722419  0.61936865  0.32971386  1
  Pr  Pr57  1  0.83814344  0.38003256  0.16094251  1
  Pr  Pr58  1  0.66740288  0.12390062  0.33420407  1
  Pr  Pr59  1  0.34285465  0.37530393  0.00325769  1
  Pr  Pr60  1  0.00096104  0.12751897  0.33517849  1
  Pr  Pr61  1  0.49793769  0.62542897  0.50303136  1
  Pr  Pr62  1  0.66891944  0.12552423  0.99430798  1
  Pr  Pr63  1  0.67079297  0.37472968  0.33933164  1
  Pr  Pr64  1  -0.00681689  0.62343410  0.66298733  1
  Pr  Pr65  1  0.00173628  0.37798609  0.66532892  1
  Pr  Pr66  1  0.33177547  0.12312355  0.65979320  1
  Pr  Pr67  1  0.49782249  0.62246313  0.83827726  1
  Pr  Pr68  1  0.67397763  0.12731032  0.66504886  1
  Pr  Pr69  1  0.32827363  0.62391532  0.32999781  1
  Pr  Pr70  1  0.00087601  0.87615040  0.00177540  1
  Pr  Pr71  1  0.49637557  0.86969496  0.83360106  1
  Mn  Mn72  1  -0.00135288  0.00054720  0.16819843  1
  Mn  Mn73  1  0.00069486  -0.00200952  0.49855923  1
  Mn  Mn74  1  -0.00163945  -0.00091660  0.83574215  1
  Mn  Mn75  1  0.00144694  0.49992362  0.16404518  1
  Mn  Mn76  1  -0.00058921  0.50139644  0.49850256  1
  Mn  Mn77  1  -0.00010845  0.50076040  0.83487709  1
  Mn  Mn78  1  0.33478062  0.00122225  0.16584625  1
  Mn  Mn79  1  0.33230070  -0.00279185  0.50079448  1
  Mn  Mn80  1  0.33241499  0.00144711  0.83178081  1
  Mn  Mn81  1  0.33392200  0.49958232  0.16586087  1
  Mn  Mn82  1  0.33641951  0.50267625  0.49964470  1
  Mn  Mn83  1  0.33137687  0.49852487  0.83253806  1
  Mn  Mn84  1  0.66838422  0.00116995  0.16719464  1
  Mn  Mn85  1  0.66869433  -0.00210635  0.50108625  1
  Mn  Mn86  1  0.66475212  0.00036583  0.83366665  1
  Mn  Mn87  1  0.66627012  0.49761689  0.16664799  1
  Mn  Mn88  1  0.66634194  0.50056145  0.49934557  1
  Mn  Mn89  1  0.66631418  0.50166571  0.83326063  1
  Mn  Mn90  1  0.00088989  0.24738464  0.16559770  1
  Mn  Mn91  1  -0.00007539  0.24945632  0.50033278  1
  Mn  Mn92  1  0.00084007  0.25089268  0.83432273  1
  Mn  Mn93  1  -0.00087392  0.75184328  0.16739239  1
  Mn  Mn94  1  0.00059568  0.74981977  0.50032334  1
  Mn  Mn95  1  -0.00217738  0.75061053  0.83578703  1
  Mn  Mn96  1  0.33636360  0.25014948  0.16361431  1
  Mn  Mn97  1  0.33530160  0.25000059  0.50129630  1
  Mn  Mn98  1  0.33119398  0.25185597  0.83351397  1
  Mn  Mn99  1  0.33234551  0.75056146  0.16874187  1
  Mn  Mn100  1  0.33403383  0.75183449  0.49962063  1
  Mn  Mn101  1  0.33154599  0.74845802  0.83091347  1
  Mn  Mn102  1  0.66905609  0.24881186  0.16729951  1
  Mn  Mn103  1  0.66859343  0.24884091  0.49935955  1
  Mn  Mn104  1  0.66610377  0.24911163  0.83354213  1
  Mn  Mn105  1  0.66530780  0.75145785  0.16760120  1
  Mn  Mn106  1  0.66515856  0.75113474  0.50193671  1
  Mn  Mn107  1  0.66465995  0.74958754  0.83204149  1
  Mn  Mn108  1  0.16766638  0.25094732  -0.00216774  1
  Mn  Mn109  1  0.16707238  0.24736055  0.33199690  1
  Mn  Mn110  1  0.16754356  0.25217513  0.66807408  1
  Mn  Mn111  1  0.16285734  0.74915018  0.00066724  1
  Mn  Mn112  1  0.16550472  0.75179894  0.33247457  1
  Mn  Mn113  1  0.16781738  0.74873726  0.66728978  1
  Mn  Mn114  1  0.50109265  0.24993332  0.00234317  1
  Mn  Mn115  1  0.50350137  0.24764855  0.33221427  1
  Mn  Mn116  1  0.49915717  0.25019098  0.66883674  1
  Mn  Mn117  1  0.49918002  0.74996212  0.00084721  1
  Mn  Mn118  1  0.49828470  0.75231253  0.33609209  1
  Mn  Mn119  1  0.49867410  0.74938109  0.66785760  1
  Mn  Mn120  1  0.83404485  0.25068098  0.00042781  1
  Mn  Mn121  1  0.83280068  0.24597165  0.33305257  1
  Mn  Mn122  1  0.83552313  0.25056615  0.66675540  1
  Mn  Mn123  1  0.83522017  0.74929026  -0.00104969  1
  Mn  Mn124  1  0.83401713  0.75342855  0.32995909  1
  Mn  Mn125  1  0.83069541  0.75082462  0.66622273  1
  Mn  Mn126  1  0.16483940  0.00041010  0.00013783  1
  Mn  Mn127  1  0.16576647  -0.00074479  0.33175082  1
  Mn  Mn128  1  0.16792500  -0.00081002  0.66552791  1
  Mn  Mn129  1  0.16544911  0.49992435  -0.00195791  1
  Mn  Mn130  1  0.16619163  0.50106358  0.33066521  1
  Mn  Mn131  1  0.16773831  0.50087233  0.66857603  1
  Mn  Mn132  1  0.49881245  0.00125299  0.00195605  1
  Mn  Mn133  1  0.50196629  -0.00044671  0.33381909  1
  Mn  Mn134  1  0.49962318  -0.00144676  0.67010609  1
  Mn  Mn135  1  0.50173479  0.49860448  0.00172976  1
  Mn  Mn136  1  0.50044399  0.50140275  0.33413668  1
  Mn  Mn137  1  0.49801206  0.50118346  0.66729260  1
  Mn  Mn138  1  0.83390625  -0.00102242  -0.00024191  1
  Mn  Mn139  1  0.83478740  0.00004359  0.33164335  1
  Mn  Mn140  1  0.83131874  -0.00099007  0.66575859  1
  Mn  Mn141  1  0.83455956  0.50158498  -0.00106956  1
  Mn  Mn142  1  0.83281824  0.49725140  0.33091858  1
  Mn  Mn143  1  0.83424718  0.50028269  0.66611883  1
  O  O144  1  0.16930024  0.12835189  0.02347060  1
  O  O145  1  0.16179342  0.11844289  0.35673778  1
  O  O146  1  0.17621926  0.12752986  0.68845895  1
  O  O147  1  0.16213930  0.62661906  0.02499167  1
  O  O148  1  0.17219023  0.62853678  0.34054822  1
  O  O149  1  0.17695170  0.62436502  0.69378386  1
  O  O150  1  0.49720124  0.12710063  0.02590216  1
  O  O151  1  0.50707265  0.12245200  0.34715264  1
  O  O152  1  0.49155457  0.12234923  0.67903935  1
  O  O153  1  0.49843343  0.62167030  0.02383617  1
  O  O154  1  0.49347787  0.63107997  0.35845491  1
  O  O155  1  0.49559220  0.62798744  0.69578197  1
  O  O156  1  0.83198231  0.12425827  0.02229499  1
  O  O157  1  0.82800881  0.11964988  0.36224838  1
  O  O158  1  0.82908757  0.12260733  0.68049789  1
  O  O159  1  0.83654126  0.62658944  0.02601243  1
  O  O160  1  0.83755479  0.62740932  0.33746735  1
  O  O161  1  0.84020140  0.62706487  0.68786047  1
  O  O162  1  0.16708882  0.37548536  0.30963538  1
  O  O163  1  0.15549265  0.37654428  0.65487721  1
  O  O164  1  0.16288699  0.37260389  0.97220676  1
  O  O165  1  0.16073140  0.87609408  0.30548589  1
  O  O166  1  0.17277261  0.87214952  0.64300658  1
  O  O167  1  0.15898376  0.87280105  0.97577488  1
  O  O168  1  0.50929911  0.37165916  0.31242245  1
  O  O169  1  0.49265054  0.37933696  0.63942684  1
  O  O170  1  0.49623007  0.37347112  0.97697307  1
  O  O171  1  0.50127763  0.87621718  0.30899346  1
  O  O172  1  0.50041252  0.87039449  0.64849674  1
  O  O173  1  0.49955207  0.87762980  0.97887449  1
  O  O174  1  0.82820678  0.36808263  0.30619049  1
  O  O175  1  0.83943555  0.37578179  0.65185762  1
  O  O176  1  0.83969593  0.37557847  0.99060088  1
  O  O177  1  0.84228329  0.87973749  0.30332505  1
  O  O178  1  0.82155199  0.87507026  0.64408383  1
  O  O179  1  0.84037461  0.87356568  0.97458532  1
  O  O180  1  -0.00853400  0.37365951  0.17730642  1
  O  O181  1  -0.00159827  0.37505258  0.51908997  1
  O  O182  1  0.00762785  0.37540257  0.85834723  1
  O  O183  1  -0.00738857  0.87929322  0.19677589  1
  O  O184  1  0.00255007  0.87406104  0.51178579  1
  O  O185  1  0.00091506  0.87314971  0.85748364  1
  O  O186  1  0.32649749  0.37449899  0.17904249  1
  O  O187  1  0.34202380  0.37825888  0.51933347  1
  O  O188  1  0.32244280  0.37392587  0.86233317  1
  O  O189  1  0.33220778  0.87392469  0.19004942  1
  O  O190  1  0.32409371  0.87383885  0.52384093  1
  O  O191  1  0.32981589  0.87484024  0.84531471  1
  O  O192  1  0.66361509  0.37026493  0.19472710  1
  O  O193  1  0.66027880  0.37453937  0.50944348  1
  O  O194  1  0.66005516  0.37566755  0.84743293  1
  O  O195  1  0.66533013  0.87885753  0.19041829  1
  O  O196  1  0.67129325  0.87392238  0.52593468  1
  O  O197  1  0.67129984  0.87495887  0.84469583  1
  O  O198  1  0.00339052  0.12167116  0.13768394  1
  O  O199  1  -0.00190464  0.11961109  0.48034543  1
  O  O200  1  0.00351466  0.12569126  0.82402119  1
  O  O201  1  0.00771768  0.62558597  0.14850464  1
  O  O202  1  -0.00121611  0.62948585  0.47702283  1
  O  O203  1  0.00119457  0.62813755  0.80680967  1
  O  O204  1  0.33915549  0.12862828  0.14055933  1
  O  O205  1  0.32937027  0.12067711  0.49272885  1
  O  O206  1  0.32790590  0.12796193  0.80449312  1
  O  O207  1  0.34026149  0.62468515  0.15645743  1
  O  O208  1  0.34300427  0.63001970  0.47405598  1
  O  O209  1  0.34171659  0.62342201  0.80785499  1
  O  O210  1  0.66995766  0.12491705  0.13768026  1
  O  O211  1  0.67442226  0.12258706  0.47717601  1
  O  O212  1  0.66606153  0.12205959  0.81133150  1
  O  O213  1  0.67249456  0.62519946  0.15861695  1
  O  O214  1  0.65715032  0.62778447  0.48805803  1
  O  O215  1  0.66072140  0.62843116  0.81050132  1
  O  O216  1  0.08043223  0.02341511  0.25055532  1
  O  O217  1  0.09050295  0.01191917  0.57524536  1
  O  O218  1  0.08184296  0.01856090  0.92328131  1
  O  O219  1  0.07819431  0.52001777  0.25103883  1
  O  O220  1  0.07728313  0.51612448  0.59673311  1
  O  O221  1  0.07722036  0.52016422  0.92234603  1
  O  O222  1  0.42480782  0.01192014  0.24480447  1
  O  O223  1  0.40956960  0.00438589  0.59283730  1
  O  O224  1  0.40824508  0.01791905  0.92175965  1
  O  O225  1  0.41228095  0.51898116  0.25975874  1
  O  O226  1  0.41382763  0.52801648  0.58917848  1
  O  O227  1  0.41475176  0.50925917  0.91397976  1
  O  O228  1  0.75147153  0.02370898  0.25056195  1
  O  O229  1  0.75245657  0.02207202  0.57953450  1
  O  O230  1  0.74961776  0.01687805  0.91584284  1
  O  O231  1  0.75131296  0.50676602  0.24637764  1
  O  O232  1  0.74419708  0.51440091  0.58761165  1
  O  O233  1  0.75174426  0.51617809  0.91516188  1
  O  O234  1  0.24396084  0.23411463  0.23596384  1
  O  O235  1  0.24958746  0.23519297  0.58377573  1
  O  O236  1  0.24309626  0.22447851  0.90978987  1
  O  O237  1  0.24687284  0.73508599  0.24817011  1
  O  O238  1  0.25529314  0.73257739  0.58655525  1
  O  O239  1  0.24120598  0.73534228  0.90395657  1
  O  O240  1  0.58716585  0.22418117  0.24784704  1
  O  O241  1  0.59022107  0.23422476  0.58587473  1
  O  O242  1  0.58616805  0.23453545  0.92486089  1
  O  O243  1  0.57195392  0.73815078  0.24609342  1
  O  O244  1  0.57783208  0.72901397  0.58983846  1
  O  O245  1  0.57717177  0.73746311  0.90859332  1
  O  O246  1  0.91312355  0.22199262  0.25060083  1
  O  O247  1  0.91471543  0.23630230  0.57840952  1
  O  O248  1  0.91716646  0.23533507  0.91802053  1
  O  O249  1  0.91350853  0.72926267  0.24212715  1
  O  O250  1  0.91573969  0.73915526  0.58739985  1
  O  O251  1  0.91391338  0.72822583  0.91440001  1
  O  O252  1  0.09021979  0.47634234  0.08926812  1
  O  O253  1  0.08454924  0.49664694  0.41354297  1
  O  O254  1  0.09120796  0.48766798  0.76118639  1
  O  O255  1  0.08128299  0.97626733  0.08888590  1
  O  O256  1  0.08359969  0.97768955  0.41289829  1
  O  O257  1  0.09185884  0.98678899  0.75684035  1
  O  O258  1  0.42369536  0.47866182  0.09048972  1
  O  O259  1  0.43056529  0.48717359  0.42986317  1
  O  O260  1  0.41646331  0.47458757  0.75221811  1
  O  O261  1  0.41995166  0.98338099  0.08698576  1
  O  O262  1  0.41315395  0.98012366  0.41551720  1
  O  O263  1  0.41757892  0.97687190  0.75339218  1
  O  O264  1  0.75713706  0.48509001  0.08934075  1
  O  O265  1  0.75091097  0.48263219  0.41249936  1
  O  O266  1  0.75322271  0.50185859  0.75090234  1
  O  O267  1  0.75700499  0.98404897  0.09000529  1
  O  O268  1  0.75341884  0.97146807  0.41190252  1
  O  O269  1  0.74251006  0.98332488  0.74322622  1
  O  O270  1  0.25732504  0.26951500  0.07107994  1
  O  O271  1  0.25162109  0.25325256  0.41819646  1
  O  O272  1  0.25395242  0.27669139  0.74637943  1
  O  O273  1  0.24510700  0.76219266  0.08878078  1
  O  O274  1  0.25088804  0.77363825  0.41088682  1
  O  O275  1  0.25340764  0.77046432  0.74559506  1
  O  O276  1  0.58516228  0.26825955  0.08854531  1
  O  O277  1  0.58768113  0.26538170  0.41285017  1
  O  O278  1  0.57585083  0.26523839  0.75380881  1
  O  O279  1  0.58122409  0.76322733  0.08866568  1
  O  O280  1  0.58488880  0.77236888  0.41423404  1
  O  O281  1  0.57951347  0.77184949  0.74890006  1
  O  O282  1  0.92174231  0.26177149  0.07995556  1
  O  O283  1  0.91386676  0.25298550  0.41640314  1
  O  O284  1  0.92732336  0.26623333  0.74506766  1
  O  O285  1  0.92151833  0.77461780  0.08154501  1
  O  O286  1  0.91805547  0.77012673  0.40911145  1
  O  O287  1  0.90734272  0.76685158  0.75745198  1
  O  O288  1  0.25387969  0.47879430  0.07251634  1
  O  O289  1  0.25900247  0.49845381  0.40935376  1
  O  O290  1  0.25579966  0.47615932  0.74470818  1
  O  O291  1  0.24539388  0.98974704  0.08389201  1
  O  O292  1  0.24784370  0.97472442  0.41369993  1
  O  O293  1  0.25374864  0.97944279  0.74482773  1
  O  O294  1  0.58837682  0.47671532  0.08338625  1
  O  O295  1  0.58666507  0.48177678  0.41131237  1
  O  O296  1  0.57675733  0.48948614  0.75100688  1
  O  O297  1  0.57804137  0.98782985  0.09411468  1
  O  O298  1  0.58816090  0.98022011  0.41592249  1
  O  O299  1  0.57767801  0.97619891  0.75740426  1
  O  O300  1  0.92419796  0.48405582  0.07694936  1
  O  O301  1  0.91649536  0.49216973  0.40964366  1
  O  O302  1  0.92969349  0.48716186  0.74157026  1
  O  O303  1  0.91844648  0.97771417  0.08537922  1
  O  O304  1  0.91872342  0.97917572  0.41146913  1
  O  O305  1  0.90627819  0.98329059  0.75555603  1
  O  O306  1  0.09367120  0.27138952  0.08523886  1
  O  O307  1  0.08262647  0.25050450  0.41817450  1
  O  O308  1  0.08994970  0.26563322  0.75754529  1
  O  O309  1  0.08252225  0.77645423  0.09156447  1
  O  O310  1  0.08909792  0.77221744  0.41812425  1
  O  O311  1  0.09234063  0.76440375  0.76128192  1
  O  O312  1  0.42200949  0.27542679  0.08700172  1
  O  O313  1  0.42582751  0.26253587  0.42486793  1
  O  O314  1  0.41570703  0.27878696  0.75938121  1
  O  O315  1  0.42175635  0.76380512  0.09476886  1
  O  O316  1  0.41647684  0.77699848  0.41746255  1
  O  O317  1  0.41595868  0.77166907  0.74724404  1
  O  O318  1  0.75819003  0.26740907  0.09329425  1
  O  O319  1  0.74848481  0.26622332  0.41283326  1
  O  O320  1  0.74940688  0.25242608  0.74801085  1
  O  O321  1  0.75815025  0.76380403  0.08754073  1
  O  O322  1  0.75380047  0.77464758  0.41285551  1
  O  O323  1  0.74612524  0.76640904  0.74726424  1
  O  O324  1  0.24478986  0.01375212  0.24502740  1
  O  O325  1  0.24701624  0.01894495  0.58131322  1
  O  O326  1  0.24650653  0.02023464  0.90952702  1
  O  O327  1  0.24203844  0.51643142  0.23844461  1
  O  O328  1  0.25527869  0.51297518  0.58617267  1
  O  O329  1  0.23808539  0.51835419  0.90245808  1
  O  O330  1  0.59065733  0.02041391  0.25222909  1
  O  O331  1  0.59108690  0.01060398  0.59789988  1
  O  O332  1  0.58706954  0.01802705  0.92587564  1
  O  O333  1  0.57152080  0.51479969  0.24002953  1
  O  O334  1  0.57588029  0.52061751  0.58279330  1
  O  O335  1  0.57580678  0.51355122  0.91111674  1
  O  O336  1  0.91615161  0.03080422  0.24922710  1
  O  O337  1  0.91088458  0.00737972  0.57536784  1
  O  O338  1  0.91906113  0.01526611  0.92339222  1
  O  O339  1  0.91282291  0.51704441  0.24018549  1
  O  O340  1  0.91760546  0.51407911  0.58514456  1
  O  O341  1  0.91158841  0.52145197  0.90760355  1
  O  O342  1  0.08022887  0.22588839  0.24937530  1
  O  O343  1  0.08659234  0.23438750  0.58243378  1
  O  O344  1  0.08043238  0.22978138  0.92300499  1
  O  O345  1  0.07606792  0.73280438  0.25658283  1
  O  O346  1  0.08059289  0.73089867  0.59482718  1
  O  O347  1  0.07702367  0.73031812  0.92024788  1
  O  O348  1  0.42453260  0.23750801  0.24486165  1
  O  O349  1  0.40826110  0.23872793  0.59491172  1
  O  O350  1  0.40364891  0.23593533  0.92694029  1
  O  O351  1  0.41031809  0.73442006  0.25869073  1
  O  O352  1  0.41811338  0.72896018  0.58720063  1
  O  O353  1  0.41790966  0.73713302  0.90943227  1
  O  O354  1  0.74867889  0.22028529  0.25178325  1
  O  O355  1  0.75243563  0.23123428  0.57989533  1
  O  O356  1  0.74756047  0.23412110  0.92379965  1
  O  O357  1  0.75185067  0.74614324  0.24777080  1
  O  O358  1  0.74433058  0.73239515  0.58992248  1
  O  O359  1  0.75453395  0.73606402  0.90776004  1
