# generated using pymatgen
data_Ba17Sr5La8Pr42Mn72O216
_symmetry_space_group_name_H-M   'P 1'
_cell_length_a   16.67737213
_cell_length_b   15.70690547
_cell_length_c   16.82336869
_cell_angle_alpha   90.00420656
_cell_angle_beta   89.98624307
_cell_angle_gamma   89.99944505
_symmetry_Int_Tables_number   1
_chemical_formula_structural   Ba17Sr5La8Pr42Mn72O216
_chemical_formula_sum   'Ba17 Sr5 La8 Pr42 Mn72 O216'
_cell_volume   4406.87973293
_cell_formula_units_Z   1
loop_
 _symmetry_equiv_pos_site_id
 _symmetry_equiv_pos_as_xyz
  1  'x, y, z'
loop_
 _atom_site_type_symbol
 _atom_site_label
 _atom_site_symmetry_multiplicity
 _atom_site_fract_x
 _atom_site_fract_y
 _atom_site_fract_z
 _atom_site_occupancy
  Ba  Ba0  1  0.33120361  0.37624179  0.33513864  1
  Ba  Ba1  1  0.66691317  0.37416987  0.00185309  1
  Ba  Ba2  1  0.33229685  0.12414530  0.33230179  1
  Ba  Ba3  1  -0.00076929  0.12518402  0.66368787  1
  Ba  Ba4  1  0.16754882  0.37623510  0.16668294  1
  Ba  Ba5  1  0.50219227  0.87334629  0.50025942  1
  Ba  Ba6  1  0.49736864  0.12385415  0.50151067  1
  Ba  Ba7  1  0.00088453  0.87630838  0.66670675  1
  Ba  Ba8  1  0.16423573  0.62541227  0.16741305  1
  Ba  Ba9  1  0.83206001  0.37620177  0.16116843  1
  Ba  Ba10  1  0.33334729  0.87420186  0.33682446  1
  Ba  Ba11  1  0.16333413  0.12575753  0.16787464  1
  Ba  Ba12  1  0.83163816  0.12783483  0.49872588  1
  Ba  Ba13  1  0.83432940  0.87307641  0.16332242  1
  Ba  Ba14  1  0.66477047  0.12558963  0.33403696  1
  Ba  Ba15  1  0.16976277  0.37574579  0.83371203  1
  Ba  Ba16  1  0.16719918  0.62466495  0.83631247  1
  Sr  Sr17  1  0.66295833  0.12403222  1.00338498  1
  Sr  Sr18  1  0.83781296  0.37444715  0.49397256  1
  Sr  Sr19  1  0.83638308  0.87179589  0.82928300  1
  Sr  Sr20  1  0.83476991  0.62760437  0.82974470  1
  Sr  Sr21  1  0.49990758  0.12581494  0.17216758  1
  La  La22  1  0.17192460  0.87541143  0.16795090  1
  La  La23  1  0.16787679  0.87761863  0.50145597  1
  La  La24  1  0.83087287  0.62158755  0.50128300  1
  La  La25  1  0.00099899  0.62436699  0.66500212  1
  La  La26  1  0.66702762  0.37183396  0.33204779  1
  La  La27  1  0.67225114  0.37303035  0.66862880  1
  La  La28  1  0.50185573  0.37383011  0.49946560  1
  La  La29  1  0.16577963  0.12578369  0.49714827  1
  Pr  Pr30  1  0.16454858  0.37288179  0.49834596  1
  Pr  Pr31  1  0.50418301  0.87942641  0.16932635  1
  Pr  Pr32  1  0.00268735  0.37645938  0.33116562  1
  Pr  Pr33  1  0.49862314  0.62228726  0.16903935  1
  Pr  Pr34  1  0.67300743  0.87610153  0.00094119  1
  Pr  Pr35  1  0.33482884  0.37902082  0.00784756  1
  Pr  Pr36  1  0.66400009  0.62636929  0.32987085  1
  Pr  Pr37  1  0.82633896  0.12101637  0.83062642  1
  Pr  Pr38  1  0.32600521  0.12628292  0.66446116  1
  Pr  Pr39  1  0.33028886  0.62788136  0.33423378  1
  Pr  Pr40  1  -0.00531230  0.62402661  0.99474706  1
  Pr  Pr41  1  0.17562260  0.87649309  0.82926227  1
  Pr  Pr42  1  0.66942055  0.87935768  0.33584705  1
  Pr  Pr43  1  0.82408283  0.12649542  0.16881084  1
  Pr  Pr44  1  0.49451532  0.12356066  0.83821218  1
  Pr  Pr45  1  0.00356334  0.37830661  0.00276388  1
  Pr  Pr46  1  0.50087294  0.62564433  0.84070545  1
  Pr  Pr47  1  0.16805881  0.62583770  0.50399533  1
  Pr  Pr48  1  -0.00207714  0.37207421  0.66602301  1
  Pr  Pr49  1  0.50687578  0.37406752  0.83544248  1
  Pr  Pr50  1  0.01033037  0.87292453  -0.00151325  1
  Pr  Pr51  1  0.66562588  0.62586365  0.66354429  1
  Pr  Pr52  1  0.67347961  0.87733218  0.66659062  1
  Pr  Pr53  1  0.15662530  0.12486434  0.83839795  1
  Pr  Pr54  1  0.66336673  0.12490551  0.65872072  1
  Pr  Pr55  1  0.49203377  0.62502620  0.50447211  1
  Pr  Pr56  1  0.83528593  0.37631244  0.83061900  1
  Pr  Pr57  1  0.33026620  0.62482048  0.67096741  1
  Pr  Pr58  1  0.49943394  0.36867828  0.16644432  1
  Pr  Pr59  1  0.00353769  0.87294940  0.33469874  1
  Pr  Pr60  1  0.83900059  0.87602886  0.49359505  1
  Pr  Pr61  1  -0.00698276  0.62415615  0.32966226  1
  Pr  Pr62  1  0.34030451  0.37503834  0.67209130  1
  Pr  Pr63  1  0.67061705  0.62644744  0.99537157  1
  Pr  Pr64  1  -0.00923954  0.12677014  0.99717210  1
  Pr  Pr65  1  0.33856432  0.87130801  0.00600387  1
  Pr  Pr66  1  0.34136503  0.87475033  0.67103519  1
  Pr  Pr67  1  0.32590515  0.12537810  1.00233224  1
  Pr  Pr68  1  0.82957688  0.62388181  0.16308213  1
  Pr  Pr69  1  -0.00721109  0.12633251  0.32762289  1
  Pr  Pr70  1  0.51073974  0.87456807  0.83124460  1
  Pr  Pr71  1  0.32933341  0.62225929  0.99977795  1
  Mn  Mn72  1  -0.00084708  -0.00256085  0.16384875  1
  Mn  Mn73  1  0.00018061  -0.00067162  0.49682535  1
  Mn  Mn74  1  -0.00173160  0.00043191  0.83427975  1
  Mn  Mn75  1  -0.00279746  0.50273720  0.16451628  1
  Mn  Mn76  1  0.00182190  0.50158395  0.49805177  1
  Mn  Mn77  1  -0.00121347  0.49876388  0.83107546  1
  Mn  Mn78  1  0.33558117  -0.00220098  0.16610289  1
  Mn  Mn79  1  0.33165011  0.00096698  0.50349701  1
  Mn  Mn80  1  0.33505573  0.00058141  0.83528622  1
  Mn  Mn81  1  0.33466803  0.50294163  0.16889840  1
  Mn  Mn82  1  0.33175385  0.50031627  0.50479082  1
  Mn  Mn83  1  0.33823175  0.49885939  0.83631778  1
  Mn  Mn84  1  0.66555431  -0.00207993  0.16597148  1
  Mn  Mn85  1  0.66781054  -0.00161551  0.50148016  1
  Mn  Mn86  1  0.66723729  0.00057998  0.83296868  1
  Mn  Mn87  1  0.66380329  0.50369678  0.16515848  1
  Mn  Mn88  1  0.66570465  0.50022454  0.49857203  1
  Mn  Mn89  1  0.66817141  0.50036400  0.83184313  1
  Mn  Mn90  1  -0.00270955  0.24980036  0.16236463  1
  Mn  Mn91  1  0.00018003  0.25182218  0.49769452  1
  Mn  Mn92  1  -0.00257155  0.25074399  0.83303555  1
  Mn  Mn93  1  -0.00103258  0.75020066  0.16498328  1
  Mn  Mn94  1  0.00031644  0.74758148  0.49770669  1
  Mn  Mn95  1  0.00072554  0.75015948  0.83193971  1
  Mn  Mn96  1  0.33418659  0.25013169  0.16659752  1
  Mn  Mn97  1  0.33138630  0.25056298  0.50477122  1
  Mn  Mn98  1  0.33552028  0.24896796  0.83501191  1
  Mn  Mn99  1  0.33554933  0.74936734  0.16838606  1
  Mn  Mn100  1  0.33231352  0.74827935  0.50366398  1
  Mn  Mn101  1  0.33739914  0.75136455  0.83813624  1
  Mn  Mn102  1  0.66482833  0.25002905  0.16582291  1
  Mn  Mn103  1  0.66584836  0.25323276  0.50162136  1
  Mn  Mn104  1  0.66690035  0.24844225  0.83286464  1
  Mn  Mn105  1  0.66419326  0.74887536  0.16416319  1
  Mn  Mn106  1  0.66852047  0.74719558  0.49786370  1
  Mn  Mn107  1  0.66923558  0.74923605  0.83155764  1
  Mn  Mn108  1  0.16621671  0.24961109  -0.00082173  1
  Mn  Mn109  1  0.16323324  0.25140411  0.33393315  1
  Mn  Mn110  1  0.16797659  0.25202651  0.66687446  1
  Mn  Mn111  1  0.16804596  0.75072737  0.00010659  1
  Mn  Mn112  1  0.16360855  0.74834108  0.33645264  1
  Mn  Mn113  1  0.16839949  0.74980324  0.66878255  1
  Mn  Mn114  1  0.49737934  0.24669196  0.00066496  1
  Mn  Mn115  1  0.49911524  0.25187254  0.33305481  1
  Mn  Mn116  1  0.50075246  0.25095589  0.67058164  1
  Mn  Mn117  1  0.50245163  0.75173645  0.00174716  1
  Mn  Mn118  1  0.50179148  0.74704276  0.33458655  1
  Mn  Mn119  1  0.50189477  0.74884439  0.67038437  1
  Mn  Mn120  1  0.83152582  0.24678410  -0.00369261  1
  Mn  Mn121  1  0.83326045  0.25266688  0.33003124  1
  Mn  Mn122  1  0.83249188  0.25275399  0.66563286  1
  Mn  Mn123  1  0.83556412  0.75170491  -0.00516507  1
  Mn  Mn124  1  0.83223541  0.74742971  0.33143095  1
  Mn  Mn125  1  0.83378752  0.74674475  0.66367513  1
  Mn  Mn126  1  0.16701603  -0.00061023  -0.00133538  1
  Mn  Mn127  1  0.16268738  -0.00109735  0.33315272  1
  Mn  Mn128  1  0.16924916  0.00031402  0.66849846  1
  Mn  Mn129  1  0.16653206  0.50093106  0.00059683  1
  Mn  Mn130  1  0.16435702  0.50134949  0.33725645  1
  Mn  Mn131  1  0.16760427  0.49982261  0.66605732  1
  Mn  Mn132  1  0.49893614  0.00010670  0.00021045  1
  Mn  Mn133  1  0.49988793  -0.00081880  0.33278494  1
  Mn  Mn134  1  0.50093721  -0.00134982  0.67171166  1
  Mn  Mn135  1  0.50103452  0.50175053  0.00241674  1
  Mn  Mn136  1  0.50049135  0.50141810  0.33629468  1
  Mn  Mn137  1  0.50141524  0.50183479  0.66958627  1
  Mn  Mn138  1  0.83326932  -0.00044651  -0.00245310  1
  Mn  Mn139  1  0.83426618  -0.00126860  0.32943704  1
  Mn  Mn140  1  0.83278963  -0.00089596  0.66568300  1
  Mn  Mn141  1  0.83349393  0.50200026  -0.00522389  1
  Mn  Mn142  1  0.83125631  0.50042230  0.33206093  1
  Mn  Mn143  1  0.83339148  0.50022869  0.66461517  1
  O  O144  1  0.16945577  0.12316124  0.01045373  1
  O  O145  1  0.15448481  0.12664823  0.35246024  1
  O  O146  1  0.17435876  0.12693165  0.69486230  1
  O  O147  1  0.16953599  0.62768317  0.01026896  1
  O  O148  1  0.16182279  0.62442395  0.35977969  1
  O  O149  1  0.16383033  0.62519578  0.68207809  1
  O  O150  1  0.49785703  0.12076316  0.02185364  1
  O  O151  1  0.49959103  0.12722679  0.34024828  1
  O  O152  1  0.50862935  0.12151706  0.69416313  1
  O  O153  1  0.50933750  0.63013425  0.02592663  1
  O  O154  1  0.50782429  0.62295875  0.36184708  1
  O  O155  1  0.50349917  0.62493635  0.69766375  1
  O  O156  1  0.84170831  0.12040240  0.02477277  1
  O  O157  1  0.83864449  0.12571008  0.34046946  1
  O  O158  1  0.82357735  0.12991446  0.68543732  1
  O  O159  1  0.84010183  0.62930464  0.01809770  1
  O  O160  1  0.82896551  0.62417454  0.35754907  1
  O  O161  1  0.83178427  0.62144210  0.68220231  1
  O  O162  1  0.16050442  0.37829760  0.32304331  1
  O  O163  1  0.17377623  0.37798787  0.64268556  1
  O  O164  1  0.16870587  0.37417542  0.99051008  1
  O  O165  1  0.15895233  0.87084623  0.31198053  1
  O  O166  1  0.17628053  0.87225483  0.64641705  1
  O  O167  1  0.16726196  0.87561103  0.97282446  1
  O  O168  1  0.50239082  0.38197908  0.31221228  1
  O  O169  1  0.49401720  0.38170152  0.64338116  1
  O  O170  1  0.49097679  0.37470607  0.97756930  1
  O  O171  1  0.50663724  0.86833148  0.31511593  1
  O  O172  1  0.49540226  0.87199425  0.65601304  1
  O  O173  1  0.49354423  0.87411763  0.97165061  1
  O  O174  1  0.83734621  0.37914713  0.31770018  1
  O  O175  1  0.83340655  0.37950406  0.64446859  1
  O  O176  1  0.83578442  0.37446881  0.97423302  1
  O  O177  1  0.83548502  0.87026101  0.31991793  1
  O  O178  1  0.82616050  0.86718151  0.63908828  1
  O  O179  1  0.82367797  0.87579395  0.97746471  1
  O  O180  1  -0.00393266  0.38040415  0.18453768  1
  O  O181  1  0.00269708  0.38229346  0.52315857  1
  O  O182  1  -0.01129149  0.37357079  0.85867064  1
  O  O183  1  0.00216237  0.87212631  0.19049319  1
  O  O184  1  -0.00956369  0.87039540  0.50955351  1
  O  O185  1  -0.00129178  0.87873862  0.85411784  1
  O  O186  1  0.33987080  0.38081159  0.17499595  1
  O  O187  1  0.32922479  0.37780903  0.52848835  1
  O  O188  1  0.34494879  0.37382647  0.86242569  1
  O  O189  1  0.33051986  0.87116721  0.17877860  1
  O  O190  1  0.32550937  0.87360950  0.52586699  1
  O  O191  1  0.32935139  0.87739041  0.86296911  1
  O  O192  1  0.66264699  0.38229284  0.18473920  1
  O  O193  1  0.65861562  0.38032628  0.52520379  1
  O  O194  1  0.66676257  0.37574112  0.84819186  1
  O  O195  1  0.66301779  0.86874840  0.19083351  1
  O  O196  1  0.67419393  0.86884039  0.52240457  1
  O  O197  1  0.66343971  0.87642256  0.85861190  1
  O  O198  1  -0.00388114  0.12013620  0.14100837  1
  O  O199  1  0.00760947  0.12392106  0.47467318  1
  O  O200  1  0.00739557  0.12570708  0.81987647  1
  O  O201  1  -0.00690739  0.62799268  0.14000178  1
  O  O202  1  0.00941691  0.62348260  0.47241530  1
  O  O203  1  0.00049492  0.62112556  0.80907010  1
  O  O204  1  0.33829601  0.12096474  0.14653979  1
  O  O205  1  0.32917461  0.12624812  0.49284354  1
  O  O206  1  0.34330276  0.12287658  0.80612431  1
  O  O207  1  0.34203081  0.62793060  0.14364021  1
  O  O208  1  0.33443915  0.62290368  0.47934839  1
  O  O209  1  0.34420726  0.62579845  0.81358644  1
  O  O210  1  0.66880805  0.12189592  0.15530810  1
  O  O211  1  0.66573248  0.12706818  0.49572603  1
  O  O212  1  0.66768803  0.12421616  0.80403083  1
  O  O213  1  0.65637060  0.62809676  0.13842822  1
  O  O214  1  0.66954044  0.62305051  0.47267074  1
  O  O215  1  0.65899923  0.62262851  0.80751069  1
  O  O216  1  0.06974360  0.01189729  0.25855463  1
  O  O217  1  0.08618894  0.00882736  0.57650760  1
  O  O218  1  0.07442257  0.01598574  0.92625804  1
  O  O219  1  0.07182646  0.51515518  0.25853648  1
  O  O220  1  0.08342463  0.52086403  0.57758993  1
  O  O221  1  0.07589614  0.50865622  0.92002293  1
  O  O222  1  0.41777080  0.00178595  0.24577022  1
  O  O223  1  0.40717539  0.01026241  0.60384402  1
  O  O224  1  0.40797167  0.02342018  0.92433991  1
  O  O225  1  0.41628775  0.52636713  0.25572825  1
  O  O226  1  0.41313649  0.52566551  0.59383241  1
  O  O227  1  0.41980442  0.52608281  0.92126192  1
  O  O228  1  0.74980475  0.00684091  0.24954609  1
  O  O229  1  0.74171557  0.01055497  0.59190398  1
  O  O230  1  0.74592575  0.02221330  0.91527374  1
  O  O231  1  0.74493071  0.52583976  0.24580515  1
  O  O232  1  0.74509537  0.52065328  0.58309895  1
  O  O233  1  0.74840273  0.52180845  0.91535546  1
  O  O234  1  0.24642116  0.24370356  0.25048092  1
  O  O235  1  0.24618314  0.23001194  0.58380495  1
  O  O236  1  0.24670674  0.22702531  0.90727277  1
  O  O237  1  0.25001614  0.73300705  0.25907094  1
  O  O238  1  0.25094244  0.72543145  0.58732734  1
  O  O239  1  0.25761905  0.73598663  0.92185578  1
  O  O240  1  0.58242104  0.25118001  0.24909541  1
  O  O241  1  0.57999753  0.24167114  0.58754611  1
  O  O242  1  0.57290874  0.23418415  0.90977062  1
  O  O243  1  0.57794767  0.72543880  0.24537694  1
  O  O244  1  0.58343277  0.72553549  0.57891354  1
  O  O245  1  0.58280783  0.73073739  0.91574562  1
  O  O246  1  0.91122764  0.22978685  0.23878349  1
  O  O247  1  0.91703992  0.24701806  0.58093044  1
  O  O248  1  0.90737376  0.22437659  0.90800672  1
  O  O249  1  0.90844580  0.72474745  0.24620380  1
  O  O250  1  0.91470302  0.72439309  0.57524234  1
  O  O251  1  0.91700485  0.73346958  0.91192930  1
  O  O252  1  0.07869173  0.49048583  0.08101085  1
  O  O253  1  0.08191760  0.47663220  0.42004599  1
  O  O254  1  0.07792557  0.48152783  0.74119019  1
  O  O255  1  0.09045594  0.97417587  0.09037275  1
  O  O256  1  0.08348766  0.97515921  0.41776117  1
  O  O257  1  0.09700921  0.98685969  0.76104662  1
  O  O258  1  0.41780157  0.48711437  0.08265957  1
  O  O259  1  0.42229825  0.48828728  0.43088959  1
  O  O260  1  0.42418500  0.47789581  0.75767190  1
  O  O261  1  0.42143170  0.97398516  0.08453687  1
  O  O262  1  0.41551106  0.99139586  0.42337157  1
  O  O263  1  0.42696447  0.97854374  0.76574711  1
  O  O264  1  0.74908537  0.50370237  0.08008705  1
  O  O265  1  0.74704508  0.48175625  0.41546925  1
  O  O266  1  0.75107954  0.48039590  0.75130308  1
  O  O267  1  0.74726110  0.98669905  0.07950870  1
  O  O268  1  0.75611262  0.97938868  0.41913200  1
  O  O269  1  0.75075609  0.97926674  0.75221524  1
  O  O270  1  0.25922661  0.25827396  0.07179433  1
  O  O271  1  0.24157839  0.26127427  0.42524642  1
  O  O272  1  0.26589355  0.26783467  0.74340866  1
  O  O273  1  0.25281061  0.76762491  0.08051690  1
  O  O274  1  0.24299152  0.75904745  0.42561889  1
  O  O275  1  0.25916300  0.76896093  0.75254151  1
  O  O276  1  0.57761983  0.26317572  0.08595538  1
  O  O277  1  0.58390797  0.27255491  0.41662240  1
  O  O278  1  0.58900679  0.27249976  0.74698097  1
  O  O279  1  0.58518335  0.78013087  0.07883534  1
  O  O280  1  0.59644592  0.76293080  0.40573062  1
  O  O281  1  0.58880578  0.77143369  0.74778721  1
  O  O282  1  0.92355066  0.26386735  0.06701588  1
  O  O283  1  0.92364283  0.26503142  0.40514898  1
  O  O284  1  0.91699850  0.27220080  0.74689473  1
  O  O285  1  0.92538517  0.76730547  0.06943383  1
  O  O286  1  0.92175653  0.75968527  0.41031630  1
  O  O287  1  0.91810258  0.75574460  0.74240722  1
  O  O288  1  0.25698875  0.49425974  0.08062879  1
  O  O289  1  0.24306445  0.48930560  0.42902283  1
  O  O290  1  0.26297315  0.48855645  0.74658069  1
  O  O291  1  0.25872407  0.98288796  0.07212175  1
  O  O292  1  0.24100874  0.98980876  0.42307889  1
  O  O293  1  0.26354962  0.97644466  0.74652068  1
  O  O294  1  0.57410246  0.48389524  0.09104137  1
  O  O295  1  0.58519615  0.47766867  0.41585681  1
  O  O296  1  0.58634965  0.47737483  0.74716436  1
  O  O297  1  0.58570015  0.97493569  0.07760026  1
  O  O298  1  0.59310710  0.98395234  0.41294623  1
  O  O299  1  0.58942118  0.97570874  0.74800856  1
  O  O300  1  0.92112260  0.48834887  0.07172124  1
  O  O301  1  0.92459974  0.48872251  0.41327272  1
  O  O302  1  0.91839046  0.47690629  0.74675994  1
  O  O303  1  0.92941792  0.98012974  0.06924946  1
  O  O304  1  0.92299454  0.98452750  0.40599520  1
  O  O305  1  0.91452603  0.99394974  0.74969757  1
  O  O306  1  0.07968514  0.26307541  0.08132974  1
  O  O307  1  0.08194522  0.27395769  0.41797231  1
  O  O308  1  0.08210551  0.26830326  0.74478134  1
  O  O309  1  0.09105975  0.77365558  0.08596610  1
  O  O310  1  0.08450713  0.77297916  0.42020372  1
  O  O311  1  0.09235360  0.76860099  0.75827042  1
  O  O312  1  0.41751014  0.27005800  0.08208230  1
  O  O313  1  0.41952568  0.26727884  0.42852603  1
  O  O314  1  0.42829265  0.27091614  0.76207032  1
  O  O315  1  0.42468986  0.77107746  0.08582806  1
  O  O316  1  0.41922979  0.75151318  0.42164147  1
  O  O317  1  0.42130542  0.77201428  0.76155651  1
  O  O318  1  0.75229690  0.25078317  0.08267417  1
  O  O319  1  0.74901864  0.26931449  0.41589540  1
  O  O320  1  0.75618686  0.27225797  0.75401474  1
  O  O321  1  0.74676502  0.75747416  0.07621254  1
  O  O322  1  0.75525068  0.76897754  0.41923723  1
  O  O323  1  0.74796457  0.76420762  0.74371417  1
  O  O324  1  0.24282170  0.00256227  0.24496025  1
  O  O325  1  0.24576981  0.02169970  0.58460997  1
  O  O326  1  0.24326264  0.02155811  0.90374814  1
  O  O327  1  0.25305536  0.51906171  0.25971455  1
  O  O328  1  0.25108527  0.52602007  0.58614654  1
  O  O329  1  0.25891364  0.51042464  0.92115228  1
  O  O330  1  0.58080486  0.00193625  0.24378229  1
  O  O331  1  0.58323329  0.00798894  0.59023786  1
  O  O332  1  0.57433885  0.01585335  0.90854436  1
  O  O333  1  0.58305967  0.52439149  0.25098337  1
  O  O334  1  0.57979291  0.52628846  0.58191288  1
  O  O335  1  0.58307083  0.51967265  0.91670132  1
  O  O336  1  0.91149042  0.01939141  0.23903606  1
  O  O337  1  0.91220803  0.00546475  0.57454114  1
  O  O338  1  0.91058276  0.02309316  0.91067345  1
  O  O339  1  0.91086403  0.52596899  0.24359761  1
  O  O340  1  0.92040645  0.52354799  0.57821069  1
  O  O341  1  0.91500123  0.51999254  0.91132831  1
  O  O342  1  0.07007695  0.24101409  0.25868883  1
  O  O343  1  0.08707849  0.24100609  0.57635491  1
  O  O344  1  0.07802638  0.23543224  0.91942777  1
  O  O345  1  0.07304937  0.73313276  0.26093354  1
  O  O346  1  0.08096430  0.73213608  0.58167708  1
  O  O347  1  0.07617874  0.73875881  0.92711177  1
  O  O348  1  0.41905246  0.24581166  0.24679301  1
  O  O349  1  0.40723459  0.23869797  0.60128556  1
  O  O350  1  0.40994885  0.22198103  0.92256512  1
  O  O351  1  0.41722492  0.72513781  0.25601876  1
  O  O352  1  0.41450617  0.72728407  0.59228929  1
  O  O353  1  0.41805820  0.72624660  0.92390180  1
  O  O354  1  0.74996343  0.24373751  0.24906003  1
  O  O355  1  0.74118627  0.24377469  0.59364236  1
  O  O356  1  0.74731491  0.22558962  0.91463514  1
  O  O357  1  0.74490084  0.72506615  0.24889873  1
  O  O358  1  0.74783132  0.72205799  0.58177517  1
  O  O359  1  0.74738337  0.73045088  0.91575369  1
