# generated using pymatgen
data_Ba17Sr5La8Pr42Mn72O216
_symmetry_space_group_name_H-M   'P 1'
_cell_length_a   16.67675761
_cell_length_b   15.70541675
_cell_length_c   16.81414190
_cell_angle_alpha   90.00629399
_cell_angle_beta   90.02764543
_cell_angle_gamma   89.99749080
_symmetry_Int_Tables_number   1
_chemical_formula_structural   Ba17Sr5La8Pr42Mn72O216
_chemical_formula_sum   'Ba17 Sr5 La8 Pr42 Mn72 O216'
_cell_volume   4403.88263418
_cell_formula_units_Z   1
loop_
 _symmetry_equiv_pos_site_id
 _symmetry_equiv_pos_as_xyz
  1  'x, y, z'
loop_
 _atom_site_type_symbol
 _atom_site_label
 _atom_site_symmetry_multiplicity
 _atom_site_fract_x
 _atom_site_fract_y
 _atom_site_fract_z
 _atom_site_occupancy
  Ba  Ba0  1  0.17190027  0.87274917  0.16428628  1
  Ba  Ba1  1  0.83380127  0.12633973  0.49976286  1
  Ba  Ba2  1  -0.00217423  0.12417632  0.66380855  1
  Ba  Ba3  1  0.50081367  0.12597740  0.50303648  1
  Ba  Ba4  1  0.16586294  0.12609381  0.50008888  1
  Ba  Ba5  1  0.83140768  0.37639478  0.83420756  1
  Ba  Ba6  1  -0.00271411  0.62492260  0.32882955  1
  Ba  Ba7  1  0.16666355  0.37569570  0.83274592  1
  Ba  Ba8  1  0.17037203  0.37707857  0.16444223  1
  Ba  Ba9  1  0.50351193  0.87427043  0.50079938  1
  Ba  Ba10  1  0.32964047  0.62346075  0.66630132  1
  Ba  Ba11  1  0.33186704  0.12684027  0.66503550  1
  Ba  Ba12  1  0.83275759  0.12441424  0.16971367  1
  Ba  Ba13  1  0.83308919  0.87340514  0.83099597  1
  Ba  Ba14  1  0.33500284  0.37555559  0.00383455  1
  Ba  Ba15  1  0.33244998  0.87453032  0.66772636  1
  Ba  Ba16  1  -0.00029201  0.12343672  0.99986850  1
  Sr  Sr17  1  0.16294077  0.87465754  0.82823910  1
  Sr  Sr18  1  0.00003929  0.62626881  0.99663500  1
  Sr  Sr19  1  0.33334682  0.37219451  0.66963392  1
  Sr  Sr20  1  0.00164132  0.87721388  0.66648073  1
  Sr  Sr21  1  0.33716954  0.37622232  0.33416249  1
  La  La22  1  0.32533031  0.62383989  0.99855824  1
  La  La23  1  0.83215388  0.62607862  0.83458814  1
  La  La24  1  0.66993764  0.37289205  0.33612678  1
  La  La25  1  0.00226941  0.37176943  0.66585918  1
  La  La26  1  0.49577383  0.12630010  0.17095553  1
  La  La27  1  0.16232445  0.62757950  0.83028340  1
  La  La28  1  0.50093059  0.87378221  0.82946029  1
  La  La29  1  0.16665069  0.12834437  0.16883599  1
  Pr  Pr30  1  -0.00023839  0.12468317  0.32593477  1
  Pr  Pr31  1  0.83262753  0.12226195  0.83829325  1
  Pr  Pr32  1  0.32810320  0.62694139  0.33482485  1
  Pr  Pr33  1  0.00592821  0.37527252  0.00283069  1
  Pr  Pr34  1  0.16256583  0.12154149  0.82910174  1
  Pr  Pr35  1  0.17084479  0.37338666  0.49821329  1
  Pr  Pr36  1  0.33869273  0.87578526  0.34093110  1
  Pr  Pr37  1  0.67277551  0.37560765  0.00517373  1
  Pr  Pr38  1  0.50875802  0.87412723  0.16904393  1
  Pr  Pr39  1  0.65813501  0.12348676  0.33175808  1
  Pr  Pr40  1  0.66591320  0.37161477  0.66980896  1
  Pr  Pr41  1  0.00190075  0.87532980  -0.00217698  1
  Pr  Pr42  1  0.66197027  0.12373076  0.99749347  1
  Pr  Pr43  1  0.49897255  0.37645297  0.83259330  1
  Pr  Pr44  1  -0.00491672  0.62508534  0.66418268  1
  Pr  Pr45  1  0.32879644  0.12351714  0.33459016  1
  Pr  Pr46  1  0.66770626  0.87935335  0.66831319  1
  Pr  Pr47  1  0.49092940  0.12408736  0.83561787  1
  Pr  Pr48  1  0.49795020  0.37538280  0.50191459  1
  Pr  Pr49  1  0.32448195  0.12504604  0.99871967  1
  Pr  Pr50  1  0.49014028  0.62569079  0.83626564  1
  Pr  Pr51  1  0.34007068  0.87350991  0.00162296  1
  Pr  Pr52  1  0.49545997  0.62389002  0.50408134  1
  Pr  Pr53  1  0.83895073  0.37561630  0.50062820  1
  Pr  Pr54  1  0.84220957  0.37717132  0.16169895  1
  Pr  Pr55  1  0.67753414  0.87362659  0.00224924  1
  Pr  Pr56  1  0.16951702  0.87783083  0.49956341  1
  Pr  Pr57  1  0.65986538  0.62684821  0.33147988  1
  Pr  Pr58  1  0.66170564  0.62636853  0.99622107  1
  Pr  Pr59  1  0.84130128  0.87452124  0.50191610  1
  Pr  Pr60  1  0.67740376  0.87673694  0.33925531  1
  Pr  Pr61  1  0.50613535  0.37582064  0.16314565  1
  Pr  Pr62  1  0.49257572  0.62464697  0.16893145  1
  Pr  Pr63  1  0.00464296  0.37400600  0.33309875  1
  Pr  Pr64  1  0.16709804  0.62178555  0.16646965  1
  Pr  Pr65  1  0.84406286  0.87379025  0.16428789  1
  Pr  Pr66  1  0.82742471  0.62634632  0.16989969  1
  Pr  Pr67  1  0.66829563  0.12506698  0.66719656  1
  Pr  Pr68  1  0.83028813  0.62357006  0.50111761  1
  Pr  Pr69  1  0.66490311  0.62445017  0.66761091  1
  Pr  Pr70  1  0.16189088  0.62419235  0.50265759  1
  Pr  Pr71  1  0.00736290  0.87639537  0.33537563  1
  Mn  Mn72  1  0.00335290  -0.00291794  0.16603566  1
  Mn  Mn73  1  0.00064631  -0.00267297  0.49823522  1
  Mn  Mn74  1  -0.00119965  -0.00068714  0.83143049  1
  Mn  Mn75  1  -0.00109427  0.50344971  0.16361194  1
  Mn  Mn76  1  -0.00152141  0.50095640  0.49768081  1
  Mn  Mn77  1  -0.00196399  0.50081063  0.83142293  1
  Mn  Mn78  1  0.33727038  -0.00184733  0.16652175  1
  Mn  Mn79  1  0.33448737  -0.00007045  0.50055818  1
  Mn  Mn80  1  0.33162709  0.00011232  0.83613691  1
  Mn  Mn81  1  0.33686416  0.50182963  0.16885694  1
  Mn  Mn82  1  0.33289720  0.49854562  0.49929152  1
  Mn  Mn83  1  0.33221458  0.49958932  0.83345299  1
  Mn  Mn84  1  0.66675746  -0.00194001  0.16767233  1
  Mn  Mn85  1  0.67031123  -0.00042702  0.50146686  1
  Mn  Mn86  1  0.66300871  0.00083053  0.83450659  1
  Mn  Mn87  1  0.66658721  0.50229908  0.16788625  1
  Mn  Mn88  1  0.66698298  0.49997894  0.50008893  1
  Mn  Mn89  1  0.66338766  0.50088283  0.83463880  1
  Mn  Mn90  1  0.00162201  0.25102576  0.16647840  1
  Mn  Mn91  1  -0.00018787  0.25271645  0.49789827  1
  Mn  Mn92  1  -0.00190860  0.25038906  0.83299382  1
  Mn  Mn93  1  0.00085366  0.74889521  0.16320320  1
  Mn  Mn94  1  -0.00056486  0.74880439  0.49760554  1
  Mn  Mn95  1  -0.00150197  0.74914205  0.82971400  1
  Mn  Mn96  1  0.33650616  0.24885235  0.16832148  1
  Mn  Mn97  1  0.33446105  0.25405066  0.50018832  1
  Mn  Mn98  1  0.33257098  0.24948472  0.83452337  1
  Mn  Mn99  1  0.33734818  0.75017647  0.16768497  1
  Mn  Mn100  1  0.33262328  0.74854852  0.49813298  1
  Mn  Mn101  1  0.33096400  0.74939797  0.83589288  1
  Mn  Mn102  1  0.66730803  0.24996410  0.16821022  1
  Mn  Mn103  1  0.66790524  0.25234272  0.50192509  1
  Mn  Mn104  1  0.66276034  0.24963365  0.83556134  1
  Mn  Mn105  1  0.66677054  0.75049021  0.16762655  1
  Mn  Mn106  1  0.66922619  0.74741247  0.50000910  1
  Mn  Mn107  1  0.66371885  0.74899629  0.83323737  1
  Mn  Mn108  1  0.16602046  0.24808437  -0.00075540  1
  Mn  Mn109  1  0.16833097  0.25205697  0.33294893  1
  Mn  Mn110  1  0.16594959  0.25189583  0.66541757  1
  Mn  Mn111  1  0.16672421  0.75176620  -0.00362476  1
  Mn  Mn112  1  0.16819398  0.74826620  0.33120529  1
  Mn  Mn113  1  0.16253831  0.74912535  0.66520064  1
  Mn  Mn114  1  0.50157830  0.24858485  0.00218837  1
  Mn  Mn115  1  0.49917483  0.25240681  0.33370915  1
  Mn  Mn116  1  0.50128931  0.25176007  0.66909258  1
  Mn  Mn117  1  0.50149013  0.75113411  0.00164036  1
  Mn  Mn118  1  0.50127558  0.74839185  0.33376026  1
  Mn  Mn119  1  0.50148068  0.74875958  0.66774980  1
  Mn  Mn120  1  0.83153427  0.24973794  0.00066869  1
  Mn  Mn121  1  0.83328620  0.25204071  0.33348531  1
  Mn  Mn122  1  0.83117083  0.25184736  0.66830717  1
  Mn  Mn123  1  0.83401581  0.74869288  0.00117691  1
  Mn  Mn124  1  0.83271148  0.74991861  0.33298539  1
  Mn  Mn125  1  0.83125782  0.74822528  0.66511456  1
  Mn  Mn126  1  0.16847129  -0.00304042  -0.00266724  1
  Mn  Mn127  1  0.16888825  -0.00060878  0.33101422  1
  Mn  Mn128  1  0.16492907  -0.00155622  0.66545192  1
  Mn  Mn129  1  0.16435359  0.50350140  -0.00146977  1
  Mn  Mn130  1  0.16792325  0.50025171  0.33364268  1
  Mn  Mn131  1  0.16357602  0.50065456  0.66496030  1
  Mn  Mn132  1  0.50121256  -0.00230918  0.00260829  1
  Mn  Mn133  1  0.50027041  0.00060058  0.33269930  1
  Mn  Mn134  1  0.50119468  -0.00060977  0.66892590  1
  Mn  Mn135  1  0.50235928  0.50158181  0.00119707  1
  Mn  Mn136  1  0.50058825  0.49979298  0.33431823  1
  Mn  Mn137  1  0.50125632  0.50045192  0.66792168  1
  Mn  Mn138  1  0.83257734  -0.00035206  0.00130623  1
  Mn  Mn139  1  0.83523545  -0.00073971  0.33424009  1
  Mn  Mn140  1  0.83235511  -0.00025828  0.66726757  1
  Mn  Mn141  1  0.83315678  0.50208430  0.00075626  1
  Mn  Mn142  1  0.83090503  0.49943105  0.33212475  1
  Mn  Mn143  1  0.83075872  0.49985043  0.66599647  1
  O  O144  1  0.17078171  0.11847178  0.02459186  1
  O  O145  1  0.16745776  0.12549113  0.34269032  1
  O  O146  1  0.16523093  0.12545391  0.68155131  1
  O  O147  1  0.16760513  0.62867913  0.02227622  1
  O  O148  1  0.17328322  0.62354359  0.35791802  1
  O  O149  1  0.15843192  0.62431668  0.68345675  1
  O  O150  1  0.50954947  0.11803221  0.03016329  1
  O  O151  1  0.50943847  0.12516057  0.34578844  1
  O  O152  1  0.51052021  0.12546392  0.69051021  1
  O  O153  1  0.51008981  0.62749010  0.02747602  1
  O  O154  1  0.51005142  0.62150808  0.36079889  1
  O  O155  1  0.51041331  0.62342251  0.69169324  1
  O  O156  1  0.82424132  0.12410620  0.01345810  1
  O  O157  1  0.84659093  0.12371497  0.34445102  1
  O  O158  1  0.82662799  0.12958609  0.69209161  1
  O  O159  1  0.82777890  0.62584364  0.02681708  1
  O  O160  1  0.82863427  0.62393908  0.35785846  1
  O  O161  1  0.83837094  0.62306115  0.68800420  1
  O  O162  1  0.16009612  0.37734893  0.31933134  1
  O  O163  1  0.15817927  0.37980505  0.64497887  1
  O  O164  1  0.15933474  0.37897925  0.99068011  1
  O  O165  1  0.16850327  0.87350273  0.32069592  1
  O  O166  1  0.16101489  0.86993353  0.64538842  1
  O  O167  1  0.17719096  0.87418325  0.97739206  1
  O  O168  1  0.50226472  0.37881659  0.30528270  1
  O  O169  1  0.50772998  0.37943564  0.64622138  1
  O  O170  1  0.50655922  0.37960506  0.97723295  1
  O  O171  1  0.49269525  0.87533042  0.31213288  1
  O  O172  1  0.50530804  0.87254291  0.65881132  1
  O  O173  1  0.49392500  0.87439175  0.97365933  1
  O  O174  1  0.82361159  0.37813242  0.30440964  1
  O  O175  1  0.82080132  0.37855301  0.64488823  1
  O  O176  1  0.82609849  0.37649274  0.98969572  1
  O  O177  1  0.82414717  0.87378293  0.30734586  1
  O  O178  1  0.81995956  0.86909637  0.64521764  1
  O  O179  1  0.82953107  0.87317104  0.98775908  1
  O  O180  1  -0.00347597  0.37913547  0.18680801  1
  O  O181  1  0.00096166  0.38085323  0.51991697  1
  O  O182  1  -0.00127563  0.37745988  0.85893389  1
  O  O183  1  -0.00248684  0.87135504  0.19021013  1
  O  O184  1  0.00142000  0.86901556  0.51523778  1
  O  O185  1  0.00126071  0.87291609  0.85339828  1
  O  O186  1  0.34251933  0.37944584  0.18380767  1
  O  O187  1  0.33596688  0.37847588  0.51727700  1
  O  O188  1  0.34137560  0.37409732  0.84727588  1
  O  O189  1  0.34076164  0.87359183  0.19664946  1
  O  O190  1  0.32708583  0.87149148  0.50466001  1
  O  O191  1  0.33577582  0.87507680  0.85798179  1
  O  O192  1  0.65960825  0.38108742  0.19278500  1
  O  O193  1  0.66461536  0.37869089  0.52680136  1
  O  O194  1  0.65738669  0.37718363  0.86301565  1
  O  O195  1  0.66092314  0.87304860  0.19626379  1
  O  O196  1  0.67505746  0.86820416  0.52456986  1
  O  O197  1  0.65826696  0.87524681  0.85966144  1
  O  O198  1  0.00618655  0.12240430  0.16017673  1
  O  O199  1  -0.00184327  0.12528066  0.47271065  1
  O  O200  1  -0.00565662  0.12600651  0.82236945  1
  O  O201  1  -0.00797106  0.62683060  0.14656397  1
  O  O202  1  -0.00872672  0.62428526  0.48250369  1
  O  O203  1  -0.00468843  0.62373431  0.80827845  1
  O  O204  1  0.34370156  0.11877183  0.14223683  1
  O  O205  1  0.33371732  0.12977894  0.48040655  1
  O  O206  1  0.34052534  0.12502828  0.82334856  1
  O  O207  1  0.34421181  0.62779612  0.14270595  1
  O  O208  1  0.33325861  0.62255403  0.47964264  1
  O  O209  1  0.33903439  0.62474455  0.82460734  1
  O  O210  1  0.66102169  0.11954752  0.14254271  1
  O  O211  1  0.66751105  0.13030182  0.47496231  1
  O  O212  1  0.66439276  0.12467704  0.81153378  1
  O  O213  1  0.67106635  0.62666664  0.13965112  1
  O  O214  1  0.67047036  0.62226937  0.47132836  1
  O  O215  1  0.66352210  0.62383138  0.81273215  1
  O  O216  1  0.08417024  0.01377580  0.25129272  1
  O  O217  1  0.08250678  0.00243661  0.57815063  1
  O  O218  1  0.08705944  0.01101931  0.91058592  1
  O  O219  1  0.08594268  0.51738244  0.24309545  1
  O  O220  1  0.07611664  0.52355468  0.58236119  1
  O  O221  1  0.08186395  0.52155037  0.91131743  1
  O  O222  1  0.41195010  0.02250184  0.25558576  1
  O  O223  1  0.41941734  0.00632360  0.58848086  1
  O  O224  1  0.41107878  0.01868462  0.93058490  1
  O  O225  1  0.41398317  0.52642394  0.25829774  1
  O  O226  1  0.42189673  0.51314291  0.58106391  1
  O  O227  1  0.41706681  0.52126329  0.92665074  1
  O  O228  1  0.73882970  0.01570851  0.26422480  1
  O  O229  1  0.74505213  0.01650625  0.59120755  1
  O  O230  1  0.74026274  0.01774926  0.92021654  1
  O  O231  1  0.74147623  0.52614675  0.25459265  1
  O  O232  1  0.74655261  0.52547350  0.58382245  1
  O  O233  1  0.74334340  0.52127309  0.92207550  1
  O  O234  1  0.25190078  0.22950598  0.24828372  1
  O  O235  1  0.24800427  0.25251937  0.57980813  1
  O  O236  1  0.24753516  0.22837351  0.91475815  1
  O  O237  1  0.24954792  0.72327799  0.24187943  1
  O  O238  1  0.23789260  0.73699349  0.56995886  1
  O  O239  1  0.24631683  0.72662905  0.91350431  1
  O  O240  1  0.57873799  0.23346518  0.24429535  1
  O  O241  1  0.58954532  0.23895938  0.59076923  1
  O  O242  1  0.57737046  0.22449186  0.91456572  1
  O  O243  1  0.57565335  0.72974534  0.23970974  1
  O  O244  1  0.58455256  0.72517322  0.57652812  1
  O  O245  1  0.57483948  0.72854258  0.91221409  1
  O  O246  1  0.92362096  0.24354296  0.25354012  1
  O  O247  1  0.91358314  0.25272126  0.57869264  1
  O  O248  1  0.90606592  0.23569520  0.91170543  1
  O  O249  1  0.90182919  0.73755432  0.23950037  1
  O  O250  1  0.90748924  0.73377541  0.57394728  1
  O  O251  1  0.91086088  0.73084146  0.90978475  1
  O  O252  1  0.07839733  0.49219336  0.07746820  1
  O  O253  1  0.08528489  0.48354701  0.41988417  1
  O  O254  1  0.07685690  0.48865701  0.74337272  1
  O  O255  1  0.08315208  0.97899464  0.07581232  1
  O  O256  1  0.08482435  0.97915889  0.41513011  1
  O  O257  1  0.08340627  0.99134218  0.74994157  1
  O  O258  1  0.43227654  0.48898927  0.09580855  1
  O  O259  1  0.42539794  0.48392343  0.42158467  1
  O  O260  1  0.42431208  0.48766932  0.75705649  1
  O  O261  1  0.42746861  0.97261712  0.09243594  1
  O  O262  1  0.41640094  0.99017906  0.41193135  1
  O  O263  1  0.42452970  0.98974555  0.76429712  1
  O  O264  1  0.75428732  0.48094547  0.09409096  1
  O  O265  1  0.75344559  0.47714332  0.42226272  1
  O  O266  1  0.74263067  0.49158338  0.74717922  1
  O  O267  1  0.75349345  0.97590973  0.09196958  1
  O  O268  1  0.75910768  0.97748260  0.42352107  1
  O  O269  1  0.74288238  0.98762137  0.75002223  1
  O  O270  1  0.25453212  0.24978935  0.08362904  1
  O  O271  1  0.24982843  0.26856377  0.41445221  1
  O  O272  1  0.25125948  0.25771205  0.74929423  1
  O  O273  1  0.26577343  0.76264169  0.07560868  1
  O  O274  1  0.25820288  0.76259288  0.40485260  1
  O  O275  1  0.24640603  0.75570555  0.75142952  1
  O  O276  1  0.59126809  0.27167271  0.07690545  1
  O  O277  1  0.58618970  0.27362672  0.41467871  1
  O  O278  1  0.58229598  0.27524181  0.75397321  1
  O  O279  1  0.59320259  0.77408299  0.07474634  1
  O  O280  1  0.59741617  0.76469986  0.40514783  1
  O  O281  1  0.58871699  0.76925649  0.74710169  1
  O  O282  1  0.91971487  0.27008114  0.08295898  1
  O  O283  1  0.91843112  0.27826203  0.41329707  1
  O  O284  1  0.91844245  0.26906639  0.74377124  1
  O  O285  1  0.92187489  0.77295616  0.07765588  1
  O  O286  1  0.92194441  0.77374910  0.40706461  1
  O  O287  1  0.91893811  0.75891231  0.74013891  1
  O  O288  1  0.25420358  0.50202646  0.08470436  1
  O  O289  1  0.25243528  0.48185204  0.41422129  1
  O  O290  1  0.24784431  0.49271222  0.74378634  1
  O  O291  1  0.26571077  0.98361667  0.07405069  1
  O  O292  1  0.25404884  0.98683003  0.40821991  1
  O  O293  1  0.24661291  0.99290769  0.75431013  1
  O  O294  1  0.59259354  0.48048874  0.07776856  1
  O  O295  1  0.58727469  0.47647783  0.41447256  1
  O  O296  1  0.58463163  0.47707102  0.75062306  1
  O  O297  1  0.59071437  0.97015493  0.07563132  1
  O  O298  1  0.59559543  0.98540474  0.40609515  1
  O  O299  1  0.58472389  0.97935097  0.75202160  1
  O  O300  1  0.92053343  0.47864774  0.07760739  1
  O  O301  1  0.91933164  0.47473465  0.41046247  1
  O  O302  1  0.91907041  0.48391135  0.73991210  1
  O  O303  1  0.92161836  0.97851021  0.08372562  1
  O  O304  1  0.92124809  0.97297806  0.41199317  1
  O  O305  1  0.91414548  0.99013914  0.74673170  1
  O  O306  1  0.08027399  0.26186987  0.08123374  1
  O  O307  1  0.08216490  0.27131579  0.41482683  1
  O  O308  1  0.07996321  0.26281653  0.74558515  1
  O  O309  1  0.08211771  0.76798513  0.07339206  1
  O  O310  1  0.08919658  0.76535233  0.42055961  1
  O  O311  1  0.08154770  0.75815583  0.74814988  1
  O  O312  1  0.43090627  0.26316296  0.09604521  1
  O  O313  1  0.42207153  0.27125004  0.41993508  1
  O  O314  1  0.42430256  0.26256646  0.75911451  1
  O  O315  1  0.42953495  0.77125968  0.09409122  1
  O  O316  1  0.41848872  0.75654758  0.41571665  1
  O  O317  1  0.42342261  0.75865138  0.76527368  1
  O  O318  1  0.75298659  0.27122780  0.09188346  1
  O  O319  1  0.75388271  0.27512064  0.42395703  1
  O  O320  1  0.74128918  0.26507961  0.75048184  1
  O  O321  1  0.75627542  0.77031861  0.09599180  1
  O  O322  1  0.75976698  0.76931047  0.42422393  1
  O  O323  1  0.74554574  0.75664744  0.74685039  1
  O  O324  1  0.25098274  0.02182320  0.24323156  1
  O  O325  1  0.24610275  0.00087235  0.57961931  1
  O  O326  1  0.24722879  0.02534342  0.91409417  1
  O  O327  1  0.25172267  0.52450721  0.24845184  1
  O  O328  1  0.23773164  0.51198100  0.57280797  1
  O  O329  1  0.24591451  0.51959926  0.91578739  1
  O  O330  1  0.57529828  0.01454421  0.24102944  1
  O  O331  1  0.58997428  0.00978895  0.59002669  1
  O  O332  1  0.57581258  0.02269043  0.91397514  1
  O  O333  1  0.57853958  0.52581663  0.24407277  1
  O  O334  1  0.58337755  0.52382075  0.58026206  1
  O  O335  1  0.57828240  0.52607896  0.91391436  1
  O  O336  1  0.92091688  0.00463700  0.25412791  1
  O  O337  1  0.91263914  -0.00068988  0.57741965  1
  O  O338  1  0.91010409  0.01036362  0.91230825  1
  O  O339  1  0.90472267  0.51335491  0.23830051  1
  O  O340  1  0.90891848  0.51415235  0.57497489  1
  O  O341  1  0.91015950  0.52124124  0.91023191  1
  O  O342  1  0.08423657  0.23470159  0.25098022  1
  O  O343  1  0.08073720  0.24831446  0.57946870  1
  O  O344  1  0.08491335  0.23501550  0.91176717  1
  O  O345  1  0.08613822  0.73334521  0.24396173  1
  O  O346  1  0.07568059  0.72496820  0.58277876  1
  O  O347  1  0.08155370  0.73306149  0.91070904  1
  O  O348  1  0.41166114  0.22776166  0.25821424  1
  O  O349  1  0.42105968  0.24970511  0.58632799  1
  O  O350  1  0.41495468  0.22858648  0.92681876  1
  O  O351  1  0.41289507  0.72526103  0.25626524  1
  O  O352  1  0.41941991  0.73351480  0.58202280  1
  O  O353  1  0.41098041  0.73152527  0.93089784  1
  O  O354  1  0.73926719  0.23317284  0.26299508  1
  O  O355  1  0.74452073  0.23601054  0.59052192  1
  O  O356  1  0.74017718  0.23073635  0.92045295  1
  O  O357  1  0.74039615  0.72849471  0.25884905  1
  O  O358  1  0.74665775  0.71930765  0.58449167  1
  O  O359  1  0.74188126  0.73229856  0.92388557  1
