# generated using pymatgen
data_Ba17Sr5La8Pr42Mn72O216
_symmetry_space_group_name_H-M   'P 1'
_cell_length_a   16.67294947
_cell_length_b   15.70185892
_cell_length_c   16.80804197
_cell_angle_alpha   90.00047317
_cell_angle_beta   89.90898471
_cell_angle_gamma   89.99976299
_symmetry_Int_Tables_number   1
_chemical_formula_structural   Ba17Sr5La8Pr42Mn72O216
_chemical_formula_sum   'Ba17 Sr5 La8 Pr42 Mn72 O216'
_cell_volume   4400.27765017
_cell_formula_units_Z   1
loop_
 _symmetry_equiv_pos_site_id
 _symmetry_equiv_pos_as_xyz
  1  'x, y, z'
loop_
 _atom_site_type_symbol
 _atom_site_label
 _atom_site_symmetry_multiplicity
 _atom_site_fract_x
 _atom_site_fract_y
 _atom_site_fract_z
 _atom_site_occupancy
  Ba  Ba0  1  0.33602260  0.62370413  0.99852563  1
  Ba  Ba1  1  0.33382024  0.12486677  0.66395032  1
  Ba  Ba2  1  -0.00562114  0.12601617  0.66389591  1
  Ba  Ba3  1  0.00083316  0.37453091  0.00209010  1
  Ba  Ba4  1  0.16463872  0.12521439  0.50142139  1
  Ba  Ba5  1  0.33456251  0.87631212  0.66671872  1
  Ba  Ba6  1  0.16720422  0.62554798  0.16789213  1
  Ba  Ba7  1  0.66715446  0.87561663  0.33828343  1
  Ba  Ba8  1  0.00352876  0.87544848  0.00051105  1
  Ba  Ba9  1  0.66815348  0.37447496  0.33675242  1
  Ba  Ba10  1  0.83375778  0.37467371  0.16530735  1
  Ba  Ba11  1  0.66672192  0.87388185  0.00323171  1
  Ba  Ba12  1  0.66866146  0.87310060  0.67114836  1
  Ba  Ba13  1  0.16658005  0.62429254  0.49987883  1
  Ba  Ba14  1  -0.00094937  0.62431324  0.66456534  1
  Ba  Ba15  1  0.49702127  0.12416029  0.16661893  1
  Ba  Ba16  1  0.50036849  0.37585289  0.49636955  1
  Sr  Sr17  1  0.33079382  0.12685788  0.33112093  1
  Sr  Sr18  1  0.33552663  0.62429650  0.32733607  1
  Sr  Sr19  1  -0.00022536  0.62342556  0.99636543  1
  Sr  Sr20  1  0.82529653  0.12435907  0.83333384  1
  Sr  Sr21  1  0.50218310  0.62656331  0.83540739  1
  La  La22  1  0.16153399  0.12460111  0.17190571  1
  La  La23  1  0.16151836  0.12336904  0.83497032  1
  La  La24  1  0.33140006  0.12706212  0.99613272  1
  La  La25  1  -0.00686740  0.12415491  0.33420046  1
  La  La26  1  0.50098901  0.62587456  0.49796068  1
  La  La27  1  0.49867352  0.37425559  0.16617169  1
  La  La28  1  0.00515481  0.37584781  0.33112226  1
  La  La29  1  0.83742230  0.37611705  0.49514123  1
  Pr  Pr30  1  0.65878158  0.12770353  0.33345607  1
  Pr  Pr31  1  0.82350999  0.12336402  0.50491003  1
  Pr  Pr32  1  0.00791465  0.87559776  0.66966911  1
  Pr  Pr33  1  0.16684734  0.62672914  0.84047419  1
  Pr  Pr34  1  0.66835481  0.62325087  1.00040176  1
  Pr  Pr35  1  0.00928204  0.37503554  0.66738237  1
  Pr  Pr36  1  0.17039019  0.37781495  0.83401372  1
  Pr  Pr37  1  0.50482863  0.62719521  0.16946077  1
  Pr  Pr38  1  0.17818254  0.87376213  0.16433335  1
  Pr  Pr39  1  0.33792035  0.87376905  -0.00240265  1
  Pr  Pr40  1  0.66878320  0.37673963  0.66912714  1
  Pr  Pr41  1  0.33247740  0.87550768  0.33450997  1
  Pr  Pr42  1  0.49687465  0.11944438  0.83608541  1
  Pr  Pr43  1  0.83679275  0.62648994  0.16362729  1
  Pr  Pr44  1  0.82710059  0.62677372  0.50154080  1
  Pr  Pr45  1  0.49881605  0.12390299  0.49991640  1
  Pr  Pr46  1  0.32889941  0.37379296  0.66408532  1
  Pr  Pr47  1  0.66186237  0.12748500  0.99852547  1
  Pr  Pr48  1  0.66607890  0.37455162  0.00535894  1
  Pr  Pr49  1  0.49741562  0.87551646  0.49942922  1
  Pr  Pr50  1  0.84167789  0.37549541  0.83028803  1
  Pr  Pr51  1  0.49899995  0.87446678  0.16604851  1
  Pr  Pr52  1  -0.01368944  0.12581528  0.99466149  1
  Pr  Pr53  1  0.33096067  0.37458319  0.33280891  1
  Pr  Pr54  1  0.33621439  0.62508034  0.66244582  1
  Pr  Pr55  1  0.83001921  0.62807246  0.83757481  1
  Pr  Pr56  1  0.00761671  0.87475605  0.33189923  1
  Pr  Pr57  1  0.66898669  0.62139693  0.33265713  1
  Pr  Pr58  1  0.17164639  0.87189067  0.83131463  1
  Pr  Pr59  1  0.50033263  0.37885840  0.82715009  1
  Pr  Pr60  1  0.84280517  0.87415394  0.49949833  1
  Pr  Pr61  1  0.84396428  0.87552813  0.83003000  1
  Pr  Pr62  1  0.50267426  0.86905185  0.82988343  1
  Pr  Pr63  1  0.83738012  0.87460150  0.16235008  1
  Pr  Pr64  1  0.66197949  0.12400338  0.66848985  1
  Pr  Pr65  1  0.33255564  0.37616710  -0.00011550  1
  Pr  Pr66  1  0.66607870  0.62587295  0.66951951  1
  Pr  Pr67  1  0.82559579  0.12382924  0.16517841  1
  Pr  Pr68  1  -0.00237981  0.62506447  0.32888886  1
  Pr  Pr69  1  0.17190097  0.37649316  0.16432794  1
  Pr  Pr70  1  0.16928477  0.37260862  0.50043822  1
  Pr  Pr71  1  0.17052590  0.87629913  0.50338736  1
  Mn  Mn72  1  -0.00026437  0.00116099  0.16628200  1
  Mn  Mn73  1  -0.00136843  -0.00233084  0.49990728  1
  Mn  Mn74  1  -0.00004864  0.00158684  0.83397395  1
  Mn  Mn75  1  0.00038413  0.50106820  0.16582550  1
  Mn  Mn76  1  -0.00071272  0.49984443  0.49820108  1
  Mn  Mn77  1  0.00105104  0.49942528  0.83193373  1
  Mn  Mn78  1  0.33278666  0.00014026  0.16552467  1
  Mn  Mn79  1  0.33387083  -0.00075931  0.49757461  1
  Mn  Mn80  1  0.33263086  0.00159229  0.83474409  1
  Mn  Mn81  1  0.33589581  0.49959500  0.16577908  1
  Mn  Mn82  1  0.33358424  0.50133899  0.49699314  1
  Mn  Mn83  1  0.33478317  0.49881085  0.83046392  1
  Mn  Mn84  1  0.66678332  -0.00059090  0.16983733  1
  Mn  Mn85  1  0.66584384  -0.00163175  0.50299326  1
  Mn  Mn86  1  0.66662748  0.00023686  0.83569331  1
  Mn  Mn87  1  0.66618038  0.50012186  0.16637760  1
  Mn  Mn88  1  0.66745943  0.50312830  0.50206358  1
  Mn  Mn89  1  0.66784671  0.49871247  0.83617601  1
  Mn  Mn90  1  -0.00029429  0.24686734  0.16613164  1
  Mn  Mn91  1  -0.00265173  0.25142284  0.49897929  1
  Mn  Mn92  1  -0.00064104  0.25005334  0.83288542  1
  Mn  Mn93  1  0.00071514  0.75059899  0.16676824  1
  Mn  Mn94  1  0.00040800  0.75086166  0.49870018  1
  Mn  Mn95  1  0.00158542  0.74933884  0.83245974  1
  Mn  Mn96  1  0.33176283  0.25029036  0.16489598  1
  Mn  Mn97  1  0.33404274  0.25065739  0.49773350  1
  Mn  Mn98  1  0.33364223  0.25101667  0.83242547  1
  Mn  Mn99  1  0.33667251  0.75014188  0.16657658  1
  Mn  Mn100  1  0.33339086  0.74884869  0.49718435  1
  Mn  Mn101  1  0.33473644  0.74828448  0.83205484  1
  Mn  Mn102  1  0.66515356  0.24937904  0.16726890  1
  Mn  Mn103  1  0.66656189  0.24875967  0.50269397  1
  Mn  Mn104  1  0.66552546  0.25219578  0.83416527  1
  Mn  Mn105  1  0.66809351  0.74962334  0.17056890  1
  Mn  Mn106  1  0.66616653  0.75094097  0.50224146  1
  Mn  Mn107  1  0.66734828  0.74896048  0.83653321  1
  Mn  Mn108  1  0.16699634  0.24760515  0.00269598  1
  Mn  Mn109  1  0.16455495  0.24939851  0.33291089  1
  Mn  Mn110  1  0.16655220  0.25103766  0.66770504  1
  Mn  Mn111  1  0.16804366  0.75112860  -0.00026761  1
  Mn  Mn112  1  0.16662571  0.75101169  0.33413384  1
  Mn  Mn113  1  0.16844345  0.74819575  0.66809391  1
  Mn  Mn114  1  0.49933317  0.25154936  -0.00358425  1
  Mn  Mn115  1  0.49712949  0.24957573  0.33271994  1
  Mn  Mn116  1  0.50112990  0.25259414  0.66624627  1
  Mn  Mn117  1  0.50131337  0.74930203  0.00058168  1
  Mn  Mn118  1  0.49985579  0.75022339  0.33329103  1
  Mn  Mn119  1  0.50017215  0.74634258  0.66651233  1
  Mn  Mn120  1  0.82943596  0.24940468  -0.00263404  1
  Mn  Mn121  1  0.83464284  0.24730459  0.33440576  1
  Mn  Mn122  1  0.83019397  0.25238914  0.66512436  1
  Mn  Mn123  1  0.83379258  0.75036453  0.00005276  1
  Mn  Mn124  1  0.83530135  0.75140322  0.33316230  1
  Mn  Mn125  1  0.83441293  0.74909341  0.66760554  1
  Mn  Mn126  1  0.16835703  0.00156359  0.00270989  1
  Mn  Mn127  1  0.16536723  -0.00020246  0.33301957  1
  Mn  Mn128  1  0.16636524  0.00013388  0.66796641  1
  Mn  Mn129  1  0.16681995  0.50004459  -0.00072083  1
  Mn  Mn130  1  0.16647930  0.49954223  0.33407406  1
  Mn  Mn131  1  0.16871076  0.50021448  0.66792221  1
  Mn  Mn132  1  0.49928080  -0.00050171  0.00071424  1
  Mn  Mn133  1  0.49742663  -0.00036046  0.33378323  1
  Mn  Mn134  1  0.50164915  0.00012855  0.66779767  1
  Mn  Mn135  1  0.50154478  0.49828407  -0.00188293  1
  Mn  Mn136  1  0.49938448  0.50139236  0.33128541  1
  Mn  Mn137  1  0.49996574  0.50063850  0.66546143  1
  Mn  Mn138  1  0.83093982  -0.00026830  -0.00073915  1
  Mn  Mn139  1  0.83381390  -0.00012342  0.33382954  1
  Mn  Mn140  1  0.83221531  -0.00038233  0.66737449  1
  Mn  Mn141  1  0.83287819  0.50087158  -0.00205773  1
  Mn  Mn142  1  0.83605393  0.50138011  0.33301436  1
  Mn  Mn143  1  0.83237901  0.49943663  0.66530777  1
  O  O144  1  0.17786719  0.12403966  0.02990880  1
  O  O145  1  0.16378676  0.12368832  0.34470444  1
  O  O146  1  0.16432983  0.12873924  0.68649998  1
  O  O147  1  0.16325839  0.62409236  0.00771746  1
  O  O148  1  0.16070168  0.62770815  0.34426117  1
  O  O149  1  0.17175192  0.62179261  0.69272169  1
  O  O150  1  0.49451550  0.12618867  0.01078134  1
  O  O151  1  0.49753095  0.12305021  0.35364687  1
  O  O152  1  0.50276910  0.13164317  0.69291062  1
  O  O153  1  0.50392999  0.62085806  0.02541760  1
  O  O154  1  0.49408681  0.62678368  0.35092802  1
  O  O155  1  0.48739559  0.62212354  0.68684497  1
  O  O156  1  0.82916865  0.12350367  0.01797075  1
  O  O157  1  0.84057590  0.12256086  0.36236943  1
  O  O158  1  0.82610105  0.12702303  0.68380302  1
  O  O159  1  0.82957510  0.62640914  0.01768339  1
  O  O160  1  0.83964609  0.62819800  0.35853587  1
  O  O161  1  0.82929901  0.62263475  0.69425346  1
  O  O162  1  0.16477101  0.37245718  0.30873007  1
  O  O163  1  0.17004651  0.37665552  0.64662862  1
  O  O164  1  0.17357563  0.37314523  0.97823605  1
  O  O165  1  0.16489376  0.87603771  0.30796063  1
  O  O166  1  0.16418037  0.87350396  0.65135604  1
  O  O167  1  0.17473264  0.87906945  0.97533128  1
  O  O168  1  0.49873921  0.37638846  0.31305070  1
  O  O169  1  0.51279135  0.37741367  0.65073009  1
  O  O170  1  0.50927738  0.37405202  0.97108346  1
  O  O171  1  0.49798111  0.87472368  0.31058287  1
  O  O172  1  0.50442221  0.86926981  0.64552801  1
  O  O173  1  0.49763168  0.87779001  0.97418472  1
  O  O174  1  0.83799566  0.37374152  0.32194263  1
  O  O175  1  0.82175216  0.37734047  0.63798322  1
  O  O176  1  0.82365512  0.37534017  0.97685719  1
  O  O177  1  0.83636372  0.87543096  0.30449017  1
  O  O178  1  0.83652377  0.87289911  0.64438476  1
  O  O179  1  0.83279293  0.87563612  0.97690236  1
  O  O180  1  0.00125086  0.37308262  0.18595846  1
  O  O181  1  -0.01168809  0.37721281  0.52113631  1
  O  O182  1  -0.00473948  0.37358410  0.84535983  1
  O  O183  1  -0.01279320  0.87714151  0.18816009  1
  O  O184  1  -0.00979078  0.87356529  0.52467882  1
  O  O185  1  -0.00469558  0.87575969  0.84405950  1
  O  O186  1  0.32994855  0.37487060  0.18703846  1
  O  O187  1  0.32835083  0.37816876  0.51890072  1
  O  O188  1  0.32993975  0.37360919  0.85700531  1
  O  O189  1  0.33395109  0.87513843  0.18877719  1
  O  O190  1  0.33300060  0.87276808  0.51034915  1
  O  O191  1  0.32641140  0.87838813  0.85356306  1
  O  O192  1  0.66122364  0.37553084  0.17931666  1
  O  O193  1  0.67122653  0.37655023  0.52220342  1
  O  O194  1  0.65725813  0.37551623  0.86209798  1
  O  O195  1  0.66756978  0.87381243  0.18238735  1
  O  O196  1  0.65449318  0.87372312  0.51513827  1
  O  O197  1  0.65395233  0.87183861  0.84664768  1
  O  O198  1  0.01159772  0.12276736  0.14037207  1
  O  O199  1  -0.00319941  0.12263366  0.47962764  1
  O  O200  1  0.00693265  0.12733248  0.82126703  1
  O  O201  1  -0.00199099  0.62752950  0.14944910  1
  O  O202  1  -0.00185333  0.62669882  0.47375788  1
  O  O203  1  0.00699145  0.62375662  0.82090174  1
  O  O204  1  0.32758653  0.12513595  0.14132106  1
  O  O205  1  0.34233451  0.12266354  0.48237659  1
  O  O206  1  0.34281835  0.12711099  0.82093028  1
  O  O207  1  0.34371233  0.62533163  0.15585734  1
  O  O208  1  0.33814168  0.62559476  0.47759231  1
  O  O209  1  0.33088122  0.62011510  0.80774291  1
  O  O210  1  0.67170329  0.12408930  0.14475548  1
  O  O211  1  0.67459607  0.12055635  0.47842780  1
  O  O212  1  0.66611017  0.13009793  0.81046939  1
  O  O213  1  0.66389918  0.62468500  0.14451174  1
  O  O214  1  0.67382031  0.62978690  0.47715704  1
  O  O215  1  0.67679009  0.62248097  0.81209411  1
  O  O216  1  0.07111129  0.01407294  0.26080039  1
  O  O217  1  0.07588896  0.00069396  0.58812610  1
  O  O218  1  0.08136880  0.02322760  0.92891518  1
  O  O219  1  0.07560943  0.51074240  0.26018810  1
  O  O220  1  0.08134660  0.50190472  0.58518470  1
  O  O221  1  0.08631444  0.50928654  0.91430971  1
  O  O222  1  0.40712761  0.00906378  0.25393399  1
  O  O223  1  0.42412138  0.00934591  0.57738186  1
  O  O224  1  0.40902966  0.01430396  0.92365628  1
  O  O225  1  0.42879469  0.50935696  0.23692921  1
  O  O226  1  0.41817336  0.51852307  0.57657560  1
  O  O227  1  0.42415797  0.50602906  0.90717525  1
  O  O228  1  0.74761012  0.02526833  0.25981488  1
  O  O229  1  0.74263666  0.01825625  0.59298014  1
  O  O230  1  0.73925668  0.01896538  0.92616567  1
  O  O231  1  0.75249467  0.52314810  0.25156308  1
  O  O232  1  0.74524363  0.52488412  0.59105175  1
  O  O233  1  0.75103537  0.52193578  0.91546901  1
  O  O234  1  0.23937518  0.23726566  0.24204984  1
  O  O235  1  0.24863472  0.24694480  0.58174479  1
  O  O236  1  0.24436469  0.22907942  0.91457741  1
  O  O237  1  0.25542630  0.74520536  0.25291773  1
  O  O238  1  0.25534886  0.73375634  0.58963369  1
  O  O239  1  0.24870424  0.73602258  0.91104322  1
  O  O240  1  0.58349892  0.23505070  0.25259207  1
  O  O241  1  0.58190998  0.22442558  0.58306513  1
  O  O242  1  0.57879797  0.22535468  0.91155074  1
  O  O243  1  0.58895909  0.72629850  0.25822891  1
  O  O244  1  0.58262397  0.72154967  0.58827802  1
  O  O245  1  0.58661542  0.72876295  0.92377359  1
  O  O246  1  0.91178789  0.22354221  0.24319750  1
  O  O247  1  0.90194939  0.23835916  0.56818190  1
  O  O248  1  0.90841585  0.23564475  0.91108309  1
  O  O249  1  0.91290583  0.72794119  0.24641145  1
  O  O250  1  0.90691520  0.73379391  0.57137059  1
  O  O251  1  0.91161926  0.73545108  0.90747585  1
  O  O252  1  0.09069516  0.48372215  0.09050519  1
  O  O253  1  0.08580145  0.47529718  0.42079712  1
  O  O254  1  0.08708533  0.47730789  0.75185458  1
  O  O255  1  0.09733129  0.98209768  0.09883940  1
  O  O256  1  0.08667819  0.97415709  0.42399098  1
  O  O257  1  0.08888336  0.98222911  0.75909958  1
  O  O258  1  0.41645921  0.47318880  0.07504389  1
  O  O259  1  0.40853507  0.48518538  0.40299826  1
  O  O260  1  0.41351309  0.47405655  0.74267059  1
  O  O261  1  0.41921222  0.97608386  0.08558833  1
  O  O262  1  0.41707946  0.97609923  0.41621055  1
  O  O263  1  0.42582047  0.98475248  0.76140126  1
  O  O264  1  0.74126162  0.48982635  0.07560008  1
  O  O265  1  0.75999734  0.49242242  0.42339081  1
  O  O266  1  0.75077236  0.47342284  0.75530473  1
  O  O267  1  0.76077050  0.98641757  0.09539416  1
  O  O268  1  0.75991774  0.98248322  0.43128858  1
  O  O269  1  0.75997719  0.98385497  0.76366186  1
  O  O270  1  0.25601676  0.27343540  0.07738539  1
  O  O271  1  0.24988911  0.27037131  0.41179416  1
  O  O272  1  0.25205830  0.27137738  0.75025477  1
  O  O273  1  0.25503834  0.76988826  0.08218274  1
  O  O274  1  0.24660007  0.77179881  0.41785047  1
  O  O275  1  0.24624703  0.76194290  0.75556678  1
  O  O276  1  0.58277497  0.26566896  0.07608667  1
  O  O277  1  0.58639315  0.24927820  0.41917617  1
  O  O278  1  0.58889197  0.27356411  0.74828202  1
  O  O279  1  0.57617791  0.76239425  0.09707071  1
  O  O280  1  0.57137683  0.75967401  0.42477842  1
  O  O281  1  0.58266729  0.75263574  0.75544783  1
  O  O282  1  0.91888419  0.24949664  0.07728527  1
  O  O283  1  0.92708081  0.26564900  0.40519520  1
  O  O284  1  0.91685739  0.27434330  0.73724004  1
  O  O285  1  0.91440620  0.76238164  0.08573287  1
  O  O286  1  0.92345702  0.77405575  0.40798258  1
  O  O287  1  0.92211096  0.76865395  0.74299895  1
  O  O288  1  0.25268298  0.48079882  0.08143403  1
  O  O289  1  0.24643077  0.47764164  0.41884846  1
  O  O290  1  0.25165144  0.47382806  0.75004997  1
  O  O291  1  0.25869013  0.97522845  0.07597961  1
  O  O292  1  0.25221924  0.98043937  0.40953486  1
  O  O293  1  0.24767088  0.99174102  0.75699406  1
  O  O294  1  0.57782327  0.47869448  0.08561037  1
  O  O295  1  0.58304158  0.50168669  0.41746684  1
  O  O296  1  0.58562101  0.48539893  0.75415254  1
  O  O297  1  0.58035966  0.98796771  0.08587836  1
  O  O298  1  0.57649446  0.99205322  0.42596670  1
  O  O299  1  0.58454406  0.99336931  0.75293552  1
  O  O300  1  0.91373746  0.49655613  0.08028131  1
  O  O301  1  0.92566802  0.48406995  0.40675167  1
  O  O302  1  0.91841416  0.47651791  0.74038130  1
  O  O303  1  0.91952722  0.99371943  0.08008228  1
  O  O304  1  0.92439324  0.97693297  0.40646940  1
  O  O305  1  0.92059743  0.98114696  0.74035956  1
  O  O306  1  0.09640657  0.26453770  0.09719841  1
  O  O307  1  0.08690217  0.27277754  0.42210660  1
  O  O308  1  0.08952060  0.27203143  0.75563654  1
  O  O309  1  0.09054461  0.76939576  0.09440112  1
  O  O310  1  0.08565853  0.77684762  0.42108147  1
  O  O311  1  0.08605185  0.76951094  0.75225557  1
  O  O312  1  0.41814341  0.27433785  0.07851821  1
  O  O313  1  0.41096273  0.26564734  0.40969126  1
  O  O314  1  0.41927690  0.27724517  0.74738071  1
  O  O315  1  0.41694605  0.77435066  0.07993570  1
  O  O316  1  0.41332098  0.77135455  0.40891178  1
  O  O317  1  0.41971179  0.76533318  0.75145325  1
  O  O318  1  0.74673369  0.26095351  0.08049265  1
  O  O319  1  0.76015510  0.25974544  0.42921004  1
  O  O320  1  0.75206493  0.27754572  0.75687220  1
  O  O321  1  0.75585784  0.76054475  0.09324917  1
  O  O322  1  0.76169232  0.76600130  0.42523317  1
  O  O323  1  0.76197389  0.76445996  0.76355702  1
  O  O324  1  0.23999936  0.01170407  0.23748962  1
  O  O325  1  0.24723104  0.00372838  0.57726425  1
  O  O326  1  0.24588541  0.02540448  0.91548084  1
  O  O327  1  0.25413506  0.50570418  0.25521226  1
  O  O328  1  0.25824323  0.51427914  0.59196005  1
  O  O329  1  0.24657104  0.51214879  0.90894834  1
  O  O330  1  0.58480779  0.01551771  0.25738364  1
  O  O331  1  0.58295960  0.02575031  0.58400874  1
  O  O332  1  0.57911767  0.02199840  0.91517759  1
  O  O333  1  0.58628665  0.52328743  0.25237182  1
  O  O334  1  0.58431177  0.52571538  0.58803249  1
  O  O335  1  0.59071668  0.52069493  0.92361806  1
  O  O336  1  0.91069295  0.02508610  0.24093800  1
  O  O337  1  0.90311924  0.01191653  0.56973007  1
  O  O338  1  0.91082629  0.01696575  0.91181849  1
  O  O339  1  0.91460016  0.52259102  0.24742593  1
  O  O340  1  0.90620232  0.51615998  0.56955748  1
  O  O341  1  0.91039281  0.51351363  0.90656129  1
  O  O342  1  0.07281878  0.23224692  0.26014727  1
  O  O343  1  0.07604696  0.25159693  0.58723681  1
  O  O344  1  0.08126572  0.22753764  0.92986958  1
  O  O345  1  0.07296267  0.74195609  0.26037500  1
  O  O346  1  0.08267754  0.74633792  0.58488316  1
  O  O347  1  0.08572288  0.74032296  0.91295249  1
  O  O348  1  0.40918787  0.24336073  0.24821997  1
  O  O349  1  0.42088038  0.24024107  0.57955763  1
  O  O350  1  0.41474791  0.23726395  0.91670660  1
  O  O351  1  0.42940304  0.73980133  0.23971500  1
  O  O352  1  0.41989462  0.73206129  0.57678012  1
  O  O353  1  0.41942801  0.74368333  0.91084565  1
  O  O354  1  0.74858427  0.22570019  0.25800087  1
  O  O355  1  0.73928474  0.23097108  0.59344752  1
  O  O356  1  0.73929408  0.23289439  0.92230260  1
  O  O357  1  0.75082146  0.72448231  0.25406940  1
  O  O358  1  0.74718267  0.72795682  0.59317462  1
  O  O359  1  0.74694129  0.72906096  0.92153013  1
