# generated using pymatgen
data_Ba17Sr5La8Pr42Mn72O216
_symmetry_space_group_name_H-M   'P 1'
_cell_length_a   16.67245557
_cell_length_b   15.69990612
_cell_length_c   16.81926003
_cell_angle_alpha   90.01450960
_cell_angle_beta   89.99802566
_cell_angle_gamma   90.02660319
_symmetry_Int_Tables_number   1
_chemical_formula_structural   Ba17Sr5La8Pr42Mn72O216
_chemical_formula_sum   'Ba17 Sr5 La8 Pr42 Mn72 O216'
_cell_volume   4402.54139740
_cell_formula_units_Z   1
loop_
 _symmetry_equiv_pos_site_id
 _symmetry_equiv_pos_as_xyz
  1  'x, y, z'
loop_
 _atom_site_type_symbol
 _atom_site_label
 _atom_site_symmetry_multiplicity
 _atom_site_fract_x
 _atom_site_fract_y
 _atom_site_fract_z
 _atom_site_occupancy
  Ba  Ba0  1  0.00154325  0.62663630  1.00187789  1
  Ba  Ba1  1  0.66589772  0.62444616  0.66230426  1
  Ba  Ba2  1  0.16735484  0.12470339  0.83537396  1
  Ba  Ba3  1  -0.00054259  0.37598957  0.66994165  1
  Ba  Ba4  1  0.83058318  0.12371133  0.50143138  1
  Ba  Ba5  1  0.66529451  0.62444986  0.32947637  1
  Ba  Ba6  1  0.33182845  0.12546352  1.00082800  1
  Ba  Ba7  1  0.00041834  0.37655991  0.00266120  1
  Ba  Ba8  1  0.50063262  0.87364977  0.16516256  1
  Ba  Ba9  1  0.83224431  0.12513461  0.83389628  1
  Ba  Ba10  1  0.33245008  0.37397246  0.33531410  1
  Ba  Ba11  1  0.00284365  0.87381661  0.00466656  1
  Ba  Ba12  1  0.00108703  0.87469206  0.33724049  1
  Ba  Ba13  1  0.33497958  0.87496144  0.66488973  1
  Ba  Ba14  1  0.83217600  0.12506031  0.16939197  1
  Ba  Ba15  1  0.83278193  0.37402473  0.16527674  1
  Ba  Ba16  1  0.50341346  0.62424964  0.83044502  1
  Sr  Sr17  1  0.83860895  0.37548323  0.83382388  1
  Sr  Sr18  1  0.16320262  0.12639162  0.50071976  1
  Sr  Sr19  1  0.32406904  0.12564854  0.33042184  1
  Sr  Sr20  1  0.49969823  0.62590012  0.16578385  1
  Sr  Sr21  1  -0.00361610  0.12334380  0.33622992  1
  La  La22  1  0.33275516  0.62693529  0.66577318  1
  La  La23  1  0.16026899  0.12505386  0.17193356  1
  La  La24  1  0.16388267  0.62390424  0.16935766  1
  La  La25  1  0.67027549  0.87647292  0.66575152  1
  La  La26  1  0.17332845  0.87795128  0.49659939  1
  La  La27  1  0.32480664  0.12446223  0.66369135  1
  La  La28  1  0.84042747  0.87314535  0.83376282  1
  La  La29  1  0.66732221  0.62463553  0.99523165  1
  Pr  Pr30  1  0.00229440  0.88156036  0.67157282  1
  Pr  Pr31  1  0.66865486  0.37468996  0.33033014  1
  Pr  Pr32  1  0.50435039  0.37766059  0.49308818  1
  Pr  Pr33  1  0.50537688  0.87225806  0.49169365  1
  Pr  Pr34  1  -0.00433401  0.12687715  1.00106713  1
  Pr  Pr35  1  0.33676396  0.87645695  -0.00094832  1
  Pr  Pr36  1  0.33963800  0.87729032  0.33682658  1
  Pr  Pr37  1  0.16746938  0.37501588  0.83414591  1
  Pr  Pr38  1  0.48965208  0.12666874  0.49854741  1
  Pr  Pr39  1  -0.00493351  0.37134399  0.33733503  1
  Pr  Pr40  1  0.83288495  0.37783364  0.49737170  1
  Pr  Pr41  1  0.33184497  0.62560872  0.32832309  1
  Pr  Pr42  1  0.16445591  0.62331065  0.50383289  1
  Pr  Pr43  1  0.17224187  0.87595707  0.16766718  1
  Pr  Pr44  1  0.66353469  0.12613279  0.99798831  1
  Pr  Pr45  1  0.50302049  0.37401376  0.82775690  1
  Pr  Pr46  1  0.49132324  0.12381979  0.16846825  1
  Pr  Pr47  1  0.49604570  0.12359593  0.83226043  1
  Pr  Pr48  1  0.16982662  0.87459009  0.83397346  1
  Pr  Pr49  1  0.67020885  0.87541105  -0.00102994  1
  Pr  Pr50  1  0.66147252  0.12557226  0.65924709  1
  Pr  Pr51  1  0.83488248  0.62183296  0.83665676  1
  Pr  Pr52  1  0.67086181  0.37397631  -0.00247726  1
  Pr  Pr53  1  -0.00217361  0.62256061  0.66978980  1
  Pr  Pr54  1  0.50406288  0.87476193  0.82975164  1
  Pr  Pr55  1  0.50212850  0.37634516  0.16253962  1
  Pr  Pr56  1  -0.00409998  0.62426789  0.33274858  1
  Pr  Pr57  1  0.33591722  0.37405213  0.00355368  1
  Pr  Pr58  1  0.49014667  0.62388026  0.50047288  1
  Pr  Pr59  1  0.16789109  0.37372181  0.16730551  1
  Pr  Pr60  1  0.66094522  0.12544935  0.32698464  1
  Pr  Pr61  1  0.67172908  0.87523754  0.33136454  1
  Pr  Pr62  1  0.67392586  0.37349973  0.66746156  1
  Pr  Pr63  1  0.33436990  0.37397974  0.66746084  1
  Pr  Pr64  1  0.83732628  0.62430991  0.16601009  1
  Pr  Pr65  1  0.15935961  0.37089537  0.49783494  1
  Pr  Pr66  1  0.16998300  0.62454567  0.83801689  1
  Pr  Pr67  1  0.83423918  0.87353582  0.16585842  1
  Pr  Pr68  1  0.00175297  0.13069908  0.66427254  1
  Pr  Pr69  1  0.83609841  0.87213805  0.49848782  1
  Pr  Pr70  1  0.83301285  0.62681501  0.50329706  1
  Pr  Pr71  1  0.33831640  0.62663131  0.99837997  1
  Mn  Mn72  1  0.00022655  -0.00185638  0.16986845  1
  Mn  Mn73  1  0.00048547  0.00017230  0.50475270  1
  Mn  Mn74  1  0.00196213  0.00008643  0.83677462  1
  Mn  Mn75  1  0.00153917  0.50115266  0.17113406  1
  Mn  Mn76  1  -0.00132567  0.50145209  0.50128757  1
  Mn  Mn77  1  0.00265400  0.50079165  0.83500010  1
  Mn  Mn78  1  0.33183281  -0.00048267  0.16809915  1
  Mn  Mn79  1  0.33334006  0.00214739  0.49888247  1
  Mn  Mn80  1  0.33504192  -0.00086656  0.83247717  1
  Mn  Mn81  1  0.33439430  0.49999255  0.16628111  1
  Mn  Mn82  1  0.33069488  0.49870531  0.50061864  1
  Mn  Mn83  1  0.33565242  0.49864649  0.83405428  1
  Mn  Mn84  1  0.66471377  -0.00060669  0.16482457  1
  Mn  Mn85  1  0.66390344  -0.00029153  0.49735295  1
  Mn  Mn86  1  0.66651454  0.00058112  0.83125113  1
  Mn  Mn87  1  0.66496309  0.50035389  0.16259158  1
  Mn  Mn88  1  0.66569510  0.49983298  0.49686459  1
  Mn  Mn89  1  0.66873830  0.49814929  0.83104387  1
  Mn  Mn90  1  0.00048771  0.24926712  0.17018134  1
  Mn  Mn91  1  -0.00251533  0.24911239  0.50180672  1
  Mn  Mn92  1  0.00077624  0.24931297  0.83510268  1
  Mn  Mn93  1  0.00162885  0.74941870  0.17112629  1
  Mn  Mn94  1  0.00164451  0.74816333  0.50494242  1
  Mn  Mn95  1  0.00298927  0.75131234  0.83308789  1
  Mn  Mn96  1  0.33272357  0.25119594  0.16784828  1
  Mn  Mn97  1  0.33151401  0.25045713  0.50089315  1
  Mn  Mn98  1  0.33502970  0.25294174  0.83316103  1
  Mn  Mn99  1  0.33298222  0.74899560  0.16622548  1
  Mn  Mn100  1  0.33264771  0.74912631  0.49753654  1
  Mn  Mn101  1  0.33592656  0.74919220  0.83319954  1
  Mn  Mn102  1  0.66294206  0.24980599  0.16387903  1
  Mn  Mn103  1  0.66345806  0.25054031  0.49748491  1
  Mn  Mn104  1  0.66630008  0.24940969  0.83045796  1
  Mn  Mn105  1  0.66715659  0.74954719  0.16331917  1
  Mn  Mn106  1  0.66587828  0.74966901  0.49721992  1
  Mn  Mn107  1  0.66884774  0.75174822  0.83148863  1
  Mn  Mn108  1  0.16725952  0.25106447  0.00244955  1
  Mn  Mn109  1  0.16250490  0.24978046  0.33437718  1
  Mn  Mn110  1  0.16763741  0.25266941  0.66701210  1
  Mn  Mn111  1  0.17183665  0.74950914  0.00175211  1
  Mn  Mn112  1  0.16863851  0.74837851  0.33597446  1
  Mn  Mn113  1  0.16507529  0.74922847  0.66746892  1
  Mn  Mn114  1  0.50082217  0.25048637  -0.00327545  1
  Mn  Mn115  1  0.49897343  0.25018652  0.33125767  1
  Mn  Mn116  1  0.49910858  0.25040745  0.66328850  1
  Mn  Mn117  1  0.50232401  0.74926234  -0.00190093  1
  Mn  Mn118  1  0.50043241  0.74882268  0.33110800  1
  Mn  Mn119  1  0.50035713  0.75062111  0.66239069  1
  Mn  Mn120  1  0.83203820  0.24887389  -0.00035373  1
  Mn  Mn121  1  0.83044945  0.24979301  0.33545682  1
  Mn  Mn122  1  0.83187818  0.24892191  0.66771478  1
  Mn  Mn123  1  0.83220004  0.75051255  -0.00005138  1
  Mn  Mn124  1  0.83238289  0.74905351  0.33401064  1
  Mn  Mn125  1  0.83554346  0.75169673  0.66706669  1
  Mn  Mn126  1  0.16798980  -0.00145869  0.00274279  1
  Mn  Mn127  1  0.16622482  0.00031679  0.33408058  1
  Mn  Mn128  1  0.16611224  -0.00082983  0.66647804  1
  Mn  Mn129  1  0.17083397  0.50061889  0.00193345  1
  Mn  Mn130  1  0.16483853  0.50023844  0.33671842  1
  Mn  Mn131  1  0.16855659  0.50133899  0.66879516  1
  Mn  Mn132  1  0.50122109  0.00093196  -0.00264787  1
  Mn  Mn133  1  0.49900970  0.00139215  0.33271952  1
  Mn  Mn134  1  0.50032995  0.00074980  0.66357162  1
  Mn  Mn135  1  0.50176351  0.49868967  -0.00207699  1
  Mn  Mn136  1  0.49940550  0.50012839  0.33012359  1
  Mn  Mn137  1  0.49874258  0.49844733  0.66203458  1
  Mn  Mn138  1  0.83261097  0.00002040  0.00153387  1
  Mn  Mn139  1  0.83137163  -0.00063587  0.33488401  1
  Mn  Mn140  1  0.83279316  0.00024681  0.66832155  1
  Mn  Mn141  1  0.83260227  0.50042487  -0.00019455  1
  Mn  Mn142  1  0.83183185  0.50026781  0.33365459  1
  Mn  Mn143  1  0.83337727  0.50065692  0.66722513  1
  O  O144  1  0.16500239  0.12466040  0.02556721  1
  O  O145  1  0.16725921  0.12531282  0.34941277  1
  O  O146  1  0.16687295  0.12733245  0.67717415  1
  O  O147  1  0.18155131  0.62497936  0.02450082  1
  O  O148  1  0.17580916  0.62398413  0.36181832  1
  O  O149  1  0.17001098  0.62565015  0.69420645  1
  O  O150  1  0.50980181  0.12709555  0.02403858  1
  O  O151  1  0.50973210  0.12640580  0.35567129  1
  O  O152  1  0.50820728  0.12695540  0.69042225  1
  O  O153  1  0.50514153  0.62094257  0.01655307  1
  O  O154  1  0.49569244  0.62490378  0.35580863  1
  O  O155  1  0.49459154  0.62341758  0.67464017  1
  O  O156  1  0.83089783  0.12242011  0.01113228  1
  O  O157  1  0.82332422  0.12568949  0.34535757  1
  O  O158  1  0.82062416  0.12368125  0.67783520  1
  O  O159  1  0.82278447  0.62795331  0.01998781  1
  O  O160  1  0.83615965  0.62433724  0.35927647  1
  O  O161  1  0.83432606  0.63047200  0.69193829  1
  O  O162  1  0.15425807  0.37833524  0.31161999  1
  O  O163  1  0.17388419  0.37974887  0.64122437  1
  O  O164  1  0.17104741  0.37895824  0.97881616  1
  O  O165  1  0.17227035  0.87142732  0.31252836  1
  O  O166  1  0.15881622  0.87002967  0.63989898  1
  O  O167  1  0.17218043  0.87103735  0.97814160  1
  O  O168  1  0.50245011  0.37354808  0.30777119  1
  O  O169  1  0.49238308  0.37321465  0.63555866  1
  O  O170  1  0.49503321  0.37397697  0.97143016  1
  O  O171  1  0.49027385  0.87517790  0.32267589  1
  O  O172  1  0.50439086  0.87748789  0.63677395  1
  O  O173  1  0.49693817  0.87730168  0.97511085  1
  O  O174  1  0.83365443  0.37682708  0.32227293  1
  O  O175  1  0.82979870  0.37279721  0.64249241  1
  O  O176  1  0.82586080  0.37470723  0.98523028  1
  O  O177  1  0.82641429  0.87235201  0.31101818  1
  O  O178  1  0.83995325  0.87539549  0.64162805  1
  O  O179  1  0.82730148  0.87529507  0.97793536  1
  O  O180  1  0.00936237  0.37919384  0.19199639  1
  O  O181  1  -0.00329740  0.37798968  0.51380977  1
  O  O182  1  0.00748670  0.37623229  0.84503872  1
  O  O183  1  0.00062142  0.87086313  0.18030622  1
  O  O184  1  -0.00359263  0.87014973  0.52763020  1
  O  O185  1  0.00362002  0.87452778  0.84853249  1
  O  O186  1  0.34058840  0.37614315  0.18035889  1
  O  O187  1  0.33719290  0.37562088  0.52353821  1
  O  O188  1  0.33933060  0.37737191  0.85903730  1
  O  O189  1  0.32795275  0.87148977  0.19391471  1
  O  O190  1  0.33550282  0.87480345  0.50806891  1
  O  O191  1  0.33514809  0.87043888  0.85409717  1
  O  O192  1  0.65930621  0.37303007  0.18645511  1
  O  O193  1  0.65790927  0.37459834  0.52321306  1
  O  O194  1  0.65813649  0.37177099  0.85340528  1
  O  O195  1  0.67154514  0.87428795  0.18731866  1
  O  O196  1  0.65652842  0.87411804  0.52137286  1
  O  O197  1  0.65909330  0.87785601  0.85485591  1
  O  O198  1  0.00783015  0.12168137  0.14673678  1
  O  O199  1  0.00405985  0.12595035  0.48697503  1
  O  O200  1  0.00294669  0.12124789  0.81024098  1
  O  O201  1  -0.00144559  0.62638872  0.15900417  1
  O  O202  1  0.00286865  0.62463679  0.47529983  1
  O  O203  1  0.00401034  0.62876819  0.81339473  1
  O  O204  1  0.33134821  0.12788583  0.15705260  1
  O  O205  1  0.33488577  0.12660743  0.48104999  1
  O  O206  1  0.34060397  0.12951886  0.80785611  1
  O  O207  1  0.32748913  0.62369211  0.14213196  1
  O  O208  1  0.33097819  0.62328447  0.47330639  1
  O  O209  1  0.32795010  0.62276913  0.80826598  1
  O  O210  1  0.65825926  0.12518013  0.14303091  1
  O  O211  1  0.66173328  0.12632383  0.47125847  1
  O  O212  1  0.66084621  0.12509872  0.80275662  1
  O  O213  1  0.66988314  0.62664134  0.14043555  1
  O  O214  1  0.67823553  0.62567069  0.48593787  1
  O  O215  1  0.67634424  0.62562444  0.81922706  1
  O  O216  1  0.07943714  0.01439114  0.25700708  1
  O  O217  1  0.07549251  0.01415293  0.59469734  1
  O  O218  1  0.07834533  0.01588566  0.92848726  1
  O  O219  1  0.08369312  0.52699622  0.25868072  1
  O  O220  1  0.08315317  0.52205247  0.58490384  1
  O  O221  1  0.09199904  0.51649301  0.91548213  1
  O  O222  1  0.41115725  0.01585184  0.25721309  1
  O  O223  1  0.41168183  0.02516428  0.59059972  1
  O  O224  1  0.41968970  0.01507059  0.91507431  1
  O  O225  1  0.41159828  0.52148644  0.25277903  1
  O  O226  1  0.40955608  0.52095715  0.58484301  1
  O  O227  1  0.41320715  0.51796230  0.92149815  1
  O  O228  1  0.73389722  0.01147650  0.25993505  1
  O  O229  1  0.73505786  0.00822722  0.59069311  1
  O  O230  1  0.73696708  0.01222054  0.92636337  1
  O  O231  1  0.75445324  0.51424600  0.24243655  1
  O  O232  1  0.75559460  0.50829505  0.57573048  1
  O  O233  1  0.75472298  0.51622491  0.91260822  1
  O  O234  1  0.24051800  0.24373367  0.24627422  1
  O  O235  1  0.25187957  0.23837644  0.58738892  1
  O  O236  1  0.24931167  0.24823290  0.91502437  1
  O  O237  1  0.24680247  0.72578492  0.24601424  1
  O  O238  1  0.24454220  0.73008176  0.57916528  1
  O  O239  1  0.25620271  0.72810339  0.91873109  1
  O  O240  1  0.57489593  0.22860816  0.24099451  1
  O  O241  1  0.57475630  0.22864823  0.57321677  1
  O  O242  1  0.58066642  0.22695009  0.90965819  1
  O  O243  1  0.58174190  0.74017638  0.24506854  1
  O  O244  1  0.57434626  0.73384609  0.56801923  1
  O  O245  1  0.58868765  0.74001265  0.91644382  1
  O  O246  1  0.91861512  0.24406824  0.25744560  1
  O  O247  1  0.91814440  0.23402154  0.58832552  1
  O  O248  1  0.91898495  0.23706013  0.91988344  1
  O  O249  1  0.91635767  0.72910383  0.25650684  1
  O  O250  1  0.91831954  0.72248111  0.58631546  1
  O  O251  1  0.91184416  0.73705780  0.91036634  1
  O  O252  1  0.09340808  0.49141493  0.09448939  1
  O  O253  1  0.07944414  0.48096669  0.41817113  1
  O  O254  1  0.09276337  0.49008006  0.75561185  1
  O  O255  1  0.09602047  0.98410919  0.09597398  1
  O  O256  1  0.09396765  0.98306762  0.42886276  1
  O  O257  1  0.08869818  0.97764199  0.75531179  1
  O  O258  1  0.42035710  0.48085317  0.08136752  1
  O  O259  1  0.42371209  0.48656714  0.42311944  1
  O  O260  1  0.41787620  0.47673969  0.75031797  1
  O  O261  1  0.41861058  0.99012677  0.08228278  1
  O  O262  1  0.42712212  0.98863641  0.42590615  1
  O  O263  1  0.42956232  0.98531534  0.75590356  1
  O  O264  1  0.74025040  0.48712865  0.07201764  1
  O  O265  1  0.74744087  0.47674987  0.41518475  1
  O  O266  1  0.74893939  0.47951253  0.74597619  1
  O  O267  1  0.75428395  0.97816906  0.08923135  1
  O  O268  1  0.75199704  0.97340690  0.42283962  1
  O  O269  1  0.75464985  0.97479645  0.75558563  1
  O  O270  1  0.25349223  0.27336816  0.08174924  1
  O  O271  1  0.24000436  0.26736089  0.42214507  1
  O  O272  1  0.25561131  0.27441759  0.74873811  1
  O  O273  1  0.25443353  0.77656304  0.08258771  1
  O  O274  1  0.25848951  0.76984244  0.40910174  1
  O  O275  1  0.24456980  0.76528532  0.75547371  1
  O  O276  1  0.58374146  0.27581796  0.07568458  1
  O  O277  1  0.58819849  0.27402985  0.40715059  1
  O  O278  1  0.58547080  0.27423153  0.74024837  1
  O  O279  1  0.58961880  0.76496335  0.07454758  1
  O  O280  1  0.58640355  0.77033338  0.40939300  1
  O  O281  1  0.58811788  0.77092630  0.74609046  1
  O  O282  1  0.92289821  0.25259189  0.08479559  1
  O  O283  1  0.91333197  0.26833626  0.42078050  1
  O  O284  1  0.91891982  0.25435695  0.75034610  1
  O  O285  1  0.90733105  0.75926817  0.09075568  1
  O  O286  1  0.91214792  0.76115200  0.42763975  1
  O  O287  1  0.91968446  0.77111432  0.74631149  1
  O  O288  1  0.25391780  0.47538027  0.08307348  1
  O  O289  1  0.24030166  0.47978340  0.42742138  1
  O  O290  1  0.25414812  0.47453837  0.75204806  1
  O  O291  1  0.25508253  0.97489252  0.08003126  1
  O  O292  1  0.25761352  0.98195216  0.40683388  1
  O  O293  1  0.25045702  0.98691697  0.74817074  1
  O  O294  1  0.58164293  0.47403817  0.07859740  1
  O  O295  1  0.58602287  0.47883444  0.40888867  1
  O  O296  1  0.58343998  0.47736632  0.74315493  1
  O  O297  1  0.59373186  0.98398868  0.06838927  1
  O  O298  1  0.58997076  0.97794723  0.40598936  1
  O  O299  1  0.58964380  0.97894987  0.73902348  1
  O  O300  1  0.91111925  0.49874120  0.08737465  1
  O  O301  1  0.91311047  0.48408396  0.42050070  1
  O  O302  1  0.91626751  0.49752851  0.75263429  1
  O  O303  1  0.91638343  0.98711123  0.08798395  1
  O  O304  1  0.91503458  0.98433168  0.42692528  1
  O  O305  1  0.91995397  0.98009900  0.75348440  1
  O  O306  1  0.09400637  0.26565695  0.09543611  1
  O  O307  1  0.07796669  0.27117260  0.41623253  1
  O  O308  1  0.09299505  0.26528296  0.75645337  1
  O  O309  1  0.09460266  0.75725027  0.09427121  1
  O  O310  1  0.09443902  0.76256607  0.43137265  1
  O  O311  1  0.08374674  0.77211795  0.74795687  1
  O  O312  1  0.42100419  0.26747318  0.08270551  1
  O  O313  1  0.42619585  0.26294023  0.42583376  1
  O  O314  1  0.42079685  0.27415097  0.74956531  1
  O  O315  1  0.41254214  0.76059464  0.07836499  1
  O  O316  1  0.42253564  0.76284846  0.42121213  1
  O  O317  1  0.42248273  0.76537821  0.75404213  1
  O  O318  1  0.74300095  0.25945974  0.08030074  1
  O  O319  1  0.74938929  0.27562455  0.42254334  1
  O  O320  1  0.74957417  0.27156011  0.75114386  1
  O  O321  1  0.74856723  0.77392228  0.07968335  1
  O  O322  1  0.74895505  0.77335321  0.41532847  1
  O  O323  1  0.75436288  0.77676151  0.75006357  1
  O  O324  1  0.23856964  0.01223476  0.24209396  1
  O  O325  1  0.24515253  0.01060692  0.57751435  1
  O  O326  1  0.24914783  0.00168840  0.91559076  1
  O  O327  1  0.24724035  0.51734081  0.25203079  1
  O  O328  1  0.24919547  0.52595449  0.58772368  1
  O  O329  1  0.25332047  0.52060028  0.91602180  1
  O  O330  1  0.57374393  0.02023365  0.24191051  1
  O  O331  1  0.57453882  0.02423115  0.57296371  1
  O  O332  1  0.57783518  0.02191248  0.90586343  1
  O  O333  1  0.57755720  0.51019519  0.24070392  1
  O  O334  1  0.57354156  0.51396498  0.56782362  1
  O  O335  1  0.59000013  0.50959775  0.91986139  1
  O  O336  1  0.91137119  0.00540090  0.25289264  1
  O  O337  1  0.92002308  0.01678780  0.59411597  1
  O  O338  1  0.91777170  0.01188381  0.92029398  1
  O  O339  1  0.91792993  0.51889493  0.25653550  1
  O  O340  1  0.91710959  0.52552058  0.58390860  1
  O  O341  1  0.91436985  0.51540753  0.91483723  1
  O  O342  1  0.08002891  0.23049171  0.25387521  1
  O  O343  1  0.08259709  0.24042379  0.58483653  1
  O  O344  1  0.07818391  0.23357935  0.92869386  1
  O  O345  1  0.08308016  0.72738259  0.26254427  1
  O  O346  1  0.08063274  0.71989479  0.58940787  1
  O  O347  1  0.09554597  0.73594369  0.91195652  1
  O  O348  1  0.41548384  0.23040193  0.25190372  1
  O  O349  1  0.41255840  0.22507182  0.59094462  1
  O  O350  1  0.42192101  0.23320402  0.91054412  1
  O  O351  1  0.40992283  0.73121829  0.25446321  1
  O  O352  1  0.40889861  0.72875334  0.58138126  1
  O  O353  1  0.41524527  0.73382640  0.92011735  1
  O  O354  1  0.73600004  0.24101608  0.25917948  1
  O  O355  1  0.73539605  0.23930302  0.58994742  1
  O  O356  1  0.73923340  0.23734836  0.92102522  1
  O  O357  1  0.75636262  0.73500046  0.23914075  1
  O  O358  1  0.75686722  0.74341085  0.57754740  1
  O  O359  1  0.75176268  0.73502117  0.91451137  1
