# generated using pymatgen
data_Ba17Sr5La8Pr42Mn72O216
_symmetry_space_group_name_H-M   'P 1'
_cell_length_a   16.67235392
_cell_length_b   15.69581934
_cell_length_c   16.81408757
_cell_angle_alpha   89.99596162
_cell_angle_beta   90.02498726
_cell_angle_gamma   89.99786970
_symmetry_Int_Tables_number   1
_chemical_formula_structural   Ba17Sr5La8Pr42Mn72O216
_chemical_formula_sum   'Ba17 Sr5 La8 Pr42 Mn72 O216'
_cell_volume   4400.01517837
_cell_formula_units_Z   1
loop_
 _symmetry_equiv_pos_site_id
 _symmetry_equiv_pos_as_xyz
  1  'x, y, z'
loop_
 _atom_site_type_symbol
 _atom_site_label
 _atom_site_symmetry_multiplicity
 _atom_site_fract_x
 _atom_site_fract_y
 _atom_site_fract_z
 _atom_site_occupancy
  Ba  Ba0  1  0.16601984  0.87418122  0.49529719  1
  Ba  Ba1  1  0.16847186  0.62568633  0.83183908  1
  Ba  Ba2  1  0.50211232  0.87403938  0.16527695  1
  Ba  Ba3  1  0.83325498  0.62488960  0.83802492  1
  Ba  Ba4  1  0.33604705  0.12699432  0.99700062  1
  Ba  Ba5  1  0.16747915  0.12401261  0.83116205  1
  Ba  Ba6  1  0.82992291  0.37540842  0.83409046  1
  Ba  Ba7  1  0.66592215  0.87648820  0.67039518  1
  Ba  Ba8  1  0.49893787  0.87519568  0.83140215  1
  Ba  Ba9  1  0.83205615  0.87506339  0.83834196  1
  Ba  Ba10  1  0.66601300  0.37277344  0.67074766  1
  Ba  Ba11  1  0.33451085  0.12568404  0.33145235  1
  Ba  Ba12  1  0.16489490  0.37463458  0.83071378  1
  Ba  Ba13  1  0.50150173  0.87418771  0.49756357  1
  Ba  Ba14  1  0.16117560  0.37575916  0.49689445  1
  Ba  Ba15  1  0.16709914  0.87419403  0.16710014  1
  Ba  Ba16  1  0.66809601  0.87414762  0.33537786  1
  Sr  Sr17  1  0.83513260  0.12539835  0.50252858  1
  Sr  Sr18  1  0.33260161  0.87702887  0.33388305  1
  Sr  Sr19  1  0.82749245  0.37237689  0.50410035  1
  Sr  Sr20  1  0.32441355  0.37506315  -0.00398292  1
  Sr  Sr21  1  0.16677662  0.87676132  0.83080275  1
  La  La22  1  0.00319321  0.12630447  0.33108459  1
  La  La23  1  0.00442730  0.62362455  0.33145994  1
  La  La24  1  0.34035744  0.62681912  0.99484205  1
  La  La25  1  0.33637251  0.62466999  0.66489964  1
  La  La26  1  0.32645937  0.37617793  0.66746972  1
  La  La27  1  0.50505573  0.62369628  0.83202820  1
  La  La28  1  0.33574482  0.12537524  0.66338098  1
  La  La29  1  0.00235435  0.62466399  0.66735877  1
  Pr  Pr30  1  0.66113747  0.37391137  0.34515363  1
  Pr  Pr31  1  0.67124599  0.62535015  0.33823347  1
  Pr  Pr32  1  0.82763698  0.37265313  0.16686248  1
  Pr  Pr33  1  0.00754556  0.87344333  -0.00175372  1
  Pr  Pr34  1  0.50629468  0.12301718  0.50103575  1
  Pr  Pr35  1  0.66412198  0.12441681  1.00459136  1
  Pr  Pr36  1  0.17585260  0.62512038  0.16505095  1
  Pr  Pr37  1  0.83745348  0.87829964  0.16276579  1
  Pr  Pr38  1  0.17504683  0.12337820  0.16515297  1
  Pr  Pr39  1  0.00034791  0.12329192  0.99611104  1
  Pr  Pr40  1  0.32103292  0.37526820  0.33245892  1
  Pr  Pr41  1  0.17531858  0.62726601  0.50241356  1
  Pr  Pr42  1  -0.00061383  0.87529055  0.66779509  1
  Pr  Pr43  1  0.66458149  0.37773535  0.00437574  1
  Pr  Pr44  1  0.32945682  0.87481478  0.66747037  1
  Pr  Pr45  1  0.83573512  0.62523711  0.17022597  1
  Pr  Pr46  1  0.67320791  0.12233029  0.66991879  1
  Pr  Pr47  1  0.50328142  0.12593819  0.83300005  1
  Pr  Pr48  1  0.50691390  0.62545100  0.50208314  1
  Pr  Pr49  1  -0.00148479  0.37652508  -0.00274360  1
  Pr  Pr50  1  0.83369287  0.87626698  0.49936415  1
  Pr  Pr51  1  0.66859152  0.87260825  0.00763972  1
  Pr  Pr52  1  0.48804914  0.37571348  0.16334530  1
  Pr  Pr53  1  0.17440749  0.12297982  0.50110849  1
  Pr  Pr54  1  0.66680861  0.12350479  0.33685073  1
  Pr  Pr55  1  -0.00589923  0.37333909  0.67000767  1
  Pr  Pr56  1  0.83043962  0.12566338  0.83571817  1
  Pr  Pr57  1  0.32503518  0.87611563  0.00108673  1
  Pr  Pr58  1  0.66753481  0.62595000  1.00140697  1
  Pr  Pr59  1  0.50348543  0.12711435  0.17295641  1
  Pr  Pr60  1  0.33665046  0.62959745  0.33346180  1
  Pr  Pr61  1  0.83603858  0.12439148  0.17411131  1
  Pr  Pr62  1  0.49197804  0.37558392  0.49712828  1
  Pr  Pr63  1  0.00453526  0.12436059  0.66329922  1
  Pr  Pr64  1  0.83429260  0.62486963  0.50686099  1
  Pr  Pr65  1  0.67390290  0.62723901  0.67166915  1
  Pr  Pr66  1  -0.00130479  0.87515888  0.33500148  1
  Pr  Pr67  1  -0.01363861  0.37533050  0.33710096  1
  Pr  Pr68  1  0.00335190  0.62649961  0.99517570  1
  Pr  Pr69  1  0.50547737  0.62229896  0.17016087  1
  Pr  Pr70  1  0.49276399  0.37383165  0.83098588  1
  Pr  Pr71  1  0.16112266  0.37152290  0.15992857  1
  Mn  Mn72  1  0.00139665  0.00139683  0.16438612  1
  Mn  Mn73  1  -0.00018705  0.00159234  0.49764474  1
  Mn  Mn74  1  -0.00146963  -0.00008659  0.83135990  1
  Mn  Mn75  1  -0.00059535  0.49954655  0.16668873  1
  Mn  Mn76  1  -0.00345408  0.50007608  0.49786327  1
  Mn  Mn77  1  -0.00052103  0.50023330  0.83323692  1
  Mn  Mn78  1  0.33577580  -0.00109819  0.16456684  1
  Mn  Mn79  1  0.33549620  0.00061773  0.49799701  1
  Mn  Mn80  1  0.33392321  -0.00085899  0.83136954  1
  Mn  Mn81  1  0.33277406  0.50083986  0.16441516  1
  Mn  Mn82  1  0.33418070  0.49883720  0.49624358  1
  Mn  Mn83  1  0.33420277  0.50066318  0.83154783  1
  Mn  Mn84  1  0.66959754  0.00276212  0.16928687  1
  Mn  Mn85  1  0.66942719  0.00176503  0.50227563  1
  Mn  Mn86  1  0.66582787  0.00303499  0.83817541  1
  Mn  Mn87  1  0.66748717  0.49800865  0.17300690  1
  Mn  Mn88  1  0.66594853  0.49922593  0.50373538  1
  Mn  Mn89  1  0.66457621  0.49932915  0.83719308  1
  Mn  Mn90  1  -0.00065482  0.25083546  0.16529654  1
  Mn  Mn91  1  -0.00261664  0.24977497  0.49834542  1
  Mn  Mn92  1  -0.00262414  0.24800639  0.83206329  1
  Mn  Mn93  1  0.00007929  0.74804800  0.16544537  1
  Mn  Mn94  1  -0.00122182  0.74866918  0.49714904  1
  Mn  Mn95  1  0.00095493  0.75164858  0.83249522  1
  Mn  Mn96  1  0.33276138  0.25161394  0.16408051  1
  Mn  Mn97  1  0.33364573  0.25140802  0.49685796  1
  Mn  Mn98  1  0.33398633  0.25091485  0.82978087  1
  Mn  Mn99  1  0.33593330  0.74900026  0.16392711  1
  Mn  Mn100  1  0.33585272  0.74921272  0.49763977  1
  Mn  Mn101  1  0.33428551  0.74971743  0.83155773  1
  Mn  Mn102  1  0.66598665  0.25298467  0.17237774  1
  Mn  Mn103  1  0.66545077  0.24946569  0.50388671  1
  Mn  Mn104  1  0.66456934  0.24870377  0.83828507  1
  Mn  Mn105  1  0.67083786  0.74636489  0.16990003  1
  Mn  Mn106  1  0.66927783  0.74811963  0.50221256  1
  Mn  Mn107  1  0.66625541  0.74943026  0.83720623  1
  Mn  Mn108  1  0.16448380  0.25051265  -0.00169469  1
  Mn  Mn109  1  0.16258854  0.25071019  0.32909396  1
  Mn  Mn110  1  0.16579414  0.24917798  0.66241212  1
  Mn  Mn111  1  0.16716022  0.74838998  -0.00086653  1
  Mn  Mn112  1  0.16592438  0.74750134  0.33181485  1
  Mn  Mn113  1  0.16677902  0.75044812  0.66482160  1
  Mn  Mn114  1  0.50044153  0.25252546  0.00133653  1
  Mn  Mn115  1  0.50011536  0.25329821  0.33322093  1
  Mn  Mn116  1  0.49932487  0.25047264  0.66533931  1
  Mn  Mn117  1  0.50238215  0.74997139  -0.00087688  1
  Mn  Mn118  1  0.50002984  0.74755705  0.33327670  1
  Mn  Mn119  1  0.49923881  0.74820160  0.66598032  1
  Mn  Mn120  1  0.83303942  0.24946211  0.00392771  1
  Mn  Mn121  1  0.83118781  0.24909564  0.33582753  1
  Mn  Mn122  1  0.83479405  0.24755048  0.66776769  1
  Mn  Mn123  1  0.83531756  0.75033152  0.00627601  1
  Mn  Mn124  1  0.83539695  0.74861832  0.33562050  1
  Mn  Mn125  1  0.83487349  0.75041517  0.66783721  1
  Mn  Mn126  1  0.16645548  0.00046636  -0.00182544  1
  Mn  Mn127  1  0.16580757  0.00123503  0.33172326  1
  Mn  Mn128  1  0.16736675  -0.00092558  0.66428888  1
  Mn  Mn129  1  0.16514788  0.49956686  0.00072138  1
  Mn  Mn130  1  0.16443091  0.50162972  0.32959054  1
  Mn  Mn131  1  0.16508084  0.50174210  0.66234148  1
  Mn  Mn132  1  0.50163135  0.00021813  -0.00044084  1
  Mn  Mn133  1  0.50034140  0.00029498  0.33345370  1
  Mn  Mn134  1  0.49852892  0.00172740  0.66646306  1
  Mn  Mn135  1  0.50007192  0.49841505  0.00099324  1
  Mn  Mn136  1  0.49930956  0.49916803  0.33280089  1
  Mn  Mn137  1  0.50044657  0.49915037  0.66558201  1
  Mn  Mn138  1  0.83445771  0.00355508  0.00424424  1
  Mn  Mn139  1  0.83487489  0.00098745  0.33520432  1
  Mn  Mn140  1  0.83608559  0.00078566  0.66762442  1
  Mn  Mn141  1  0.83328557  0.49721219  0.00587959  1
  Mn  Mn142  1  0.83141676  0.50006282  0.33668410  1
  Mn  Mn143  1  0.83439034  0.50023116  0.66764653  1
  O  O144  1  0.15789378  0.12692128  0.02026124  1
  O  O145  1  0.15829372  0.12791672  0.35547074  1
  O  O146  1  0.16604000  0.12392679  0.67365194  1
  O  O147  1  0.15836522  0.62267427  0.02142063  1
  O  O148  1  0.16010382  0.62161602  0.35767563  1
  O  O149  1  0.16483080  0.62643030  0.67416256  1
  O  O150  1  0.50535323  0.12868516  0.03002188  1
  O  O151  1  0.50275689  0.13189541  0.35379722  1
  O  O152  1  0.48758294  0.12910745  0.68888683  1
  O  O153  1  0.49933091  0.62135499  0.02729244  1
  O  O154  1  0.48825361  0.61962326  0.35588672  1
  O  O155  1  0.48896190  0.62074498  0.68747898  1
  O  O156  1  0.84309433  0.12940758  0.03144871  1
  O  O157  1  0.84053506  0.12512928  0.35224241  1
  O  O158  1  0.83963546  0.12375438  0.68957578  1
  O  O159  1  0.83704823  0.62092453  0.02636159  1
  O  O160  1  0.83565787  0.62192293  0.36172233  1
  O  O161  1  0.83401796  0.62604808  0.67844003  1
  O  O162  1  0.16936578  0.37929401  0.30470889  1
  O  O163  1  0.16521752  0.37583262  0.65318848  1
  O  O164  1  0.16050279  0.37593891  0.99001283  1
  O  O165  1  0.16119690  0.87334681  0.32202288  1
  O  O166  1  0.16649409  0.87442694  0.65048326  1
  O  O167  1  0.16757531  0.87357547  0.98536673  1
  O  O168  1  0.51503606  0.37800332  0.30750701  1
  O  O169  1  0.50199979  0.37519093  0.63945735  1
  O  O170  1  0.51165616  0.37723111  0.97546457  1
  O  O171  1  0.50095649  0.86976370  0.32309827  1
  O  O172  1  0.49506468  0.87416529  0.65419646  1
  O  O173  1  0.51506512  0.87351534  0.98833068  1
  O  O174  1  0.83047766  0.37572742  0.31053246  1
  O  O175  1  0.84088801  0.37446575  0.65237970  1
  O  O176  1  0.82768288  0.37180475  0.98907156  1
  O  O177  1  0.83834319  0.87524900  0.30756623  1
  O  O178  1  0.83855776  0.87534855  0.64324240  1
  O  O179  1  0.81917642  0.87930866  0.99690333  1
  O  O180  1  0.00972008  0.37194318  0.19576777  1
  O  O181  1  -0.00308642  0.37507098  0.52530194  1
  O  O182  1  -0.00060739  0.37293924  0.84996953  1
  O  O183  1  -0.00372043  0.87087004  0.19310519  1
  O  O184  1  -0.00383236  0.87435623  0.52316629  1
  O  O185  1  0.00379871  0.87652432  0.85318301  1
  O  O186  1  0.33155874  0.37863361  0.18890412  1
  O  O187  1  0.33817739  0.37645758  0.52125088  1
  O  O188  1  0.34038921  0.37671901  0.84575471  1
  O  O189  1  0.33460504  0.87045882  0.18072933  1
  O  O190  1  0.33486625  0.87375825  0.52122692  1
  O  O191  1  0.33395908  0.87129744  0.85578771  1
  O  O192  1  0.67676948  0.37610971  0.20262224  1
  O  O193  1  0.66029719  0.37496623  0.51353445  1
  O  O194  1  0.65926700  0.37286560  0.85868554  1
  O  O195  1  0.67970571  0.87469492  0.17587666  1
  O  O196  1  0.67369696  0.87360623  0.51237200  1
  O  O197  1  0.66494489  0.87907591  0.86089989  1
  O  O198  1  -0.01203807  0.13144286  0.13922970  1
  O  O199  1  -0.00190106  0.12672627  0.47333279  1
  O  O200  1  -0.00988507  0.12319503  0.81055716  1
  O  O201  1  -0.01332714  0.62503848  0.13778483  1
  O  O202  1  -0.01314896  0.62439170  0.47261401  1
  O  O203  1  -0.00136661  0.62690858  0.81750281  1
  O  O204  1  0.33465082  0.12734648  0.15532458  1
  O  O205  1  0.33198280  0.12871248  0.48873050  1
  O  O206  1  0.34085106  0.12759181  0.80993924  1
  O  O207  1  0.33665206  0.62230404  0.13911701  1
  O  O208  1  0.33481716  0.62026380  0.47755343  1
  O  O209  1  0.33998085  0.62472166  0.81088725  1
  O  O210  1  0.65940098  0.13191566  0.14755186  1
  O  O211  1  0.66374691  0.12862412  0.48061188  1
  O  O212  1  0.66186796  0.12721411  0.81592762  1
  O  O213  1  0.66587164  0.61826350  0.14426642  1
  O  O214  1  0.67298315  0.62190145  0.48202248  1
  O  O215  1  0.66183113  0.62153324  0.81815582  1
  O  O216  1  0.08367553  0.02565933  0.24318731  1
  O  O217  1  0.08689221  0.02132088  0.57351419  1
  O  O218  1  0.07638312  0.01233874  0.91968749  1
  O  O219  1  0.08990142  0.52542570  0.23779597  1
  O  O220  1  0.08599935  0.52439243  0.57043884  1
  O  O221  1  0.08198041  0.51271414  0.91919648  1
  O  O222  1  0.42567319  0.01419925  0.24137307  1
  O  O223  1  0.42187684  0.02196535  0.57825545  1
  O  O224  1  0.42443080  0.01519150  0.90612392  1
  O  O225  1  0.42592888  0.51442877  0.23986438  1
  O  O226  1  0.42665748  0.51581780  0.57332111  1
  O  O227  1  0.42469313  0.51733888  0.91012366  1
  O  O228  1  0.74934645  0.02497852  0.25639276  1
  O  O229  1  0.75031302  0.01920786  0.58982480  1
  O  O230  1  0.74904526  0.02656315  0.92787384  1
  O  O231  1  0.75683536  0.52558928  0.24850515  1
  O  O232  1  0.75570364  0.51599813  0.58052936  1
  O  O233  1  0.74628563  0.51110954  0.92945470  1
  O  O234  1  0.24529785  0.24003357  0.24674265  1
  O  O235  1  0.25238457  0.23517775  0.58320455  1
  O  O236  1  0.25189351  0.24536965  0.91559758  1
  O  O237  1  0.25314362  0.72567359  0.25002662  1
  O  O238  1  0.25617376  0.73040229  0.58417600  1
  O  O239  1  0.25985071  0.73522423  0.92366484  1
  O  O240  1  0.59150478  0.22953333  0.26079406  1
  O  O241  1  0.58769441  0.22267260  0.59272090  1
  O  O242  1  0.58857452  0.22806278  0.92793406  1
  O  O243  1  0.58516834  0.72495534  0.24955675  1
  O  O244  1  0.58577024  0.72591254  0.58549468  1
  O  O245  1  0.58395328  0.72569855  0.91932503  1
  O  O246  1  0.92172148  0.23610524  0.25078115  1
  O  O247  1  0.92558257  0.23211408  0.58875351  1
  O  O248  1  0.91536368  0.22983419  0.91991142  1
  O  O249  1  0.91720550  0.72578088  0.25078070  1
  O  O250  1  0.91797565  0.73146427  0.57966392  1
  O  O251  1  0.92093337  0.74210003  0.92792478  1
  O  O252  1  0.07338751  0.48019766  0.07871149  1
  O  O253  1  0.06671321  0.48485517  0.40187134  1
  O  O254  1  0.07524108  0.49159368  0.73516486  1
  O  O255  1  0.07975496  0.98814548  0.07770424  1
  O  O256  1  0.07274101  0.98847161  0.40467657  1
  O  O257  1  0.07884566  0.98799981  0.73884985  1
  O  O258  1  0.41260638  0.47888168  0.07675306  1
  O  O259  1  0.41070869  0.47318290  0.40452901  1
  O  O260  1  0.41367561  0.47791638  0.73818331  1
  O  O261  1  0.41399643  0.98206976  0.07131835  1
  O  O262  1  0.41457355  0.99184448  0.41360687  1
  O  O263  1  0.40560223  0.98631093  0.73680291  1
  O  O264  1  0.74592294  0.47667249  0.08853621  1
  O  O265  1  0.73780588  0.48533105  0.40816444  1
  O  O266  1  0.74412808  0.49660800  0.74784991  1
  O  O267  1  0.76165061  0.99870112  0.09714173  1
  O  O268  1  0.75794460  0.98929966  0.42393504  1
  O  O269  1  0.75083049  1.00026010  0.75849738  1
  O  O270  1  0.24116709  0.26284264  0.08760610  1
  O  O271  1  0.24764077  0.26540846  0.41169391  1
  O  O272  1  0.25290866  0.25996094  0.74319647  1
  O  O273  1  0.25059250  0.75589473  0.08200087  1
  O  O274  1  0.24973717  0.75062973  0.41685477  1
  O  O275  1  0.25021439  0.76667579  0.74991439  1
  O  O276  1  0.58122298  0.27821076  0.09653087  1
  O  O277  1  0.57250073  0.26869621  0.42516335  1
  O  O278  1  0.56926172  0.26153171  0.76146281  1
  O  O279  1  0.59718596  0.75654015  0.07882052  1
  O  O280  1  0.58652553  0.74331754  0.41717688  1
  O  O281  1  0.57826798  0.74808841  0.74894551  1
  O  O282  1  0.91576625  0.27892165  0.08903750  1
  O  O283  1  0.91002467  0.27053802  0.41950151  1
  O  O284  1  0.91698835  0.26393788  0.74931913  1
  O  O285  1  0.91888896  0.77707827  0.08525756  1
  O  O286  1  0.91611582  0.77635005  0.41628640  1
  O  O287  1  0.92098242  0.76516897  0.74365017  1
  O  O288  1  0.23708361  0.48703764  0.09497740  1
  O  O289  1  0.24837356  0.48661694  0.41160058  1
  O  O290  1  0.25196581  0.49178929  0.74372968  1
  O  O291  1  0.25107597  0.99075879  0.08004763  1
  O  O292  1  0.24648664  0.99604740  0.41790784  1
  O  O293  1  0.24973181  0.98299024  0.74778780  1
  O  O294  1  0.57980435  0.47673577  0.09490381  1
  O  O295  1  0.57247935  0.48739760  0.42633356  1
  O  O296  1  0.57050982  0.48706003  0.76052381  1
  O  O297  1  0.59753463  0.99025525  0.07853138  1
  O  O298  1  0.58589340  1.00045957  0.41659912  1
  O  O299  1  0.57861154  1.00129743  0.75051213  1
  O  O300  1  0.91053339  0.47316056  0.09452906  1
  O  O301  1  0.90668580  0.47691136  0.42268078  1
  O  O302  1  0.91812045  0.48883779  0.74680681  1
  O  O303  1  0.92193910  0.97638569  0.07989574  1
  O  O304  1  0.91622235  0.97572063  0.41672442  1
  O  O305  1  0.92037376  0.98022587  0.74505547  1
  O  O306  1  0.07512552  0.27066890  0.08180432  1
  O  O307  1  0.06963705  0.26804533  0.40019701  1
  O  O308  1  0.07489506  0.25728524  0.73672813  1
  O  O309  1  0.07619592  0.76103490  0.07657014  1
  O  O310  1  0.07192627  0.75952159  0.40546404  1
  O  O311  1  0.07841178  0.76380299  0.73949404  1
  O  O312  1  0.41465702  0.27367390  0.07655647  1
  O  O313  1  0.41188292  0.27860241  0.40527101  1
  O  O314  1  0.41135511  0.27415974  0.73716238  1
  O  O315  1  0.41201261  0.76393453  0.07036439  1
  O  O316  1  0.41050239  0.75752918  0.40928449  1
  O  O317  1  0.40582582  0.76202332  0.73748933  1
  O  O318  1  0.74400804  0.27009919  0.08655735  1
  O  O319  1  0.73804552  0.26278247  0.41088774  1
  O  O320  1  0.74695254  0.24926714  0.75333766  1
  O  O321  1  0.76334224  0.75547703  0.09958042  1
  O  O322  1  0.75931035  0.76002234  0.42637899  1
  O  O323  1  0.74681819  0.75563111  0.75468201  1
  O  O324  1  0.24582979  0.01310101  0.24676442  1
  O  O325  1  0.25546010  0.01600483  0.58549599  1
  O  O326  1  0.25186400  0.00420986  0.91708464  1
  O  O327  1  0.25807182  0.52661085  0.25298854  1
  O  O328  1  0.25321436  0.51885769  0.58231757  1
  O  O329  1  0.25700471  0.51385927  0.92813151  1
  O  O330  1  0.58603521  0.02107831  0.24970876  1
  O  O331  1  0.58488548  0.02325915  0.58710658  1
  O  O332  1  0.58397475  0.02710954  0.91997045  1
  O  O333  1  0.59036312  0.52603172  0.26034763  1
  O  O334  1  0.58899491  0.52740825  0.59267757  1
  O  O335  1  0.58758359  0.52179151  0.92825233  1
  O  O336  1  0.91639511  0.01840642  0.24782364  1
  O  O337  1  0.92333285  0.01776443  0.58378436  1
  O  O338  1  0.91163590  0.02095226  0.91817906  1
  O  O339  1  0.92314212  0.51564137  0.25712532  1
  O  O340  1  0.92194685  0.52087441  0.58602899  1
  O  O341  1  0.92270953  0.50833195  0.93151351  1
  O  O342  1  0.08573932  0.22337778  0.23781808  1
  O  O343  1  0.08696767  0.22752798  0.57192467  1
  O  O344  1  0.07544792  0.23562979  0.91943914  1
  O  O345  1  0.08527053  0.72305122  0.24118784  1
  O  O346  1  0.08438661  0.72763648  0.57232160  1
  O  O347  1  0.08269917  0.73899853  0.91839132  1
  O  O348  1  0.42979430  0.24423978  0.23888012  1
  O  O349  1  0.42744478  0.23552004  0.57244551  1
  O  O350  1  0.42755629  0.24057289  0.90150916  1
  O  O351  1  0.42005787  0.72416305  0.24315668  1
  O  O352  1  0.42145796  0.72628187  0.57701758  1
  O  O353  1  0.42217038  0.72826520  0.91020034  1
  O  O354  1  0.75440773  0.22615193  0.24790770  1
  O  O355  1  0.75299643  0.23207402  0.58658800  1
  O  O356  1  0.75141928  0.22482822  0.92254622  1
  O  O357  1  0.74984167  0.72308846  0.25795280  1
  O  O358  1  0.75026291  0.72988877  0.58667701  1
  O  O359  1  0.74440569  0.73741398  0.93527238  1
