# generated using pymatgen
data_Ba17Sr5La8Pr42Mn72O216
_symmetry_space_group_name_H-M   'P 1'
_cell_length_a   16.67277585
_cell_length_b   15.71081479
_cell_length_c   16.81743230
_cell_angle_alpha   90.00985825
_cell_angle_beta   90.02624249
_cell_angle_gamma   90.02460653
_symmetry_Int_Tables_number   1
_chemical_formula_structural   Ba17Sr5La8Pr42Mn72O216
_chemical_formula_sum   'Ba17 Sr5 La8 Pr42 Mn72 O216'
_cell_volume   4405.20594280
_cell_formula_units_Z   1
loop_
 _symmetry_equiv_pos_site_id
 _symmetry_equiv_pos_as_xyz
  1  'x, y, z'
loop_
 _atom_site_type_symbol
 _atom_site_label
 _atom_site_symmetry_multiplicity
 _atom_site_fract_x
 _atom_site_fract_y
 _atom_site_fract_z
 _atom_site_occupancy
  Ba  Ba0  1  0.50152405  0.12365945  0.16786538  1
  Ba  Ba1  1  -0.00105066  0.62646974  0.66374321  1
  Ba  Ba2  1  0.33401079  0.87411625  0.00271622  1
  Ba  Ba3  1  0.16720618  0.12358439  0.16916236  1
  Ba  Ba4  1  0.33263307  0.87665992  0.67175690  1
  Ba  Ba5  1  0.66793167  0.62744053  0.99574452  1
  Ba  Ba6  1  0.66785145  0.12424665  0.32709664  1
  Ba  Ba7  1  0.33127232  0.62396854  0.33493377  1
  Ba  Ba8  1  0.50090604  0.62404487  0.83204634  1
  Ba  Ba9  1  0.83526864  0.62546884  0.83197454  1
  Ba  Ba10  1  0.00327392  0.12540861  1.00081918  1
  Ba  Ba11  1  0.83338350  0.37421585  0.83268759  1
  Ba  Ba12  1  0.49820680  0.37505826  0.83102543  1
  Ba  Ba13  1  0.33010448  0.37373575  0.66863587  1
  Ba  Ba14  1  0.49869086  0.37436081  0.49942065  1
  Ba  Ba15  1  0.33066537  0.37554731  0.33852398  1
  Ba  Ba16  1  -0.00097082  0.37332857  0.00036570  1
  Sr  Sr17  1  0.83339171  0.62591120  0.50424799  1
  Sr  Sr18  1  0.16805512  0.62484857  0.16856241  1
  Sr  Sr19  1  0.16018687  0.37535791  0.49839664  1
  Sr  Sr20  1  -0.00181599  0.37417466  0.33329883  1
  Sr  Sr21  1  0.17126030  0.12379359  0.84017957  1
  La  La22  1  0.49973745  0.87517136  0.16565304  1
  La  La23  1  0.66690779  0.62574611  0.33026300  1
  La  La24  1  0.83269021  0.37876624  0.49724095  1
  La  La25  1  0.66669674  0.62169977  0.66338912  1
  La  La26  1  0.66636645  0.87138543  -0.00337228  1
  La  La27  1  0.83873907  0.12593611  0.16916859  1
  La  La28  1  0.83791126  0.62393641  0.16496636  1
  La  La29  1  0.66904601  0.87578142  0.66510556  1
  Pr  Pr30  1  0.49609423  0.62241134  0.50330756  1
  Pr  Pr31  1  0.66582664  0.12570382  0.99550523  1
  Pr  Pr32  1  0.50003085  0.87366299  0.49585061  1
  Pr  Pr33  1  0.66740553  0.13032386  0.65876932  1
  Pr  Pr34  1  0.49471445  0.37351099  0.16464601  1
  Pr  Pr35  1  0.50030787  0.62644477  0.16782842  1
  Pr  Pr36  1  0.33900335  0.62422832  1.00176599  1
  Pr  Pr37  1  0.15770081  0.87860905  0.83370603  1
  Pr  Pr38  1  0.00288998  0.12692593  0.66705022  1
  Pr  Pr39  1  0.83173139  0.87581449  0.16343323  1
  Pr  Pr40  1  0.17211965  0.62692506  0.83614653  1
  Pr  Pr41  1  -0.00009557  0.87733259  0.33413439  1
  Pr  Pr42  1  0.83704648  0.12387639  0.49924510  1
  Pr  Pr43  1  0.49421045  0.12495185  0.83573971  1
  Pr  Pr44  1  0.16981836  0.62121449  0.50480261  1
  Pr  Pr45  1  0.50186520  0.87296479  0.82821973  1
  Pr  Pr46  1  0.33305470  0.12667550  0.67068171  1
  Pr  Pr47  1  0.16642291  0.87029899  0.16631705  1
  Pr  Pr48  1  -0.00072929  0.87542167  0.00337140  1
  Pr  Pr49  1  0.00329798  0.62404118  0.33358125  1
  Pr  Pr50  1  0.33511572  0.62328043  0.66521845  1
  Pr  Pr51  1  0.16092019  0.87179314  0.50073606  1
  Pr  Pr52  1  0.00428221  0.12732076  0.32805282  1
  Pr  Pr53  1  0.16062325  0.37154244  0.83068880  1
  Pr  Pr54  1  -0.00390886  0.87449067  0.66847421  1
  Pr  Pr55  1  0.83352661  0.87058030  0.49631941  1
  Pr  Pr56  1  0.33807489  0.12928588  0.33252388  1
  Pr  Pr57  1  0.49854582  0.12695782  0.49973363  1
  Pr  Pr58  1  0.16412682  0.37945895  0.16849990  1
  Pr  Pr59  1  -0.00228999  0.37586465  0.66983711  1
  Pr  Pr60  1  0.82866390  0.37354117  0.16080822  1
  Pr  Pr61  1  0.00577344  0.62335988  0.99240655  1
  Pr  Pr62  1  0.33075981  0.87860252  0.33916404  1
  Pr  Pr63  1  0.66374811  0.37375687  0.33196168  1
  Pr  Pr64  1  0.66514178  0.37656232  0.66785757  1
  Pr  Pr65  1  0.83364625  0.12464489  0.83622077  1
  Pr  Pr66  1  0.66989302  0.87746492  0.33163987  1
  Pr  Pr67  1  0.83382162  0.87482509  0.83234646  1
  Pr  Pr68  1  0.33203150  0.37410027  0.00305547  1
  Pr  Pr69  1  0.66624045  0.38196494  -0.00191280  1
  Pr  Pr70  1  0.33303245  0.12508400  1.00076351  1
  Pr  Pr71  1  0.17125062  0.12597774  0.50271364  1
  Mn  Mn72  1  0.00038608  -0.00278207  0.16943319  1
  Mn  Mn73  1  -0.00021320  0.00067734  0.50040411  1
  Mn  Mn74  1  -0.00099124  0.00014130  0.83331164  1
  Mn  Mn75  1  -0.00014750  0.50192746  0.16706497  1
  Mn  Mn76  1  -0.00122993  0.49900151  0.49823473  1
  Mn  Mn77  1  0.00185054  0.50076289  0.83157978  1
  Mn  Mn78  1  0.33323721  -0.00125111  0.17107994  1
  Mn  Mn79  1  0.33281709  -0.00052449  0.50337675  1
  Mn  Mn80  1  0.33322311  -0.00131705  0.83680828  1
  Mn  Mn81  1  0.33327515  0.49933293  0.16762070  1
  Mn  Mn82  1  0.33045386  0.49970973  0.50148400  1
  Mn  Mn83  1  0.33052040  0.50202544  0.83555168  1
  Mn  Mn84  1  0.66922236  -0.00272580  0.16291466  1
  Mn  Mn85  1  0.66689605  0.00076286  0.49833401  1
  Mn  Mn86  1  0.66704761  0.00161567  0.82935334  1
  Mn  Mn87  1  0.66668844  0.50202018  0.16685904  1
  Mn  Mn88  1  0.66703081  0.50056370  0.49585073  1
  Mn  Mn89  1  0.66764222  0.49900745  0.83178088  1
  Mn  Mn90  1  0.00012597  0.25206912  0.16980062  1
  Mn  Mn91  1  -0.00127988  0.24739521  0.49931120  1
  Mn  Mn92  1  0.00028762  0.24837322  0.83168752  1
  Mn  Mn93  1  -0.00017119  0.74816074  0.16631536  1
  Mn  Mn94  1  0.00003618  0.75142330  0.49846546  1
  Mn  Mn95  1  0.00140904  0.75127174  0.83430095  1
  Mn  Mn96  1  0.33188807  0.25045796  0.16891479  1
  Mn  Mn97  1  0.33123470  0.24740218  0.50112205  1
  Mn  Mn98  1  0.33107114  0.24919290  0.83644776  1
  Mn  Mn99  1  0.33371470  0.74906647  0.17044710  1
  Mn  Mn100  1  0.33241007  0.75180025  0.50321768  1
  Mn  Mn101  1  0.33352293  0.75100931  0.83586809  1
  Mn  Mn102  1  0.66748397  0.25156445  0.16297082  1
  Mn  Mn103  1  0.66832269  0.24878508  0.49633678  1
  Mn  Mn104  1  0.66678673  0.24695136  0.82906439  1
  Mn  Mn105  1  0.66772172  0.74971293  0.16560569  1
  Mn  Mn106  1  0.66495325  0.75232391  0.49636305  1
  Mn  Mn107  1  0.66840474  0.75349523  0.83015651  1
  Mn  Mn108  1  0.16858563  0.25167625  0.00137166  1
  Mn  Mn109  1  0.16439138  0.25004856  0.33675827  1
  Mn  Mn110  1  0.16476381  0.24728324  0.66756891  1
  Mn  Mn111  1  0.16750904  0.74895519  0.00203881  1
  Mn  Mn112  1  0.16534357  0.75105159  0.33401067  1
  Mn  Mn113  1  0.16579857  0.75235928  0.66894512  1
  Mn  Mn114  1  0.50033735  0.24940846  -0.00064091  1
  Mn  Mn115  1  0.50121955  0.25020562  0.33254797  1
  Mn  Mn116  1  0.50101231  0.24709872  0.66718226  1
  Mn  Mn117  1  0.50056875  0.75148877  -0.00047537  1
  Mn  Mn118  1  0.50003002  0.75100853  0.33300327  1
  Mn  Mn119  1  0.50083849  0.75183339  0.66345337  1
  Mn  Mn120  1  0.83064298  0.24837427  -0.00004353  1
  Mn  Mn121  1  0.83422102  0.25250815  0.33277896  1
  Mn  Mn122  1  0.83422581  0.24715198  0.66411281  1
  Mn  Mn123  1  0.83679176  0.75223984  -0.00046948  1
  Mn  Mn124  1  0.83444283  0.74761390  0.33215407  1
  Mn  Mn125  1  0.83103968  0.75224803  0.66369998  1
  Mn  Mn126  1  0.16791812  -0.00198232  0.00208382  1
  Mn  Mn127  1  0.16620678  -0.00221544  0.33731402  1
  Mn  Mn128  1  0.16484821  0.00146605  0.66882423  1
  Mn  Mn129  1  0.16854248  0.50102019  0.00081568  1
  Mn  Mn130  1  0.16264386  0.50041513  0.33482480  1
  Mn  Mn131  1  0.16520231  0.49980003  0.66807047  1
  Mn  Mn132  1  0.50174727  0.00077392  -0.00143419  1
  Mn  Mn133  1  0.49909530  -0.00343052  0.33332272  1
  Mn  Mn134  1  0.50227150  0.00244054  0.66598073  1
  Mn  Mn135  1  0.49963323  0.49764542  0.00116724  1
  Mn  Mn136  1  0.50188333  0.50251638  0.33295353  1
  Mn  Mn137  1  0.49994782  0.50088842  0.66540208  1
  Mn  Mn138  1  0.83275725  0.00006839  -0.00078037  1
  Mn  Mn139  1  0.83534235  -0.00211784  0.33309452  1
  Mn  Mn140  1  0.83340640  0.00144589  0.66644100  1
  Mn  Mn141  1  0.83440410  0.50038841  0.00032881  1
  Mn  Mn142  1  0.83386640  0.50234153  0.33212747  1
  Mn  Mn143  1  0.83244039  0.50005377  0.66266127  1
  O  O144  1  0.17540954  0.12490058  0.01240316  1
  O  O145  1  0.15824566  0.11801553  0.35849103  1
  O  O146  1  0.16222214  0.12236445  0.69080223  1
  O  O147  1  0.15666202  0.62593860  0.02095453  1
  O  O148  1  0.15667545  0.62951735  0.35935610  1
  O  O149  1  0.16997889  0.62904383  0.69049604  1
  O  O150  1  0.50774079  0.12485924  0.01394410  1
  O  O151  1  0.49909373  0.11839158  0.35383028  1
  O  O152  1  0.51314119  0.12293029  0.69170796  1
  O  O153  1  0.49733393  0.62079033  0.02336992  1
  O  O154  1  0.51320726  0.63025665  0.35752957  1
  O  O155  1  0.50727574  0.62743323  0.67331391  1
  O  O156  1  0.82441856  0.12208896  0.02437916  1
  O  O157  1  0.83899010  0.11963222  0.35580912  1
  O  O158  1  0.83246525  0.12160699  0.69357012  1
  O  O159  1  0.84110557  0.62850267  0.01881247  1
  O  O160  1  0.83181885  0.62672537  0.35718948  1
  O  O161  1  0.82526624  0.62979148  0.67355809  1
  O  O162  1  0.16145364  0.37754729  0.31502707  1
  O  O163  1  0.15953473  0.37090595  0.64934697  1
  O  O164  1  0.17714211  0.37856792  0.97457322  1
  O  O165  1  0.16605912  0.87450745  0.31017414  1
  O  O166  1  0.15953900  0.87823316  0.64352067  1
  O  O167  1  0.16247756  0.87180024  0.97821144  1
  O  O168  1  0.50478890  0.37973263  0.31236295  1
  O  O169  1  0.50547156  0.37362737  0.65562015  1
  O  O170  1  0.49546442  0.37183857  0.98705891  1
  O  O171  1  0.48493073  0.87265531  0.31037770  1
  O  O172  1  0.50216945  0.87931355  0.63936493  1
  O  O173  1  0.50400777  0.88151592  0.97237776  1
  O  O174  1  0.83090778  0.38215666  0.30443986  1
  O  O175  1  0.83410926  0.36910026  0.64167900  1
  O  O176  1  0.82783472  0.37254515  0.99181071  1
  O  O177  1  0.83504023  0.87135374  0.30659293  1
  O  O178  1  0.83255340  0.87997246  0.63946767  1
  O  O179  1  0.84125544  0.87756989  0.97645271  1
  O  O180  1  0.00021042  0.37675731  0.18408795  1
  O  O181  1  -0.00224027  0.36648402  0.52601305  1
  O  O182  1  0.00622546  0.37489389  0.84072489  1
  O  O183  1  -0.00143548  0.87112713  0.19180338  1
  O  O184  1  0.00348505  0.87885122  0.52632482  1
  O  O185  1  -0.00076989  0.87572502  0.85756547  1
  O  O186  1  0.34089444  0.37544617  0.18163258  1
  O  O187  1  0.32936680  0.37204604  0.51081375  1
  O  O188  1  0.32677106  0.37623100  0.85606429  1
  O  O189  1  0.33656301  0.87433930  0.19314161  1
  O  O190  1  0.34082334  0.87626533  0.51703027  1
  O  O191  1  0.34816770  0.87507744  0.84706705  1
  O  O192  1  0.67765079  0.38036842  0.18917247  1
  O  O193  1  0.67323918  0.36949424  0.52379248  1
  O  O194  1  0.66692522  0.36738400  0.85140907  1
  O  O195  1  0.67566372  0.87051569  0.18749535  1
  O  O196  1  0.66772312  0.87839848  0.52261491  1
  O  O197  1  0.66761469  0.88075925  0.85334353  1
  O  O198  1  -0.00554734  0.12364810  0.15994210  1
  O  O199  1  -0.00834342  0.12068361  0.47041822  1
  O  O200  1  -0.00614879  0.12135427  0.81096363  1
  O  O201  1  -0.00371419  0.62773100  0.13650946  1
  O  O202  1  0.00050368  0.63079617  0.47783275  1
  O  O203  1  0.00869525  0.62757083  0.82189570  1
  O  O204  1  0.33166525  0.12423787  0.14591402  1
  O  O205  1  0.32747911  0.11920925  0.47658112  1
  O  O206  1  0.33054390  0.12179790  0.81615535  1
  O  O207  1  0.33510641  0.62303019  0.14601580  1
  O  O208  1  0.32699469  0.62916402  0.49241760  1
  O  O209  1  0.32414578  0.62869021  0.81036223  1
  O  O210  1  0.67193341  0.12273820  0.14173014  1
  O  O211  1  0.66932020  0.12303573  0.48139094  1
  O  O212  1  0.67291593  0.12168200  0.80148947  1
  O  O213  1  0.65770741  0.62721818  0.15079855  1
  O  O214  1  0.66255211  0.63127228  0.47377600  1
  O  O215  1  0.66896527  0.63120194  0.81085076  1
  O  O216  1  0.08040682  0.00862903  0.25798094  1
  O  O217  1  0.08232475  0.02476337  0.57944038  1
  O  O218  1  0.08449598  0.00653172  0.91175040  1
  O  O219  1  0.08036956  0.52124383  0.25089352  1
  O  O220  1  0.09028523  0.51499610  0.57657678  1
  O  O221  1  0.09068046  0.51640477  0.91273812  1
  O  O222  1  0.41119820  0.01644730  0.25918239  1
  O  O223  1  0.41827628  0.02990790  0.58827517  1
  O  O224  1  0.41670170  0.02529095  0.92056498  1
  O  O225  1  0.42611845  0.51648916  0.24316318  1
  O  O226  1  0.41670446  0.51906788  0.58390422  1
  O  O227  1  0.41009480  0.51330397  0.92340593  1
  O  O228  1  0.75957958  0.01024745  0.24212403  1
  O  O229  1  0.75242319  0.02233011  0.58558063  1
  O  O230  1  0.74618502  0.02127152  0.91465802  1
  O  O231  1  0.75225848  0.52639730  0.24697868  1
  O  O232  1  0.74551072  0.51455667  0.58015793  1
  O  O233  1  0.75089082  0.50490311  0.91675873  1
  O  O234  1  0.25434474  0.23464266  0.25983638  1
  O  O235  1  0.25249629  0.22429493  0.59109595  1
  O  O236  1  0.26145388  0.23663382  0.93021464  1
  O  O237  1  0.24772154  0.74251283  0.25306739  1
  O  O238  1  0.25044866  0.73434848  0.59068590  1
  O  O239  1  0.25284531  0.72693702  0.92706039  1
  O  O240  1  0.58763085  0.24970606  0.24652378  1
  O  O241  1  0.58444484  0.22842445  0.57803179  1
  O  O242  1  0.58582924  0.22642028  0.91100419  1
  O  O243  1  0.58343191  0.73808506  0.24897812  1
  O  O244  1  0.57603898  0.73791390  0.56972415  1
  O  O245  1  0.58451955  0.74997371  0.91059707  1
  O  O246  1  0.92127574  0.23292640  0.25972320  1
  O  O247  1  0.91895873  0.21979038  0.58489478  1
  O  O248  1  0.91164586  0.23305126  0.91422521  1
  O  O249  1  0.91838016  0.72405565  0.24803562  1
  O  O250  1  0.91317783  0.74719369  0.57806040  1
  O  O251  1  0.92988827  0.73885283  0.92730189  1
  O  O252  1  0.08946771  0.48358630  0.08595314  1
  O  O253  1  0.07525977  0.48851828  0.41306186  1
  O  O254  1  0.08012973  0.48036866  0.74484205  1
  O  O255  1  0.08116240  0.97676949  0.08558575  1
  O  O256  1  0.08171918  0.97419819  0.41811363  1
  O  O257  1  0.07703208  0.97800169  0.74619274  1
  O  O258  1  0.41651905  0.48102147  0.08314908  1
  O  O259  1  0.42156477  0.50081251  0.41770430  1
  O  O260  1  0.40953347  0.49945196  0.74762133  1
  O  O261  1  0.42329157  0.98455373  0.09027657  1
  O  O262  1  0.41820698  0.98125374  0.41933694  1
  O  O263  1  0.42527643  0.99362924  0.75680116  1
  O  O264  1  0.74630858  0.48557110  0.08333704  1
  O  O265  1  0.74895305  0.47919944  0.41113997  1
  O  O266  1  0.74534140  0.48638391  0.73949259  1
  O  O267  1  0.75131351  0.97296313  0.07757656  1
  O  O268  1  0.75215627  0.97568432  0.41296970  1
  O  O269  1  0.75325303  0.97657713  0.75106874  1
  O  O270  1  0.24700840  0.27571064  0.08984403  1
  O  O271  1  0.24006945  0.25288830  0.42594378  1
  O  O272  1  0.24130160  0.26128525  0.76185072  1
  O  O273  1  0.24324121  0.76338647  0.09165674  1
  O  O274  1  0.24787388  0.77268824  0.42306241  1
  O  O275  1  0.23932448  0.76910205  0.76491349  1
  O  O276  1  0.58300946  0.27393815  0.08231186  1
  O  O277  1  0.58728492  0.26362873  0.41307425  1
  O  O278  1  0.58981260  0.26293344  0.74179616  1
  O  O279  1  0.58501978  0.77328399  0.08139819  1
  O  O280  1  0.58574023  0.78149384  0.40991005  1
  O  O281  1  0.58718083  0.77334876  0.74092287  1
  O  O282  1  0.90717390  0.25842036  0.09698369  1
  O  O283  1  0.90692941  0.26608891  0.42785553  1
  O  O284  1  0.91891397  0.26045428  0.74149329  1
  O  O285  1  0.91507388  0.77525304  0.08707122  1
  O  O286  1  0.91856581  0.77419718  0.41433655  1
  O  O287  1  0.91464582  0.77259984  0.75203612  1
  O  O288  1  0.25255190  0.47915754  0.08264338  1
  O  O289  1  0.23973473  0.49533040  0.42487220  1
  O  O290  1  0.23770017  0.48684844  0.76281533  1
  O  O291  1  0.24479423  0.97930418  0.09753039  1
  O  O292  1  0.24341345  0.97482701  0.42336535  1
  O  O293  1  0.24296832  0.98333706  0.76196731  1
  O  O294  1  0.58143414  0.47561292  0.08886417  1
  O  O295  1  0.59127547  0.48424080  0.40811822  1
  O  O296  1  0.58861958  0.49044930  0.74075147  1
  O  O297  1  0.58801610  0.97781913  0.07643704  1
  O  O298  1  0.58105694  0.97329191  0.41313084  1
  O  O299  1  0.58632921  0.97466222  0.74610286  1
  O  O300  1  0.90802041  0.48791058  0.09379485  1
  O  O301  1  0.91153729  0.48146095  0.41644807  1
  O  O302  1  0.91811140  0.48829430  0.74324917  1
  O  O303  1  0.91575352  0.98017477  0.08708949  1
  O  O304  1  0.91485266  0.97219726  0.42046387  1
  O  O305  1  0.91557349  0.97544686  0.74836725  1
  O  O306  1  0.08697672  0.26509718  0.08683257  1
  O  O307  1  0.07405583  0.25921934  0.41436380  1
  O  O308  1  0.07697970  0.26363042  0.74078409  1
  O  O309  1  0.07932212  0.77325355  0.08125543  1
  O  O310  1  0.08029662  0.77625557  0.41377523  1
  O  O311  1  0.07842224  0.77598076  0.74679660  1
  O  O312  1  0.41163727  0.26399756  0.08164741  1
  O  O313  1  0.41548227  0.24753778  0.41897033  1
  O  O314  1  0.41302567  0.24727937  0.75062098  1
  O  O315  1  0.42301882  0.76074652  0.09128661  1
  O  O316  1  0.41889495  0.76635385  0.41978303  1
  O  O317  1  0.42369081  0.76169630  0.75212820  1
  O  O318  1  0.74096166  0.26904768  0.07438838  1
  O  O319  1  0.74768762  0.27263363  0.40883344  1
  O  O320  1  0.74493130  0.26335518  0.73763654  1
  O  O321  1  0.75370917  0.76840939  0.08204014  1
  O  O322  1  0.74903085  0.77443807  0.41629366  1
  O  O323  1  0.75080231  0.77607173  0.74865790  1
  O  O324  1  0.25582952  0.01296122  0.26731546  1
  O  O325  1  0.24988956  0.02240559  0.58949323  1
  O  O326  1  0.25680787  0.01218172  0.92540227  1
  O  O327  1  0.24461291  0.50688287  0.24645020  1
  O  O328  1  0.25151630  0.52009108  0.59320764  1
  O  O329  1  0.25264938  0.52919160  0.92299189  1
  O  O330  1  0.58313104  -0.00521165  0.24861111  1
  O  O331  1  0.58172342  0.02272627  0.58107188  1
  O  O332  1  0.58362264  0.02360338  0.90838625  1
  O  O333  1  0.58599725  0.52092459  0.25033039  1
  O  O334  1  0.58265812  0.51829440  0.57624114  1
  O  O335  1  0.58496361  0.50204548  0.92065399  1
  O  O336  1  0.92076413  0.01419802  0.25678026  1
  O  O337  1  0.91799966  0.02355718  0.58503098  1
  O  O338  1  0.90937878  0.01597934  0.91057140  1
  O  O339  1  0.91732541  0.52733795  0.25417627  1
  O  O340  1  0.91421474  0.50582287  0.57813549  1
  O  O341  1  0.92639067  0.51373546  0.92210591  1
  O  O342  1  0.08242988  0.23871024  0.25300952  1
  O  O343  1  0.08399336  0.22221667  0.57813498  1
  O  O344  1  0.09225893  0.24278163  0.91094693  1
  O  O345  1  0.07906425  0.73163433  0.24975296  1
  O  O346  1  0.09027587  0.73767306  0.57357496  1
  O  O347  1  0.09172897  0.73482776  0.91256539  1
  O  O348  1  0.41553540  0.23629720  0.25217157  1
  O  O349  1  0.41747121  0.22328562  0.58532052  1
  O  O350  1  0.41782436  0.22765626  0.91664748  1
  O  O351  1  0.42317816  0.72914492  0.24839795  1
  O  O352  1  0.41545522  0.72936116  0.58465139  1
  O  O353  1  0.41391969  0.73159084  0.92374160  1
  O  O354  1  0.76041335  0.23683068  0.23578665  1
  O  O355  1  0.75521220  0.22566264  0.57655595  1
  O  O356  1  0.74760543  0.22337048  0.91041118  1
  O  O357  1  0.75096851  0.72921325  0.24844210  1
  O  O358  1  0.73943787  0.73850462  0.58389435  1
  O  O359  1  0.75657645  0.75129625  0.91447480  1
