# generated using pymatgen
data_Ba17Sr5La8Pr42Mn72O216
_symmetry_space_group_name_H-M   'P 1'
_cell_length_a   16.67034096
_cell_length_b   15.70236313
_cell_length_c   16.81878903
_cell_angle_alpha   90.01267578
_cell_angle_beta   89.98343630
_cell_angle_gamma   89.99340239
_symmetry_Int_Tables_number   1
_chemical_formula_structural   Ba17Sr5La8Pr42Mn72O216
_chemical_formula_sum   'Ba17 Sr5 La8 Pr42 Mn72 O216'
_cell_volume   4402.54892101
_cell_formula_units_Z   1
loop_
 _symmetry_equiv_pos_site_id
 _symmetry_equiv_pos_as_xyz
  1  'x, y, z'
loop_
 _atom_site_type_symbol
 _atom_site_label
 _atom_site_symmetry_multiplicity
 _atom_site_fract_x
 _atom_site_fract_y
 _atom_site_fract_z
 _atom_site_occupancy
  Ba  Ba0  1  0.33402275  0.37656452  0.66452504  1
  Ba  Ba1  1  0.00198066  0.12107822  0.99889626  1
  Ba  Ba2  1  0.49641013  0.62518923  0.16830244  1
  Ba  Ba3  1  0.83233627  0.62631642  0.83464257  1
  Ba  Ba4  1  -0.00021134  0.37340510  0.66616948  1
  Ba  Ba5  1  0.33501525  0.12496742  0.99634384  1
  Ba  Ba6  1  0.16577619  0.87499665  0.49448194  1
  Ba  Ba7  1  0.66922981  0.87601667  0.00449280  1
  Ba  Ba8  1  0.50182881  0.12449667  0.83431801  1
  Ba  Ba9  1  0.16625259  0.37403275  0.49649173  1
  Ba  Ba10  1  0.82856907  0.62689409  0.50211605  1
  Ba  Ba11  1  0.83716997  0.37584995  0.83555186  1
  Ba  Ba12  1  -0.00046134  0.37436861  0.33211145  1
  Ba  Ba13  1  0.16591655  0.62613064  0.83284472  1
  Ba  Ba14  1  0.33172083  0.62552537  0.66699722  1
  Ba  Ba15  1  0.33328407  0.87415133  0.66292592  1
  Ba  Ba16  1  0.67220273  0.37421339  0.00392852  1
  Sr  Sr17  1  0.49798210  0.87629621  0.50191146  1
  Sr  Sr18  1  0.17118080  0.87776844  0.16456665  1
  Sr  Sr19  1  0.84029213  0.37456725  0.16303570  1
  Sr  Sr20  1  0.66741798  0.12607822  0.66571097  1
  Sr  Sr21  1  0.83055429  0.12576495  0.50328587  1
  La  La22  1  0.50455808  0.37497081  0.16499637  1
  La  La23  1  0.17068906  0.37170019  0.16333630  1
  La  La24  1  0.66528033  0.12455901  0.33767210  1
  La  La25  1  0.83420991  0.12772451  0.83426622  1
  La  La26  1  0.15907565  0.62301711  0.50327533  1
  La  La27  1  0.32981845  0.12196303  0.32738265  1
  La  La28  1  0.49599531  0.62570098  0.83633115  1
  La  La29  1  0.67087843  0.37415588  0.67204916  1
  Pr  Pr30  1  0.16921674  0.12563672  0.82996437  1
  Pr  Pr31  1  0.67007623  0.12695425  0.99792555  1
  Pr  Pr32  1  0.00034084  0.12445785  0.32756518  1
  Pr  Pr33  1  0.49651556  0.62673323  0.50306755  1
  Pr  Pr34  1  0.66910853  0.87585728  0.67305908  1
  Pr  Pr35  1  0.66946014  0.37791366  0.33579631  1
  Pr  Pr36  1  0.49839689  0.87359523  0.16597258  1
  Pr  Pr37  1  -0.00393137  0.62130418  0.66467231  1
  Pr  Pr38  1  0.66395973  0.62376858  0.66710080  1
  Pr  Pr39  1  0.33687609  0.87474331  -0.00335470  1
  Pr  Pr40  1  0.15895377  0.12633862  0.49696561  1
  Pr  Pr41  1  0.00451154  0.37859083  0.00224321  1
  Pr  Pr42  1  0.49686751  0.12452282  0.50758059  1
  Pr  Pr43  1  0.33877408  0.37581446  0.33835691  1
  Pr  Pr44  1  0.33160842  0.12541572  0.66253665  1
  Pr  Pr45  1  0.82713035  0.87822886  0.49964017  1
  Pr  Pr46  1  -0.00385187  0.62500870  0.33258890  1
  Pr  Pr47  1  0.00660564  0.87082218  0.00093922  1
  Pr  Pr48  1  0.83943380  0.87616035  0.16518087  1
  Pr  Pr49  1  0.65780616  0.62600444  0.33316039  1
  Pr  Pr50  1  -0.00163316  0.87184875  0.66599441  1
  Pr  Pr51  1  0.66031283  0.62300183  0.99974037  1
  Pr  Pr52  1  0.50602363  0.37303422  0.83267468  1
  Pr  Pr53  1  0.16507383  0.12275431  0.16457943  1
  Pr  Pr54  1  0.50394866  0.12389982  0.16786588  1
  Pr  Pr55  1  0.50240990  0.37492929  0.50098741  1
  Pr  Pr56  1  0.16845685  0.37028083  0.82615086  1
  Pr  Pr57  1  0.16178724  0.62585441  0.16473382  1
  Pr  Pr58  1  0.66321218  0.87259362  0.33879732  1
  Pr  Pr59  1  -0.00278063  0.12623631  0.66321574  1
  Pr  Pr60  1  0.82629004  0.62522880  0.17205696  1
  Pr  Pr61  1  -0.00268296  0.87533874  0.33754540  1
  Pr  Pr62  1  0.33721895  0.87341798  0.33757330  1
  Pr  Pr63  1  0.83424328  0.37300907  0.49883348  1
  Pr  Pr64  1  0.32307145  0.62651000  0.32998721  1
  Pr  Pr65  1  0.83893638  0.87811297  0.83453506  1
  Pr  Pr66  1  0.50446291  0.87752957  0.83074019  1
  Pr  Pr67  1  0.33118447  0.62664690  0.99394714  1
  Pr  Pr68  1  -0.00581067  0.62632714  0.99665694  1
  Pr  Pr69  1  0.16809949  0.88113949  0.82559327  1
  Pr  Pr70  1  0.83155550  0.12568333  0.17044226  1
  Pr  Pr71  1  0.34048607  0.37566439  -0.00269852  1
  Mn  Mn72  1  0.00126799  -0.00222066  0.16600286  1
  Mn  Mn73  1  -0.00444602  0.00063387  0.49788380  1
  Mn  Mn74  1  0.00095503  -0.00092838  0.83001383  1
  Mn  Mn75  1  0.00154995  0.50198134  0.16568231  1
  Mn  Mn76  1  -0.00361117  0.49997645  0.49823594  1
  Mn  Mn77  1  0.00184120  0.50090650  0.83488300  1
  Mn  Mn78  1  0.33492500  -0.00068417  0.16442805  1
  Mn  Mn79  1  0.33277641  0.00107692  0.49555656  1
  Mn  Mn80  1  0.33447014  -0.00066549  0.83077757  1
  Mn  Mn81  1  0.33120340  0.49843200  0.16648349  1
  Mn  Mn82  1  0.33401144  0.50061774  0.49645182  1
  Mn  Mn83  1  0.33314909  0.49905370  0.83462508  1
  Mn  Mn84  1  0.66758447  0.00021283  0.17106415  1
  Mn  Mn85  1  0.66385898  -0.00029499  0.50263020  1
  Mn  Mn86  1  0.66959166  0.00056124  0.83589422  1
  Mn  Mn87  1  0.66832710  0.50081780  0.16964286  1
  Mn  Mn88  1  0.66398711  0.49939222  0.50228296  1
  Mn  Mn89  1  0.66609070  0.50135405  0.83419470  1
  Mn  Mn90  1  0.00120520  0.24928398  0.16458003  1
  Mn  Mn91  1  -0.00385407  0.24753291  0.49684852  1
  Mn  Mn92  1  0.00202329  0.24747892  0.83352748  1
  Mn  Mn93  1  0.00151104  0.75062519  0.16669191  1
  Mn  Mn94  1  -0.00386251  0.75174354  0.49957719  1
  Mn  Mn95  1  0.00097435  0.75202348  0.83417308  1
  Mn  Mn96  1  0.33453434  0.24959676  0.16553341  1
  Mn  Mn97  1  0.33378467  0.24836314  0.49587174  1
  Mn  Mn98  1  0.33514721  0.25021327  0.83063649  1
  Mn  Mn99  1  0.33107001  0.75098246  0.16534151  1
  Mn  Mn100  1  0.33308088  0.75030075  0.49655307  1
  Mn  Mn101  1  0.33299483  0.75160479  0.83363213  1
  Mn  Mn102  1  0.66834395  0.24764389  0.16980227  1
  Mn  Mn103  1  0.66500062  0.25092434  0.50175041  1
  Mn  Mn104  1  0.66891595  0.24885814  0.83433743  1
  Mn  Mn105  1  0.66725227  0.75158859  0.17033275  1
  Mn  Mn106  1  0.66274100  0.75147952  0.50317864  1
  Mn  Mn107  1  0.66717019  0.75069649  0.83622771  1
  Mn  Mn108  1  0.16839373  0.25032104  -0.00438945  1
  Mn  Mn109  1  0.16765726  0.24781110  0.32908284  1
  Mn  Mn110  1  0.16619866  0.24696993  0.66393559  1
  Mn  Mn111  1  0.16883391  0.75229041  0.00075068  1
  Mn  Mn112  1  0.16422652  0.75005522  0.32959726  1
  Mn  Mn113  1  0.16400025  0.75065067  0.66415745  1
  Mn  Mn114  1  0.50236130  0.25073335  0.00206481  1
  Mn  Mn115  1  0.50117538  0.24818068  0.33477019  1
  Mn  Mn116  1  0.49971237  0.24989018  0.66686248  1
  Mn  Mn117  1  0.49988692  0.75119439  0.00121860  1
  Mn  Mn118  1  0.49793036  0.75080095  0.33566662  1
  Mn  Mn119  1  0.50210342  0.75119812  0.66773371  1
  Mn  Mn120  1  0.83749289  0.24875713  0.00303152  1
  Mn  Mn121  1  0.83125597  0.24906004  0.33426740  1
  Mn  Mn122  1  0.83241746  0.24788930  0.66638691  1
  Mn  Mn123  1  0.83452631  0.75120500  0.00354964  1
  Mn  Mn124  1  0.83074233  0.75091253  0.33426741  1
  Mn  Mn125  1  0.83208379  0.75185315  0.66896406  1
  Mn  Mn126  1  0.16930724  -0.00147035  -0.00345393  1
  Mn  Mn127  1  0.16562827  -0.00118917  0.32880692  1
  Mn  Mn128  1  0.16400565  0.00084666  0.66192813  1
  Mn  Mn129  1  0.16855425  0.49898820  0.00048892  1
  Mn  Mn130  1  0.16589692  0.50201585  0.33036761  1
  Mn  Mn131  1  0.16500208  0.49978600  0.66638908  1
  Mn  Mn132  1  0.50208623  -0.00180345  0.00184057  1
  Mn  Mn133  1  0.50076628  0.00156799  0.33489963  1
  Mn  Mn134  1  0.50065303  -0.00008712  0.66670006  1
  Mn  Mn135  1  0.49994823  0.49997909  0.00161080  1
  Mn  Mn136  1  0.49864676  0.49880408  0.33459881  1
  Mn  Mn137  1  0.50119868  0.50017437  0.66766686  1
  Mn  Mn138  1  0.83590660  -0.00073670  0.00155177  1
  Mn  Mn139  1  0.83089751  0.00033618  0.33470221  1
  Mn  Mn140  1  0.83313671  -0.00069290  0.66669295  1
  Mn  Mn141  1  0.83556255  0.50115855  0.00472322  1
  Mn  Mn142  1  0.83137976  0.50042859  0.33413356  1
  Mn  Mn143  1  0.83221016  0.50131224  0.66696123  1
  O  O144  1  0.17029609  0.12361023  0.02235713  1
  O  O145  1  0.16711256  0.12206741  0.35082129  1
  O  O146  1  0.15722994  0.12263336  0.68568936  1
  O  O147  1  0.17686835  0.62679631  0.02348735  1
  O  O148  1  0.17118462  0.62820739  0.35539948  1
  O  O149  1  0.15457937  0.62634396  0.67358963  1
  O  O150  1  0.50414753  0.12400995  0.02329089  1
  O  O151  1  0.50564536  0.12609356  0.36419684  1
  O  O152  1  0.48886056  0.12524865  0.67779029  1
  O  O153  1  0.49553159  0.62609119  0.01145326  1
  O  O154  1  0.50532217  0.62651088  0.35841341  1
  O  O155  1  0.50625526  0.62584348  0.69170196  1
  O  O156  1  0.83197798  0.12176758  0.02541122  1
  O  O157  1  0.83541541  0.12217325  0.35542617  1
  O  O158  1  0.83539305  0.11900186  0.68945795  1
  O  O159  1  0.84341620  0.62932941  0.02732799  1
  O  O160  1  0.84011423  0.62708109  0.34711342  1
  O  O161  1  0.83109096  0.62955545  0.67815572  1
  O  O162  1  0.17228068  0.37428187  0.30980920  1
  O  O163  1  0.16812933  0.37110868  0.65648197  1
  O  O164  1  0.15768439  0.37428944  0.97192491  1
  O  O165  1  0.16126813  0.87418083  0.31371627  1
  O  O166  1  0.16134387  0.87775835  0.65028821  1
  O  O167  1  0.16462950  0.87497270  0.97117232  1
  O  O168  1  0.49576369  0.36984456  0.30645466  1
  O  O169  1  0.50785472  0.37521750  0.64461240  1
  O  O170  1  0.50053449  0.37675443  0.98078509  1
  O  O171  1  0.49832716  0.87749691  0.30858135  1
  O  O172  1  0.51239270  0.87497682  0.65043202  1
  O  O173  1  0.50105748  0.87292535  0.97774893  1
  O  O174  1  0.82202234  0.37478624  0.31277328  1
  O  O175  1  0.82717758  0.37548371  0.64532118  1
  O  O176  1  0.84083756  0.37427204  0.99350890  1
  O  O177  1  0.82693026  0.87584210  0.30757000  1
  O  O178  1  0.83302307  0.87590263  0.64240658  1
  O  O179  1  0.83745370  0.87561251  0.97907268  1
  O  O180  1  0.00725555  0.37534673  0.17668782  1
  O  O181  1  -0.00849746  0.37281801  0.50793357  1
  O  O182  1  0.00846355  0.37302024  0.85671735  1
  O  O183  1  -0.00294982  0.87309078  0.19537295  1
  O  O184  1  -0.00664690  0.87712936  0.52129368  1
  O  O185  1  0.00075903  0.87612069  0.85794526  1
  O  O186  1  0.32958222  0.37462853  0.19551828  1
  O  O187  1  0.33412486  0.37416664  0.50670606  1
  O  O188  1  0.32281632  0.37550289  0.85134237  1
  O  O189  1  0.33893083  0.87864688  0.19433759  1
  O  O190  1  0.33147690  0.87745029  0.50555008  1
  O  O191  1  0.32343667  0.87543758  0.85012484  1
  O  O192  1  0.66310455  0.37057720  0.19111117  1
  O  O193  1  0.65909539  0.37672762  0.52805357  1
  O  O194  1  0.65949006  0.37580485  0.84558147  1
  O  O195  1  0.66755708  0.87671272  0.19511319  1
  O  O196  1  0.66613222  0.87639200  0.52746707  1
  O  O197  1  0.66265564  0.87508348  0.84923212  1
  O  O198  1  -0.00373184  0.12307686  0.15466488  1
  O  O199  1  -0.00275537  0.12206775  0.47286501  1
  O  O200  1  0.00203868  0.11887330  0.80723306  1
  O  O201  1  0.00525132  0.62882461  0.13865198  1
  O  O202  1  -0.00142535  0.62832782  0.47857463  1
  O  O203  1  0.00105902  0.63134324  0.81092896  1
  O  O204  1  0.33830966  0.12296714  0.15054418  1
  O  O205  1  0.34344828  0.12486613  0.47261429  1
  O  O206  1  0.33463813  0.12262399  0.81009805  1
  O  O207  1  0.32682002  0.62173593  0.13794335  1
  O  O208  1  0.34357057  0.62423558  0.47360003  1
  O  O209  1  0.34360883  0.62517748  0.82743730  1
  O  O210  1  0.66440413  0.12212238  0.14297120  1
  O  O211  1  0.66184491  0.12448059  0.47882612  1
  O  O212  1  0.67648309  0.12270186  0.81784682  1
  O  O213  1  0.67225283  0.62995916  0.14582091  1
  O  O214  1  0.65981208  0.62388985  0.47478290  1
  O  O215  1  0.66110065  0.62729904  0.81176082  1
  O  O216  1  0.08446898  0.02159754  0.24604108  1
  O  O217  1  0.08186883  0.02290675  0.57691386  1
  O  O218  1  0.08976373  0.01322160  0.90313316  1
  O  O219  1  0.07829739  0.52597860  0.25198701  1
  O  O220  1  0.07604484  0.51693417  0.58337791  1
  O  O221  1  0.07641824  0.51862871  0.93145575  1
  O  O222  1  0.42209113  0.02242381  0.24919209  1
  O  O223  1  0.41284742  0.01690926  0.58089347  1
  O  O224  1  0.41802565  -0.00103532  0.91565050  1
  O  O225  1  0.40340765  0.51538995  0.25931670  1
  O  O226  1  0.41994512  0.51255383  0.57949598  1
  O  O227  1  0.41160270  0.50959009  0.92503036  1
  O  O228  1  0.74931418  0.02576377  0.25366738  1
  O  O229  1  0.74901744  0.01146152  0.58366173  1
  O  O230  1  0.75189088  0.01939491  0.92048560  1
  O  O231  1  0.74324570  0.52355038  0.25987677  1
  O  O232  1  0.73815385  0.51413205  0.59102971  1
  O  O233  1  0.74269091  0.51851598  0.92984849  1
  O  O234  1  0.24485417  0.22634958  0.23892983  1
  O  O235  1  0.24519621  0.22269306  0.57531934  1
  O  O236  1  0.24406561  0.23596711  0.90464678  1
  O  O237  1  0.24290944  0.72923354  0.24154930  1
  O  O238  1  0.24539187  0.73385534  0.57025006  1
  O  O239  1  0.25448138  0.73769364  0.92250749  1
  O  O240  1  0.58246189  0.22451625  0.25242508  1
  O  O241  1  0.57508330  0.23288499  0.57713404  1
  O  O242  1  0.58973192  0.23517375  0.92373172  1
  O  O243  1  0.58428237  0.73856290  0.25736029  1
  O  O244  1  0.58118974  0.72455054  0.58303094  1
  O  O245  1  0.58012502  0.72973181  0.91613104  1
  O  O246  1  0.91412359  0.23120841  0.25010533  1
  O  O247  1  0.91557579  0.23062844  0.58436666  1
  O  O248  1  0.91512983  0.23242745  0.91132335  1
  O  O249  1  0.91607337  0.73157260  0.24466681  1
  O  O250  1  0.92059656  0.73866915  0.59147691  1
  O  O251  1  0.91815046  0.73968408  0.92091775  1
  O  O252  1  0.09480923  0.48441551  0.09080377  1
  O  O253  1  0.08427207  0.49895900  0.41658345  1
  O  O254  1  0.08843907  0.48464789  0.76022787  1
  O  O255  1  0.08589370  0.98065275  0.07838796  1
  O  O256  1  0.07207539  0.98866285  0.40659181  1
  O  O257  1  0.07851759  0.97816179  0.74448791  1
  O  O258  1  0.41795089  0.47542208  0.09024628  1
  O  O259  1  0.42317136  0.47769712  0.41961956  1
  O  O260  1  0.42717416  0.48507375  0.76187725  1
  O  O261  1  0.41848646  0.97427797  0.08386541  1
  O  O262  1  0.41515670  0.98345624  0.41011063  1
  O  O263  1  0.42225158  0.97974776  0.75315382  1
  O  O264  1  0.76182478  0.49464864  0.09644098  1
  O  O265  1  0.74757960  0.47638570  0.42472530  1
  O  O266  1  0.74747209  0.48974501  0.74993705  1
  O  O267  1  0.75781163  0.98584637  0.09713336  1
  O  O268  1  0.74563592  0.97805221  0.41655650  1
  O  O269  1  0.75514730  0.97690832  0.75419926  1
  O  O270  1  0.25346953  0.27463784  0.07296656  1
  O  O271  1  0.26006963  0.25752546  0.40200143  1
  O  O272  1  0.25387705  0.25046281  0.74318255  1
  O  O273  1  0.25560185  0.77455524  0.07845046  1
  O  O274  1  0.25696426  0.76157734  0.40109341  1
  O  O275  1  0.24658736  0.76165677  0.75178240  1
  O  O276  1  0.58036906  0.26130247  0.09311782  1
  O  O277  1  0.58603297  0.27561278  0.41338922  1
  O  O278  1  0.58378681  0.26521403  0.74760424  1
  O  O279  1  0.58221149  0.76418943  0.08954270  1
  O  O280  1  0.58388307  0.77009887  0.41716781  1
  O  O281  1  0.58931667  0.76925259  0.74708254  1
  O  O282  1  0.92558468  0.26598591  0.07917801  1
  O  O283  1  0.90721890  0.26401247  0.41996859  1
  O  O284  1  0.91961515  0.25128276  0.74927515  1
  O  O285  1  0.92395524  0.77530623  0.08189232  1
  O  O286  1  0.91189379  0.77561362  0.41710117  1
  O  O287  1  0.91657725  0.77537717  0.75173300  1
  O  O288  1  0.25459801  0.47067904  0.07958386  1
  O  O289  1  0.26101741  0.49066913  0.40092584  1
  O  O290  1  0.25058034  0.49048293  0.75321327  1
  O  O291  1  0.25602125  0.97837769  0.07654797  1
  O  O292  1  0.25353753  0.99008225  0.40509032  1
  O  O293  1  0.24485766  0.99273119  0.74822207  1
  O  O294  1  0.58545412  0.49174962  0.08470046  1
  O  O295  1  0.58498066  0.47564069  0.41772346  1
  O  O296  1  0.58675750  0.48216067  0.74641500  1
  O  O297  1  0.57731967  0.98422511  0.09805284  1
  O  O298  1  0.58447454  0.97881367  0.41468723  1
  O  O299  1  0.58752198  0.98434345  0.75213101  1
  O  O300  1  0.93059502  0.48784791  0.07653931  1
  O  O301  1  0.91074342  0.48587407  0.41698155  1
  O  O302  1  0.92142796  0.49725185  0.74652741  1
  O  O303  1  0.92165064  0.97497717  0.08261104  1
  O  O304  1  0.90978300  0.97394901  0.41756073  1
  O  O305  1  0.91921643  0.97377361  0.74791556  1
  O  O306  1  0.09069254  0.26608936  0.08304347  1
  O  O307  1  0.08437016  0.24995996  0.41400263  1
  O  O308  1  0.09088599  0.25931953  0.75575095  1
  O  O309  1  0.08755763  0.77051600  0.08657991  1
  O  O310  1  0.07370931  0.76179440  0.40798262  1
  O  O311  1  0.08085744  0.77456638  0.75133567  1
  O  O312  1  0.41921977  0.27344903  0.08790662  1
  O  O313  1  0.42481208  0.27138740  0.41950457  1
  O  O314  1  0.42400009  0.27042931  0.75569571  1
  O  O315  1  0.41782300  0.77298908  0.08562083  1
  O  O316  1  0.41834547  0.76946802  0.41595118  1
  O  O317  1  0.42734835  0.76557207  0.75915240  1
  O  O318  1  0.75688484  0.25381832  0.09396620  1
  O  O319  1  0.74611542  0.27183470  0.41804989  1
  O  O320  1  0.74921374  0.26130410  0.74780581  1
  O  O321  1  0.76339625  0.76577560  0.09882121  1
  O  O322  1  0.74605554  0.77321891  0.42300709  1
  O  O323  1  0.75442144  0.77381004  0.75676506  1
  O  O324  1  0.24855718  0.01975786  0.24213335  1
  O  O325  1  0.24794592  0.02674049  0.57763905  1
  O  O326  1  0.24723910  0.01456071  0.90761272  1
  O  O327  1  0.24119591  0.52308540  0.23930677  1
  O  O328  1  0.24481786  0.51622838  0.57006915  1
  O  O329  1  0.25331419  0.51289554  0.92311781  1
  O  O330  1  0.58569672  0.02365743  0.25506468  1
  O  O331  1  0.57914651  0.02092462  0.58140949  1
  O  O332  1  0.59073211  0.01618674  0.92653023  1
  O  O333  1  0.58353008  0.51192804  0.25640071  1
  O  O334  1  0.57961728  0.52504760  0.58050364  1
  O  O335  1  0.57938755  0.52042032  0.91264458  1
  O  O336  1  0.91530739  0.01582983  0.25364555  1
  O  O337  1  0.91915169  0.01836972  0.58658882  1
  O  O338  1  0.91269337  0.01297670  0.90509911  1
  O  O339  1  0.91498802  0.52034765  0.24250887  1
  O  O340  1  0.91532800  0.51301128  0.58387122  1
  O  O341  1  0.91911789  0.51394847  0.91944335  1
  O  O342  1  0.08335616  0.22738112  0.24703688  1
  O  O343  1  0.07957774  0.22729475  0.58131699  1
  O  O344  1  0.08769654  0.22887523  0.91254789  1
  O  O345  1  0.07931671  0.72321775  0.25062854  1
  O  O346  1  0.07834538  0.73408684  0.58038312  1
  O  O347  1  0.07775699  0.73605053  0.92733756  1
  O  O348  1  0.41817903  0.22576685  0.25633703  1
  O  O349  1  0.41123281  0.23238908  0.58506840  1
  O  O350  1  0.41652414  0.25089981  0.91823166  1
  O  O351  1  0.40638463  0.73555902  0.25752024  1
  O  O352  1  0.42081332  0.73755545  0.58084668  1
  O  O353  1  0.41371515  0.74083310  0.92201113  1
  O  O354  1  0.74707089  0.22317809  0.25486274  1
  O  O355  1  0.74659706  0.23837300  0.58204862  1
  O  O356  1  0.75339777  0.23096392  0.92245204  1
  O  O357  1  0.74416599  0.72767650  0.25815263  1
  O  O358  1  0.73882644  0.74015689  0.59442068  1
  O  O359  1  0.74310857  0.73211662  0.93170391  1
