# generated using pymatgen
data_Ba17Sr5La8Pr42Mn72O216
_symmetry_space_group_name_H-M   'P 1'
_cell_length_a   16.66944262
_cell_length_b   15.70753770
_cell_length_c   16.81686517
_cell_angle_alpha   89.98853710
_cell_angle_beta   90.01405589
_cell_angle_gamma   90.01405268
_symmetry_Int_Tables_number   1
_chemical_formula_structural   Ba17Sr5La8Pr42Mn72O216
_chemical_formula_sum   'Ba17 Sr5 La8 Pr42 Mn72 O216'
_cell_volume   4403.25864690
_cell_formula_units_Z   1
loop_
 _symmetry_equiv_pos_site_id
 _symmetry_equiv_pos_as_xyz
  1  'x, y, z'
loop_
 _atom_site_type_symbol
 _atom_site_label
 _atom_site_symmetry_multiplicity
 _atom_site_fract_x
 _atom_site_fract_y
 _atom_site_fract_z
 _atom_site_occupancy
  Ba  Ba0  1  -0.00016755  0.87610755  0.66725091  1
  Ba  Ba1  1  0.16361739  0.87493423  0.16416871  1
  Ba  Ba2  1  -0.00436262  0.12703872  0.99820503  1
  Ba  Ba3  1  0.49807415  0.87407334  0.16741521  1
  Ba  Ba4  1  0.66570056  0.87644809  0.33447261  1
  Ba  Ba5  1  0.16402040  0.87312186  0.83389404  1
  Ba  Ba6  1  0.33371694  0.12580746  0.66449044  1
  Ba  Ba7  1  0.17073471  0.62193605  0.50025098  1
  Ba  Ba8  1  0.66644304  0.12641011  0.33280478  1
  Ba  Ba9  1  0.16641395  0.62235659  0.83204298  1
  Ba  Ba10  1  0.50281414  0.62366924  0.83501193  1
  Ba  Ba11  1  0.50017938  0.62265333  0.17025916  1
  Ba  Ba12  1  0.50062814  0.12596423  0.83505755  1
  Ba  Ba13  1  0.50171594  0.12588306  0.50320166  1
  Ba  Ba14  1  0.33436722  0.62243534  0.33438549  1
  Ba  Ba15  1  -0.00324483  0.87552499  0.00085810  1
  Ba  Ba16  1  0.33095680  0.87486862  0.00202968  1
  Sr  Sr17  1  0.66911928  0.37623669  0.67061614  1
  Sr  Sr18  1  -0.00361080  0.12532494  0.66724055  1
  Sr  Sr19  1  0.83925480  0.62581435  0.49973844  1
  Sr  Sr20  1  0.83358865  0.37285696  0.82803513  1
  Sr  Sr21  1  0.66456882  0.12553178  0.99800404  1
  La  La22  1  0.00329230  0.62356256  0.33257300  1
  La  La23  1  0.32967587  0.12209392  0.99562176  1
  La  La24  1  0.00300689  0.37772311  0.66758673  1
  La  La25  1  -0.00432116  0.12692004  0.33049684  1
  La  La26  1  0.32959425  0.12650778  0.33052866  1
  La  La27  1  0.33326787  0.62821269  1.00110495  1
  La  La28  1  0.66400608  0.87474206  0.66799698  1
  La  La29  1  0.66037314  0.87561387  0.00259896  1
  Pr  Pr30  1  0.00219391  0.37566610  0.33712868  1
  Pr  Pr31  1  0.34084502  0.37618698  0.33507669  1
  Pr  Pr32  1  0.15710401  0.12056607  0.16376330  1
  Pr  Pr33  1  0.50810609  0.62664912  0.50853435  1
  Pr  Pr34  1  0.66456711  0.37651891  -0.00226928  1
  Pr  Pr35  1  0.16842099  0.37002310  0.83032576  1
  Pr  Pr36  1  0.49216889  0.87521262  0.83586412  1
  Pr  Pr37  1  0.00446674  0.62685461  0.66353095  1
  Pr  Pr38  1  0.83742539  0.62280796  0.83344326  1
  Pr  Pr39  1  0.17214472  0.37148816  0.49451037  1
  Pr  Pr40  1  0.83478083  0.87493367  0.49594243  1
  Pr  Pr41  1  0.49446933  0.12167510  0.16876128  1
  Pr  Pr42  1  0.83694711  0.62582736  0.16960501  1
  Pr  Pr43  1  0.16846268  0.87692663  0.49618033  1
  Pr  Pr44  1  0.34027061  0.37781310  -0.00059653  1
  Pr  Pr45  1  0.00222717  0.62542400  0.99847306  1
  Pr  Pr46  1  0.49219630  0.87825835  0.49715383  1
  Pr  Pr47  1  0.83218801  0.87847106  0.83161187  1
  Pr  Pr48  1  0.68039501  0.62206954  0.66586036  1
  Pr  Pr49  1  0.16152971  0.12205929  0.83329886  1
  Pr  Pr50  1  0.83042263  0.12473654  0.16615685  1
  Pr  Pr51  1  0.16872153  0.62903530  0.16973198  1
  Pr  Pr52  1  0.83113194  0.12627091  0.83339473  1
  Pr  Pr53  1  0.83076758  0.37212465  0.16250089  1
  Pr  Pr54  1  0.33821848  0.37632328  0.66825470  1
  Pr  Pr55  1  0.15950050  0.12479604  0.50348954  1
  Pr  Pr56  1  0.33521773  0.87163086  0.33184061  1
  Pr  Pr57  1  0.33717418  0.62813489  0.66244678  1
  Pr  Pr58  1  0.83029548  0.12380356  0.50207481  1
  Pr  Pr59  1  0.82642242  0.87741501  0.16264068  1
  Pr  Pr60  1  0.66988554  0.62711522  0.99948156  1
  Pr  Pr61  1  0.50441713  0.37552253  0.16967568  1
  Pr  Pr62  1  0.50541841  0.37392183  0.83081426  1
  Pr  Pr63  1  0.49894033  0.37193371  0.50407522  1
  Pr  Pr64  1  0.00131261  0.87482248  0.33667204  1
  Pr  Pr65  1  0.32902797  0.87539161  0.66909014  1
  Pr  Pr66  1  0.16963032  0.37378541  0.16316606  1
  Pr  Pr67  1  0.66853538  0.13090024  0.66349324  1
  Pr  Pr68  1  0.00123722  0.37525702  -0.00032227  1
  Pr  Pr69  1  0.83435886  0.37606513  0.49746506  1
  Pr  Pr70  1  0.66489955  0.37722501  0.33971517  1
  Pr  Pr71  1  0.67339359  0.62602849  0.33145510  1
  Mn  Mn72  1  -0.00506068  0.00186867  0.16829616  1
  Mn  Mn73  1  -0.00047289  0.00070087  0.49942109  1
  Mn  Mn74  1  -0.00272629  0.00136150  0.83171883  1
  Mn  Mn75  1  -0.00146465  0.49642993  0.16624143  1
  Mn  Mn76  1  0.00101299  0.49911732  0.50091823  1
  Mn  Mn77  1  -0.00058143  0.49787782  0.83377674  1
  Mn  Mn78  1  0.33024405  0.00486787  0.16565661  1
  Mn  Mn79  1  0.33104716  0.00010101  0.49816935  1
  Mn  Mn80  1  0.33175397  0.00062863  0.83142969  1
  Mn  Mn81  1  0.33154326  0.49494568  0.16721859  1
  Mn  Mn82  1  0.33795850  0.49802180  0.50171290  1
  Mn  Mn83  1  0.33355258  0.49891534  0.83403343  1
  Mn  Mn84  1  0.66514276  0.00244377  0.16397804  1
  Mn  Mn85  1  0.66848919  0.00001907  0.50395731  1
  Mn  Mn86  1  0.66595535  -0.00198775  0.83366818  1
  Mn  Mn87  1  0.66896274  0.49829782  0.16853166  1
  Mn  Mn88  1  0.67014227  0.49983797  0.50226312  1
  Mn  Mn89  1  0.67056211  0.50110323  0.83407688  1
  Mn  Mn90  1  -0.00204329  0.25212782  0.16713955  1
  Mn  Mn91  1  -0.00106225  0.25092678  0.50014346  1
  Mn  Mn92  1  -0.00158541  0.25115005  0.83099276  1
  Mn  Mn93  1  -0.00334698  0.74803216  0.16711238  1
  Mn  Mn94  1  0.00168213  0.74993894  0.49987299  1
  Mn  Mn95  1  -0.00267529  0.74813450  0.83274206  1
  Mn  Mn96  1  0.33112226  0.25220142  0.16500180  1
  Mn  Mn97  1  0.33246250  0.25057573  0.49834956  1
  Mn  Mn98  1  0.33263798  0.25132552  0.83365431  1
  Mn  Mn99  1  0.33265333  0.74838249  0.16766436  1
  Mn  Mn100  1  0.33557952  0.75049944  0.50074354  1
  Mn  Mn101  1  0.33353463  0.74836225  0.83187939  1
  Mn  Mn102  1  0.66579300  0.25126763  0.16499897  1
  Mn  Mn103  1  0.66947156  0.25350960  0.50224120  1
  Mn  Mn104  1  0.66806841  0.25039052  0.83292085  1
  Mn  Mn105  1  0.66747312  0.74797550  0.16612591  1
  Mn  Mn106  1  0.66963166  0.74889285  0.50278997  1
  Mn  Mn107  1  0.66849786  0.75034613  0.83425936  1
  Mn  Mn108  1  0.16644728  0.25257476  -0.00309277  1
  Mn  Mn109  1  0.16600234  0.24972816  0.33029924  1
  Mn  Mn110  1  0.16617359  0.25141904  0.66359875  1
  Mn  Mn111  1  0.16453927  0.74676443  0.00161470  1
  Mn  Mn112  1  0.16595161  0.75038103  0.33267952  1
  Mn  Mn113  1  0.16808808  0.74845417  0.66506582  1
  Mn  Mn114  1  0.49977520  0.25324891  0.00237421  1
  Mn  Mn115  1  0.49969491  0.24951886  0.33334852  1
  Mn  Mn116  1  0.50303483  0.25205156  0.66866602  1
  Mn  Mn117  1  0.50082861  0.74740552  0.00078887  1
  Mn  Mn118  1  0.50122941  0.74948044  0.33837298  1
  Mn  Mn119  1  0.50309617  0.75089825  0.66772979  1
  Mn  Mn120  1  0.83004217  0.25290087  -0.00326232  1
  Mn  Mn121  1  0.83357214  0.25286887  0.33184806  1
  Mn  Mn122  1  0.83500159  0.25144322  0.66534550  1
  Mn  Mn123  1  0.83182589  0.74777283  -0.00038298  1
  Mn  Mn124  1  0.83563492  0.74911278  0.33294591  1
  Mn  Mn125  1  0.83369580  0.74965442  0.66561521  1
  Mn  Mn126  1  0.16350935  0.00167107  -0.00026207  1
  Mn  Mn127  1  0.16604633  0.00167732  0.33346234  1
  Mn  Mn128  1  0.16486382  0.00277391  0.66491442  1
  Mn  Mn129  1  0.16614323  0.49703946  0.00027728  1
  Mn  Mn130  1  0.16569547  0.49768504  0.33066911  1
  Mn  Mn131  1  0.16967452  0.49748074  0.66660450  1
  Mn  Mn132  1  0.49937746  0.00237975  0.00119487  1
  Mn  Mn133  1  0.49779995  0.00141660  0.33424327  1
  Mn  Mn134  1  0.50240575  -0.00220941  0.66746944  1
  Mn  Mn135  1  0.50112334  0.49959434  0.00126569  1
  Mn  Mn136  1  0.50344110  0.49840121  0.33883386  1
  Mn  Mn137  1  0.50379356  0.50036867  0.66894316  1
  Mn  Mn138  1  0.82862950  0.00156765  -0.00217664  1
  Mn  Mn139  1  0.83464361  0.00053281  0.33247835  1
  Mn  Mn140  1  0.83159204  0.00027734  0.66575616  1
  Mn  Mn141  1  0.83305691  0.49771232  -0.00044146  1
  Mn  Mn142  1  0.83470839  0.49932904  0.33187526  1
  Mn  Mn143  1  0.83706515  0.49925743  0.66513557  1
  O  O144  1  0.17120201  0.13370669  0.01929787  1
  O  O145  1  0.16890975  0.12737920  0.36082447  1
  O  O146  1  0.16712674  0.13109708  0.68764101  1
  O  O147  1  0.16157310  0.61620547  0.02470307  1
  O  O148  1  0.16056674  0.62285045  0.34412777  1
  O  O149  1  0.17121089  0.62044539  0.67546816  1
  O  O150  1  0.49796136  0.13374172  0.02385301  1
  O  O151  1  0.49107101  0.12766972  0.34554231  1
  O  O152  1  0.50874609  0.12624600  0.67810522  1
  O  O153  1  0.50303252  0.62034931  0.01186900  1
  O  O154  1  0.50505278  0.62036762  0.36266643  1
  O  O155  1  0.48728788  0.62510425  0.67864197  1
  O  O156  1  0.82765599  0.13174735  0.02334525  1
  O  O157  1  0.83871167  0.13173150  0.35832107  1
  O  O158  1  0.83014830  0.12651085  0.68834905  1
  O  O159  1  0.83272348  0.62014673  0.02772338  1
  O  O160  1  0.83110350  0.62260737  0.35178601  1
  O  O161  1  0.83588964  0.62438505  0.68882936  1
  O  O162  1  0.15834349  0.37234570  0.30640913  1
  O  O163  1  0.16414907  0.37442247  0.63789148  1
  O  O164  1  0.15900597  0.37491488  0.97353108  1
  O  O165  1  0.16143004  0.87722462  0.31998846  1
  O  O166  1  0.17249076  0.87507040  0.64328580  1
  O  O167  1  0.16487047  0.87197024  0.99382426  1
  O  O168  1  0.50715274  0.37313738  0.31386610  1
  O  O169  1  0.50402570  0.37773979  0.64864164  1
  O  O170  1  0.49791218  0.37769115  0.97538339  1
  O  O171  1  0.49583509  0.87848904  0.32565706  1
  O  O172  1  0.51065598  0.87200495  0.64044442  1
  O  O173  1  0.50522674  0.87163942  0.98360981  1
  O  O174  1  0.83466037  0.37662188  0.30620397  1
  O  O175  1  0.83866458  0.37616460  0.64062294  1
  O  O176  1  0.82843122  0.37663021  0.97520469  1
  O  O177  1  0.84289027  0.87088432  0.30706460  1
  O  O178  1  0.82814525  0.87315363  0.63994861  1
  O  O179  1  0.82585891  0.87041496  0.97634675  1
  O  O180  1  -0.00301801  0.37454407  0.19494482  1
  O  O181  1  -0.00339135  0.37360244  0.52333102  1
  O  O182  1  0.00221152  0.37548927  0.85614333  1
  O  O183  1  -0.00983617  0.88019451  0.19173168  1
  O  O184  1  0.00166440  0.87570365  0.51096624  1
  O  O185  1  -0.00896324  0.87266887  0.84256388  1
  O  O186  1  0.31982973  0.37185804  0.19353946  1
  O  O187  1  0.32832095  0.37487825  0.52217175  1
  O  O188  1  0.33106641  0.37534136  0.85652365  1
  O  O189  1  0.32867625  0.88268823  0.18606351  1
  O  O190  1  0.32875443  0.87573207  0.52201036  1
  O  O191  1  0.33718430  0.87506589  0.84233945  1
  O  O192  1  0.66755451  0.37567439  0.19576667  1
  O  O193  1  0.67918808  0.37778842  0.52194645  1
  O  O194  1  0.66861889  0.37785015  0.85358610  1
  O  O195  1  0.67324244  0.87412572  0.17531398  1
  O  O196  1  0.68040493  0.87553524  0.52354882  1
  O  O197  1  0.68018847  0.87211208  0.85950716  1
  O  O198  1  -0.00235160  0.12912321  0.15457723  1
  O  O199  1  0.00051677  0.12757564  0.47337918  1
  O  O200  1  -0.00454276  0.12928943  0.81636628  1
  O  O201  1  -0.00807450  0.61459607  0.14054585  1
  O  O202  1  0.00010182  0.62357862  0.47621292  1
  O  O203  1  -0.00846005  0.62031197  0.80912848  1
  O  O204  1  0.34249525  0.13375737  0.14125190  1
  O  O205  1  0.32779153  0.12574847  0.47587717  1
  O  O206  1  0.32827351  0.12767218  0.82157337  1
  O  O207  1  0.32619636  0.61407571  0.14806815  1
  O  O208  1  0.34575632  0.62253420  0.49234305  1
  O  O209  1  0.33499161  0.62054091  0.80715835  1
  O  O210  1  0.67276804  0.12949064  0.14737327  1
  O  O211  1  0.67383854  0.12766472  0.48920090  1
  O  O212  1  0.67012736  0.12159820  0.80699104  1
  O  O213  1  0.67432736  0.62033266  0.14429009  1
  O  O214  1  0.66093859  0.62067796  0.47440340  1
  O  O215  1  0.67138943  0.62671099  0.80895815  1
  O  O216  1  0.07911884  0.02138164  0.25609564  1
  O  O217  1  0.08024983  0.02060413  0.58187098  1
  O  O218  1  0.08405047  0.01491475  0.91259842  1
  O  O219  1  0.07777209  0.51910726  0.24826412  1
  O  O220  1  0.08089479  0.51240098  0.59079307  1
  O  O221  1  0.07482811  0.51331028  0.92582418  1
  O  O222  1  0.40767268  0.02180839  0.25066340  1
  O  O223  1  0.41679573  0.00112755  0.58215000  1
  O  O224  1  0.41262797  0.01158907  0.91965910  1
  O  O225  1  0.41683958  0.49752790  0.25216167  1
  O  O226  1  0.42858170  0.50721513  0.57784102  1
  O  O227  1  0.41140628  0.51198688  0.92230551  1
  O  O228  1  0.75500683  0.01290449  0.24138084  1
  O  O229  1  0.75093360  0.02415414  0.58643946  1
  O  O230  1  0.75157094  0.02121897  0.90932134  1
  O  O231  1  0.75496169  0.52054382  0.24717253  1
  O  O232  1  0.75544645  0.52034553  0.58041312  1
  O  O233  1  0.75237388  0.52488854  0.91697760  1
  O  O234  1  0.24123375  0.22578012  0.23706481  1
  O  O235  1  0.23869454  0.23721479  0.56855678  1
  O  O236  1  0.24210573  0.23550695  0.90696911  1
  O  O237  1  0.24688998  0.73785518  0.25073026  1
  O  O238  1  0.26304764  0.73744943  0.58935435  1
  O  O239  1  0.25349719  0.73057546  0.92411478  1
  O  O240  1  0.57323704  0.23641498  0.23880459  1
  O  O241  1  0.59059538  0.24355422  0.58878849  1
  O  O242  1  0.58255756  0.24693240  0.91881101  1
  O  O243  1  0.59286839  0.73224842  0.26234253  1
  O  O244  1  0.59359894  0.72587699  0.59856193  1
  O  O245  1  0.59585243  0.73739642  0.92568936  1
  O  O246  1  0.91259011  0.23169068  0.24815164  1
  O  O247  1  0.91119565  0.23121688  0.57382727  1
  O  O248  1  0.90760753  0.23866697  0.90835926  1
  O  O249  1  0.92130049  0.72332449  0.25522076  1
  O  O250  1  0.92277149  0.73171719  0.58913419  1
  O  O251  1  0.91785390  0.72471117  0.92289158  1
  O  O252  1  0.08251398  0.47182458  0.08662522  1
  O  O253  1  0.08414881  0.47584098  0.41685658  1
  O  O254  1  0.08651576  0.47756108  0.75347640  1
  O  O255  1  0.07949249  0.99915199  0.08835148  1
  O  O256  1  0.08828082  0.98445991  0.42109708  1
  O  O257  1  0.08468281  0.99893473  0.75050254  1
  O  O258  1  0.41586451  0.47553988  0.08728060  1
  O  O259  1  0.41858342  0.47237302  0.41856015  1
  O  O260  1  0.41758126  0.47574822  0.74905327  1
  O  O261  1  0.41620362  0.99856592  0.08637698  1
  O  O262  1  0.41106282  0.98042141  0.41633170  1
  O  O263  1  0.41908343  0.97941795  0.74805979  1
  O  O264  1  0.74924961  0.47483345  0.08136427  1
  O  O265  1  0.74978371  0.47956862  0.41116332  1
  O  O266  1  0.75237583  0.49068295  0.74793374  1
  O  O267  1  0.74584594  0.98218238  0.07744659  1
  O  O268  1  0.76062246  0.98712273  0.42326154  1
  O  O269  1  0.74605204  0.97664819  0.74781982  1
  O  O270  1  0.25515069  0.27521114  0.07494915  1
  O  O271  1  0.25322262  0.27399596  0.40363962  1
  O  O272  1  0.25344316  0.27552423  0.74126811  1
  O  O273  1  0.24501482  0.74565225  0.08727713  1
  O  O274  1  0.24841067  0.76992613  0.41905068  1
  O  O275  1  0.25274648  0.76080854  0.74464816  1
  O  O276  1  0.58509549  0.27874613  0.08148269  1
  O  O277  1  0.58789800  0.27164900  0.42010014  1
  O  O278  1  0.58401994  0.26910769  0.75378095  1
  O  O279  1  0.58406757  0.75676367  0.08335101  1
  O  O280  1  0.57512915  0.76473968  0.43623034  1
  O  O281  1  0.57827570  0.77404540  0.76079183  1
  O  O282  1  0.91522370  0.27433325  0.08045611  1
  O  O283  1  0.92019203  0.27559749  0.41259530  1
  O  O284  1  0.92321553  0.26895974  0.74048659  1
  O  O285  1  0.90277004  0.76309645  0.09408363  1
  O  O286  1  0.91703649  0.77041659  0.41692387  1
  O  O287  1  0.90212560  0.76188528  0.76015651  1
  O  O288  1  0.24970857  0.47283966  0.08012184  1
  O  O289  1  0.25222643  0.47781858  0.41549518  1
  O  O290  1  0.24980693  0.47295759  0.75115725  1
  O  O291  1  0.24861050  1.00489114  0.08405905  1
  O  O292  1  0.25263543  0.97761817  0.40955646  1
  O  O293  1  0.25403562  0.98730877  0.74124364  1
  O  O294  1  0.58315732  0.47611379  0.09042468  1
  O  O295  1  0.58236315  0.47309834  0.42798017  1
  O  O296  1  0.58192221  0.48385248  0.75748843  1
  O  O297  1  0.58447598  0.99388923  0.08231199  1
  O  O298  1  0.58138983  0.98664963  0.43037634  1
  O  O299  1  0.58118093  0.97151007  0.75768306  1
  O  O300  1  0.91658239  0.47084765  0.08250642  1
  O  O301  1  0.91631656  0.47748163  0.41395527  1
  O  O302  1  0.92102846  0.48050788  0.74635644  1
  O  O303  1  0.90368872  0.98946685  0.09145706  1
  O  O304  1  0.92302633  0.98039766  0.41141970  1
  O  O305  1  0.90653782  0.98913169  0.75188549  1
  O  O306  1  0.08493465  0.27157561  0.08550627  1
  O  O307  1  0.08558777  0.27178170  0.42036249  1
  O  O308  1  0.08790060  0.27241763  0.74960955  1
  O  O309  1  0.07538162  0.74866451  0.08321788  1
  O  O310  1  0.08148695  0.76832581  0.41266111  1
  O  O311  1  0.07760152  0.74989915  0.74477185  1
  O  O312  1  0.42099260  0.28023974  0.09291938  1
  O  O313  1  0.41854981  0.27413556  0.42045019  1
  O  O314  1  0.42045587  0.27255867  0.75602111  1
  O  O315  1  0.41161026  0.74879313  0.08042205  1
  O  O316  1  0.41165559  0.77277469  0.41659056  1
  O  O317  1  0.41593355  0.77209025  0.74045365  1
  O  O318  1  0.74802790  0.27640924  0.08171586  1
  O  O319  1  0.75419416  0.27467919  0.41575348  1
  O  O320  1  0.75265095  0.26180376  0.74771356  1
  O  O321  1  0.74422238  0.76391257  0.07416967  1
  O  O322  1  0.75523781  0.76347176  0.41520417  1
  O  O323  1  0.74311132  0.76680910  0.74289220  1
  O  O324  1  0.24453313  0.02912089  0.24689801  1
  O  O325  1  0.23943275  0.01444295  0.56966076  1
  O  O326  1  0.24559625  0.01930105  0.91266126  1
  O  O327  1  0.24026329  0.51079431  0.24096285  1
  O  O328  1  0.26568693  0.51009984  0.59266106  1
  O  O329  1  0.25221500  0.51216256  0.92276365  1
  O  O330  1  0.57772909  0.01619877  0.24464005  1
  O  O331  1  0.59457226  0.01129887  0.59632632  1
  O  O332  1  0.58615331  0.00522661  0.91862839  1
  O  O333  1  0.59434498  0.51303544  0.26551063  1
  O  O334  1  0.59106202  0.52335221  0.59153011  1
  O  O335  1  0.59506653  0.51019688  0.92705795  1
  O  O336  1  0.91425629  0.02623966  0.25101320  1
  O  O337  1  0.91013651  0.01544133  0.57388584  1
  O  O338  1  0.90783709  0.01192187  0.91244716  1
  O  O339  1  0.91715513  0.51980201  0.25013956  1
  O  O340  1  0.92115024  0.51896022  0.58550612  1
  O  O341  1  0.91556469  0.52014097  0.91828093  1
  O  O342  1  0.08007288  0.22882132  0.25508448  1
  O  O343  1  0.07922751  0.23182138  0.58281181  1
  O  O344  1  0.08457535  0.23644042  0.91077207  1
  O  O345  1  0.08158901  0.73026822  0.24784708  1
  O  O346  1  0.08575387  0.73599281  0.58215214  1
  O  O347  1  0.07957814  0.73258966  0.91972503  1
  O  O348  1  0.40423538  0.23931496  0.25516983  1
  O  O349  1  0.41765964  0.25091532  0.58851684  1
  O  O350  1  0.40671876  0.24113117  0.93109809  1
  O  O351  1  0.41463325  0.74429241  0.25288124  1
  O  O352  1  0.42844046  0.73995138  0.57569794  1
  O  O353  1  0.41939900  0.74005527  0.91463468  1
  O  O354  1  0.75440562  0.23814688  0.24375673  1
  O  O355  1  0.75367818  0.23159906  0.58232737  1
  O  O356  1  0.74809962  0.23036708  0.91365150  1
  O  O357  1  0.75730893  0.73066123  0.24458759  1
  O  O358  1  0.75446549  0.72613799  0.58123867  1
  O  O359  1  0.75664055  0.72232378  0.91175425  1
