# generated using pymatgen
data_Ba17Sr5La8Pr42Mn72O216
_symmetry_space_group_name_H-M   'P 1'
_cell_length_a   16.67030298
_cell_length_b   15.70307976
_cell_length_c   16.81872801
_cell_angle_alpha   89.99922495
_cell_angle_beta   90.01100566
_cell_angle_gamma   89.98378254
_symmetry_Int_Tables_number   1
_chemical_formula_structural   Ba17Sr5La8Pr42Mn72O216
_chemical_formula_sum   'Ba17 Sr5 La8 Pr42 Mn72 O216'
_cell_volume   4402.72390444
_cell_formula_units_Z   1
loop_
 _symmetry_equiv_pos_site_id
 _symmetry_equiv_pos_as_xyz
  1  'x, y, z'
loop_
 _atom_site_type_symbol
 _atom_site_label
 _atom_site_symmetry_multiplicity
 _atom_site_fract_x
 _atom_site_fract_y
 _atom_site_fract_z
 _atom_site_occupancy
  Ba  Ba0  1  0.00021973  0.12656979  0.99821208  1
  Ba  Ba1  1  0.83477746  0.62353128  0.83078793  1
  Ba  Ba2  1  0.66560961  0.87520024  0.00111958  1
  Ba  Ba3  1  0.83257826  0.87374855  0.49776608  1
  Ba  Ba4  1  0.83178213  0.87477645  0.83102178  1
  Ba  Ba5  1  0.83249247  0.87344127  0.16476059  1
  Ba  Ba6  1  0.33516849  0.87582630  0.33329351  1
  Ba  Ba7  1  0.83593172  0.12452862  0.83194592  1
  Ba  Ba8  1  0.00083726  0.37501740  0.66532848  1
  Ba  Ba9  1  0.33042697  0.62497827  0.99927079  1
  Ba  Ba10  1  0.49758577  0.62353963  0.83591591  1
  Ba  Ba11  1  0.16762927  0.62599509  0.50261506  1
  Ba  Ba12  1  0.16824178  0.87421026  0.49828759  1
  Ba  Ba13  1  0.49846503  0.37494680  0.50047794  1
  Ba  Ba14  1  0.49968313  0.12809637  0.83429718  1
  Ba  Ba15  1  0.33171271  0.87537145  0.00354958  1
  Ba  Ba16  1  0.66942937  0.12740550  0.33281025  1
  Sr  Sr17  1  0.00142259  0.62361410  0.66596908  1
  Sr  Sr18  1  0.50005300  0.87781904  0.16439067  1
  Sr  Sr19  1  0.16407642  0.62309317  0.83372787  1
  Sr  Sr20  1  0.16375120  0.37566585  0.16694323  1
  Sr  Sr21  1  -0.00325585  0.37462453  0.33659130  1
  La  La22  1  0.67081648  0.12311374  0.99895474  1
  La  La23  1  0.66520912  0.62823557  0.99775759  1
  La  La24  1  0.83583005  0.62485828  0.16443669  1
  La  La25  1  0.32833359  0.37556248  0.33902494  1
  La  La26  1  0.66432603  0.37683485  -0.00277624  1
  La  La27  1  0.66911092  0.62412717  0.33365778  1
  La  La28  1  0.50293065  0.12083331  0.16710865  1
  La  La29  1  0.33502060  0.62551527  0.33404439  1
  Pr  Pr30  1  0.00455564  0.62717307  0.33148206  1
  Pr  Pr31  1  -0.00239868  0.87389271  0.33548297  1
  Pr  Pr32  1  0.50007931  0.87726694  0.49873826  1
  Pr  Pr33  1  -0.00540572  0.37563049  -0.00063800  1
  Pr  Pr34  1  0.84230165  0.62310099  0.50448574  1
  Pr  Pr35  1  0.67143600  0.62565911  0.66226022  1
  Pr  Pr36  1  0.33921986  0.12545836  0.33368514  1
  Pr  Pr37  1  0.00133113  0.86844271  0.66793193  1
  Pr  Pr38  1  0.00284851  0.12127512  0.66434281  1
  Pr  Pr39  1  0.50516805  0.12364007  0.50500142  1
  Pr  Pr40  1  0.66108017  0.87497675  0.67377083  1
  Pr  Pr41  1  0.33309318  0.62591433  0.66662924  1
  Pr  Pr42  1  0.50138297  0.62680687  0.50682818  1
  Pr  Pr43  1  -0.00550046  0.87276011  -0.00264490  1
  Pr  Pr44  1  0.83149959  0.37616692  0.49468455  1
  Pr  Pr45  1  0.16721457  0.12807575  0.83660044  1
  Pr  Pr46  1  0.16253483  0.87468596  0.16211599  1
  Pr  Pr47  1  0.17156922  0.12749709  0.16995115  1
  Pr  Pr48  1  0.66508385  0.37455149  0.33757978  1
  Pr  Pr49  1  0.33223858  0.37624966  0.00225923  1
  Pr  Pr50  1  -0.00015713  0.62359257  0.99418932  1
  Pr  Pr51  1  0.83907592  0.12169047  0.16665621  1
  Pr  Pr52  1  0.17091007  0.62308289  0.16972419  1
  Pr  Pr53  1  0.83146872  0.37169522  0.82883751  1
  Pr  Pr54  1  0.66296292  0.87576220  0.33336163  1
  Pr  Pr55  1  0.66274259  0.37442879  0.66948391  1
  Pr  Pr56  1  0.16432461  0.87368707  0.83303422  1
  Pr  Pr57  1  0.32922301  0.37633401  0.66918085  1
  Pr  Pr58  1  0.33885018  0.12442887  0.66497153  1
  Pr  Pr59  1  0.17325002  0.12532414  0.50036567  1
  Pr  Pr60  1  0.16152759  0.37800845  0.49552693  1
  Pr  Pr61  1  0.16422682  0.37628287  0.83394617  1
  Pr  Pr62  1  0.84354268  0.12623736  0.50013694  1
  Pr  Pr63  1  0.50035425  0.63131753  0.16753896  1
  Pr  Pr64  1  0.49328043  0.87316930  0.83552935  1
  Pr  Pr65  1  0.33431222  0.12572559  0.99998467  1
  Pr  Pr66  1  0.83016835  0.37337201  0.16496822  1
  Pr  Pr67  1  0.67391014  0.12312110  0.66060802  1
  Pr  Pr68  1  0.48960564  0.37817364  0.83055437  1
  Pr  Pr69  1  0.00429976  0.12171550  0.32700719  1
  Pr  Pr70  1  0.32887326  0.87459887  0.67137026  1
  Pr  Pr71  1  0.49871855  0.37347680  0.16830554  1
  Mn  Mn72  1  0.00154628  0.00011794  0.16484202  1
  Mn  Mn73  1  0.00282630  0.00107391  0.49694311  1
  Mn  Mn74  1  0.00193991  -0.00116627  0.83067715  1
  Mn  Mn75  1  -0.00024366  0.49755385  0.16584182  1
  Mn  Mn76  1  0.00024918  0.49805520  0.49844837  1
  Mn  Mn77  1  0.00078588  0.49928336  0.83336177  1
  Mn  Mn78  1  0.33169957  0.00232995  0.16745709  1
  Mn  Mn79  1  0.33550971  0.00155407  0.50126353  1
  Mn  Mn80  1  0.33122492  0.00164920  0.83461401  1
  Mn  Mn81  1  0.33424544  0.49863379  0.16943437  1
  Mn  Mn82  1  0.33407868  0.49976342  0.50180553  1
  Mn  Mn83  1  0.32832342  0.49964463  0.83490659  1
  Mn  Mn84  1  0.66720965  0.00203605  0.16645229  1
  Mn  Mn85  1  0.66817438  -0.00087365  0.49987452  1
  Mn  Mn86  1  0.66376412  0.00138715  0.83187938  1
  Mn  Mn87  1  0.66546576  0.49902845  0.16739630  1
  Mn  Mn88  1  0.66727731  0.50035675  0.49851009  1
  Mn  Mn89  1  0.66590254  0.49950406  0.83322822  1
  Mn  Mn90  1  0.00021731  0.25321485  0.16728982  1
  Mn  Mn91  1  0.00213328  0.24895627  0.49769656  1
  Mn  Mn92  1  0.00161329  0.25149525  0.83176321  1
  Mn  Mn93  1  0.00117666  0.74693648  0.16394531  1
  Mn  Mn94  1  0.00075208  0.75015734  0.49946183  1
  Mn  Mn95  1  0.00129359  0.74761644  0.83275717  1
  Mn  Mn96  1  0.33351547  0.25201852  0.16869778  1
  Mn  Mn97  1  0.33309341  0.24947577  0.50137363  1
  Mn  Mn98  1  0.33040170  0.24945883  0.83478057  1
  Mn  Mn99  1  0.33297002  0.74925478  0.16818304  1
  Mn  Mn100  1  0.33637356  0.74976057  0.50161793  1
  Mn  Mn101  1  0.32988500  0.75120343  0.83431873  1
  Mn  Mn102  1  0.66648204  0.25360182  0.16554400  1
  Mn  Mn103  1  0.66826776  0.25042834  0.49992912  1
  Mn  Mn104  1  0.66574085  0.25098356  0.83318783  1
  Mn  Mn105  1  0.66607096  0.74637226  0.16734900  1
  Mn  Mn106  1  0.66644065  0.75050199  0.49899354  1
  Mn  Mn107  1  0.66398138  0.74945942  0.83219063  1
  Mn  Mn108  1  0.16619098  0.25188884  0.00227747  1
  Mn  Mn109  1  0.16599376  0.25034018  0.33464583  1
  Mn  Mn110  1  0.16841156  0.24846741  0.66647214  1
  Mn  Mn111  1  0.16314407  0.74960338  0.00010276  1
  Mn  Mn112  1  0.16752145  0.74901078  0.33099631  1
  Mn  Mn113  1  0.16760476  0.74957118  0.66848455  1
  Mn  Mn114  1  0.49983422  0.25273267  0.00143275  1
  Mn  Mn115  1  0.49933907  0.25052164  0.33315916  1
  Mn  Mn116  1  0.50072412  0.25125194  0.66865054  1
  Mn  Mn117  1  0.49912416  0.75025086  0.00237308  1
  Mn  Mn118  1  0.50184843  0.74958070  0.33671484  1
  Mn  Mn119  1  0.49899702  0.75019071  0.66732780  1
  Mn  Mn120  1  0.83144993  0.25319236  -0.00108324  1
  Mn  Mn121  1  0.83520833  0.25033999  0.33143605  1
  Mn  Mn122  1  0.83393085  0.24975797  0.66322498  1
  Mn  Mn123  1  0.83340776  0.74779920  -0.00071848  1
  Mn  Mn124  1  0.83326974  0.74716985  0.33235940  1
  Mn  Mn125  1  0.83307022  0.74886123  0.66335432  1
  Mn  Mn126  1  0.16490772  0.00113440  0.00012960  1
  Mn  Mn127  1  0.16781290  0.00115518  0.33211184  1
  Mn  Mn128  1  0.16742949  0.00104616  0.66781040  1
  Mn  Mn129  1  0.16406121  0.49759402  0.00202428  1
  Mn  Mn130  1  0.16558500  0.49928156  0.33303065  1
  Mn  Mn131  1  0.16778000  0.49926246  0.66724358  1
  Mn  Mn132  1  0.49963644  0.00284844  0.00117016  1
  Mn  Mn133  1  0.50168742  0.00031932  0.33468462  1
  Mn  Mn134  1  0.49975628  0.00013212  0.66772052  1
  Mn  Mn135  1  0.49927359  0.49659811  0.00193255  1
  Mn  Mn136  1  0.50021574  0.50175722  0.33378259  1
  Mn  Mn137  1  0.50008889  0.49999599  0.66803740  1
  Mn  Mn138  1  0.83362314  0.00055222  -0.00061690  1
  Mn  Mn139  1  0.83419503  -0.00021851  0.33223613  1
  Mn  Mn140  1  0.83436151  -0.00022888  0.66309014  1
  Mn  Mn141  1  0.83195648  0.49862717  -0.00045859  1
  Mn  Mn142  1  0.83429303  0.50118920  0.33178580  1
  Mn  Mn143  1  0.83268932  0.49790105  0.66418562  1
  O  O144  1  0.16936309  0.12998312  0.02680476  1
  O  O145  1  0.15975696  0.12773597  0.35690173  1
  O  O146  1  0.16715757  0.12429618  0.69383287  1
  O  O147  1  0.15576920  0.62151085  0.02627679  1
  O  O148  1  0.16274120  0.62310429  0.34500257  1
  O  O149  1  0.17600294  0.62608341  0.68346697  1
  O  O150  1  0.49828247  0.13195982  0.02281124  1
  O  O151  1  0.49553950  0.12537986  0.35988752  1
  O  O152  1  0.50249219  0.12673886  0.67897141  1
  O  O153  1  0.50494067  0.61744188  0.02232703  1
  O  O154  1  0.50280784  0.62419394  0.36320470  1
  O  O155  1  0.50456111  0.62365541  0.68070138  1
  O  O156  1  0.82912477  0.13241258  0.02091315  1
  O  O157  1  0.83979718  0.12486252  0.35602400  1
  O  O158  1  0.83321999  0.12563949  0.67626511  1
  O  O159  1  0.84081698  0.61973951  0.01917825  1
  O  O160  1  0.83046884  0.62265937  0.36025253  1
  O  O161  1  0.83033985  0.62182054  0.67420672  1
  O  O162  1  0.17442141  0.37412971  0.31716507  1
  O  O163  1  0.17583226  0.36895351  0.63820329  1
  O  O164  1  0.17074761  0.37293898  0.97746077  1
  O  O165  1  0.16264609  0.87386798  0.30708348  1
  O  O166  1  0.16906659  0.87806174  0.65306444  1
  O  O167  1  0.16097771  0.87632786  0.97778039  1
  O  O168  1  0.49966412  0.37801564  0.31205043  1
  O  O169  1  0.49390775  0.37566124  0.65503328  1
  O  O170  1  0.49655397  0.37287828  0.97510796  1
  O  O171  1  0.50759756  0.87398567  0.31467869  1
  O  O172  1  0.49777610  0.87517735  0.64122116  1
  O  O173  1  0.49918471  0.88029623  0.98194735  1
  O  O174  1  0.83075457  0.37798467  0.30807669  1
  O  O175  1  0.82423350  0.37347270  0.63875464  1
  O  O176  1  0.82818515  0.37689790  0.97495611  1
  O  O177  1  0.83766758  0.87308034  0.31954190  1
  O  O178  1  0.83294498  0.87603561  0.65432418  1
  O  O179  1  0.83881367  0.87126124  0.99168341  1
  O  O180  1  -0.00948143  0.37598762  0.19044990  1
  O  O181  1  0.00251206  0.37191383  0.51046692  1
  O  O182  1  0.00855507  0.37559742  0.85300814  1
  O  O183  1  0.00663495  0.87344330  0.19293585  1
  O  O184  1  0.00177326  0.88032488  0.52161574  1
  O  O185  1  0.00995107  0.87267099  0.85237986  1
  O  O186  1  0.34082026  0.37417580  0.19728402  1
  O  O187  1  0.32750106  0.37162778  0.52438021  1
  O  O188  1  0.33166560  0.37105426  0.85659821  1
  O  O189  1  0.32723074  0.87601998  0.17792287  1
  O  O190  1  0.34284195  0.87675735  0.52541650  1
  O  O191  1  0.33374270  0.87822322  0.84565033  1
  O  O192  1  0.67072268  0.37770898  0.19601225  1
  O  O193  1  0.67769966  0.37396156  0.52367593  1
  O  O194  1  0.67913382  0.37537941  0.85287850  1
  O  O195  1  0.66560350  0.86944535  0.18926224  1
  O  O196  1  0.66298295  0.87345479  0.52827939  1
  O  O197  1  0.66146897  0.87616163  0.84140206  1
  O  O198  1  0.00055108  0.12886068  0.15380820  1
  O  O199  1  0.00139924  0.12566304  0.47161869  1
  O  O200  1  0.00747323  0.12606244  0.80976027  1
  O  O201  1  0.00239415  0.61967870  0.13738913  1
  O  O202  1  -0.00503621  0.62148380  0.47824871  1
  O  O203  1  0.00280101  0.62266079  0.81691906  1
  O  O204  1  0.32668645  0.13066894  0.14312306  1
  O  O205  1  0.33207999  0.12692251  0.47792891  1
  O  O206  1  0.32464231  0.12645931  0.80777823  1
  O  O207  1  0.33203761  0.62148685  0.15613295  1
  O  O208  1  0.34182920  0.62502198  0.48065513  1
  O  O209  1  0.32747933  0.62584867  0.81088824  1
  O  O210  1  0.66207085  0.13488514  0.14395300  1
  O  O211  1  0.65515734  0.12579150  0.48916154  1
  O  O212  1  0.66380242  0.12811537  0.80627294  1
  O  O213  1  0.65825932  0.61828205  0.14250692  1
  O  O214  1  0.65589276  0.62685584  0.47642625  1
  O  O215  1  0.66271271  0.62183054  0.80832070  1
  O  O216  1  0.09054862  0.02093778  0.24153889  1
  O  O217  1  0.08890775  0.02610424  0.57953098  1
  O  O218  1  0.09353890  0.01474510  0.90504694  1
  O  O219  1  0.08497016  0.51875205  0.24488675  1
  O  O220  1  0.08807514  0.50605202  0.58306556  1
  O  O221  1  0.08031810  0.51290781  0.92224745  1
  O  O222  1  0.41629666  0.02202253  0.25147304  1
  O  O223  1  0.42110474  0.02414007  0.58271452  1
  O  O224  1  0.41352552  0.01772164  0.91974774  1
  O  O225  1  0.42317877  0.52375813  0.24962682  1
  O  O226  1  0.42135006  0.52032685  0.58157424  1
  O  O227  1  0.41318412  0.50231388  0.91666791  1
  O  O228  1  0.75886803  0.01809029  0.24305118  1
  O  O229  1  0.75564741  0.02222019  0.57393172  1
  O  O230  1  0.74756492  0.01421612  0.91570997  1
  O  O231  1  0.75238008  0.52357084  0.24712024  1
  O  O232  1  0.75153392  0.52301996  0.57490897  1
  O  O233  1  0.74562678  0.51700535  0.92172154  1
  O  O234  1  0.25385567  0.22853391  0.25740327  1
  O  O235  1  0.25551003  0.22189646  0.58864728  1
  O  O236  1  0.25047140  0.22767721  0.91848300  1
  O  O237  1  0.25115149  0.72872181  0.25159205  1
  O  O238  1  0.26042965  0.73952696  0.59229730  1
  O  O239  1  0.24162045  0.74197533  0.91321330  1
  O  O240  1  0.58042640  0.24129876  0.24452769  1
  O  O241  1  0.59211870  0.23963385  0.59113826  1
  O  O242  1  0.58996500  0.24102554  0.92445484  1
  O  O243  1  0.58702421  0.72545384  0.25631401  1
  O  O244  1  0.58729405  0.73082763  0.58662931  1
  O  O245  1  0.58591273  0.73612627  0.92232165  1
  O  O246  1  0.92096759  0.22846548  0.25380517  1
  O  O247  1  0.92407915  0.22735772  0.58352050  1
  O  O248  1  0.91888900  0.25140278  0.91744179  1
  O  O249  1  0.92086573  0.72400469  0.24736110  1
  O  O250  1  0.91583841  0.73492270  0.57975326  1
  O  O251  1  0.92136587  0.73842704  0.91963061  1
  O  O252  1  0.07757128  0.47409004  0.08097766  1
  O  O253  1  0.08187901  0.48408068  0.41301997  1
  O  O254  1  0.08936932  0.48568952  0.75422272  1
  O  O255  1  0.07828696  0.97689488  0.07732963  1
  O  O256  1  0.07726207  0.98441933  0.40456569  1
  O  O257  1  0.07939108  0.97875181  0.74244222  1
  O  O258  1  0.41634997  0.47486314  0.08480507  1
  O  O259  1  0.40842833  0.48585319  0.40868647  1
  O  O260  1  0.40939917  0.48250598  0.74913036  1
  O  O261  1  0.41371653  1.00010083  0.08627449  1
  O  O262  1  0.42327447  0.98820131  0.42372927  1
  O  O263  1  0.41143815  0.98324443  0.74455855  1
  O  O264  1  0.74819961  0.48018128  0.08569145  1
  O  O265  1  0.74827008  0.47916207  0.41181407  1
  O  O266  1  0.74498879  0.48053910  0.74205418  1
  O  O267  1  0.74738482  1.00167932  0.08220724  1
  O  O268  1  0.74317359  0.98432909  0.40743001  1
  O  O269  1  0.73692545  0.99171380  0.73658500  1
  O  O270  1  0.25224999  0.27248677  0.08596351  1
  O  O271  1  0.24294348  0.26609407  0.42619681  1
  O  O272  1  0.24827035  0.27333220  0.75190891  1
  O  O273  1  0.23763940  0.75898178  0.08967276  1
  O  O274  1  0.25698204  0.75475562  0.41700156  1
  O  O275  1  0.24917028  0.77241977  0.75101608  1
  O  O276  1  0.58150939  0.27779414  0.08631751  1
  O  O277  1  0.58684291  0.26698295  0.41614503  1
  O  O278  1  0.58019048  0.27779385  0.75822919  1
  O  O279  1  0.57932300  0.75678283  0.09198754  1
  O  O280  1  0.58301317  0.77585033  0.42045738  1
  O  O281  1  0.57398006  0.77366480  0.75153017  1
  O  O282  1  0.91030173  0.27238271  0.08571616  1
  O  O283  1  0.90857784  0.26607159  0.42208799  1
  O  O284  1  0.91054257  0.26662932  0.75312025  1
  O  O285  1  0.92186319  0.75857350  0.07962139  1
  O  O286  1  0.92047817  0.75925450  0.40950239  1
  O  O287  1  0.92436753  0.76194184  0.74460713  1
  O  O288  1  0.24932940  0.48139049  0.08406229  1
  O  O289  1  0.24670203  0.48193171  0.42306822  1
  O  O290  1  0.24819558  0.47362404  0.75115743  1
  O  O291  1  0.23743316  0.99037456  0.09428665  1
  O  O292  1  0.24884524  0.99690270  0.41967035  1
  O  O293  1  0.24424276  0.98113579  0.75515717  1
  O  O294  1  0.58132352  0.47203521  0.08877241  1
  O  O295  1  0.58794428  0.48198279  0.41286970  1
  O  O296  1  0.57901316  0.47451052  0.75418755  1
  O  O297  1  0.57803777  0.99622771  0.08793027  1
  O  O298  1  0.58328989  0.97841220  0.42160019  1
  O  O299  1  0.57412633  0.97739336  0.75291243  1
  O  O300  1  0.91212197  0.47623061  0.08598285  1
  O  O301  1  0.90998614  0.48202131  0.41867240  1
  O  O302  1  0.90859874  0.47995758  0.75550393  1
  O  O303  1  0.91797177  0.99188503  0.08523259  1
  O  O304  1  0.91937033  0.98690606  0.41237304  1
  O  O305  1  0.92249252  0.98877472  0.74153798  1
  O  O306  1  0.07752409  0.27287185  0.08049319  1
  O  O307  1  0.08370366  0.26885384  0.41570598  1
  O  O308  1  0.08871770  0.26431061  0.75057545  1
  O  O309  1  0.07964637  0.77533673  0.08123666  1
  O  O310  1  0.07841739  0.76284617  0.40581856  1
  O  O311  1  0.08671321  0.76914254  0.75297314  1
  O  O312  1  0.41552561  0.27443771  0.08584349  1
  O  O313  1  0.40515202  0.26450317  0.40944702  1
  O  O314  1  0.41146576  0.26810834  0.75067339  1
  O  O315  1  0.41832525  0.75473112  0.09117109  1
  O  O316  1  0.42606218  0.76451604  0.42688962  1
  O  O317  1  0.41159921  0.76999216  0.74551527  1
  O  O318  1  0.74484282  0.27628942  0.08020989  1
  O  O319  1  0.74900549  0.27156283  0.41169134  1
  O  O320  1  0.74412252  0.26885844  0.74313557  1
  O  O321  1  0.74941388  0.74438548  0.08360653  1
  O  O322  1  0.73845576  0.76349901  0.40746655  1
  O  O323  1  0.73865752  0.75837727  0.73655165  1
  O  O324  1  0.25319069  0.02658595  0.25462989  1
  O  O325  1  0.25590094  0.02197428  0.58992247  1
  O  O326  1  0.25103967  0.02473281  0.92363528  1
  O  O327  1  0.25352396  0.51669879  0.25584254  1
  O  O328  1  0.26171855  0.51330592  0.59437798  1
  O  O329  1  0.24363060  0.50760966  0.91355736  1
  O  O330  1  0.58290704  0.01474756  0.24989751  1
  O  O331  1  0.58765005  0.01576750  0.58943011  1
  O  O332  1  0.58664076  0.01878634  0.92238913  1
  O  O333  1  0.58431918  0.52113050  0.25197418  1
  O  O334  1  0.58944269  0.51475586  0.58642549  1
  O  O335  1  0.58669846  0.50604740  0.92438295  1
  O  O336  1  0.92297929  0.01855226  0.25167906  1
  O  O337  1  0.92291509  0.02356813  0.57975825  1
  O  O338  1  0.92275317  0.00266592  0.91629065  1
  O  O339  1  0.91899266  0.52635544  0.25187699  1
  O  O340  1  0.91533669  0.51146297  0.58019757  1
  O  O341  1  0.92250218  0.50665816  0.92314571  1
  O  O342  1  0.08865183  0.23192240  0.24900972  1
  O  O343  1  0.08920307  0.22478584  0.58146086  1
  O  O344  1  0.09069728  0.23806900  0.91019555  1
  O  O345  1  0.08539923  0.72521169  0.24165597  1
  O  O346  1  0.08065468  0.74231112  0.59025320  1
  O  O347  1  0.07874816  0.73143174  0.92149822  1
  O  O348  1  0.41765492  0.22555987  0.24638596  1
  O  O349  1  0.41927733  0.22796004  0.57867467  1
  O  O350  1  0.40898853  0.23667244  0.92349718  1
  O  O351  1  0.41960351  0.72867389  0.25707281  1
  O  O352  1  0.41970212  0.72660223  0.58515397  1
  O  O353  1  0.41676564  0.74634508  0.91343857  1
  O  O354  1  0.76093388  0.23564839  0.23820651  1
  O  O355  1  0.75648709  0.22622629  0.57409084  1
  O  O356  1  0.74758151  0.23526841  0.91664629  1
  O  O357  1  0.75205250  0.72386447  0.24711232  1
  O  O358  1  0.75083907  0.72548141  0.57331471  1
  O  O359  1  0.74872299  0.73439895  0.91931381  1
