# generated using pymatgen
data_Ba17Sr5La8Pr42Mn72O216
_symmetry_space_group_name_H-M   'P 1'
_cell_length_a   16.67820353
_cell_length_b   15.70115925
_cell_length_c   16.82470348
_cell_angle_alpha   90.00133823
_cell_angle_beta   89.93901231
_cell_angle_gamma   90.00668543
_symmetry_Int_Tables_number   1
_chemical_formula_structural   Ba17Sr5La8Pr42Mn72O216
_chemical_formula_sum   'Ba17 Sr5 La8 Pr42 Mn72 O216'
_cell_volume   4405.83428184
_cell_formula_units_Z   1
loop_
 _symmetry_equiv_pos_site_id
 _symmetry_equiv_pos_as_xyz
  1  'x, y, z'
loop_
 _atom_site_type_symbol
 _atom_site_label
 _atom_site_symmetry_multiplicity
 _atom_site_fract_x
 _atom_site_fract_y
 _atom_site_fract_z
 _atom_site_occupancy
  Ba  Ba0  1  0.50196490  0.12306805  0.83086814  1
  Ba  Ba1  1  0.16694244  0.12689946  0.83776381  1
  Ba  Ba2  1  0.16414670  0.37556048  0.83804159  1
  Ba  Ba3  1  0.83097818  0.87465836  0.83166635  1
  Ba  Ba4  1  0.16586386  0.62409338  0.17159739  1
  Ba  Ba5  1  0.16909086  0.12698215  0.17159581  1
  Ba  Ba6  1  0.17338213  0.12523073  0.50177073  1
  Ba  Ba7  1  0.66882260  0.12542092  0.33136951  1
  Ba  Ba8  1  0.00156188  0.62546291  0.66943414  1
  Ba  Ba9  1  -0.00116181  0.87602229  0.67010815  1
  Ba  Ba10  1  0.49847992  0.87348402  0.16360025  1
  Ba  Ba11  1  0.33285157  0.12446988  1.00018980  1
  Ba  Ba12  1  0.83262106  0.62559538  0.83466832  1
  Ba  Ba13  1  0.49734552  0.87471845  0.82941115  1
  Ba  Ba14  1  0.16722881  0.62440705  0.83769846  1
  Ba  Ba15  1  0.67131178  0.62375652  0.33071168  1
  Ba  Ba16  1  0.66416655  0.37489345  -0.00159970  1
  Sr  Sr17  1  0.16343158  0.37440335  0.16636235  1
  Sr  Sr18  1  0.66871198  0.62527108  0.99946610  1
  Sr  Sr19  1  0.83187580  0.62465605  0.16492674  1
  Sr  Sr20  1  0.66534352  0.12390744  0.99825337  1
  Sr  Sr21  1  0.33935061  0.12549194  0.32882515  1
  La  La22  1  0.00087910  0.12583454  1.00242240  1
  La  La23  1  0.83206324  0.12865663  0.16823512  1
  La  La24  1  0.16300509  0.87703664  0.83615488  1
  La  La25  1  -0.00003406  0.37769673  0.00387793  1
  La  La26  1  0.83146656  0.37632859  0.16599989  1
  La  La27  1  0.50655076  0.62409342  0.16398146  1
  La  La28  1  0.49748511  0.37377698  0.16195115  1
  La  La29  1  0.00284589  0.12545661  0.33210213  1
  Pr  Pr30  1  -0.00223002  0.62552331  0.33303474  1
  Pr  Pr31  1  0.83490058  0.37888630  0.49720804  1
  Pr  Pr32  1  0.83512897  0.62343320  0.50494103  1
  Pr  Pr33  1  0.65842420  0.37702047  0.66963373  1
  Pr  Pr34  1  0.51421213  0.62315744  0.49936344  1
  Pr  Pr35  1  0.67380006  0.62717997  0.66435770  1
  Pr  Pr36  1  0.34221850  0.62552149  0.32883381  1
  Pr  Pr37  1  0.33848023  0.62618643  0.99627185  1
  Pr  Pr38  1  0.50167128  0.12463348  0.16575476  1
  Pr  Pr39  1  0.83974018  0.12766864  0.50358216  1
  Pr  Pr40  1  0.83458733  0.12405212  0.83564028  1
  Pr  Pr41  1  0.82804083  0.87542612  0.16335864  1
  Pr  Pr42  1  0.32539890  0.87498560  0.66751155  1
  Pr  Pr43  1  0.66187983  0.87300502  -0.00269088  1
  Pr  Pr44  1  0.32579499  0.37393621  0.66876433  1
  Pr  Pr45  1  0.32125331  0.37634349  0.33384128  1
  Pr  Pr46  1  -0.00223652  0.87717390  0.33626349  1
  Pr  Pr47  1  0.16037680  0.37499458  0.50231621  1
  Pr  Pr48  1  0.00261018  0.37457241  0.33380585  1
  Pr  Pr49  1  0.15550570  0.87666784  0.50125350  1
  Pr  Pr50  1  0.66238219  0.87165125  0.33220341  1
  Pr  Pr51  1  0.67396683  0.12239513  0.66200896  1
  Pr  Pr52  1  0.66360422  0.37652926  0.33013686  1
  Pr  Pr53  1  0.83264829  0.87293726  0.49682490  1
  Pr  Pr54  1  -0.00392950  0.37097488  0.67540824  1
  Pr  Pr55  1  -0.00345227  0.87240585  0.00195109  1
  Pr  Pr56  1  0.66284522  0.87346182  0.66900495  1
  Pr  Pr57  1  0.82598722  0.37596462  0.83365158  1
  Pr  Pr58  1  0.49561931  0.87513324  0.49089513  1
  Pr  Pr59  1  0.00962874  0.12177703  0.67024579  1
  Pr  Pr60  1  0.17483028  0.62654523  0.50932975  1
  Pr  Pr61  1  0.32661400  0.37309191  0.00118751  1
  Pr  Pr62  1  0.34174129  0.12529146  0.66383039  1
  Pr  Pr63  1  0.49537694  0.37433971  0.49193120  1
  Pr  Pr64  1  0.34071971  0.62413942  0.66452781  1
  Pr  Pr65  1  0.32463155  0.87830352  -0.00046419  1
  Pr  Pr66  1  0.32033084  0.87394015  0.33584049  1
  Pr  Pr67  1  0.49559995  0.37124391  0.83132292  1
  Pr  Pr68  1  0.50463646  0.62361365  0.83315820  1
  Pr  Pr69  1  0.50854061  0.12584668  0.50047493  1
  Pr  Pr70  1  0.16323194  0.87774774  0.16852334  1
  Pr  Pr71  1  -0.00014549  0.62384015  0.99602927  1
  Mn  Mn72  1  -0.00310349  -0.00114724  0.16937031  1
  Mn  Mn73  1  -0.00119076  0.00203515  0.50146645  1
  Mn  Mn74  1  -0.00179551  0.00182704  0.83663140  1
  Mn  Mn75  1  -0.00274473  0.50211379  0.16929021  1
  Mn  Mn76  1  0.00159244  0.49951485  0.50130014  1
  Mn  Mn77  1  -0.00239345  0.49830021  0.83646847  1
  Mn  Mn78  1  0.33405985  -0.00159513  0.16882898  1
  Mn  Mn79  1  0.33754639  -0.00105904  0.49855318  1
  Mn  Mn80  1  0.33237552  -0.00208414  0.83208497  1
  Mn  Mn81  1  0.33369787  0.50127529  0.16596375  1
  Mn  Mn82  1  0.33531349  0.50062663  0.49872828  1
  Mn  Mn83  1  0.33464044  0.50008305  0.83210566  1
  Mn  Mn84  1  0.66658027  0.00044237  0.16420332  1
  Mn  Mn85  1  0.66917483  -0.00012798  0.49810890  1
  Mn  Mn86  1  0.66661668  0.00073754  0.83121361  1
  Mn  Mn87  1  0.66666011  0.49925674  0.16516589  1
  Mn  Mn88  1  0.66817890  0.49645726  0.49974676  1
  Mn  Mn89  1  0.66454860  0.49871857  0.83202449  1
  Mn  Mn90  1  -0.00161894  0.25110678  0.16944965  1
  Mn  Mn91  1  0.00075571  0.25054844  0.50462451  1
  Mn  Mn92  1  -0.00424516  0.25015761  0.83701624  1
  Mn  Mn93  1  -0.00342257  0.74986968  0.16933422  1
  Mn  Mn94  1  -0.00067975  0.75032528  0.49878963  1
  Mn  Mn95  1  0.00005506  0.75008908  0.83643495  1
  Mn  Mn96  1  0.33441063  0.25173062  0.16860422  1
  Mn  Mn97  1  0.33701082  0.25160663  0.49798040  1
  Mn  Mn98  1  0.33342018  0.25097724  0.83295502  1
  Mn  Mn99  1  0.33239810  0.74946599  0.16538012  1
  Mn  Mn100  1  0.33561103  0.74918520  0.49905346  1
  Mn  Mn101  1  0.33323857  0.74911917  0.83164027  1
  Mn  Mn102  1  0.66574998  0.24984669  0.16526955  1
  Mn  Mn103  1  0.66898419  0.25247787  0.49945741  1
  Mn  Mn104  1  0.66618914  0.25008488  0.83042187  1
  Mn  Mn105  1  0.66736654  0.74955468  0.16503829  1
  Mn  Mn106  1  0.66860961  0.75081791  0.49992424  1
  Mn  Mn107  1  0.66483137  0.74884231  0.83192602  1
  Mn  Mn108  1  0.16483433  0.25133889  0.00474270  1
  Mn  Mn109  1  0.16713404  0.25226876  0.33611637  1
  Mn  Mn110  1  0.16876240  0.24936501  0.66805237  1
  Mn  Mn111  1  0.16585220  0.75015080  0.00544545  1
  Mn  Mn112  1  0.16447146  0.74826232  0.33895251  1
  Mn  Mn113  1  0.16913478  0.74956487  0.66894885  1
  Mn  Mn114  1  0.49891010  0.25001259  -0.00229960  1
  Mn  Mn115  1  0.49932144  0.25114615  0.33036035  1
  Mn  Mn116  1  0.50133644  0.25170123  0.66132971  1
  Mn  Mn117  1  0.49908162  0.74937284  -0.00386967  1
  Mn  Mn118  1  0.49944840  0.74950866  0.33077954  1
  Mn  Mn119  1  0.50013939  0.74824575  0.66122385  1
  Mn  Mn120  1  0.83283402  0.24910973  0.00048811  1
  Mn  Mn121  1  0.83473137  0.25246709  0.33515394  1
  Mn  Mn122  1  0.83358690  0.25055795  0.66678190  1
  Mn  Mn123  1  0.83237494  0.75076895  0.00176284  1
  Mn  Mn124  1  0.83412304  0.75091567  0.33145948  1
  Mn  Mn125  1  0.83340705  0.75037535  0.66446280  1
  Mn  Mn126  1  0.16314508  -0.00115328  0.00301432  1
  Mn  Mn127  1  0.16660389  0.00037303  0.33559644  1
  Mn  Mn128  1  0.17016876  0.00025707  0.66845594  1
  Mn  Mn129  1  0.16641836  0.50027088  0.00613099  1
  Mn  Mn130  1  0.16523360  0.50081716  0.33889758  1
  Mn  Mn131  1  0.16788380  0.50049833  0.66740644  1
  Mn  Mn132  1  0.49990861  -0.00120727  -0.00140731  1
  Mn  Mn133  1  0.49946913  -0.00021727  0.33140514  1
  Mn  Mn134  1  0.50154141  -0.00126051  0.65988959  1
  Mn  Mn135  1  0.49800452  0.50009143  -0.00240337  1
  Mn  Mn136  1  0.49943873  0.49931688  0.32995196  1
  Mn  Mn137  1  0.49994771  0.49973940  0.66348882  1
  Mn  Mn138  1  0.83174508  0.00056438  0.00042826  1
  Mn  Mn139  1  0.83337923  -0.00026698  0.33257884  1
  Mn  Mn140  1  0.83332528  0.00189750  0.66549040  1
  Mn  Mn141  1  0.83289368  0.49956254  0.00102228  1
  Mn  Mn142  1  0.83545183  0.49790427  0.33275541  1
  Mn  Mn143  1  0.83329860  0.49658423  0.66485701  1
  O  O144  1  0.15695532  0.12394452  0.01423688  1
  O  O145  1  0.16052964  0.12768106  0.34587196  1
  O  O146  1  0.16831802  0.12458323  0.67902060  1
  O  O147  1  0.16233046  0.62582246  0.01559820  1
  O  O148  1  0.15565175  0.62364239  0.36594061  1
  O  O149  1  0.17384643  0.62609174  0.67741752  1
  O  O150  1  0.49867243  0.12509623  0.01972554  1
  O  O151  1  0.49554082  0.12713565  0.35725508  1
  O  O152  1  0.48978110  0.12656599  0.67275589  1
  O  O153  1  0.48883961  0.62390419  0.02073301  1
  O  O154  1  0.49308698  0.62395501  0.35644911  1
  O  O155  1  0.49247094  0.62151108  0.68973243  1
  O  O156  1  0.83240350  0.12403254  0.02534612  1
  O  O157  1  0.83420745  0.12780847  0.36061132  1
  O  O158  1  0.82130131  0.13151324  0.69093187  1
  O  O159  1  0.83706578  0.62605897  0.01642119  1
  O  O160  1  0.83665274  0.62376040  0.36143352  1
  O  O161  1  0.82355494  0.62125654  0.67301990  1
  O  O162  1  0.16887668  0.37855086  0.31700694  1
  O  O163  1  0.17078360  0.37490136  0.64596295  1
  O  O164  1  0.16658561  0.37592606  0.99655305  1
  O  O165  1  0.16834539  0.87193228  0.31440713  1
  O  O166  1  0.17509502  0.87450212  0.64377064  1
  O  O167  1  0.16785602  0.87355935  0.98244624  1
  O  O168  1  0.50852576  0.37566436  0.30798754  1
  O  O169  1  0.50816817  0.37834357  0.63460461  1
  O  O170  1  0.49451515  0.37811729  0.97599307  1
  O  O171  1  0.51178093  0.87306882  0.32256438  1
  O  O172  1  0.51018077  0.87176500  0.63524460  1
  O  O173  1  0.51199398  0.87183630  0.98659680  1
  O  O174  1  0.85185427  0.37352321  0.31075832  1
  O  O175  1  0.84598173  0.36988260  0.63963380  1
  O  O176  1  0.84173143  0.37094724  0.97855322  1
  O  O177  1  0.84489932  0.87644319  0.30808629  1
  O  O178  1  0.82833413  0.87655271  0.64165800  1
  O  O179  1  0.84106015  0.87852946  0.98727582  1
  O  O180  1  -0.01015171  0.37727660  0.19091882  1
  O  O181  1  -0.00167699  0.37329137  0.53107919  1
  O  O182  1  -0.01368492  0.37234142  0.85524322  1
  O  O183  1  -0.01051041  0.87436202  0.19448224  1
  O  O184  1  -0.00383069  0.87662169  0.51381325  1
  O  O185  1  0.00198677  0.87713645  0.85429289  1
  O  O186  1  0.34235729  0.37925588  0.19171159  1
  O  O187  1  0.34436514  0.37960780  0.52599834  1
  O  O188  1  0.34325906  0.37887220  0.85364186  1
  O  O189  1  0.32690247  0.87214875  0.19218524  1
  O  O190  1  0.34731389  0.86983873  0.52533407  1
  O  O191  1  0.32989240  0.87125731  0.85317247  1
  O  O192  1  0.65760217  0.37402313  0.18387831  1
  O  O193  1  0.66076769  0.37358458  0.52533389  1
  O  O194  1  0.66490634  0.37536235  0.84142545  1
  O  O195  1  0.66961043  0.87666463  0.18811095  1
  O  O196  1  0.66647167  0.87465908  0.52546819  1
  O  O197  1  0.66450195  0.87274760  0.84956168  1
  O  O198  1  -0.00424829  0.12250124  0.14731522  1
  O  O199  1  -0.00514776  0.12743948  0.47649606  1
  O  O200  1  -0.00597271  0.12832153  0.81424569  1
  O  O201  1  -0.00210306  0.62794765  0.14178251  1
  O  O202  1  -0.00109193  0.62489793  0.47697515  1
  O  O203  1  0.00116173  0.62254488  0.83053130  1
  O  O204  1  0.34043931  0.12388338  0.15762285  1
  O  O205  1  0.34383002  0.12615140  0.48029689  1
  O  O206  1  0.33341645  0.12414639  0.80855609  1
  O  O207  1  0.33429916  0.62506934  0.14070899  1
  O  O208  1  0.32352169  0.62468388  0.47073039  1
  O  O209  1  0.33835457  0.62422010  0.80778276  1
  O  O210  1  0.67363443  0.12558055  0.14982087  1
  O  O211  1  0.67233482  0.12913710  0.48534585  1
  O  O212  1  0.67487972  0.12938091  0.80551369  1
  O  O213  1  0.66919254  0.62352577  0.15174059  1
  O  O214  1  0.67369475  0.62259646  0.48630077  1
  O  O215  1  0.66153734  0.62116292  0.80793502  1
  O  O216  1  0.07801256  0.00600170  0.25279832  1
  O  O217  1  0.08628802  0.01064773  0.58634009  1
  O  O218  1  0.07452213  0.00871933  0.92770757  1
  O  O219  1  0.07584513  0.51322936  0.26134008  1
  O  O220  1  0.09423597  0.51322534  0.57324093  1
  O  O221  1  0.08041890  0.50548135  0.92692657  1
  O  O222  1  0.42326917  0.01450311  0.24386728  1
  O  O223  1  0.43351901  0.01299549  0.56405274  1
  O  O224  1  0.41448033  0.00295260  0.91296233  1
  O  O225  1  0.42051807  0.52340610  0.24156261  1
  O  O226  1  0.42515926  0.52573966  0.57169698  1
  O  O227  1  0.42144889  0.52339067  0.90908653  1
  O  O228  1  0.76002649  0.01163817  0.23980290  1
  O  O229  1  0.75919127  0.02032000  0.57358538  1
  O  O230  1  0.75609918  0.01860437  0.91129473  1
  O  O231  1  0.75215853  0.49477017  0.25104748  1
  O  O232  1  0.75524488  0.50742193  0.57692100  1
  O  O233  1  0.75258918  0.50352277  0.91383111  1
  O  O234  1  0.25912783  0.24598555  0.25966405  1
  O  O235  1  0.26733873  0.23926770  0.59069445  1
  O  O236  1  0.25172751  0.24930692  0.92249921  1
  O  O237  1  0.25565417  0.73201759  0.27073384  1
  O  O238  1  0.26520904  0.73103779  0.59059856  1
  O  O239  1  0.25848477  0.73771633  0.93034069  1
  O  O240  1  0.58203350  0.23406389  0.24789207  1
  O  O241  1  0.59133045  0.22862183  0.58877590  1
  O  O242  1  0.58653107  0.23995195  0.91653356  1
  O  O243  1  0.58320171  0.73552897  0.24671030  1
  O  O244  1  0.58954190  0.72392735  0.58649377  1
  O  O245  1  0.58122904  0.72768998  0.91336265  1
  O  O246  1  0.91671162  0.22572538  0.25428380  1
  O  O247  1  0.92234102  0.22239032  0.59605620  1
  O  O248  1  0.91551597  0.22362662  0.92035038  1
  O  O249  1  0.91826803  0.72571591  0.25387099  1
  O  O250  1  0.91267977  0.73621216  0.57430755  1
  O  O251  1  0.92231798  0.74022313  0.92806114  1
  O  O252  1  0.07689135  0.48465889  0.08848421  1
  O  O253  1  0.07997857  0.47224293  0.41895988  1
  O  O254  1  0.07346551  0.48259272  0.74545794  1
  O  O255  1  0.07844265  0.97463761  0.08747992  1
  O  O256  1  0.07928151  0.98197879  0.41577708  1
  O  O257  1  0.08326190  0.99139259  0.75744190  1
  O  O258  1  0.41102700  0.48008116  0.07498635  1
  O  O259  1  0.41066361  0.47835083  0.40832839  1
  O  O260  1  0.41485427  0.47547969  0.74002643  1
  O  O261  1  0.40748144  0.98164880  0.07726094  1
  O  O262  1  0.40989900  0.97424079  0.40760195  1
  O  O263  1  0.40852947  0.98544667  0.72909685  1
  O  O264  1  0.75311072  0.48481422  0.08617075  1
  O  O265  1  0.75129159  0.47236166  0.41266978  1
  O  O266  1  0.74495368  0.47862821  0.74109911  1
  O  O267  1  0.74588543  0.97580042  0.07727061  1
  O  O268  1  0.74575570  0.97177194  0.40957127  1
  O  O269  1  0.74095008  0.98569198  0.73603378  1
  O  O270  1  0.25121417  0.26620083  0.08949191  1
  O  O271  1  0.24760468  0.27476027  0.42674521  1
  O  O272  1  0.25220599  0.26628335  0.75011872  1
  O  O273  1  0.24240755  0.77298067  0.09273230  1
  O  O274  1  0.24160102  0.77386878  0.43226699  1
  O  O275  1  0.24618551  0.77173083  0.75587469  1
  O  O276  1  0.57288728  0.25978764  0.08819879  1
  O  O277  1  0.57785119  0.27049990  0.41708872  1
  O  O278  1  0.57810163  0.27053821  0.74854397  1
  O  O279  1  0.58665943  0.75558784  0.07739173  1
  O  O280  1  0.58124011  0.76331620  0.42434362  1
  O  O281  1  0.58167221  0.75921201  0.74326741  1
  O  O282  1  0.91608035  0.26657485  0.08786198  1
  O  O283  1  0.91469922  0.27062459  0.42595079  1
  O  O284  1  0.90531323  0.26880677  0.75567328  1
  O  O285  1  0.91354312  0.77120852  0.08858238  1
  O  O286  1  0.91486213  0.77005875  0.41485085  1
  O  O287  1  0.91260003  0.75541077  0.74668457  1
  O  O288  1  0.24956800  0.48155407  0.09000686  1
  O  O289  1  0.24474821  0.47661135  0.42771902  1
  O  O290  1  0.25323943  0.48518361  0.74889798  1
  O  O291  1  0.24432463  0.97904801  0.08956613  1
  O  O292  1  0.24654566  0.97504737  0.42848798  1
  O  O293  1  0.24650280  0.97600777  0.75425392  1
  O  O294  1  0.57306337  0.49115510  0.08609922  1
  O  O295  1  0.58021509  0.48230025  0.42042727  1
  O  O296  1  0.57554096  0.47912452  0.75048870  1
  O  O297  1  0.58539410  0.99140450  0.08179304  1
  O  O298  1  0.57977220  0.98441824  0.42205187  1
  O  O299  1  0.58256687  0.98858595  0.74044997  1
  O  O300  1  0.91424236  0.48067541  0.08588404  1
  O  O301  1  0.91878787  0.47894576  0.41851508  1
  O  O302  1  0.90919097  0.47854680  0.75106986  1
  O  O303  1  0.91323310  0.98270624  0.08886352  1
  O  O304  1  0.90996203  0.98261140  0.42082392  1
  O  O305  1  0.91184236  1.00035090  0.75175878  1
  O  O306  1  0.07720071  0.26576266  0.08690491  1
  O  O307  1  0.08039000  0.27338733  0.42036211  1
  O  O308  1  0.07131078  0.26123454  0.74710392  1
  O  O309  1  0.07919409  0.77679615  0.08954072  1
  O  O310  1  0.07855544  0.77461345  0.41540556  1
  O  O311  1  0.08662166  0.76409380  0.75629907  1
  O  O312  1  0.41205757  0.27242300  0.07928549  1
  O  O313  1  0.41127251  0.27793580  0.40676306  1
  O  O314  1  0.41483480  0.27279587  0.73714030  1
  O  O315  1  0.40611547  0.76528558  0.06426065  1
  O  O316  1  0.40647512  0.76829144  0.40632543  1
  O  O317  1  0.40793829  0.76412614  0.73000653  1
  O  O318  1  0.75348498  0.26458999  0.08558115  1
  O  O319  1  0.74949864  0.28106562  0.41225875  1
  O  O320  1  0.74637730  0.27724879  0.73722930  1
  O  O321  1  0.74877574  0.77285304  0.08251321  1
  O  O322  1  0.74906841  0.77635342  0.41328699  1
  O  O323  1  0.74087962  0.76104316  0.73875275  1
  O  O324  1  0.25566205  0.00661690  0.25966961  1
  O  O325  1  0.27011658  0.01240987  0.59327471  1
  O  O326  1  0.24502447  0.00175579  0.92097279  1
  O  O327  1  0.25841227  0.51595295  0.26545462  1
  O  O328  1  0.26114528  0.51852489  0.58590574  1
  O  O329  1  0.26005407  0.51047831  0.92671048  1
  O  O330  1  0.58298795  0.01538689  0.24711708  1
  O  O331  1  0.59242323  0.02288051  0.58450517  1
  O  O332  1  0.59102287  0.00971952  0.91842804  1
  O  O333  1  0.58141689  0.51378068  0.24768232  1
  O  O334  1  0.58869799  0.52402051  0.59009424  1
  O  O335  1  0.58083842  0.51857985  0.91519903  1
  O  O336  1  0.91866499  0.02555814  0.25584402  1
  O  O337  1  0.92007142  0.02718290  0.58856659  1
  O  O338  1  0.91681269  0.02325661  0.92113535  1
  O  O339  1  0.91683155  0.52449949  0.25327847  1
  O  O340  1  0.91512099  0.51501975  0.57777763  1
  O  O341  1  0.92160210  0.51205098  0.92610694  1
  O  O342  1  0.07489870  0.24360477  0.25757033  1
  O  O343  1  0.08361116  0.23708658  0.58576235  1
  O  O344  1  0.07379876  0.24333357  0.92464077  1
  O  O345  1  0.07759572  0.73764320  0.25717358  1
  O  O346  1  0.09537518  0.73971796  0.57525592  1
  O  O347  1  0.08127901  0.74256213  0.92872930  1
  O  O348  1  0.42652328  0.23553808  0.24056571  1
  O  O349  1  0.43092467  0.23769650  0.56732382  1
  O  O350  1  0.42017406  0.24367644  0.90905703  1
  O  O351  1  0.41878553  0.72780002  0.24071461  1
  O  O352  1  0.42797222  0.72243683  0.56763480  1
  O  O353  1  0.42120764  0.72745446  0.90528695  1
  O  O354  1  0.75548576  0.24826046  0.24717396  1
  O  O355  1  0.76243691  0.23406998  0.57842671  1
  O  O356  1  0.75690862  0.23902194  0.90421466  1
  O  O357  1  0.75389629  0.74649598  0.24835662  1
  O  O358  1  0.75385321  0.73381595  0.57613720  1
  O  O359  1  0.74595923  0.74347080  0.92191322  1
