# generated using pymatgen
data_Ba17Sr5La8Pr42Mn72O216
_symmetry_space_group_name_H-M   'P 1'
_cell_length_a   16.67457438
_cell_length_b   15.71420517
_cell_length_c   16.82153950
_cell_angle_alpha   89.99983220
_cell_angle_beta   89.96963580
_cell_angle_gamma   89.98384017
_symmetry_Int_Tables_number   1
_chemical_formula_structural   Ba17Sr5La8Pr42Mn72O216
_chemical_formula_sum   'Ba17 Sr5 La8 Pr42 Mn72 O216'
_cell_volume   4407.70822472
_cell_formula_units_Z   1
loop_
 _symmetry_equiv_pos_site_id
 _symmetry_equiv_pos_as_xyz
  1  'x, y, z'
loop_
 _atom_site_type_symbol
 _atom_site_label
 _atom_site_symmetry_multiplicity
 _atom_site_fract_x
 _atom_site_fract_y
 _atom_site_fract_z
 _atom_site_occupancy
  Ba  Ba0  1  0.33291171  0.12690079  0.66792786  1
  Ba  Ba1  1  0.50476840  0.62370367  0.16969199  1
  Ba  Ba2  1  0.66560170  0.87654710  -0.00195387  1
  Ba  Ba3  1  0.83392587  0.62465778  0.83444230  1
  Ba  Ba4  1  0.66641962  0.37568108  0.66931245  1
  Ba  Ba5  1  0.33343142  0.87449944  0.33327536  1
  Ba  Ba6  1  0.16591717  0.12597670  0.83382354  1
  Ba  Ba7  1  0.49860640  0.87454318  0.16587435  1
  Ba  Ba8  1  0.16710695  0.87358158  0.83521501  1
  Ba  Ba9  1  0.49927079  0.87488344  0.49968991  1
  Ba  Ba10  1  -0.00085560  0.12736161  0.66666742  1
  Ba  Ba11  1  0.33271061  0.87546000  0.66605430  1
  Ba  Ba12  1  0.16624036  0.87209825  0.49765660  1
  Ba  Ba13  1  -0.00128123  0.87558105  0.33477887  1
  Ba  Ba14  1  0.17048055  0.62242986  0.83566700  1
  Ba  Ba15  1  0.66882025  0.87470204  0.66531449  1
  Ba  Ba16  1  0.83327174  0.87569837  0.49777951  1
  Sr  Sr17  1  0.50025565  0.12609523  0.83012757  1
  Sr  Sr18  1  0.83371854  0.87383090  0.82853837  1
  Sr  Sr19  1  0.16915731  0.62391838  0.50201415  1
  Sr  Sr20  1  0.67202148  0.62622866  0.33166815  1
  Sr  Sr21  1  0.16526615  0.37450247  0.83204099  1
  La  La22  1  0.83130467  0.12544040  0.16559248  1
  La  La23  1  0.66790577  0.37553973  0.00047500  1
  La  La24  1  0.33836723  0.12671327  0.99375515  1
  La  La25  1  0.83576796  0.62475518  0.16875613  1
  La  La26  1  0.33151813  0.87510306  0.00049591  1
  La  La27  1  0.33337614  0.12461792  0.33554258  1
  La  La28  1  0.50096779  0.87684854  0.82682703  1
  La  La29  1  0.00463890  0.62643850  0.66720252  1
  Pr  Pr30  1  0.34035943  0.62787898  0.33472457  1
  Pr  Pr31  1  0.16475867  0.12004365  0.50704554  1
  Pr  Pr32  1  0.34434511  0.62215035  0.99766800  1
  Pr  Pr33  1  0.83055161  0.87559962  0.16419538  1
  Pr  Pr34  1  0.16381549  0.37465054  0.16520026  1
  Pr  Pr35  1  0.49864370  0.37685991  0.16273729  1
  Pr  Pr36  1  0.65801981  0.12189374  0.99691970  1
  Pr  Pr37  1  0.50269082  0.62735627  0.50017133  1
  Pr  Pr38  1  0.32801465  0.37582683  0.66985504  1
  Pr  Pr39  1  0.16210176  0.87337873  0.16264840  1
  Pr  Pr40  1  0.32453525  0.37338775  0.00018965  1
  Pr  Pr41  1  0.33034950  0.38082545  0.33458539  1
  Pr  Pr42  1  0.66391455  0.87357531  0.33863224  1
  Pr  Pr43  1  0.83722691  0.62520892  0.50221008  1
  Pr  Pr44  1  0.82980828  0.12313568  0.50278184  1
  Pr  Pr45  1  0.16598440  0.12673686  0.16735915  1
  Pr  Pr46  1  0.83391405  0.37339730  0.16436059  1
  Pr  Pr47  1  0.17296845  0.62130750  0.17096290  1
  Pr  Pr48  1  0.66579869  0.12438616  0.33394726  1
  Pr  Pr49  1  -0.00371802  0.12548552  0.98965859  1
  Pr  Pr50  1  0.16700370  0.37306908  0.50093438  1
  Pr  Pr51  1  0.83617101  0.37225452  0.49782104  1
  Pr  Pr52  1  0.66403082  0.12259951  0.66503119  1
  Pr  Pr53  1  -0.00663161  0.87377914  -0.00065493  1
  Pr  Pr54  1  0.49498376  0.37384624  0.82827075  1
  Pr  Pr55  1  0.49637857  0.37175456  0.49760675  1
  Pr  Pr56  1  0.00412772  0.62848971  0.33305028  1
  Pr  Pr57  1  0.49703015  0.12189385  0.50385021  1
  Pr  Pr58  1  0.83704583  0.37522058  0.82871741  1
  Pr  Pr59  1  0.33534583  0.62649598  0.66577131  1
  Pr  Pr60  1  0.67429379  0.62791728  0.66303415  1
  Pr  Pr61  1  0.00280432  0.37799614  0.66861333  1
  Pr  Pr62  1  0.66740061  0.62936457  1.00077583  1
  Pr  Pr63  1  0.00187833  0.12243172  0.33378981  1
  Pr  Pr64  1  0.50037423  0.12407830  0.16743112  1
  Pr  Pr65  1  0.00198943  0.87379117  0.66915194  1
  Pr  Pr66  1  0.66217286  0.37710372  0.33858950  1
  Pr  Pr67  1  0.82599221  0.12480995  0.83422841  1
  Pr  Pr68  1  -0.00044104  0.37640653  0.33458056  1
  Pr  Pr69  1  0.00354029  0.62473433  0.99495390  1
  Pr  Pr70  1  0.50598335  0.62457770  0.83368917  1
  Pr  Pr71  1  0.00115826  0.37746214  -0.00140506  1
  Mn  Mn72  1  -0.00086800  0.00217362  0.16349575  1
  Mn  Mn73  1  -0.00070347  0.00166034  0.49939764  1
  Mn  Mn74  1  -0.00277738  -0.00080218  0.83260111  1
  Mn  Mn75  1  -0.00083091  0.49904093  0.16691337  1
  Mn  Mn76  1  0.00029351  0.49849845  0.49984206  1
  Mn  Mn77  1  0.00061042  0.49916051  0.83411255  1
  Mn  Mn78  1  0.32930850  0.00369909  0.16557166  1
  Mn  Mn79  1  0.33209691  0.00060445  0.49851882  1
  Mn  Mn80  1  0.33481901  0.00147161  0.83535950  1
  Mn  Mn81  1  0.33341677  0.49743340  0.16745135  1
  Mn  Mn82  1  0.33488898  0.49876912  0.50178714  1
  Mn  Mn83  1  0.33532746  0.49845982  0.83314820  1
  Mn  Mn84  1  0.66703990  0.00406978  0.16736383  1
  Mn  Mn85  1  0.66674931  0.00213134  0.49770425  1
  Mn  Mn86  1  0.66595612  0.00185419  0.83201845  1
  Mn  Mn87  1  0.66993356  0.49639754  0.16894250  1
  Mn  Mn88  1  0.66691856  0.49902763  0.50014380  1
  Mn  Mn89  1  0.66693463  0.49961241  0.83538169  1
  Mn  Mn90  1  -0.00071801  0.24923811  0.16503944  1
  Mn  Mn91  1  -0.00022058  0.25250207  0.49812927  1
  Mn  Mn92  1  -0.00234651  0.25170552  0.83244634  1
  Mn  Mn93  1  -0.00054787  0.74901414  0.16495208  1
  Mn  Mn94  1  0.00052961  0.74678692  0.49948871  1
  Mn  Mn95  1  0.00037050  0.74926335  0.83455097  1
  Mn  Mn96  1  0.33302914  0.25050439  0.16714563  1
  Mn  Mn97  1  0.33256661  0.25335447  0.49797203  1
  Mn  Mn98  1  0.33321902  0.25151979  0.83442760  1
  Mn  Mn99  1  0.33030522  0.74742708  0.16655389  1
  Mn  Mn100  1  0.33351054  0.74622679  0.49869787  1
  Mn  Mn101  1  0.33665037  0.74697254  0.83450321  1
  Mn  Mn102  1  0.66652922  0.25087310  0.16776608  1
  Mn  Mn103  1  0.66665372  0.25250522  0.50004885  1
  Mn  Mn104  1  0.66566188  0.25082243  0.83592179  1
  Mn  Mn105  1  0.66927074  0.75028122  0.16789964  1
  Mn  Mn106  1  0.66816148  0.74669714  0.49667428  1
  Mn  Mn107  1  0.66742402  0.74869551  0.83204504  1
  Mn  Mn108  1  0.16349000  0.25152333  0.00253150  1
  Mn  Mn109  1  0.16594752  0.25233972  0.33444949  1
  Mn  Mn110  1  0.16592122  0.25181017  0.66563992  1
  Mn  Mn111  1  0.16679425  0.74778492  0.00418787  1
  Mn  Mn112  1  0.16739464  0.74543203  0.33284098  1
  Mn  Mn113  1  0.16739326  0.74768028  0.66665403  1
  Mn  Mn114  1  0.50020112  0.25470094  -0.00041707  1
  Mn  Mn115  1  0.49907280  0.25059609  0.33146766  1
  Mn  Mn116  1  0.50017126  0.25174072  0.66446661  1
  Mn  Mn117  1  0.49964654  0.74796776  -0.00157775  1
  Mn  Mn118  1  0.50272024  0.74859566  0.33374545  1
  Mn  Mn119  1  0.50092739  0.74704151  0.66841203  1
  Mn  Mn120  1  0.83210711  0.25117387  -0.00114854  1
  Mn  Mn121  1  0.83396897  0.25057659  0.33154143  1
  Mn  Mn122  1  0.83297270  0.25102906  0.66584664  1
  Mn  Mn123  1  0.83279188  0.75019656  0.00186711  1
  Mn  Mn124  1  0.83411437  0.74765510  0.33227190  1
  Mn  Mn125  1  0.83611136  0.74915242  0.66660904  1
  Mn  Mn126  1  0.16379438  0.00035250  0.00395657  1
  Mn  Mn127  1  0.16679320  0.00432805  0.33333115  1
  Mn  Mn128  1  0.16544452  -0.00059440  0.66721452  1
  Mn  Mn129  1  0.16662099  0.49869745  0.00280579  1
  Mn  Mn130  1  0.16612139  0.49931299  0.33487665  1
  Mn  Mn131  1  0.16779840  0.50032150  0.66695015  1
  Mn  Mn132  1  0.49722736  0.00057587  -0.00148406  1
  Mn  Mn133  1  0.50045185  0.00413717  0.33353597  1
  Mn  Mn134  1  0.50052834  0.00170469  0.66698694  1
  Mn  Mn135  1  0.50253436  0.49740986  -0.00216292  1
  Mn  Mn136  1  0.50118142  0.49711968  0.33344439  1
  Mn  Mn137  1  0.49970529  0.50010767  0.66620463  1
  Mn  Mn138  1  0.83250432  0.00131275  -0.00046325  1
  Mn  Mn139  1  0.83251068  0.00544999  0.33177074  1
  Mn  Mn140  1  0.83456561  0.00104530  0.66778072  1
  Mn  Mn141  1  0.83259508  0.49808732  0.00189640  1
  Mn  Mn142  1  0.83486225  0.49733341  0.33318237  1
  Mn  Mn143  1  0.83478353  0.49945340  0.66531550  1
  O  O144  1  0.15296588  0.12935418  0.02233134  1
  O  O145  1  0.16170410  0.13679099  0.36295817  1
  O  O146  1  0.16489016  0.12993426  0.67205647  1
  O  O147  1  0.15558260  0.62085194  0.02619852  1
  O  O148  1  0.15579915  0.61873957  0.35183235  1
  O  O149  1  0.16331919  0.62125935  0.67808193  1
  O  O150  1  0.49619545  0.13411393  0.02434363  1
  O  O151  1  0.49893278  0.13208192  0.35857319  1
  O  O152  1  0.50443833  0.12905942  0.67965605  1
  O  O153  1  0.49546526  0.61993490  0.01493347  1
  O  O154  1  0.49534264  0.61684692  0.35232223  1
  O  O155  1  0.48899323  0.62037808  0.69167223  1
  O  O156  1  0.84284817  0.12882376  0.02323833  1
  O  O157  1  0.83137031  0.13154528  0.35888127  1
  O  O158  1  0.82857939  0.12927441  0.68901350  1
  O  O159  1  0.83290185  0.62143709  0.02580730  1
  O  O160  1  0.83355582  0.61500505  0.35756528  1
  O  O161  1  0.83072350  0.62194824  0.67721686  1
  O  O162  1  0.16911840  0.37582596  0.30573744  1
  O  O163  1  0.16976336  0.37749465  0.64505192  1
  O  O164  1  0.16946284  0.37564534  0.98265419  1
  O  O165  1  0.16823462  0.86962842  0.30840166  1
  O  O166  1  0.16025842  0.87093501  0.65702875  1
  O  O167  1  0.18001676  0.87229940  0.99665578  1
  O  O168  1  0.50383998  0.37156418  0.30618538  1
  O  O169  1  0.49832837  0.37690578  0.63961311  1
  O  O170  1  0.51264145  0.37630454  0.97137676  1
  O  O171  1  0.51007871  0.88029699  0.32456443  1
  O  O172  1  0.50298889  0.87462169  0.65977823  1
  O  O173  1  0.49286771  0.86971604  0.97707929  1
  O  O174  1  0.84211166  0.37222857  0.30540179  1
  O  O175  1  0.83903477  0.37547309  0.64186891  1
  O  O176  1  0.82865393  0.37303457  0.97180554  1
  O  O177  1  0.82814044  0.88390241  0.30789275  1
  O  O178  1  0.84169281  0.87306980  0.65478778  1
  O  O179  1  0.83893833  0.87758530  0.98136031  1
  O  O180  1  -0.00345645  0.37548047  0.19353447  1
  O  O181  1  -0.00919552  0.37604788  0.52478045  1
  O  O182  1  -0.00881899  0.37560738  0.85415837  1
  O  O183  1  -0.00459144  0.87842157  0.18178158  1
  O  O184  1  -0.00198700  0.87112146  0.52090503  1
  O  O185  1  -0.00624338  0.87494448  0.85334773  1
  O  O186  1  0.33167472  0.37330759  0.19235314  1
  O  O187  1  0.33659190  0.37672434  0.52612844  1
  O  O188  1  0.33891643  0.37578363  0.85651012  1
  O  O189  1  0.31798083  0.87781415  0.17393365  1
  O  O190  1  0.33313123  0.87019440  0.50528588  1
  O  O191  1  0.34132038  0.87279005  0.85644882  1
  O  O192  1  0.66872343  0.37133701  0.19484971  1
  O  O193  1  0.66161396  0.37512474  0.51493807  1
  O  O194  1  0.66596449  0.37471709  0.85770223  1
  O  O195  1  0.67550895  0.88427225  0.19166569  1
  O  O196  1  0.66542969  0.87395231  0.50426030  1
  O  O197  1  0.65959099  0.87519126  0.84105833  1
  O  O198  1  0.00551385  0.12525358  0.13456954  1
  O  O199  1  0.00934003  0.13355871  0.47788230  1
  O  O200  1  -0.00506239  0.12689039  0.82567889  1
  O  O201  1  -0.00386462  0.62029093  0.13690266  1
  O  O202  1  -0.00463044  0.61783546  0.47544425  1
  O  O203  1  0.00130966  0.62122323  0.81739086  1
  O  O204  1  0.33641585  0.13078044  0.13948221  1
  O  O205  1  0.33239870  0.13364418  0.47988534  1
  O  O206  1  0.33582587  0.13097865  0.82872618  1
  O  O207  1  0.32915560  0.61704339  0.14136674  1
  O  O208  1  0.33836168  0.61733684  0.47800239  1
  O  O209  1  0.34241981  0.61920851  0.81165869  1
  O  O210  1  0.66600081  0.12997469  0.13997770  1
  O  O211  1  0.67344982  0.13168227  0.47667318  1
  O  O212  1  0.67138692  0.12990204  0.81094080  1
  O  O213  1  0.67702486  0.61642587  0.14479816  1
  O  O214  1  0.67193098  0.61951769  0.47992609  1
  O  O215  1  0.66214277  0.62003245  0.80892347  1
  O  O216  1  0.08507269  0.02577849  0.24609248  1
  O  O217  1  0.08288225  0.01101220  0.57929669  1
  O  O218  1  0.07426616  0.00739194  0.92502419  1
  O  O219  1  0.08380934  0.51760083  0.24522296  1
  O  O220  1  0.08201558  0.50969792  0.58116347  1
  O  O221  1  0.08141089  0.50861472  0.92354590  1
  O  O222  1  0.41764588  0.02179819  0.24523890  1
  O  O223  1  0.41991142  0.01483668  0.57902869  1
  O  O224  1  0.41645051  0.01702582  0.91840008  1
  O  O225  1  0.41514740  0.50802151  0.25266424  1
  O  O226  1  0.42337810  0.52100312  0.57786514  1
  O  O227  1  0.42614474  0.51369087  0.90720060  1
  O  O228  1  0.75008323  0.03183747  0.25106235  1
  O  O229  1  0.74754344  0.02150198  0.58429074  1
  O  O230  1  0.74630579  0.02464899  0.92209518  1
  O  O231  1  0.76145539  0.51067135  0.24357811  1
  O  O232  1  0.75360628  0.51634365  0.58139086  1
  O  O233  1  0.74602962  0.51554464  0.92846457  1
  O  O234  1  0.24726407  0.22741633  0.25337294  1
  O  O235  1  0.24455114  0.24263528  0.57431339  1
  O  O236  1  0.25181232  0.23971756  0.92862586  1
  O  O237  1  0.25416373  0.71943396  0.25426418  1
  O  O238  1  0.25497702  0.72979502  0.58637404  1
  O  O239  1  0.26095389  0.73229353  0.93418500  1
  O  O240  1  0.58193301  0.22574423  0.25140799  1
  O  O241  1  0.58505272  0.22867140  0.58170813  1
  O  O242  1  0.58548911  0.23002629  0.92294226  1
  O  O243  1  0.59384456  0.74308931  0.25499271  1
  O  O244  1  0.58598988  0.72384463  0.58558546  1
  O  O245  1  0.58472994  0.72796956  0.91664815  1
  O  O246  1  0.91629439  0.22463181  0.24416163  1
  O  O247  1  0.90719437  0.23499823  0.56851243  1
  O  O248  1  0.90613125  0.23443989  0.90985068  1
  O  O249  1  0.92314189  0.72663637  0.25259691  1
  O  O250  1  0.91972635  0.72547123  0.58379956  1
  O  O251  1  0.92305810  0.73519466  0.92878852  1
  O  O252  1  0.07946497  0.47381410  0.08527249  1
  O  O253  1  0.08116365  0.47346339  0.41556331  1
  O  O254  1  0.08041851  0.48232137  0.74598096  1
  O  O255  1  0.07903872  0.97447365  0.08279330  1
  O  O256  1  0.08185832  0.99757754  0.41320054  1
  O  O257  1  0.07808237  0.98606288  0.74838054  1
  O  O258  1  0.41451362  0.47431434  0.07512355  1
  O  O259  1  0.41445585  0.47392204  0.41564522  1
  O  O260  1  0.41174668  0.47403679  0.74179969  1
  O  O261  1  0.40330850  0.98914667  0.07684709  1
  O  O262  1  0.41676968  1.00285637  0.41462290  1
  O  O263  1  0.42325677  0.98971755  0.75644392  1
  O  O264  1  0.75061378  0.47087513  0.08486307  1
  O  O265  1  0.75144800  0.47172643  0.41074133  1
  O  O266  1  0.75466716  0.48324060  0.75633978  1
  O  O267  1  0.75702322  0.99102964  0.09064899  1
  O  O268  1  0.74584012  0.99186954  0.40969413  1
  O  O269  1  0.75543692  0.99472450  0.75636095  1
  O  O270  1  0.24563930  0.27017594  0.08833412  1
  O  O271  1  0.25019970  0.27923703  0.41362840  1
  O  O272  1  0.25047150  0.26949047  0.74780879  1
  O  O273  1  0.23350642  0.75381981  0.10024650  1
  O  O274  1  0.25059455  0.74558999  0.41411546  1
  O  O275  1  0.25446068  0.75053118  0.75263162  1
  O  O276  1  0.58117490  0.27466898  0.08589214  1
  O  O277  1  0.58107450  0.27123222  0.41475464  1
  O  O278  1  0.57790029  0.26600881  0.75651721  1
  O  O279  1  0.58379700  0.75318939  0.08123478  1
  O  O280  1  0.58403335  0.75248873  0.41785000  1
  O  O281  1  0.58032026  0.75383210  0.75285140  1
  O  O282  1  0.91691569  0.27533770  0.07571607  1
  O  O283  1  0.92088268  0.27149062  0.41008599  1
  O  O284  1  0.91921366  0.27371928  0.74332674  1
  O  O285  1  0.91106363  0.76934230  0.08932507  1
  O  O286  1  0.91251077  0.75098866  0.41840506  1
  O  O287  1  0.92026198  0.76023412  0.74561990  1
  O  O288  1  0.24420129  0.47694019  0.09113791  1
  O  O289  1  0.24883910  0.47725487  0.42248666  1
  O  O290  1  0.25088050  0.48140876  0.75388632  1
  O  O291  1  0.23417065  0.99827676  0.09886395  1
  O  O292  1  0.25010181  1.00178546  0.41508542  1
  O  O293  1  0.25192489  0.99511729  0.75604456  1
  O  O294  1  0.58335246  0.47691867  0.08776231  1
  O  O295  1  0.57753682  0.47845313  0.42067370  1
  O  O296  1  0.57095169  0.48423984  0.75910028  1
  O  O297  1  0.57890112  0.99814410  0.08282400  1
  O  O298  1  0.58871545  0.99826910  0.41084660  1
  O  O299  1  0.58540290  0.99732735  0.74753894  1
  O  O300  1  0.91338488  0.47404978  0.08689923  1
  O  O301  1  0.91487498  0.47367579  0.41729301  1
  O  O302  1  0.91796803  0.48024361  0.74712446  1
  O  O303  1  0.91637689  0.98191841  0.08021772  1
  O  O304  1  0.91612393  1.00276165  0.41316878  1
  O  O305  1  0.92051830  0.98375567  0.74613798  1
  O  O306  1  0.08325827  0.27678082  0.08745445  1
  O  O307  1  0.08395291  0.28202861  0.41547753  1
  O  O308  1  0.08147937  0.27095108  0.74787830  1
  O  O309  1  0.07449731  0.77123783  0.07798872  1
  O  O310  1  0.07895976  0.75270028  0.41057674  1
  O  O311  1  0.07768981  0.75847135  0.74295265  1
  O  O312  1  0.41728628  0.27998310  0.07924959  1
  O  O313  1  0.41342118  0.27608461  0.40932740  1
  O  O314  1  0.41561164  0.27302459  0.74364283  1
  O  O315  1  0.40275812  0.75951576  0.07398446  1
  O  O316  1  0.41793581  0.74730871  0.41705435  1
  O  O317  1  0.42218816  0.76273538  0.75476169  1
  O  O318  1  0.75415313  0.27100846  0.08562553  1
  O  O319  1  0.75137599  0.27508625  0.41795575  1
  O  O320  1  0.75806709  0.26656290  0.76262263  1
  O  O321  1  0.75273399  0.76598921  0.08628082  1
  O  O322  1  0.74401334  0.76268140  0.40503166  1
  O  O323  1  0.75031567  0.75493763  0.74828092  1
  O  O324  1  0.25169445  0.03118684  0.25270651  1
  O  O325  1  0.24721488  0.01233652  0.57812389  1
  O  O326  1  0.25468655  0.01310554  0.93241684  1
  O  O327  1  0.25270989  0.51994858  0.25806805  1
  O  O328  1  0.26035580  0.51480197  0.59118784  1
  O  O329  1  0.26279920  0.51238905  0.93030138  1
  O  O330  1  0.58351882  0.02726655  0.24971483  1
  O  O331  1  0.58396677  0.02282232  0.57972067  1
  O  O332  1  0.58277290  0.01823884  0.91522866  1
  O  O333  1  0.59315983  0.50653064  0.25704698  1
  O  O334  1  0.58503003  0.52676035  0.59139708  1
  O  O335  1  0.58910419  0.52385899  0.92328326  1
  O  O336  1  0.91673637  0.02816890  0.24600966  1
  O  O337  1  0.91074486  0.01943501  0.57636595  1
  O  O338  1  0.91040291  0.02065021  0.91397675  1
  O  O339  1  0.92254319  0.52205168  0.25406213  1
  O  O340  1  0.91877384  0.52053778  0.58168851  1
  O  O341  1  0.92111044  0.51146143  0.92665804  1
  O  O342  1  0.08316880  0.23050513  0.25408005  1
  O  O343  1  0.08443573  0.24704020  0.57715605  1
  O  O344  1  0.07168009  0.24418481  0.92669033  1
  O  O345  1  0.08873542  0.72733269  0.23992301  1
  O  O346  1  0.08032387  0.72974527  0.58193557  1
  O  O347  1  0.08480611  0.73837149  0.92165754  1
  O  O348  1  0.41926575  0.22844166  0.24724141  1
  O  O349  1  0.42457299  0.23875394  0.57059018  1
  O  O350  1  0.41879412  0.24205445  0.91948740  1
  O  O351  1  0.41478522  0.73737877  0.25003171  1
  O  O352  1  0.41925670  0.72611398  0.58354175  1
  O  O353  1  0.42153727  0.72438198  0.91353429  1
  O  O354  1  0.74921689  0.22926073  0.25219681  1
  O  O355  1  0.74767011  0.23123948  0.58679405  1
  O  O356  1  0.74527154  0.22528031  0.92514343  1
  O  O357  1  0.76212472  0.73400286  0.24260844  1
  O  O358  1  0.75319761  0.73032366  0.57795322  1
  O  O359  1  0.74700058  0.73420304  0.92353748  1
