# generated using pymatgen
data_Ba17Sr5La8Pr42Mn72O216
_symmetry_space_group_name_H-M   'P 1'
_cell_length_a   16.67944014
_cell_length_b   15.70534425
_cell_length_c   16.82317275
_cell_angle_alpha   89.99655444
_cell_angle_beta   89.99394264
_cell_angle_gamma   89.97879107
_symmetry_Int_Tables_number   1
_chemical_formula_structural   Ba17Sr5La8Pr42Mn72O216
_chemical_formula_sum   'Ba17 Sr5 La8 Pr42 Mn72 O216'
_cell_volume   4406.93658392
_cell_formula_units_Z   1
loop_
 _symmetry_equiv_pos_site_id
 _symmetry_equiv_pos_as_xyz
  1  'x, y, z'
loop_
 _atom_site_type_symbol
 _atom_site_label
 _atom_site_symmetry_multiplicity
 _atom_site_fract_x
 _atom_site_fract_y
 _atom_site_fract_z
 _atom_site_occupancy
  Ba  Ba0  1  0.49635767  0.62468945  0.16717934  1
  Ba  Ba1  1  0.00260683  0.37523738  0.33207409  1
  Ba  Ba2  1  0.83320428  0.62584190  0.16847506  1
  Ba  Ba3  1  0.16830301  0.12781282  0.83478000  1
  Ba  Ba4  1  -0.00028595  0.12350535  0.99847851  1
  Ba  Ba5  1  -0.00233770  0.62494706  0.33469648  1
  Ba  Ba6  1  0.66656845  0.87513628  0.33771670  1
  Ba  Ba7  1  0.16877796  0.37434444  0.83465881  1
  Ba  Ba8  1  0.00351831  0.87326940  -0.00231700  1
  Ba  Ba9  1  0.66405567  0.62568888  0.33254554  1
  Ba  Ba10  1  0.49929258  0.37477900  0.16486376  1
  Ba  Ba11  1  0.83420328  0.37515417  0.83579029  1
  Ba  Ba12  1  0.83429867  0.12225311  0.16760158  1
  Ba  Ba13  1  0.83547951  0.37514141  0.16667620  1
  Ba  Ba14  1  0.50210393  0.87698014  0.50008190  1
  Ba  Ba15  1  0.66711362  0.37412013  0.33296097  1
  Ba  Ba16  1  0.16714617  0.87551555  0.49927644  1
  Sr  Sr17  1  0.33376840  0.12723872  0.99543897  1
  Sr  Sr18  1  0.00213678  0.37230788  0.00124162  1
  Sr  Sr19  1  0.84340865  0.87671695  0.83197829  1
  Sr  Sr20  1  0.83225346  0.12341058  0.84143048  1
  Sr  Sr21  1  0.82640753  0.62764700  0.83779657  1
  La  La22  1  0.17188400  0.88157021  0.83000787  1
  La  La23  1  0.49737456  0.12551951  0.50021966  1
  La  La24  1  0.50547885  0.87423495  0.16597083  1
  La  La25  1  0.33700609  0.87792792  -0.00327780  1
  La  La26  1  0.17268730  0.37656195  0.49647917  1
  La  La27  1  0.66710591  0.12720383  0.99898718  1
  La  La28  1  0.32757388  0.62400936  0.66104846  1
  La  La29  1  0.50925835  0.87506675  0.82896326  1
  Pr  Pr30  1  0.67521599  0.87462415  0.00197656  1
  Pr  Pr31  1  0.67196196  0.37339894  0.00904353  1
  Pr  Pr32  1  0.16591223  0.37688519  0.15932364  1
  Pr  Pr33  1  -0.00085066  0.87447017  0.33298797  1
  Pr  Pr34  1  0.66092171  0.61989651  1.00121569  1
  Pr  Pr35  1  0.67817791  0.87635889  0.67175923  1
  Pr  Pr36  1  0.00601025  0.37550372  0.67329783  1
  Pr  Pr37  1  -0.00879515  0.12627603  0.67054954  1
  Pr  Pr38  1  0.66273902  0.62496778  0.66616264  1
  Pr  Pr39  1  0.50257536  0.37425483  0.49348860  1
  Pr  Pr40  1  0.49904627  0.12432091  0.83708262  1
  Pr  Pr41  1  0.82646357  0.12708249  0.50156567  1
  Pr  Pr42  1  0.49545305  0.62680815  0.83694082  1
  Pr  Pr43  1  0.34237764  0.37408893  0.66766288  1
  Pr  Pr44  1  0.82481201  0.62114938  0.49846664  1
  Pr  Pr45  1  0.33241842  0.37088816  0.00136288  1
  Pr  Pr46  1  -0.01026468  0.62167280  0.99875108  1
  Pr  Pr47  1  0.66586236  0.12646239  0.67100887  1
  Pr  Pr48  1  0.34462159  0.87671710  0.66956498  1
  Pr  Pr49  1  0.83664914  0.87318193  0.50106215  1
  Pr  Pr50  1  0.15677373  0.62323471  0.83540697  1
  Pr  Pr51  1  0.15290867  0.62625208  0.50191189  1
  Pr  Pr52  1  0.83956984  0.37575948  0.49560606  1
  Pr  Pr53  1  0.32738032  0.12087348  0.32976401  1
  Pr  Pr54  1  0.83486943  0.86978225  0.16737213  1
  Pr  Pr55  1  0.01017904  0.87478452  0.67422320  1
  Pr  Pr56  1  0.16163289  0.12538956  0.16343422  1
  Pr  Pr57  1  0.50285121  0.37334084  0.83391035  1
  Pr  Pr58  1  0.49526038  0.12545513  0.16701646  1
  Pr  Pr59  1  0.65886412  0.12303452  0.33078463  1
  Pr  Pr60  1  -0.00122662  0.12366908  0.32892988  1
  Pr  Pr61  1  -0.01540034  0.62423890  0.66454023  1
  Pr  Pr62  1  0.15763737  0.12607463  0.50340461  1
  Pr  Pr63  1  0.17093707  0.87379473  0.16406443  1
  Pr  Pr64  1  0.33009859  0.62037837  0.99701645  1
  Pr  Pr65  1  0.33734937  0.87399724  0.33515178  1
  Pr  Pr66  1  0.32837091  0.62868300  0.32971850  1
  Pr  Pr67  1  0.49705466  0.62493887  0.49780721  1
  Pr  Pr68  1  0.32720855  0.12682370  0.66342287  1
  Pr  Pr69  1  0.33666687  0.37577140  0.33095262  1
  Pr  Pr70  1  0.16074832  0.62560158  0.16691013  1
  Pr  Pr71  1  0.66948837  0.37372663  0.66933777  1
  Mn  Mn72  1  0.00316062  -0.00175695  0.16835007  1
  Mn  Mn73  1  -0.00265689  0.00072045  0.50082827  1
  Mn  Mn74  1  0.00133717  0.00003568  0.83250860  1
  Mn  Mn75  1  0.00112087  0.50016210  0.16516232  1
  Mn  Mn76  1  -0.00164346  0.50038656  0.50405166  1
  Mn  Mn77  1  -0.00162003  0.50037280  0.83252166  1
  Mn  Mn78  1  0.33279371  0.00022198  0.16444655  1
  Mn  Mn79  1  0.33160151  0.00127689  0.49840303  1
  Mn  Mn80  1  0.33728331  0.00051961  0.83263631  1
  Mn  Mn81  1  0.33113494  0.50047899  0.16527804  1
  Mn  Mn82  1  0.33247784  0.50064308  0.49799515  1
  Mn  Mn83  1  0.33472424  0.49980046  0.82942765  1
  Mn  Mn84  1  0.66618721  -0.00033942  0.16652083  1
  Mn  Mn85  1  0.66738444  0.00309562  0.50329331  1
  Mn  Mn86  1  0.66841120  -0.00000303  0.83478794  1
  Mn  Mn87  1  0.66568278  0.49989946  0.16688655  1
  Mn  Mn88  1  0.66478104  0.49973488  0.50387621  1
  Mn  Mn89  1  0.66440371  0.49944135  0.83316184  1
  Mn  Mn90  1  0.00141588  0.24910965  0.16670700  1
  Mn  Mn91  1  -0.00062253  0.24822228  0.50210014  1
  Mn  Mn92  1  -0.00059019  0.25150595  0.83438827  1
  Mn  Mn93  1  0.00326710  0.75220181  0.16689760  1
  Mn  Mn94  1  -0.00349347  0.75192313  0.50344063  1
  Mn  Mn95  1  0.00213861  0.74805818  0.83250103  1
  Mn  Mn96  1  0.33073940  0.24639889  0.16517086  1
  Mn  Mn97  1  0.33146999  0.25008100  0.49788101  1
  Mn  Mn98  1  0.33696852  0.25218642  0.83148024  1
  Mn  Mn99  1  0.33254412  0.75204155  0.16417805  1
  Mn  Mn100  1  0.33188438  0.74920683  0.49929281  1
  Mn  Mn101  1  0.33397027  0.74741118  0.83086737  1
  Mn  Mn102  1  0.66564355  0.24634466  0.16638623  1
  Mn  Mn103  1  0.66609666  0.24825121  0.50289876  1
  Mn  Mn104  1  0.66622834  0.25109120  0.83504176  1
  Mn  Mn105  1  0.66613868  0.75223738  0.16647761  1
  Mn  Mn106  1  0.66538727  0.74914797  0.50466632  1
  Mn  Mn107  1  0.66730217  0.74964361  0.83351373  1
  Mn  Mn108  1  0.16800995  0.24993103  0.00017512  1
  Mn  Mn109  1  0.16845798  0.24965853  0.33329831  1
  Mn  Mn110  1  0.16577145  0.25013076  0.66393463  1
  Mn  Mn111  1  0.16964969  0.74767482  -0.00184024  1
  Mn  Mn112  1  0.16647285  0.75035782  0.33191154  1
  Mn  Mn113  1  0.16901154  0.74830114  0.66834835  1
  Mn  Mn114  1  0.49957435  0.24844458  -0.00135217  1
  Mn  Mn115  1  0.49625891  0.24875302  0.33385865  1
  Mn  Mn116  1  0.50078800  0.24953859  0.66618871  1
  Mn  Mn117  1  0.49914296  0.75168273  -0.00238628  1
  Mn  Mn118  1  0.49707430  0.75023062  0.33367062  1
  Mn  Mn119  1  0.50187920  0.74812325  0.66771288  1
  Mn  Mn120  1  0.83410481  0.24861057  0.00014335  1
  Mn  Mn121  1  0.83402053  0.24883389  0.33684085  1
  Mn  Mn122  1  0.83258639  0.24934776  0.66728013  1
  Mn  Mn123  1  0.83245152  0.75035999  -0.00125376  1
  Mn  Mn124  1  0.83311785  0.75300075  0.33509859  1
  Mn  Mn125  1  0.83210979  0.75022721  0.66857311  1
  Mn  Mn126  1  0.17076226  -0.00188849  -0.00175239  1
  Mn  Mn127  1  0.16624757  0.00040461  0.33200857  1
  Mn  Mn128  1  0.16824994  0.00168619  0.66464102  1
  Mn  Mn129  1  0.16701503  0.50218278  0.00006441  1
  Mn  Mn130  1  0.16898594  0.49986249  0.33183123  1
  Mn  Mn131  1  0.16647648  0.50092022  0.66541954  1
  Mn  Mn132  1  0.50049896  -0.00125546  -0.00136164  1
  Mn  Mn133  1  0.49646957  0.00268169  0.33287164  1
  Mn  Mn134  1  0.50184680  0.00278708  0.66761934  1
  Mn  Mn135  1  0.49853126  0.50046422  -0.00297497  1
  Mn  Mn136  1  0.49690797  0.49947879  0.33391916  1
  Mn  Mn137  1  0.50079589  0.49920070  0.66671937  1
  Mn  Mn138  1  0.83371850  -0.00297049  0.00015989  1
  Mn  Mn139  1  0.83374845  -0.00034091  0.33780982  1
  Mn  Mn140  1  0.83425192  0.00286002  0.66852768  1
  Mn  Mn141  1  0.83176078  0.50156214  -0.00120186  1
  Mn  Mn142  1  0.83303826  0.49826031  0.33409813  1
  Mn  Mn143  1  0.82996020  0.49920088  0.66758458  1
  O  O144  1  0.17549910  0.12511436  0.01771409  1
  O  O145  1  0.17141803  0.12588759  0.36105844  1
  O  O146  1  0.17814038  0.12694017  0.67767182  1
  O  O147  1  0.18249739  0.62646583  0.02448708  1
  O  O148  1  0.17591822  0.62334994  0.35874088  1
  O  O149  1  0.17779117  0.62581208  0.69106936  1
  O  O150  1  0.50290811  0.12039163  0.02320133  1
  O  O151  1  0.49266307  0.12698805  0.35469260  1
  O  O152  1  0.50280684  0.12494790  0.69511439  1
  O  O153  1  0.50433569  0.62852108  0.01065617  1
  O  O154  1  0.48692174  0.62152498  0.35227630  1
  O  O155  1  0.50451764  0.61981503  0.69555460  1
  O  O156  1  0.82902960  0.12014928  0.00750667  1
  O  O157  1  0.84476590  0.12249052  0.35853257  1
  O  O158  1  0.83575536  0.12565949  0.69185223  1
  O  O159  1  0.83717252  0.62865955  0.00930082  1
  O  O160  1  0.83256695  0.62790851  0.35373683  1
  O  O161  1  0.83074297  0.62434408  0.68751117  1
  O  O162  1  0.17496978  0.37404718  0.30568490  1
  O  O163  1  0.15670101  0.37439799  0.64013320  1
  O  O164  1  0.16833082  0.37785949  0.99234312  1
  O  O165  1  0.16409556  0.87673664  0.30832846  1
  O  O166  1  0.16094509  0.87398432  0.65661834  1
  O  O167  1  0.17340548  0.86744278  0.97232914  1
  O  O168  1  0.49345226  0.37151135  0.32404282  1
  O  O169  1  0.49862348  0.37579373  0.63582615  1
  O  O170  1  0.49576315  0.37616055  0.97698469  1
  O  O171  1  0.49011861  0.88134315  0.31303298  1
  O  O172  1  0.49604123  0.87881142  0.65428293  1
  O  O173  1  0.49313114  0.87517239  0.97131791  1
  O  O174  1  0.83338670  0.37190161  0.32963510  1
  O  O175  1  0.82443002  0.37235096  0.64047840  1
  O  O176  1  0.82198119  0.37630840  0.99368142  1
  O  O177  1  0.83249002  0.87845803  0.31473532  1
  O  O178  1  0.82859967  0.87868317  0.64408505  1
  O  O179  1  0.82498023  0.87236372  0.98087648  1
  O  O180  1  0.01269134  0.37359561  0.17238463  1
  O  O181  1  -0.00585437  0.37485255  0.52913868  1
  O  O182  1  0.00148293  0.37917214  0.84523294  1
  O  O183  1  0.01582381  0.87620913  0.18855098  1
  O  O184  1  -0.00829819  0.87724862  0.53118667  1
  O  O185  1  0.00787712  0.87155592  0.83611971  1
  O  O186  1  0.32516579  0.36978950  0.18864890  1
  O  O187  1  0.33035505  0.37536823  0.52598345  1
  O  O188  1  0.34217557  0.37643032  0.85590288  1
  O  O189  1  0.32816960  0.87771895  0.19288268  1
  O  O190  1  0.33258341  0.87312954  0.52634575  1
  O  O191  1  0.33225468  0.86888406  0.85121675  1
  O  O192  1  0.66676890  0.37125700  0.16957872  1
  O  O193  1  0.65482530  0.37257448  0.52608156  1
  O  O194  1  0.65706558  0.37599563  0.86206108  1
  O  O195  1  0.66433609  0.87794728  0.17974509  1
  O  O196  1  0.66951144  0.87803733  0.52703597  1
  O  O197  1  0.65917779  0.87595389  0.85637718  1
  O  O198  1  0.00506014  0.12231388  0.15756267  1
  O  O199  1  0.00445605  0.12316420  0.47315423  1
  O  O200  1  -0.00452544  0.12406816  0.81578467  1
  O  O201  1  0.00680857  0.62866104  0.14522537  1
  O  O202  1  0.00193499  0.62606692  0.49250848  1
  O  O203  1  0.00302765  0.62545177  0.80929354  1
  O  O204  1  0.33647911  0.12210960  0.14206804  1
  O  O205  1  0.33198738  0.12975655  0.47417105  1
  O  O206  1  0.34227930  0.13037904  0.80724562  1
  O  O207  1  0.32823579  0.63084093  0.14010575  1
  O  O208  1  0.34125821  0.62315949  0.47494789  1
  O  O209  1  0.34118697  0.62390985  0.80361537  1
  O  O210  1  0.65765029  0.12028110  0.14469716  1
  O  O211  1  0.67477783  0.12638608  0.47609214  1
  O  O212  1  0.66235525  0.12434809  0.81288020  1
  O  O213  1  0.66341008  0.63039650  0.14749306  1
  O  O214  1  0.67585214  0.62476152  0.49169422  1
  O  O215  1  0.66016820  0.62378192  0.80860510  1
  O  O216  1  0.08574409  0.02414729  0.25245883  1
  O  O217  1  0.07690747  0.02158653  0.58545864  1
  O  O218  1  0.08772758  0.00299422  0.91343420  1
  O  O219  1  0.08854489  0.51455750  0.24827289  1
  O  O220  1  0.07661939  0.52245578  0.59237490  1
  O  O221  1  0.08082224  0.52506220  0.92408097  1
  O  O222  1  0.41142954  0.02272441  0.24951938  1
  O  O223  1  0.41416101  0.02363144  0.58988602  1
  O  O224  1  0.41872579  0.01900810  0.91681024  1
  O  O225  1  0.40428773  0.50947563  0.25781639  1
  O  O226  1  0.41333283  0.52058237  0.58803382  1
  O  O227  1  0.41443450  0.52275327  0.91552474  1
  O  O228  1  0.74347554  0.01916580  0.26481024  1
  O  O229  1  0.74429586  0.02432686  0.59483786  1
  O  O230  1  0.73895437  0.01229654  0.92411634  1
  O  O231  1  0.74860105  0.50538903  0.25276782  1
  O  O232  1  0.74306026  0.51639469  0.59143354  1
  O  O233  1  0.74102482  0.51862108  0.91874741  1
  O  O234  1  0.24818307  0.22140356  0.24630654  1
  O  O235  1  0.24232372  0.23367722  0.57173663  1
  O  O236  1  0.25931910  0.24543652  0.91905252  1
  O  O237  1  0.24335248  0.73264934  0.23962421  1
  O  O238  1  0.24102223  0.72539220  0.57386102  1
  O  O239  1  0.24519081  0.72419096  0.90412387  1
  O  O240  1  0.57859146  0.22629662  0.24833938  1
  O  O241  1  0.58167466  0.22337958  0.58513245  1
  O  O242  1  0.58104415  0.22725832  0.91443353  1
  O  O243  1  0.57470252  0.74927854  0.24432644  1
  O  O244  1  0.57620916  0.72439560  0.58069251  1
  O  O245  1  0.57262452  0.73616289  0.90251698  1
  O  O246  1  0.92110074  0.23677670  0.25545646  1
  O  O247  1  0.91175899  0.22541718  0.58065804  1
  O  O248  1  0.91219232  0.24351462  0.91449554  1
  O  O249  1  0.91898819  0.75463285  0.24944599  1
  O  O250  1  0.90021301  0.73015885  0.57535973  1
  O  O251  1  0.91527001  0.73683359  0.91242105  1
  O  O252  1  0.09225488  0.49430045  0.08801785  1
  O  O253  1  0.09423815  0.48733715  0.42768445  1
  O  O254  1  0.08747084  0.49067104  0.75194195  1
  O  O255  1  0.09532370  0.98790395  0.09033936  1
  O  O256  1  0.07845859  0.98507029  0.41246162  1
  O  O257  1  0.08898426  0.98899110  0.74999342  1
  O  O258  1  0.41109490  0.48881662  0.07534272  1
  O  O259  1  0.41737750  0.47643332  0.42269120  1
  O  O260  1  0.42403305  0.47416062  0.75025387  1
  O  O261  1  0.42133255  0.97763788  0.08679683  1
  O  O262  1  0.41260215  0.98909323  0.41447559  1
  O  O263  1  0.42410811  0.98178019  0.75473541  1
  O  O264  1  0.74556629  0.49739132  0.07653515  1
  O  O265  1  0.75346731  0.48513458  0.43186596  1
  O  O266  1  0.74427062  0.48270369  0.74807130  1
  O  O267  1  0.75426244  0.97903396  0.08738561  1
  O  O268  1  0.75998341  0.98777558  0.43295339  1
  O  O269  1  0.75383537  0.98214195  0.75538014  1
  O  O270  1  0.25066024  0.26996494  0.08427766  1
  O  O271  1  0.25599082  0.27424365  0.41020250  1
  O  O272  1  0.26098845  0.26657744  0.73667450  1
  O  O273  1  0.25932101  0.77498529  0.07379295  1
  O  O274  1  0.25736521  0.76511292  0.40233942  1
  O  O275  1  0.26570618  0.76838272  0.73527988  1
  O  O276  1  0.58440207  0.26051544  0.07407790  1
  O  O277  1  0.57977004  0.25650739  0.42512635  1
  O  O278  1  0.58571358  0.27284788  0.75096629  1
  O  O279  1  0.58878791  0.77054443  0.07300264  1
  O  O280  1  0.58282210  0.75124220  0.42061857  1
  O  O281  1  0.59549876  0.76946050  0.74007039  1
  O  O282  1  0.92123080  0.25766088  0.08102207  1
  O  O283  1  0.91738920  0.26296575  0.42366499  1
  O  O284  1  0.92312414  0.26602725  0.73723105  1
  O  O285  1  0.91867352  0.76530365  0.08708299  1
  O  O286  1  0.91904742  0.77467706  0.41478790  1
  O  O287  1  0.92941823  0.76264302  0.73243062  1
  O  O288  1  0.25360634  0.47915776  0.07937512  1
  O  O289  1  0.25722826  0.47679485  0.40755958  1
  O  O290  1  0.26139730  0.48172204  0.73305138  1
  O  O291  1  0.25525453  0.97466639  0.08096095  1
  O  O292  1  0.25508846  0.98422771  0.40334329  1
  O  O293  1  0.26110042  0.98376661  0.74162025  1
  O  O294  1  0.58695680  0.48913205  0.07049801  1
  O  O295  1  0.57600662  0.49248280  0.42583938  1
  O  O296  1  0.58457498  0.47214638  0.74579398  1
  O  O297  1  0.58446609  0.97589554  0.07407699  1
  O  O298  1  0.58420214  1.00204638  0.41470138  1
  O  O299  1  0.59149406  0.98183421  0.74408284  1
  O  O300  1  0.92448554  0.49510996  0.07483063  1
  O  O301  1  0.91552024  0.48947285  0.42420782  1
  O  O302  1  0.92323328  0.48614614  0.73633164  1
  O  O303  1  0.91682814  0.97959401  0.09270050  1
  O  O304  1  0.91842366  0.97314841  0.41881395  1
  O  O305  1  0.92742374  0.98510050  0.73714687  1
  O  O306  1  0.09343730  0.25610984  0.09325978  1
  O  O307  1  0.09306465  0.26563508  0.42944117  1
  O  O308  1  0.08314230  0.25993243  0.74412917  1
  O  O309  1  0.09805912  0.76268004  0.09100999  1
  O  O310  1  0.08445621  0.76085981  0.41872579  1
  O  O311  1  0.10203572  0.76058243  0.76312007  1
  O  O312  1  0.41127396  0.26260351  0.07585979  1
  O  O313  1  0.41572502  0.27077083  0.42225690  1
  O  O314  1  0.42199530  0.27499894  0.74874391  1
  O  O315  1  0.42145092  0.77544249  0.08923147  1
  O  O316  1  0.41505089  0.76550038  0.41782044  1
  O  O317  1  0.42818640  0.76672457  0.75950309  1
  O  O318  1  0.74594168  0.25243465  0.07955671  1
  O  O319  1  0.75658252  0.26373544  0.43172294  1
  O  O320  1  0.74413831  0.26395925  0.74634691  1
  O  O321  1  0.75273441  0.77085353  0.08749714  1
  O  O322  1  0.75815357  0.76252183  0.43384133  1
  O  O323  1  0.75795085  0.76978988  0.75860505  1
  O  O324  1  0.24653559  0.02269711  0.24283817  1
  O  O325  1  0.24703117  0.02145728  0.57602151  1
  O  O326  1  0.25530533  0.00502216  0.91393472  1
  O  O327  1  0.24673494  0.52511219  0.24559455  1
  O  O328  1  0.24088998  0.52072409  0.56921030  1
  O  O329  1  0.24691008  0.52077059  0.91125347  1
  O  O330  1  0.57414820  0.02134517  0.24635117  1
  O  O331  1  0.58070596  0.02742756  0.58212433  1
  O  O332  1  0.57834162  0.01937425  0.91093648  1
  O  O333  1  0.57717454  0.50557567  0.25152159  1
  O  O334  1  0.57907413  0.52529752  0.58405567  1
  O  O335  1  0.57701675  0.52128165  0.90872765  1
  O  O336  1  0.92466378  0.00543492  0.25990805  1
  O  O337  1  0.91014960  0.02679751  0.57810890  1
  O  O338  1  0.91329249  0.00289928  0.91019445  1
  O  O339  1  0.92003856  0.50478206  0.24647602  1
  O  O340  1  0.90667498  0.51996754  0.58069508  1
  O  O341  1  0.91364009  0.51690664  0.91317872  1
  O  O342  1  0.08426054  0.22774857  0.25688793  1
  O  O343  1  0.07570044  0.22442272  0.58736701  1
  O  O344  1  0.08508903  0.24481671  0.92145086  1
  O  O345  1  0.08590810  0.73333243  0.25048188  1
  O  O346  1  0.07477087  0.73252901  0.59865165  1
  O  O347  1  0.08138792  0.72118174  0.92709570  1
  O  O348  1  0.41069835  0.22804730  0.24839212  1
  O  O349  1  0.40931994  0.22847972  0.58438699  1
  O  O350  1  0.42397161  0.23357742  0.90986230  1
  O  O351  1  0.40285438  0.73904576  0.25644142  1
  O  O352  1  0.41143066  0.72962648  0.59178939  1
  O  O353  1  0.40638974  0.72830171  0.92237841  1
  O  O354  1  0.74395214  0.23033254  0.26239120  1
  O  O355  1  0.74493602  0.22640315  0.58911044  1
  O  O356  1  0.74317960  0.23616512  0.91916029  1
  O  O357  1  0.74991184  0.74745540  0.25152545  1
  O  O358  1  0.73730040  0.73751549  0.59935898  1
  O  O359  1  0.73396464  0.73214260  0.92588260  1
