# generated using pymatgen
data_Ba17Sr5La8Pr42Mn72O216
_symmetry_space_group_name_H-M   'P 1'
_cell_length_a   16.66802507
_cell_length_b   15.70629254
_cell_length_c   16.81617613
_cell_angle_alpha   90.00486109
_cell_angle_beta   90.01805084
_cell_angle_gamma   89.99396739
_symmetry_Int_Tables_number   1
_chemical_formula_structural   Ba17Sr5La8Pr42Mn72O216
_chemical_formula_sum   'Ba17 Sr5 La8 Pr42 Mn72 O216'
_cell_volume   4402.35488515
_cell_formula_units_Z   1
loop_
 _symmetry_equiv_pos_site_id
 _symmetry_equiv_pos_as_xyz
  1  'x, y, z'
loop_
 _atom_site_type_symbol
 _atom_site_label
 _atom_site_symmetry_multiplicity
 _atom_site_fract_x
 _atom_site_fract_y
 _atom_site_fract_z
 _atom_site_occupancy
  Ba  Ba0  1  0.83303233  0.87487666  0.83232240  1
  Ba  Ba1  1  0.00178454  0.12753072  0.99740484  1
  Ba  Ba2  1  0.83485936  0.12524037  0.83334015  1
  Ba  Ba3  1  0.49757453  0.12459537  0.83542747  1
  Ba  Ba4  1  0.66818448  0.62893807  0.33522887  1
  Ba  Ba5  1  0.66335644  0.37593529  0.00403294  1
  Ba  Ba6  1  0.00071138  0.87464466  0.66864726  1
  Ba  Ba7  1  0.66466446  0.87324124  0.66959519  1
  Ba  Ba8  1  0.83488048  0.62347767  0.17049369  1
  Ba  Ba9  1  0.00115792  0.87605235  0.00122678  1
  Ba  Ba10  1  0.83488406  0.62400064  0.83455369  1
  Ba  Ba11  1  0.33468254  0.12494117  0.33111411  1
  Ba  Ba12  1  0.16646200  0.87339879  0.83201744  1
  Ba  Ba13  1  0.33358045  0.37371381  0.33391292  1
  Ba  Ba14  1  0.82929822  0.37448842  0.16940341  1
  Ba  Ba15  1  0.33376275  0.12573790  0.66572759  1
  Ba  Ba16  1  0.33147672  0.37546240  0.66426983  1
  Sr  Sr17  1  0.66435865  0.87253920  0.33785477  1
  Sr  Sr18  1  0.16939337  0.87628909  0.15972940  1
  Sr  Sr19  1  0.33397629  0.12281423  0.99637076  1
  Sr  Sr20  1  0.49709266  0.37430446  0.49931284  1
  Sr  Sr21  1  0.82715922  0.37302943  0.49666319  1
  La  La22  1  0.66195417  0.37644318  0.67017041  1
  La  La23  1  0.50211696  0.62380090  0.83668453  1
  La  La24  1  0.33083776  0.87524421  0.33115674  1
  La  La25  1  0.16560678  0.37168709  0.49314204  1
  La  La26  1  0.49490631  0.37211591  0.83307137  1
  La  La27  1  0.83584037  0.62326178  0.50318006  1
  La  La28  1  0.16736247  0.37312125  0.16286803  1
  La  La29  1  0.00190657  0.62267132  0.33071340  1
  Pr  Pr30  1  0.00412046  0.12080486  0.66747039  1
  Pr  Pr31  1  0.50082739  0.87447963  0.16777479  1
  Pr  Pr32  1  -0.00671515  0.37694471  0.66618775  1
  Pr  Pr33  1  0.83975203  0.12616520  0.16602497  1
  Pr  Pr34  1  0.16880283  0.12312595  0.83381101  1
  Pr  Pr35  1  0.49502660  0.87722082  0.49808615  1
  Pr  Pr36  1  0.33376038  0.62646038  0.66269784  1
  Pr  Pr37  1  0.33191452  0.87559713  0.66923310  1
  Pr  Pr38  1  0.67043106  0.12662439  0.99677626  1
  Pr  Pr39  1  0.16347923  0.37333837  0.82773770  1
  Pr  Pr40  1  0.49601262  0.87656610  0.83139129  1
  Pr  Pr41  1  0.50314091  0.62376150  0.17305566  1
  Pr  Pr42  1  0.33347699  0.87719090  0.00073127  1
  Pr  Pr43  1  0.82680998  0.87670334  0.49854966  1
  Pr  Pr44  1  0.00363369  0.12914166  0.32958700  1
  Pr  Pr45  1  0.16747053  0.62564917  0.83046487  1
  Pr  Pr46  1  0.00260651  0.62983790  0.66519376  1
  Pr  Pr47  1  -0.00324775  0.87561951  0.33485995  1
  Pr  Pr48  1  0.49720906  0.37473039  0.16820421  1
  Pr  Pr49  1  0.67506735  0.62609265  0.66477032  1
  Pr  Pr50  1  -0.00791285  0.37518442  0.00124937  1
  Pr  Pr51  1  0.67109780  0.12418118  0.33323807  1
  Pr  Pr52  1  0.50339235  0.12546635  0.16847665  1
  Pr  Pr53  1  0.00415543  0.62364044  0.99811167  1
  Pr  Pr54  1  0.82862191  0.87346588  0.16343106  1
  Pr  Pr55  1  0.66739499  0.87623172  -0.00036812  1
  Pr  Pr56  1  0.66375438  0.38028555  0.33808354  1
  Pr  Pr57  1  0.67370381  0.62396442  1.00321540  1
  Pr  Pr58  1  0.17109083  0.62271919  0.49899800  1
  Pr  Pr59  1  0.33456727  0.62891617  0.99874361  1
  Pr  Pr60  1  0.16760830  0.12001860  0.16487659  1
  Pr  Pr61  1  0.17106248  0.12578279  0.50015159  1
  Pr  Pr62  1  0.50256795  0.12855220  0.50620221  1
  Pr  Pr63  1  0.82596013  0.37141828  0.83418559  1
  Pr  Pr64  1  0.67104304  0.12341532  0.66501180  1
  Pr  Pr65  1  0.83875693  0.12604796  0.50616801  1
  Pr  Pr66  1  0.33423413  0.37336730  0.00092491  1
  Pr  Pr67  1  0.50458664  0.62299261  0.50473931  1
  Pr  Pr68  1  0.16719791  0.62872182  0.16664612  1
  Pr  Pr69  1  -0.00850279  0.37570519  0.33724284  1
  Pr  Pr70  1  0.16541559  0.87689501  0.49552564  1
  Pr  Pr71  1  0.33601424  0.62293836  0.32875432  1
  Mn  Mn72  1  0.00013766  0.00121762  0.16901144  1
  Mn  Mn73  1  0.00056438  -0.00041847  0.49794220  1
  Mn  Mn74  1  0.00103192  0.00075945  0.83281471  1
  Mn  Mn75  1  0.00314091  0.49843743  0.16574340  1
  Mn  Mn76  1  0.00015096  0.50001273  0.49965453  1
  Mn  Mn77  1  0.00152753  0.49852521  0.83309992  1
  Mn  Mn78  1  0.33577319  -0.00001757  0.16408183  1
  Mn  Mn79  1  0.33302008  -0.00165919  0.49856637  1
  Mn  Mn80  1  0.33249154  -0.00098510  0.83327053  1
  Mn  Mn81  1  0.33284072  0.50050263  0.16478566  1
  Mn  Mn82  1  0.33335392  0.50113907  0.49785608  1
  Mn  Mn83  1  0.33202807  0.50199411  0.83411960  1
  Mn  Mn84  1  0.66641689  0.00016002  0.16764401  1
  Mn  Mn85  1  0.66644441  -0.00037037  0.49860081  1
  Mn  Mn86  1  0.66427812  0.00051260  0.83450711  1
  Mn  Mn87  1  0.66422108  0.50047205  0.17037870  1
  Mn  Mn88  1  0.66617647  0.49956498  0.50309090  1
  Mn  Mn89  1  0.66454417  0.50021613  0.83537106  1
  Mn  Mn90  1  0.00198733  0.25148894  0.16626882  1
  Mn  Mn91  1  0.00017134  0.24905019  0.49953204  1
  Mn  Mn92  1  0.00131829  0.25437964  0.83180768  1
  Mn  Mn93  1  0.00183044  0.75059812  0.16822607  1
  Mn  Mn94  1  0.00051513  0.75103605  0.49736272  1
  Mn  Mn95  1  0.00153706  0.74736099  0.83275744  1
  Mn  Mn96  1  0.33395659  0.24956267  0.16354634  1
  Mn  Mn97  1  0.33381794  0.24987853  0.49811203  1
  Mn  Mn98  1  0.33107441  0.25104949  0.83509185  1
  Mn  Mn99  1  0.33512258  0.74946836  0.16551148  1
  Mn  Mn100  1  0.33279246  0.74997119  0.49786698  1
  Mn  Mn101  1  0.33391729  0.74779521  0.83142932  1
  Mn  Mn102  1  0.66498579  0.24605030  0.16889299  1
  Mn  Mn103  1  0.66633333  0.25035724  0.49927911  1
  Mn  Mn104  1  0.66463613  0.25066440  0.83363003  1
  Mn  Mn105  1  0.66570835  0.75372312  0.16860543  1
  Mn  Mn106  1  0.66593042  0.75047701  0.50163180  1
  Mn  Mn107  1  0.66356807  0.74706362  0.83579816  1
  Mn  Mn108  1  0.16920319  0.25233912  -0.00380102  1
  Mn  Mn109  1  0.16511424  0.24905841  0.32969303  1
  Mn  Mn110  1  0.16368704  0.25177156  0.66356024  1
  Mn  Mn111  1  0.16847879  0.74820683  0.00006645  1
  Mn  Mn112  1  0.16604869  0.75105503  0.33089305  1
  Mn  Mn113  1  0.16789183  0.74738861  0.66250245  1
  Mn  Mn114  1  0.49847199  0.24992224  0.00269269  1
  Mn  Mn115  1  0.50283336  0.24762817  0.33525716  1
  Mn  Mn116  1  0.50093538  0.25087538  0.66645939  1
  Mn  Mn117  1  0.50164366  0.74963667  0.00204842  1
  Mn  Mn118  1  0.49803118  0.75187736  0.33560153  1
  Mn  Mn119  1  0.49840011  0.74789046  0.66866254  1
  Mn  Mn120  1  0.83223429  0.25088879  0.00080897  1
  Mn  Mn121  1  0.83201024  0.24816071  0.33624189  1
  Mn  Mn122  1  0.83361082  0.25223645  0.66500098  1
  Mn  Mn123  1  0.83422114  0.74987785  0.00246344  1
  Mn  Mn124  1  0.83515659  0.75336023  0.33458029  1
  Mn  Mn125  1  0.83448692  0.74815354  0.66637120  1
  Mn  Mn126  1  0.16895982  0.00105837  -0.00033069  1
  Mn  Mn127  1  0.16524195  -0.00208007  0.33048772  1
  Mn  Mn128  1  0.16681204  0.00056493  0.66406055  1
  Mn  Mn129  1  0.16900199  0.49967133  -0.00318883  1
  Mn  Mn130  1  0.16511641  0.50076804  0.33049243  1
  Mn  Mn131  1  0.16472953  0.49969430  0.66345404  1
  Mn  Mn132  1  0.50088779  -0.00274113  0.00177268  1
  Mn  Mn133  1  0.50129430  -0.00021773  0.33443993  1
  Mn  Mn134  1  0.50102626  -0.00031067  0.66602236  1
  Mn  Mn135  1  0.49810332  0.50333304  0.00330950  1
  Mn  Mn136  1  0.49993916  0.50052432  0.33613094  1
  Mn  Mn137  1  0.49897169  0.50069596  0.66981571  1
  Mn  Mn138  1  0.83254136  -0.00131139  0.00153489  1
  Mn  Mn139  1  0.83362851  0.00166927  0.33349239  1
  Mn  Mn140  1  0.83368851  0.00195938  0.66575743  1
  Mn  Mn141  1  0.83389304  0.50116146  0.00156375  1
  Mn  Mn142  1  0.83309590  0.49904651  0.33824411  1
  Mn  Mn143  1  0.83426737  0.49714271  0.66702924  1
  O  O144  1  0.17070412  0.13029409  0.02166868  1
  O  O145  1  0.15925942  0.11985209  0.35678301  1
  O  O146  1  0.16126823  0.13164188  0.68728501  1
  O  O147  1  0.16570922  0.62150265  0.02432188  1
  O  O148  1  0.16548102  0.62762858  0.35634296  1
  O  O149  1  0.16750069  0.62159005  0.68530008  1
  O  O150  1  0.49856409  0.11959154  0.02529949  1
  O  O151  1  0.50732545  0.12209635  0.36062022  1
  O  O152  1  0.50612107  0.12502077  0.67648723  1
  O  O153  1  0.49050506  0.62833324  0.03218010  1
  O  O154  1  0.49204877  0.63102310  0.35855372  1
  O  O155  1  0.48944588  0.62491014  0.69322305  1
  O  O156  1  0.82641972  0.12222579  0.01938835  1
  O  O157  1  0.83052519  0.12409706  0.36315718  1
  O  O158  1  0.83005429  0.12984729  0.67588260  1
  O  O159  1  0.83368011  0.62558063  0.01245568  1
  O  O160  1  0.84174721  0.62508306  0.35773840  1
  O  O161  1  0.83295536  0.61928830  0.67687635  1
  O  O162  1  0.16042055  0.37858978  0.30887385  1
  O  O163  1  0.15824615  0.37730713  0.63716274  1
  O  O164  1  0.17839028  0.37902403  0.96960379  1
  O  O165  1  0.16341891  0.87347909  0.30854346  1
  O  O166  1  0.17229570  0.86928706  0.64026322  1
  O  O167  1  0.17689972  0.87079901  0.98990949  1
  O  O168  1  0.50914397  0.37136197  0.31256120  1
  O  O169  1  0.50763749  0.37809027  0.64914961  1
  O  O170  1  0.49582438  0.38327128  0.97717185  1
  O  O171  1  0.49684173  0.87537657  0.31209403  1
  O  O172  1  0.49411638  0.87115719  0.64186227  1
  O  O173  1  0.50756524  0.86980528  0.97308425  1
  O  O174  1  0.83562676  0.37186987  0.32510708  1
  O  O175  1  0.83821615  0.37465654  0.64357010  1
  O  O176  1  0.83645306  0.37908201  0.98178605  1
  O  O177  1  0.84168016  0.88166558  0.30678084  1
  O  O178  1  0.83384112  0.87616307  0.64415910  1
  O  O179  1  0.82771827  0.87342400  0.99188130  1
  O  O180  1  0.01022927  0.37423963  0.19213424  1
  O  O181  1  0.00937474  0.37172629  0.52340044  1
  O  O182  1  0.01446125  0.37833268  0.85810741  1
  O  O183  1  -0.00162014  0.87976126  0.19048886  1
  O  O184  1  0.01079430  0.87514349  0.51510365  1
  O  O185  1  0.00155360  0.86883088  0.84053555  1
  O  O186  1  0.33175969  0.37718491  0.17985062  1
  O  O187  1  0.32718509  0.37718899  0.50691766  1
  O  O188  1  0.32789557  0.37987749  0.85665903  1
  O  O189  1  0.33515498  0.87177841  0.18914782  1
  O  O190  1  0.33309548  0.87199427  0.52586927  1
  O  O191  1  0.33670599  0.86980307  0.85510742  1
  O  O192  1  0.65713139  0.36836921  0.19302230  1
  O  O193  1  0.66652398  0.37557238  0.52544398  1
  O  O194  1  0.66612637  0.37620720  0.84632598  1
  O  O195  1  0.66926175  0.87903200  0.19011893  1
  O  O196  1  0.67008608  0.87560062  0.51398539  1
  O  O197  1  0.65670425  0.87008733  0.85482147  1
  O  O198  1  -0.00216902  0.12714856  0.15390512  1
  O  O199  1  -0.00363967  0.12291647  0.47167225  1
  O  O200  1  0.00651047  0.13399929  0.81216081  1
  O  O201  1  0.00655796  0.62046223  0.14313921  1
  O  O202  1  -0.00387494  0.62905849  0.47255214  1
  O  O203  1  0.00616303  0.61898358  0.80998547  1
  O  O204  1  0.33726133  0.12697889  0.14645416  1
  O  O205  1  0.33108623  0.12163512  0.48862576  1
  O  O206  1  0.32727653  0.12405945  0.82210094  1
  O  O207  1  0.33774233  0.62446686  0.14259613  1
  O  O208  1  0.33016896  0.62878686  0.47163039  1
  O  O209  1  0.33561301  0.62511505  0.80596454  1
  O  O210  1  0.65608611  0.12026830  0.13904923  1
  O  O211  1  0.66330653  0.12382231  0.47595961  1
  O  O212  1  0.66444316  0.12946078  0.81142173  1
  O  O213  1  0.65561591  0.63200680  0.14841901  1
  O  O214  1  0.66304059  0.62410018  0.49104346  1
  O  O215  1  0.65869518  0.62224663  0.80994328  1
  O  O216  1  0.08170989  0.02266402  0.25192044  1
  O  O217  1  0.08364233  0.02385432  0.57855828  1
  O  O218  1  0.08919149  0.01470459  0.91312265  1
  O  O219  1  0.09110580  0.52364020  0.24238854  1
  O  O220  1  0.08740336  0.52531986  0.57537695  1
  O  O221  1  0.09205574  0.52283130  0.90978202  1
  O  O222  1  0.42545834  0.01266578  0.24244519  1
  O  O223  1  0.42702201  0.01050468  0.57384245  1
  O  O224  1  0.41615284  0.00083145  0.91964970  1
  O  O225  1  0.41795369  0.51923378  0.24771612  1
  O  O226  1  0.41944827  0.52215553  0.58404353  1
  O  O227  1  0.41868443  0.52502584  0.92022885  1
  O  O228  1  0.75435326  0.02725541  0.24451656  1
  O  O229  1  0.75437670  0.02021623  0.57603380  1
  O  O230  1  0.74477117  0.01036918  0.92263582  1
  O  O231  1  0.74860299  0.50362442  0.25711413  1
  O  O232  1  0.75177563  0.51764358  0.58227773  1
  O  O233  1  0.74807496  0.51259951  0.91857201  1
  O  O234  1  0.24615152  0.23609473  0.23945709  1
  O  O235  1  0.24372359  0.23948266  0.57833012  1
  O  O236  1  0.25030231  0.23170043  0.91686770  1
  O  O237  1  0.25100424  0.72749414  0.25090570  1
  O  O238  1  0.25052500  0.72430061  0.57848618  1
  O  O239  1  0.25090009  0.72472879  0.91201711  1
  O  O240  1  0.58894988  0.22083021  0.25637410  1
  O  O241  1  0.59113080  0.22969227  0.58486599  1
  O  O242  1  0.58559930  0.23490416  0.92708378  1
  O  O243  1  0.57502489  0.74060467  0.24645833  1
  O  O244  1  0.58365872  0.72564243  0.59351543  1
  O  O245  1  0.58342226  0.72007995  0.92455168  1
  O  O246  1  0.91802489  0.23267063  0.25770556  1
  O  O247  1  0.92405269  0.22900533  0.58671436  1
  O  O248  1  0.92052391  0.25282290  0.91584418  1
  O  O249  1  0.92783992  0.73772913  0.26290591  1
  O  O250  1  0.91949787  0.72852008  0.58014152  1
  O  O251  1  0.92519179  0.73405235  0.92489494  1
  O  O252  1  0.08437425  0.47540382  0.07249432  1
  O  O253  1  0.07517326  0.48266207  0.40773766  1
  O  O254  1  0.07500658  0.48022443  0.74056875  1
  O  O255  1  0.09007526  0.99505953  0.08961704  1
  O  O256  1  0.08290827  0.97810313  0.41397365  1
  O  O257  1  0.08588765  0.99895217  0.74675237  1
  O  O258  1  0.41209408  0.47827525  0.08059977  1
  O  O259  1  0.41682992  0.49333390  0.41620992  1
  O  O260  1  0.41826890  0.48241054  0.75570504  1
  O  O261  1  0.41943511  0.97160082  0.08198586  1
  O  O262  1  0.41144625  0.97653081  0.41376288  1
  O  O263  1  0.41378992  0.97851807  0.74775407  1
  O  O264  1  0.74219360  0.49861734  0.08576276  1
  O  O265  1  0.74734358  0.48503884  0.41800424  1
  O  O266  1  0.74789943  0.48012986  0.74468522  1
  O  O267  1  0.74513555  0.98015280  0.08400635  1
  O  O268  1  0.74923837  0.98126777  0.41334754  1
  O  O269  1  0.74524919  0.99649335  0.74462455  1
  O  O270  1  0.24956254  0.27308935  0.07899770  1
  O  O271  1  0.23946630  0.25847539  0.41754893  1
  O  O272  1  0.23950539  0.26592872  0.75572373  1
  O  O273  1  0.25927131  0.75871701  0.07646562  1
  O  O274  1  0.24582642  0.77380090  0.41468036  1
  O  O275  1  0.25674598  0.75971760  0.73782370  1
  O  O276  1  0.57168366  0.26250653  0.09795703  1
  O  O277  1  0.58387667  0.26987631  0.41936767  1
  O  O278  1  0.58129479  0.27080626  0.75231863  1
  O  O279  1  0.58345964  0.77551524  0.08349959  1
  O  O280  1  0.57476513  0.76498646  0.42564819  1
  O  O281  1  0.57061629  0.76078944  0.76252983  1
  O  O282  1  0.91913415  0.26405784  0.08420735  1
  O  O283  1  0.91502638  0.26540528  0.42234700  1
  O  O284  1  0.91449965  0.27661128  0.75450418  1
  O  O285  1  0.91203236  0.76468375  0.09470674  1
  O  O286  1  0.91459348  0.77854926  0.42127748  1
  O  O287  1  0.91909811  0.74973137  0.74615670  1
  O  O288  1  0.24701178  0.48199169  0.08321487  1
  O  O289  1  0.23682176  0.48992927  0.42063140  1
  O  O290  1  0.23710561  0.48717660  0.75536048  1
  O  O291  1  0.25792510  0.98620954  0.07761830  1
  O  O292  1  0.24779079  0.97626535  0.41301743  1
  O  O293  1  0.25423835  0.98442207  0.74181474  1
  O  O294  1  0.57031893  0.48834802  0.09387662  1
  O  O295  1  0.58349010  0.48456267  0.42128675  1
  O  O296  1  0.57762839  0.48287903  0.75607135  1
  O  O297  1  0.58056797  0.97451014  0.08932577  1
  O  O298  1  0.57655617  0.98008683  0.42429464  1
  O  O299  1  0.57412253  0.98330529  0.75750190  1
  O  O300  1  0.92092172  0.48420245  0.08391419  1
  O  O301  1  0.91405533  0.48120913  0.42468086  1
  O  O302  1  0.91230278  0.47312730  0.75858634  1
  O  O303  1  0.90712320  0.99010375  0.09675264  1
  O  O304  1  0.91440167  0.97631537  0.42076108  1
  O  O305  1  0.91873756  1.00016803  0.74504430  1
  O  O306  1  0.08575782  0.27521506  0.07496398  1
  O  O307  1  0.07553617  0.26854515  0.41013197  1
  O  O308  1  0.07573524  0.27535986  0.74013079  1
  O  O309  1  0.08845330  0.75661784  0.08636549  1
  O  O310  1  0.08127570  0.77030425  0.41135206  1
  O  O311  1  0.08749364  0.74874144  0.74719155  1
  O  O312  1  0.41474299  0.27403533  0.08178005  1
  O  O313  1  0.42041593  0.25574646  0.41657709  1
  O  O314  1  0.41591142  0.26575675  0.75580022  1
  O  O315  1  0.42048889  0.77678196  0.08250308  1
  O  O316  1  0.41225780  0.77677175  0.41564765  1
  O  O317  1  0.41403382  0.77334664  0.74734274  1
  O  O318  1  0.74490312  0.25197358  0.08519076  1
  O  O319  1  0.74026483  0.26606046  0.40860628  1
  O  O320  1  0.74699330  0.27120999  0.74509052  1
  O  O321  1  0.74588632  0.76729981  0.08421567  1
  O  O322  1  0.75479105  0.76737822  0.41765845  1
  O  O323  1  0.74380435  0.75153381  0.74846921  1
  O  O324  1  0.24514143  0.01336093  0.24285986  1
  O  O325  1  0.24319179  0.01053094  0.57346099  1
  O  O326  1  0.24834609  0.01388047  0.91259528  1
  O  O327  1  0.25281735  0.52423235  0.24956944  1
  O  O328  1  0.25341445  0.52273585  0.58431823  1
  O  O329  1  0.25408035  0.52940610  0.91972685  1
  O  O330  1  0.58868228  0.02131009  0.25347185  1
  O  O331  1  0.59020663  0.01977349  0.58617476  1
  O  O332  1  0.58863016  0.01504214  0.92879476  1
  O  O333  1  0.57951723  0.51586149  0.25224724  1
  O  O334  1  0.58529363  0.52272961  0.59260223  1
  O  O335  1  0.58288541  0.52640037  0.92757918  1
  O  O336  1  0.91899257  0.02701337  0.25785858  1
  O  O337  1  0.91878334  0.02129060  0.58109207  1
  O  O338  1  0.91718089  0.00586729  0.91927680  1
  O  O339  1  0.92576758  0.50831357  0.26349968  1
  O  O340  1  0.92538785  0.51720737  0.59118292  1
  O  O341  1  0.93067680  0.51087030  0.92442759  1
  O  O342  1  0.08773498  0.22656750  0.24459541  1
  O  O343  1  0.08470361  0.22347295  0.57564986  1
  O  O344  1  0.09496691  0.23838215  0.90383776  1
  O  O345  1  0.08664383  0.72651025  0.24829202  1
  O  O346  1  0.08542301  0.72531579  0.57748535  1
  O  O347  1  0.08632352  0.72556020  0.91657036  1
  O  O348  1  0.42760537  0.23790712  0.24177098  1
  O  O349  1  0.42473528  0.24006929  0.57866457  1
  O  O350  1  0.41413483  0.24808281  0.92015340  1
  O  O351  1  0.41459276  0.72913265  0.25180651  1
  O  O352  1  0.41894017  0.72563606  0.58119218  1
  O  O353  1  0.41817710  0.72935727  0.91837973  1
  O  O354  1  0.75201020  0.22235494  0.24709368  1
  O  O355  1  0.75233121  0.23009759  0.57545271  1
  O  O356  1  0.74839412  0.24057191  0.91508747  1
  O  O357  1  0.75485056  0.74690075  0.24962760  1
  O  O358  1  0.75361709  0.73120495  0.58078551  1
  O  O359  1  0.74262456  0.73722146  0.92362516  1
